# generated using pymatgen
data_Ca14Si19
_symmetry_space_group_name_H-M   'P 1'
_cell_length_a   23.40669827
_cell_length_b   23.40669827
_cell_length_c   23.40669827
_cell_angle_alpha   21.31500697
_cell_angle_beta   21.31500697
_cell_angle_gamma   21.31500697
_symmetry_Int_Tables_number   1
_chemical_formula_structural   Ca14Si19
_chemical_formula_sum   'Ca28 Si38'
_cell_volume   1484.31774454
_cell_formula_units_Z   2
loop_
 _symmetry_equiv_pos_site_id
 _symmetry_equiv_pos_as_xyz
  1  'x, y, z'
loop_
 _atom_site_type_symbol
 _atom_site_label
 _atom_site_symmetry_multiplicity
 _atom_site_fract_x
 _atom_site_fract_y
 _atom_site_fract_z
 _atom_site_occupancy
  Ca  Ca0  1  0.80911746  1.05695838  -0.42730207  1.0
  Ca  Ca1  1  1.30911746  0.07269793  -0.44304162  1.0
  Ca  Ca2  1  0.92730207  0.44304162  -0.30911746  1.0
  Ca  Ca3  1  0.42730207  0.19088254  -0.05695838  1.0
  Ca  Ca4  1  0.94304162  0.42730207  -0.80911746  1.0
  Ca  Ca5  1  0.44304162  0.69088254  -0.07269793  1.0
  Ca  Ca6  1  0.19088254  0.94304162  -0.57269793  1.0
  Ca  Ca7  1  0.69088254  0.92730207  -0.55695838  1.0
  Ca  Ca8  1  0.57269793  0.80911746  0.05695838  1.0
  Ca  Ca9  1  1.07269793  -0.44304162  0.30911746  1.0
  Ca  Ca10  1  0.55695838  0.30911746  0.07269793  1.0
  Ca  Ca11  1  1.05695838  0.57269793  -0.19088254  1.0
  Ca  Ca12  1  0.50114141  0.75000000  -0.00114141  1.0
  Ca  Ca13  1  1.00114141  -0.50114141  0.25000000  1.0
  Ca  Ca14  1  0.25000000  1.00114141  -0.50114141  1.0
  Ca  Ca15  1  0.75000000  0.99885859  -0.49885859  1.0
  Ca  Ca16  1  0.49885859  0.25000000  0.00114141  1.0
  Ca  Ca17  1  0.99885859  0.50114141  -0.25000000  1.0
  Ca  Ca18  1  0.94535776  -0.05464224  -0.05464224  1.0
  Ca  Ca19  1  0.44535776  0.44535776  0.44535776  1.0
  Ca  Ca20  1  0.55464224  0.55464224  -0.44535776  1.0
  Ca  Ca21  1  1.05464224  0.05464224  0.05464224  1.0
  Ca  Ca22  1  0.88994731  -0.11005269  -0.11005269  1.0
  Ca  Ca23  1  0.38994731  0.38994731  0.38994731  1.0
  Ca  Ca24  1  0.61005269  0.61005269  -0.38994731  1.0
  Ca  Ca25  1  1.11005269  0.11005269  0.11005269  1.0
  Ca  Ca26  1  1.00000000  0.00000000  -0.00000000  1.0
  Ca  Ca27  1  0.50000000  0.50000000  0.50000000  1.0
  Si  Si28  1  0.78432904  0.16860698  -0.38053539  1.0
  Si  Si29  1  1.28432904  0.11946461  -0.33139302  1.0
  Si  Si30  1  0.88053539  0.33139302  -0.28432904  1.0
  Si  Si31  1  1.38053539  0.21567096  -0.16860698  1.0
  Si  Si32  1  0.83139302  0.38053539  0.21567096  1.0
  Si  Si33  1  0.33139302  0.71567096  -0.11946461  1.0
  Si  Si34  1  1.21567096  -0.16860698  0.38053539  1.0
  Si  Si35  1  0.71567096  0.88053539  -0.66860698  1.0
  Si  Si36  1  0.61946461  -0.21567096  0.16860698  1.0
  Si  Si37  1  1.11946461  -0.33139302  0.28432904  1.0
  Si  Si38  1  0.66860698  0.28432904  0.11946461  1.0
  Si  Si39  1  1.16860698  -0.38053539  -0.21567096  1.0
  Si  Si40  1  0.55932413  0.00827827  0.27261182  1.0
  Si  Si41  1  1.05932413  0.77261182  -0.49172173  1.0
  Si  Si42  1  0.22738818  0.49172173  -0.05932413  1.0
  Si  Si43  1  0.72738818  0.44067587  -0.00827827  1.0
  Si  Si44  1  0.99172173  0.72738818  -0.55932413  1.0
  Si  Si45  1  0.49172173  0.94067587  -0.77261182  1.0
  Si  Si46  1  0.44067587  0.99172173  -0.27261182  1.0
  Si  Si47  1  0.94067587  0.22738818  -0.50827827  1.0
  Si  Si48  1  1.27261182  -0.44067587  0.00827827  1.0
  Si  Si49  1  0.77261182  0.50827827  0.05932413  1.0
  Si  Si50  1  0.50827827  1.05932413  -0.22738818  1.0
  Si  Si51  1  1.00827827  0.27261182  -0.44067587  1.0
  Si  Si52  1  1.16618434  -0.25000000  0.33381566  1.0
  Si  Si53  1  0.66618434  -0.16618434  0.25000000  1.0
  Si  Si54  1  0.25000000  0.66618434  -0.16618434  1.0
  Si  Si55  1  0.75000000  0.33381566  0.16618434  1.0
  Si  Si56  1  0.83381566  0.25000000  -0.33381566  1.0
  Si  Si57  1  1.33381566  0.16618434  -0.25000000  1.0
  Si  Si58  1  0.84697655  -0.15302345  -0.15302345  1.0
  Si  Si59  1  0.34697655  0.34697655  0.34697655  1.0
  Si  Si60  1  0.65302345  0.65302345  -0.34697655  1.0
  Si  Si61  1  1.15302345  0.15302345  0.15302345  1.0
  Si  Si62  1  0.78104158  0.78104158  -0.21895842  1.0
  Si  Si63  1  0.28104158  0.28104158  0.28104158  1.0
  Si  Si64  1  0.71895842  0.71895842  -0.28104158  1.0
  Si  Si65  1  0.21895842  0.21895842  0.21895842  1.0
