# generated using pymatgen
data_Na2SnSe3
_symmetry_space_group_name_H-M   'P 1'
_cell_length_a   7.40718614
_cell_length_b   16.56854602
_cell_length_c   6.27122867
_cell_angle_alpha   90.00000000
_cell_angle_beta   112.78477292
_cell_angle_gamma   90.00000000
_symmetry_Int_Tables_number   1
_chemical_formula_structural   Na2SnSe3
_chemical_formula_sum   'Na8 Sn4 Se12'
_cell_volume   709.58634446
_cell_formula_units_Z   4
loop_
 _symmetry_equiv_pos_site_id
 _symmetry_equiv_pos_as_xyz
  1  'x, y, z'
loop_
 _atom_site_type_symbol
 _atom_site_label
 _atom_site_symmetry_multiplicity
 _atom_site_fract_x
 _atom_site_fract_y
 _atom_site_fract_z
 _atom_site_occupancy
  Na  Na0  1  0.03683993  0.16836849  0.00773703  1.0
  Na  Na1  1  0.03683993  0.33163151  0.50773703  1.0
  Na  Na2  1  0.96316007  0.66836849  0.49226297  1.0
  Na  Na3  1  0.96316007  0.83163151  0.99226297  1.0
  Na  Na4  1  0.27127574  0.52566950  0.17234235  1.0
  Na  Na5  1  0.27127574  0.97433050  0.67234235  1.0
  Na  Na6  1  0.72872426  0.02566950  0.32765765  1.0
  Na  Na7  1  0.72872426  0.47433050  0.82765765  1.0
  Sn  Sn8  1  0.44193116  0.33185735  0.12636462  1.0
  Sn  Sn9  1  0.44193116  0.16814265  0.62636462  1.0
  Sn  Sn10  1  0.55806884  0.83185735  0.37363538  1.0
  Sn  Sn11  1  0.55806884  0.66814265  0.87363538  1.0
  Se  Se12  1  0.49661046  0.18030852  0.23923924  1.0
  Se  Se13  1  0.49661046  0.31969148  0.73923924  1.0
  Se  Se14  1  0.50338954  0.68030852  0.26076076  1.0
  Se  Se15  1  0.50338954  0.81969148  0.76076076  1.0
  Se  Se16  1  0.08248567  0.35680901  0.03398808  1.0
  Se  Se17  1  0.08248567  0.14319099  0.53398808  1.0
  Se  Se18  1  0.91751433  0.85680901  0.46601192  1.0
  Se  Se19  1  0.91751433  0.64319099  0.96601192  1.0
  Se  Se20  1  0.68564543  0.44122175  0.32276535  1.0
  Se  Se21  1  0.68564543  0.05877825  0.82276535  1.0
  Se  Se22  1  0.31435457  0.94122175  0.17723465  1.0
  Se  Se23  1  0.31435457  0.55877825  0.67723465  1.0
