# generated using pymatgen
data_KTlCl2
_symmetry_space_group_name_H-M   'P 1'
_cell_length_a   9.12231866
_cell_length_b   9.12231866
_cell_length_c   9.12231866
_cell_angle_alpha   120.04691561
_cell_angle_beta   120.04691561
_cell_angle_gamma   89.91875897
_symmetry_Int_Tables_number   1
_chemical_formula_structural   KTlCl2
_chemical_formula_sum   'K4 Tl4 Cl8'
_cell_volume   536.40419466
_cell_formula_units_Z   4
loop_
 _symmetry_equiv_pos_site_id
 _symmetry_equiv_pos_as_xyz
  1  'x, y, z'
loop_
 _atom_site_type_symbol
 _atom_site_label
 _atom_site_symmetry_multiplicity
 _atom_site_fract_x
 _atom_site_fract_y
 _atom_site_fract_z
 _atom_site_occupancy
  K  K0  1  0.37500000  0.62500000  0.75000000  1.0
  K  K1  1  0.87500000  0.62500000  1.25000000  1.0
  K  K2  1  0.37500000  1.12500000  0.75000000  1.0
  K  K3  1  0.37500000  0.62500000  0.25000000  1.0
  Tl  Tl4  1  0.87500000  0.12500000  0.75000000  1.0
  Tl  Tl5  1  0.37500000  0.12500000  0.25000000  1.0
  Tl  Tl6  1  0.87500000  0.62500000  0.75000000  1.0
  Tl  Tl7  1  0.87500000  1.12500000  1.25000000  1.0
  Cl  Cl8  1  1.12801764  0.87209258  1.74408056  1.0
  Cl  Cl9  1  0.62198797  0.86606291  1.24408056  1.0
  Cl  Cl10  1  1.12790742  0.87198797  1.25592506  1.0
  Cl  Cl11  1  1.13393709  1.37801764  1.75592506  1.0
  Cl  Cl12  1  0.12801203  0.38393709  0.25591944  1.0
  Cl  Cl13  1  0.62198236  0.37790742  0.75591944  1.0
  Cl  Cl14  1  0.61606291  0.87198236  0.74407494  1.0
  Cl  Cl15  1  0.62209258  0.37801203  0.24407494  1.0
