# generated using pymatgen
data_RbTe
_symmetry_space_group_name_H-M   'P 1'
_cell_length_a   5.95707941
_cell_length_b   11.27171931
_cell_length_c   4.94481407
_cell_angle_alpha   90.00000000
_cell_angle_beta   90.00000000
_cell_angle_gamma   90.00000000
_symmetry_Int_Tables_number   1
_chemical_formula_structural   RbTe
_chemical_formula_sum   'Rb4 Te4'
_cell_volume   332.02709105
_cell_formula_units_Z   4
loop_
 _symmetry_equiv_pos_site_id
 _symmetry_equiv_pos_as_xyz
  1  'x, y, z'
loop_
 _atom_site_type_symbol
 _atom_site_label
 _atom_site_symmetry_multiplicity
 _atom_site_fract_x
 _atom_site_fract_y
 _atom_site_fract_z
 _atom_site_occupancy
  Rb  Rb0  1  0.32177500  0.86644883  0.50000000  1.0
  Rb  Rb1  1  0.82177500  0.63355117  0.50000000  1.0
  Rb  Rb2  1  0.67822500  0.13355117  0.50000000  1.0
  Rb  Rb3  1  0.17822500  0.36644883  0.50000000  1.0
  Te  Te4  1  0.35850005  0.60301250  0.00000000  1.0
  Te  Te5  1  0.85850005  0.89698750  0.00000000  1.0
  Te  Te6  1  0.64149995  0.39698750  0.00000000  1.0
  Te  Te7  1  0.14149995  0.10301250  0.00000000  1.0
