# generated using pymatgen
data_Cs(MoS)3
_symmetry_space_group_name_H-M   'P 1'
_cell_length_a   9.50040584
_cell_length_b   9.50040584
_cell_length_c   4.44898163
_cell_angle_alpha   90.00000000
_cell_angle_beta   90.00000000
_cell_angle_gamma   120.00000000
_symmetry_Int_Tables_number   1
_chemical_formula_structural   Cs(MoS)3
_chemical_formula_sum   'Cs2 Mo6 S6'
_cell_volume   347.75674319
_cell_formula_units_Z   2
loop_
 _symmetry_equiv_pos_site_id
 _symmetry_equiv_pos_as_xyz
  1  'x, y, z'
loop_
 _atom_site_type_symbol
 _atom_site_label
 _atom_site_symmetry_multiplicity
 _atom_site_fract_x
 _atom_site_fract_y
 _atom_site_fract_z
 _atom_site_occupancy
  Cs  Cs0  1  0.33333333  0.66666667  0.25000000  1.0
  Cs  Cs1  1  0.66666667  0.33333333  0.75000000  1.0
  Mo  Mo2  1  0.02620643  0.85298413  0.25000000  1.0
  Mo  Mo3  1  0.85298413  0.82677770  0.75000000  1.0
  Mo  Mo4  1  0.82677770  0.97379357  0.25000000  1.0
  Mo  Mo5  1  0.14701587  0.17322230  0.25000000  1.0
  Mo  Mo6  1  0.97379357  0.14701587  0.75000000  1.0
  Mo  Mo7  1  0.17322230  0.02620643  0.75000000  1.0
  S  S8  1  0.72569160  0.67499547  0.25000000  1.0
  S  S9  1  0.67499547  0.94930387  0.75000000  1.0
  S  S10  1  0.94930387  0.27430840  0.25000000  1.0
  S  S11  1  0.32500453  0.05069613  0.25000000  1.0
  S  S12  1  0.27430840  0.32500453  0.75000000  1.0
  S  S13  1  0.05069613  0.72569160  0.75000000  1.0
