# generated using pymatgen
data_CdI2
_symmetry_space_group_name_H-M   'P 1'
_cell_length_a   4.32819264
_cell_length_b   4.32819264
_cell_length_c   37.94816515
_cell_angle_alpha   90.00000000
_cell_angle_beta   90.00000000
_cell_angle_gamma   120.00000000
_symmetry_Int_Tables_number   1
_chemical_formula_structural   CdI2
_chemical_formula_sum   'Cd5 I10'
_cell_volume   615.65098295
_cell_formula_units_Z   5
loop_
 _symmetry_equiv_pos_site_id
 _symmetry_equiv_pos_as_xyz
  1  'x, y, z'
loop_
 _atom_site_type_symbol
 _atom_site_label
 _atom_site_symmetry_multiplicity
 _atom_site_fract_x
 _atom_site_fract_y
 _atom_site_fract_z
 _atom_site_occupancy
  Cd  Cd0  1  0.00000000  0.00000000  0.05002035  1.0
  Cd  Cd1  1  0.00000000  0.00000000  0.24996313  1.0
  Cd  Cd2  1  0.00000000  0.00000000  0.64999174  1.0
  Cd  Cd3  1  0.66666667  0.33333333  0.44999290  1.0
  Cd  Cd4  1  0.66666667  0.33333333  0.84999676  1.0
  I  I5  1  0.00000000  0.00000000  0.49530348  1.0
  I  I6  1  0.00000000  0.00000000  0.89530779  1.0
  I  I7  1  0.66666667  0.33333333  0.09532860  1.0
  I  I8  1  0.66666667  0.33333333  0.29527656  1.0
  I  I9  1  0.66666667  0.33333333  0.69530119  1.0
  I  I10  1  0.33333333  0.66666667  0.00473345  1.0
  I  I11  1  0.33333333  0.66666667  0.20466853  1.0
  I  I12  1  0.33333333  0.66666667  0.40470348  1.0
  I  I13  1  0.33333333  0.66666667  0.60470287  1.0
  I  I14  1  0.33333333  0.66666667  0.80470917  1.0
