# generated using pymatgen
data_ScSn2
_symmetry_space_group_name_H-M   'P 1'
_cell_length_a   15.93108919
_cell_length_b   15.93108919
_cell_length_c   15.93108919
_cell_angle_alpha   164.54851215
_cell_angle_beta   164.54851215
_cell_angle_gamma   21.91896319
_symmetry_Int_Tables_number   1
_chemical_formula_structural   ScSn2
_chemical_formula_sum   'Sc4 Sn8'
_cell_volume   286.94868641
_cell_formula_units_Z   4
loop_
 _symmetry_equiv_pos_site_id
 _symmetry_equiv_pos_as_xyz
  1  'x, y, z'
loop_
 _atom_site_type_symbol
 _atom_site_label
 _atom_site_symmetry_multiplicity
 _atom_site_fract_x
 _atom_site_fract_y
 _atom_site_fract_z
 _atom_site_occupancy
  Sc  Sc0  1  1.17332767  1.17332767  1.00000000  1.0
  Sc  Sc1  1  0.92332767  1.42332767  0.50000000  1.0
  Sc  Sc2  1  0.57667233  0.07667233  0.50000000  1.0
  Sc  Sc3  1  0.82667233  0.82667233  -0.00000000  1.0
  Sn  Sn4  1  1.34155620  1.34155620  1.00000000  1.0
  Sn  Sn5  1  0.09155620  0.59155620  0.50000000  1.0
  Sn  Sn6  1  1.40844380  0.90844380  0.50000000  1.0
  Sn  Sn7  1  0.65844380  0.65844380  0.00000000  1.0
  Sn  Sn8  1  0.00000000  0.00000000  0.00000000  1.0
  Sn  Sn9  1  0.75000000  1.25000000  0.50000000  1.0
  Sn  Sn10  1  1.25000000  0.75000000  0.50000000  1.0
  Sn  Sn11  1  0.50000000  0.50000000  1.00000000  1.0
