# generated using pymatgen
data_LiIn(MoO4)2
_symmetry_space_group_name_H-M   'P 1'
_cell_length_a   7.57868364
_cell_length_b   7.57868364
_cell_length_c   5.05327739
_cell_angle_alpha   88.94502861
_cell_angle_beta   91.05497139
_cell_angle_gamma   79.01033138
_symmetry_Int_Tables_number   1
_chemical_formula_structural   LiIn(MoO4)2
_chemical_formula_sum   'Li2 In2 Mo4 O16'
_cell_volume   284.80034657
_cell_formula_units_Z   2
loop_
 _symmetry_equiv_pos_site_id
 _symmetry_equiv_pos_as_xyz
  1  'x, y, z'
loop_
 _atom_site_type_symbol
 _atom_site_label
 _atom_site_symmetry_multiplicity
 _atom_site_fract_x
 _atom_site_fract_y
 _atom_site_fract_z
 _atom_site_occupancy
  Li  Li0  1  0.91550927  -0.08449073  0.25000000  1.0
  Li  Li1  1  1.08449073  0.08449073  0.75000000  1.0
  In  In2  1  1.40680897  0.40680897  0.25000000  1.0
  In  In3  1  0.59319103  -0.40680897  0.75000000  1.0
  Mo  Mo4  1  0.38836019  -0.07338270  0.24861299  1.0
  Mo  Mo5  1  1.07338270  0.61163981  0.74861299  1.0
  Mo  Mo6  1  0.92661730  -0.61163981  0.25138701  1.0
  Mo  Mo7  1  1.61163981  0.07338270  0.75138701  1.0
  O  O8  1  0.44222460  -0.31070321  0.38717730  1.0
  O  O9  1  1.31070321  0.55777540  0.88717730  1.0
  O  O10  1  0.68929679  -0.55777540  0.11282270  1.0
  O  O11  1  1.55777540  0.31070321  0.61282270  1.0
  O  O12  1  1.81660770  0.06461807  0.90968198  1.0
  O  O13  1  0.93538193  -0.81660770  0.40968198  1.0
  O  O14  1  1.06461807  0.81660770  0.59031802  1.0
  O  O15  1  0.18339230  -0.06461807  0.09031802  1.0
  O  O16  1  0.66845266  -0.05451451  0.46078004  1.0
  O  O17  1  1.05451451  0.33154734  0.96078004  1.0
  O  O18  1  0.94548549  -0.33154734  0.03921996  1.0
  O  O19  1  1.33154734  0.05451451  0.53921996  1.0
  O  O20  1  1.44837472  0.15071134  0.06775860  1.0
  O  O21  1  0.84928866  -0.44837472  0.56775860  1.0
  O  O22  1  1.15071134  0.44837472  0.43224140  1.0
  O  O23  1  0.55162528  -0.15071134  0.93224140  1.0
