# generated using pymatgen
data_Al3Pd5
_symmetry_space_group_name_H-M   'P 1'
_cell_length_a   5.42244801
_cell_length_b   10.59501727
_cell_length_c   4.06853229
_cell_angle_alpha   90.00000000
_cell_angle_beta   90.00000000
_cell_angle_gamma   90.00000000
_symmetry_Int_Tables_number   1
_chemical_formula_structural   Al3Pd5
_chemical_formula_sum   'Al6 Pd10'
_cell_volume   233.74096505
_cell_formula_units_Z   2
loop_
 _symmetry_equiv_pos_site_id
 _symmetry_equiv_pos_as_xyz
  1  'x, y, z'
loop_
 _atom_site_type_symbol
 _atom_site_label
 _atom_site_symmetry_multiplicity
 _atom_site_fract_x
 _atom_site_fract_y
 _atom_site_fract_z
 _atom_site_occupancy
  Al  Al0  1  0.50000000  0.50000000  0.00000000  1.0
  Al  Al1  1  0.00000000  0.00000000  0.00000000  1.0
  Al  Al2  1  0.66226738  0.14261469  0.50000000  1.0
  Al  Al3  1  0.33773262  0.85738531  0.50000000  1.0
  Al  Al4  1  0.16226738  0.35738531  0.50000000  1.0
  Al  Al5  1  0.83773262  0.64261469  0.50000000  1.0
  Pd  Pd6  1  0.68692424  0.39420807  0.50000000  1.0
  Pd  Pd7  1  0.31307576  0.60579193  0.50000000  1.0
  Pd  Pd8  1  0.18692424  0.10579193  0.50000000  1.0
  Pd  Pd9  1  0.81307576  0.89420807  0.50000000  1.0
  Pd  Pd10  1  0.50000000  0.00000000  0.00000000  1.0
  Pd  Pd11  1  0.00000000  0.50000000  0.00000000  1.0
  Pd  Pd12  1  0.40456023  0.26724004  -0.00000000  1.0
  Pd  Pd13  1  0.59543977  0.73275996  -0.00000000  1.0
  Pd  Pd14  1  -0.09543977  0.23275996  0.00000000  1.0
  Pd  Pd15  1  1.09543977  0.76724004  0.00000000  1.0
