# generated using pymatgen
data_Rb5InPb8
_symmetry_space_group_name_H-M   'P 1'
_cell_length_a   13.80233944
_cell_length_b   13.80233944
_cell_length_c   13.80233944
_cell_angle_alpha   30.00279490
_cell_angle_beta   30.00279490
_cell_angle_gamma   30.00279489
_symmetry_Int_Tables_number   1
_chemical_formula_structural   Rb5InPb8
_chemical_formula_sum   'Rb5 In1 Pb8'
_cell_volume   582.37153045
_cell_formula_units_Z   1
loop_
 _symmetry_equiv_pos_site_id
 _symmetry_equiv_pos_as_xyz
  1  'x, y, z'
loop_
 _atom_site_type_symbol
 _atom_site_label
 _atom_site_symmetry_multiplicity
 _atom_site_fract_x
 _atom_site_fract_y
 _atom_site_fract_z
 _atom_site_occupancy
  Rb  Rb0  1  0.78045831  0.78045831  0.78045831  1.0
  Rb  Rb1  1  1.21954169  1.21954169  0.21954169  1.0
  Rb  Rb2  1  0.68141018  0.68141018  0.68141018  1.0
  Rb  Rb3  1  1.31858982  1.31858982  0.31858982  1.0
  Rb  Rb4  1  1.50000000  0.50000000  0.50000000  1.0
  In  In5  1  -0.00000000  -0.00000000  0.00000000  1.0
  Pb  Pb6  1  1.22268953  1.22268953  -0.25149272  1.0
  Pb  Pb7  1  1.22268953  0.74850728  0.22268953  1.0
  Pb  Pb8  1  1.25149272  0.77731047  0.77731047  1.0
  Pb  Pb9  1  1.77731047  0.25149272  0.77731047  1.0
  Pb  Pb10  1  1.77731047  0.77731047  0.25149272  1.0
  Pb  Pb11  1  0.74850728  1.22268953  0.22268953  1.0
  Pb  Pb12  1  0.87479050  0.87479050  0.87479050  1.0
  Pb  Pb13  1  1.12520950  1.12520950  0.12520950  1.0
