# generated using pymatgen
data_In2Se3
_symmetry_space_group_name_H-M   'P 1'
_cell_length_a   9.99292021
_cell_length_b   9.99292021
_cell_length_c   9.99292021
_cell_angle_alpha   23.94025264
_cell_angle_beta   23.94025264
_cell_angle_gamma   23.94025264
_symmetry_Int_Tables_number   1
_chemical_formula_structural   In2Se3
_chemical_formula_sum   'In2 Se3'
_cell_volume   144.36658316
_cell_formula_units_Z   1
loop_
 _symmetry_equiv_pos_site_id
 _symmetry_equiv_pos_as_xyz
  1  'x, y, z'
loop_
 _atom_site_type_symbol
 _atom_site_label
 _atom_site_symmetry_multiplicity
 _atom_site_fract_x
 _atom_site_fract_y
 _atom_site_fract_z
 _atom_site_occupancy
  In  In0  1  0.81206136  -0.18793864  -0.18793864  1.0
  In  In1  1  0.27353932  0.27353932  0.27353932  1.0
  Se  Se2  1  -0.01675946  -0.01675946  -0.01675946  1.0
  Se  Se3  1  0.72663473  -0.27336527  -0.27336527  1.0
  Se  Se4  1  0.52652404  0.52652404  -0.47347596  1.0
