# generated using pymatgen
data_LaZn4
_symmetry_space_group_name_H-M   'P 1'
_cell_length_a   6.05212129
_cell_length_b   6.05212129
_cell_length_c   6.08595163
_cell_angle_alpha   90.00000000
_cell_angle_beta   90.00000000
_cell_angle_gamma   116.86727716
_symmetry_Int_Tables_number   1
_chemical_formula_structural   LaZn4
_chemical_formula_sum   'La2 Zn8'
_cell_volume   198.85465140
_cell_formula_units_Z   2
loop_
 _symmetry_equiv_pos_site_id
 _symmetry_equiv_pos_as_xyz
  1  'x, y, z'
loop_
 _atom_site_type_symbol
 _atom_site_label
 _atom_site_symmetry_multiplicity
 _atom_site_fract_x
 _atom_site_fract_y
 _atom_site_fract_z
 _atom_site_occupancy
  La  La0  1  -0.26882860  1.26882860  0.25000000  1.0
  La  La1  1  0.26882860  0.73117140  0.75000000  1.0
  Zn  Zn2  1  0.78450063  0.78450063  0.50000000  1.0
  Zn  Zn3  1  0.78450063  0.78450063  0.00000000  1.0
  Zn  Zn4  1  0.21549937  0.21549937  0.50000000  1.0
  Zn  Zn5  1  0.21549937  0.21549937  0.00000000  1.0
  Zn  Zn6  1  0.15055193  0.84944807  0.25000000  1.0
  Zn  Zn7  1  -0.15055193  1.15055193  0.75000000  1.0
  Zn  Zn8  1  0.39207047  0.60792953  0.25000000  1.0
  Zn  Zn9  1  -0.39207047  1.39207047  0.75000000  1.0
