# generated using pymatgen
data_Gd2O3
_symmetry_space_group_name_H-M   'P 1'
_cell_length_a   9.41998207
_cell_length_b   9.41998207
_cell_length_c   9.41998207
_cell_angle_alpha   109.47122063
_cell_angle_beta   109.47122063
_cell_angle_gamma   109.47122063
_symmetry_Int_Tables_number   1
_chemical_formula_structural   Gd2O3
_chemical_formula_sum   'Gd16 O24'
_cell_volume   643.47005039
_cell_formula_units_Z   8
loop_
 _symmetry_equiv_pos_site_id
 _symmetry_equiv_pos_as_xyz
  1  'x, y, z'
loop_
 _atom_site_type_symbol
 _atom_site_label
 _atom_site_symmetry_multiplicity
 _atom_site_fract_x
 _atom_site_fract_y
 _atom_site_fract_z
 _atom_site_occupancy
  Gd  Gd0  1  1.71846729  1.46846729  1.25000000  1.0
  Gd  Gd1  1  1.21846729  0.96846729  1.25000000  1.0
  Gd  Gd2  1  0.75000000  0.78153271  0.03153271  1.0
  Gd  Gd3  1  0.25000000  1.21846729  0.96846729  1.0
  Gd  Gd4  1  0.25000000  0.71846729  0.46846729  1.0
  Gd  Gd5  1  0.75000000  1.28153271  0.53153271  1.0
  Gd  Gd6  1  1.46846729  1.25000000  1.71846729  1.0
  Gd  Gd7  1  0.96846729  0.25000000  1.21846729  1.0
  Gd  Gd8  1  0.03153271  0.75000000  0.78153271  1.0
  Gd  Gd9  1  0.53153271  0.75000000  0.28153271  1.0
  Gd  Gd10  1  0.28153271  0.53153271  0.75000000  1.0
  Gd  Gd11  1  0.78153271  1.03153271  0.75000000  1.0
  Gd  Gd12  1  1.00000000  0.50000000  1.00000000  1.0
  Gd  Gd13  1  0.50000000  0.50000000  0.50000000  1.0
  Gd  Gd14  1  1.00000000  1.00000000  1.50000000  1.0
  Gd  Gd15  1  1.50000000  1.00000000  1.00000000  1.0
  O  O16  1  0.54143348  0.53004254  0.77011410  1.0
  O  O17  1  1.04143348  0.27131939  1.01139095  1.0
  O  O18  1  0.25992844  0.77131939  0.72988590  1.0
  O  O19  1  0.75992844  1.03004254  0.48860905  1.0
  O  O20  1  0.51139095  1.24007156  0.96995746  1.0
  O  O21  1  1.01139095  1.04143348  0.27131939  1.0
  O  O22  1  0.77011410  0.54143348  0.53004254  1.0
  O  O23  1  1.27011410  0.74007156  1.22868061  1.0
  O  O24  1  0.77131939  0.72988590  0.25992844  1.0
  O  O25  1  1.27131939  1.01139095  1.04143348  1.0
  O  O26  1  0.96995746  0.51139095  1.24007156  1.0
  O  O27  1  1.46995746  1.22988590  1.45856652  1.0
  O  O28  1  1.74007156  1.22868061  1.27011410  1.0
  O  O29  1  1.24007156  0.96995746  1.51139095  1.0
  O  O30  1  1.45856652  1.46995746  1.22988590  1.0
  O  O31  1  0.95856652  1.72868061  0.98860905  1.0
  O  O32  1  1.22988590  1.45856652  1.46995746  1.0
  O  O33  1  0.72988590  1.25992844  0.77131939  1.0
  O  O34  1  1.48860905  0.75992844  1.03004254  1.0
  O  O35  1  0.98860905  0.95856652  1.72868061  1.0
  O  O36  1  1.03004254  1.48860905  0.75992844  1.0
  O  O37  1  0.53004254  0.77011410  0.54143348  1.0
  O  O38  1  1.22868061  1.27011410  1.74007156  1.0
  O  O39  1  0.72868061  0.98860905  0.95856652  1.0
