# generated using pymatgen
data_Na2W2O7
_symmetry_space_group_name_H-M   'P 1'
_cell_length_a   7.06570791
_cell_length_b   7.06570791
_cell_length_c   15.06881830
_cell_angle_alpha   90.00000000
_cell_angle_beta   90.00000000
_cell_angle_gamma   117.87697439
_symmetry_Int_Tables_number   1
_chemical_formula_structural   Na2W2O7
_chemical_formula_sum   'Na8 W8 O28'
_cell_volume   664.99752453
_cell_formula_units_Z   4
loop_
 _symmetry_equiv_pos_site_id
 _symmetry_equiv_pos_as_xyz
  1  'x, y, z'
loop_
 _atom_site_type_symbol
 _atom_site_label
 _atom_site_symmetry_multiplicity
 _atom_site_fract_x
 _atom_site_fract_y
 _atom_site_fract_z
 _atom_site_occupancy
  Na  Na0  1  -0.25002492  0.74997508  0.00000000  1.0
  Na  Na1  1  0.24997508  1.24997508  0.50000000  1.0
  Na  Na2  1  0.25002492  1.25002492  0.00000000  1.0
  Na  Na3  1  -0.24997508  0.75002492  0.50000000  1.0
  Na  Na4  1  0.33033290  0.66966710  0.34641771  1.0
  Na  Na5  1  -0.33033290  1.33033290  0.65358229  1.0
  Na  Na6  1  0.16966710  0.83033290  0.84641771  1.0
  Na  Na7  1  -0.16966710  1.16966710  0.15358229  1.0
  W  W8  1  -0.16233346  0.66233346  0.25000000  1.0
  W  W9  1  -0.33766654  0.83766654  0.75000000  1.0
  W  W10  1  0.16233346  1.33766654  0.75000000  1.0
  W  W11  1  0.33766654  1.16233346  0.25000000  1.0
  W  W12  1  0.24680063  0.75319937  0.08629922  1.0
  W  W13  1  -0.24680063  1.24680063  0.91370078  1.0
  W  W14  1  0.25319937  0.74680063  0.58629922  1.0
  W  W15  1  -0.25319937  1.25319937  0.41370078  1.0
  O  O16  1  0.03028808  0.56459935  0.15599687  1.0
  O  O17  1  -0.43540065  1.03028808  0.84400313  1.0
  O  O18  1  0.06459935  1.53028808  0.65599687  1.0
  O  O19  1  0.53028808  1.06459935  0.34400313  1.0
  O  O20  1  -0.03028808  1.43540065  0.84400313  1.0
  O  O21  1  0.43540065  0.96971192  0.15599687  1.0
  O  O22  1  -0.06459935  1.46971192  0.34400313  1.0
  O  O23  1  0.46971192  0.93540065  0.65599687  1.0
  O  O24  1  0.29353230  1.30154074  0.33784000  1.0
  O  O25  1  0.30154074  1.29353230  0.66216000  1.0
  O  O26  1  -0.19845926  0.79353230  0.83784000  1.0
  O  O27  1  -0.20646770  0.80154074  0.16216000  1.0
  O  O28  1  -0.29353230  0.69845926  0.66216000  1.0
  O  O29  1  -0.30154074  0.70646770  0.33784000  1.0
  O  O30  1  0.19845926  1.20646770  0.16216000  1.0
  O  O31  1  0.20646770  1.19845926  0.83784000  1.0
  O  O32  1  0.12481198  0.87518802  0.28054240  1.0
  O  O33  1  -0.12481198  1.12481198  0.71945760  1.0
  O  O34  1  0.37518802  0.62481198  0.78054240  1.0
  O  O35  1  -0.37518802  1.37518802  0.21945760  1.0
  O  O36  1  0.37608561  0.62391439  0.03176677  1.0
  O  O37  1  -0.37608561  1.37608561  0.96823323  1.0
  O  O38  1  0.12391439  0.87608561  0.53176677  1.0
  O  O39  1  -0.12391439  1.12391439  0.46823323  1.0
  O  O40  1  0.35922525  0.64077475  0.50358319  1.0
  O  O41  1  -0.35922525  1.35922525  0.49641681  1.0
  O  O42  1  0.14077475  0.85922525  1.00358319  1.0
  O  O43  1  -0.14077475  1.14077475  -0.00358319  1.0
