# generated using pymatgen
data_CdHg2SO6
_symmetry_space_group_name_H-M   'P 1'
_cell_length_a   7.59155996
_cell_length_b   7.31108347
_cell_length_c   6.82849238
_cell_angle_alpha   63.94565891
_cell_angle_beta   67.12771414
_cell_angle_gamma   73.39210657
_symmetry_Int_Tables_number   1
_chemical_formula_structural   CdHg2SO6
_chemical_formula_sum   'Cd2 Hg4 S2 O12'
_cell_volume   310.66495290
_cell_formula_units_Z   2
loop_
 _symmetry_equiv_pos_site_id
 _symmetry_equiv_pos_as_xyz
  1  'x, y, z'
loop_
 _atom_site_type_symbol
 _atom_site_label
 _atom_site_symmetry_multiplicity
 _atom_site_fract_x
 _atom_site_fract_y
 _atom_site_fract_z
 _atom_site_occupancy
  Cd  Cd0  1  -0.77257969  -0.87104842  -0.67043596  1.0
  Cd  Cd1  1  -0.22742031  -0.12895158  -0.32956404  1.0
  Hg  Hg2  1  -0.21193572  -0.64041681  -0.84204610  1.0
  Hg  Hg3  1  -0.78806428  -0.35958319  -0.15795390  1.0
  Hg  Hg4  1  -0.78708728  -0.36226699  -0.66030085  1.0
  Hg  Hg5  1  -0.21291272  -0.63773301  -0.33969915  1.0
  S  S6  1  -0.69107293  -0.86465523  -0.20911081  1.0
  S  S7  1  -0.30892707  -0.13534477  -0.79088919  1.0
  O  O8  1  -0.81935480  -0.89683822  -0.96706114  1.0
  O  O9  1  -0.18064520  -0.10316178  -0.03293886  1.0
  O  O10  1  -0.73503693  -0.52727561  -0.85502568  1.0
  O  O11  1  -0.26496307  -0.47272439  -0.14497432  1.0
  O  O12  1  -0.44030770  -0.93805926  -0.78673197  1.0
  O  O13  1  -0.55969230  -0.06194074  -0.21326803  1.0
  O  O14  1  -0.86685803  -0.20019402  -0.45019706  1.0
  O  O15  1  -0.13314197  -0.79980598  -0.54980294  1.0
  O  O16  1  -0.82375215  -0.81764743  -0.34719608  1.0
  O  O17  1  -0.17624785  -0.18235257  -0.65280392  1.0
  O  O18  1  -0.58020400  -0.69177846  -0.30251165  1.0
  O  O19  1  -0.41979600  -0.30822154  -0.69748835  1.0
