# generated using pymatgen
data_PHF4
_symmetry_space_group_name_H-M   'P 1'
_cell_length_a   4.77339520
_cell_length_b   8.34409758
_cell_length_c   10.67893276
_cell_angle_alpha   90.00000000
_cell_angle_beta   116.94820562
_cell_angle_gamma   90.00000000
_symmetry_Int_Tables_number   1
_chemical_formula_structural   PHF4
_chemical_formula_sum   'P4 H4 F16'
_cell_volume   379.15371519
_cell_formula_units_Z   4
loop_
 _symmetry_equiv_pos_site_id
 _symmetry_equiv_pos_as_xyz
  1  'x, y, z'
loop_
 _atom_site_type_symbol
 _atom_site_label
 _atom_site_symmetry_multiplicity
 _atom_site_fract_x
 _atom_site_fract_y
 _atom_site_fract_z
 _atom_site_occupancy
  P  P0  1  0.68958652  0.29452519  0.17178647  1.0
  P  P1  1  0.68958652  0.20547481  0.67178647  1.0
  P  P2  1  0.31041348  0.79452519  0.32821353  1.0
  P  P3  1  0.31041348  0.70547481  0.82821353  1.0
  H  H4  1  0.84993409  0.39686435  0.12221536  1.0
  H  H5  1  0.84993409  0.10313565  0.62221536  1.0
  H  H6  1  0.15006591  0.89686435  0.37778464  1.0
  H  H7  1  0.15006591  0.60313565  0.87778464  1.0
  F  F8  1  0.98875689  0.17121443  0.22965614  1.0
  F  F9  1  0.98875689  0.32878557  0.72965614  1.0
  F  F10  1  0.01124311  0.67121443  0.27034386  1.0
  F  F11  1  0.01124311  0.82878557  0.77034386  1.0
  F  F12  1  0.71839402  0.30857205  0.32416361  1.0
  F  F13  1  0.71839402  0.19142795  0.82416361  1.0
  F  F14  1  0.28160598  0.80857205  0.17583639  1.0
  F  F15  1  0.28160598  0.69142795  0.67583639  1.0
  F  F16  1  0.60718035  0.92000011  0.38664947  1.0
  F  F17  1  0.60718035  0.57999989  0.88664947  1.0
  F  F18  1  0.39281965  0.42000011  0.11335053  1.0
  F  F19  1  0.39281965  0.07999989  0.61335053  1.0
  F  F20  1  0.46652932  0.15731851  0.07872071  1.0
  F  F21  1  0.46652932  0.34268149  0.57872071  1.0
  F  F22  1  0.53347068  0.65731851  0.42127929  1.0
  F  F23  1  0.53347068  0.84268149  0.92127929  1.0
