# generated using pymatgen
data_HgSO5
_symmetry_space_group_name_H-M   'P 1'
_cell_length_a   10.22918940
_cell_length_b   5.68790703
_cell_length_c   7.45303917
_cell_angle_alpha   90.00000000
_cell_angle_beta   90.00000000
_cell_angle_gamma   90.00000000
_symmetry_Int_Tables_number   1
_chemical_formula_structural   HgSO5
_chemical_formula_sum   'Hg4 S4 O20'
_cell_volume   433.63778038
_cell_formula_units_Z   4
loop_
 _symmetry_equiv_pos_site_id
 _symmetry_equiv_pos_as_xyz
  1  'x, y, z'
loop_
 _atom_site_type_symbol
 _atom_site_label
 _atom_site_symmetry_multiplicity
 _atom_site_fract_x
 _atom_site_fract_y
 _atom_site_fract_z
 _atom_site_occupancy
  O  O0  1  0.85834792  0.96599757  0.28428698  1.0
  O  O1  1  0.85834792  0.53400243  0.28428698  1.0
  O  O2  1  0.35834792  0.96599757  0.21571302  1.0
  O  O3  1  0.35834792  0.53400243  0.21571302  1.0
  O  O4  1  0.14165208  0.46599757  0.71571302  1.0
  O  O5  1  0.14165208  0.03400243  0.71571302  1.0
  O  O6  1  0.64165208  0.46599757  0.78428698  1.0
  O  O7  1  0.64165208  0.03400243  0.78428698  1.0
  O  O8  1  0.53212237  0.75000000  0.37843104  1.0
  O  O9  1  0.03212237  0.75000000  0.12156896  1.0
  O  O10  1  0.46787763  0.25000000  0.62156896  1.0
  O  O11  1  0.96787763  0.25000000  0.87843104  1.0
  O  O12  1  0.95444476  0.75000000  0.51576361  1.0
  O  O13  1  0.45444476  0.75000000  0.98423639  1.0
  O  O14  1  0.04555524  0.25000000  0.48423639  1.0
  O  O15  1  0.54555524  0.25000000  0.01576361  1.0
  O  O16  1  0.80030835  0.75000000  0.01792523  1.0
  O  O17  1  0.30030835  0.75000000  0.48207477  1.0
  O  O18  1  0.19969165  0.25000000  0.98207477  1.0
  O  O19  1  0.69969165  0.25000000  0.51792523  1.0
  S  S20  1  0.89559276  0.75000000  0.17908556  1.0
  S  S21  1  0.39559276  0.75000000  0.32091444  1.0
  S  S22  1  0.10440724  0.25000000  0.82091444  1.0
  S  S23  1  0.60440724  0.25000000  0.67908556  1.0
  Hg  Hg24  1  0.86601219  0.75000000  0.75573480  1.0
  Hg  Hg25  1  0.36601219  0.75000000  0.74426520  1.0
  Hg  Hg26  1  0.13398781  0.25000000  0.24426520  1.0
  Hg  Hg27  1  0.63398781  0.25000000  0.25573480  1.0
