# generated using pymatgen
data_Cs2CrH8Cl5O4
_symmetry_space_group_name_H-M   'P 1'
_cell_length_a   10.32101059
_cell_length_b   10.32101059
_cell_length_c   14.20486075
_cell_angle_alpha   62.41526579
_cell_angle_beta   117.58473421
_cell_angle_gamma   145.16449054
_symmetry_Int_Tables_number   1
_chemical_formula_structural   Cs2CrH8Cl5O4
_chemical_formula_sum   'Cs4 Cr2 H16 Cl10 O8'
_cell_volume   755.73115231
_cell_formula_units_Z   2
loop_
 _symmetry_equiv_pos_site_id
 _symmetry_equiv_pos_as_xyz
  1  'x, y, z'
loop_
 _atom_site_type_symbol
 _atom_site_label
 _atom_site_symmetry_multiplicity
 _atom_site_fract_x
 _atom_site_fract_y
 _atom_site_fract_z
 _atom_site_occupancy
  Cs  Cs0  1  0.30889358  -0.28895610  0.17225719  1.0
  Cs  Cs1  1  0.71104390  0.30889358  0.32774281  1.0
  Cs  Cs2  1  1.69110642  0.28895610  0.82774281  1.0
  Cs  Cs3  1  1.28895610  -0.30889358  0.67225719  1.0
  Cr  Cr4  1  0.00000000  0.00000000  0.00000000  1.0
  Cr  Cr5  1  -0.00000000  0.00000000  0.50000000  1.0
  H  H6  1  0.42241961  0.24840709  1.00637373  1.0
  H  H7  1  1.24840709  -0.57758039  0.49362627  1.0
  H  H8  1  1.57758039  -0.24840709  -0.00637373  1.0
  H  H9  1  0.75159291  0.57758039  0.50637373  1.0
  H  H10  1  0.33528631  0.30471520  0.88745163  1.0
  H  H11  1  1.30471520  -0.66471369  0.61254837  1.0
  H  H12  1  1.66471369  -0.30471520  0.11254837  1.0
  H  H13  1  0.69528480  0.66471369  0.38745163  1.0
  H  H14  1  0.84194980  0.63476927  0.99293369  1.0
  H  H15  1  1.63476927  -0.15805020  0.50706631  1.0
  H  H16  1  1.15805020  -0.63476927  0.00706631  1.0
  H  H17  1  0.36523073  0.15805020  0.49293369  1.0
  H  H18  1  0.79088210  0.72570176  0.87468591  1.0
  H  H19  1  1.72570176  -0.20911790  0.62531409  1.0
  H  H20  1  1.20911790  -0.72570176  0.12531409  1.0
  H  H21  1  0.27429824  0.20911790  0.37468591  1.0
  Cl  Cl22  1  0.69734934  0.31826142  0.06905665  1.0
  Cl  Cl23  1  0.31826142  -0.30265066  0.43094335  1.0
  Cl  Cl24  1  1.30265066  -0.31826142  0.93094335  1.0
  Cl  Cl25  1  1.68173858  0.30265066  0.56905665  1.0
  Cl  Cl26  1  0.11534077  -0.10028651  0.16958172  1.0
  Cl  Cl27  1  0.89971349  0.11534077  0.33041828  1.0
  Cl  Cl28  1  1.88465923  0.10028651  0.83041828  1.0
  Cl  Cl29  1  1.10028651  -0.11534077  0.66958172  1.0
  Cl  Cl30  1  0.49038912  0.49038912  0.25000000  1.0
  Cl  Cl31  1  0.50961088  0.50961088  0.75000000  1.0
  O  O32  1  0.31423458  0.24961631  0.96348918  1.0
  O  O33  1  1.24961631  -0.68576542  0.53651082  1.0
  O  O34  1  1.68576542  -0.24961631  0.03651082  1.0
  O  O35  1  0.75038369  0.68576542  0.46348918  1.0
  O  O36  1  0.90278578  0.77820681  0.94268213  1.0
  O  O37  1  1.77820681  -0.09721422  0.55731787  1.0
  O  O38  1  1.09721422  -0.77820681  0.05731787  1.0
  O  O39  1  0.22179319  0.09721422  0.44268213  1.0
