# generated using pymatgen
data_Na(SiO3)2
_symmetry_space_group_name_H-M   'P 1'
_cell_length_a   7.58330086
_cell_length_b   14.27676852
_cell_length_c   4.98445750
_cell_angle_alpha   90.00000000
_cell_angle_beta   90.00000000
_cell_angle_gamma   90.00000000
_symmetry_Int_Tables_number   1
_chemical_formula_structural   Na(SiO3)2
_chemical_formula_sum   'Na4 Si8 O24'
_cell_volume   539.64244630
_cell_formula_units_Z   4
loop_
 _symmetry_equiv_pos_site_id
 _symmetry_equiv_pos_as_xyz
  1  'x, y, z'
loop_
 _atom_site_type_symbol
 _atom_site_label
 _atom_site_symmetry_multiplicity
 _atom_site_fract_x
 _atom_site_fract_y
 _atom_site_fract_z
 _atom_site_occupancy
  Si  Si0  1  0.44004963  0.55547277  0.47374274  1.0
  Si  Si1  1  0.94004963  0.94452723  0.47374274  1.0
  Si  Si2  1  0.55995037  0.44452723  -0.02625726  1.0
  Si  Si3  1  0.05995037  0.05547277  -0.02625726  1.0
  Si  Si4  1  0.03374109  0.56504400  0.63569380  1.0
  Si  Si5  1  0.53374109  0.93495600  0.63569380  1.0
  Si  Si6  1  0.96625891  0.43495600  0.13569380  1.0
  Si  Si7  1  0.46625891  0.06504400  0.13569380  1.0
  O  O8  1  0.55727552  0.51710970  0.72384586  1.0
  O  O9  1  1.05727552  0.98289030  0.72384586  1.0
  O  O10  1  0.44272448  0.48289030  0.22384586  1.0
  O  O11  1  -0.05727552  0.01710970  0.22384586  1.0
  O  O12  1  0.55237446  0.01687591  0.86699799  1.0
  O  O13  1  1.05237446  0.48312409  0.86699799  1.0
  O  O14  1  0.44762554  0.98312409  0.36699799  1.0
  O  O15  1  -0.05237446  0.51687591  0.36699799  1.0
  O  O16  1  0.24816016  0.59020881  0.55545613  1.0
  O  O17  1  0.74816016  0.90979119  0.55545613  1.0
  O  O18  1  0.75183984  0.40979119  0.05545613  1.0
  O  O19  1  0.25183984  0.09020881  0.05545613  1.0
  O  O20  1  0.51204975  0.68505394  0.14450892  1.0
  O  O21  1  1.01204975  0.81494606  0.14450892  1.0
  O  O22  1  0.48795025  0.31494606  0.64450892  1.0
  O  O23  1  -0.01204975  0.18505394  0.64450892  1.0
  O  O24  1  0.45110817  0.83842593  0.72754446  1.0
  O  O25  1  0.95110817  0.66157407  0.72754446  1.0
  O  O26  1  0.54889183  0.16157407  0.22754446  1.0
  O  O27  1  0.04889183  0.33842593  0.22754446  1.0
  O  O28  1  0.06629628  0.84794533  0.38543704  1.0
  O  O29  1  0.56629628  0.65205467  0.38543704  1.0
  O  O30  1  0.93370372  0.15205467  -0.11456296  1.0
  O  O31  1  0.43370372  0.34794533  -0.11456296  1.0
  Na  Na32  1  0.20758091  0.75344819  0.78927306  1.0
  Na  Na33  1  0.70758091  0.74655181  0.78927306  1.0
  Na  Na34  1  0.79241909  0.24655181  0.28927306  1.0
  Na  Na35  1  0.29241909  0.25344819  0.28927306  1.0
