# generated using pymatgen
data_Ga2HgTe4
_symmetry_space_group_name_H-M   'P 1'
_cell_length_a   6.05200310
_cell_length_b   6.05200310
_cell_length_c   6.41996851
_cell_angle_alpha   90.00000000
_cell_angle_beta   90.00000000
_cell_angle_gamma   90.00000000
_symmetry_Int_Tables_number   1
_chemical_formula_structural   Ga2HgTe4
_chemical_formula_sum   'Ga2 Hg1 Te4'
_cell_volume   235.14252704
_cell_formula_units_Z   1
loop_
 _symmetry_equiv_pos_site_id
 _symmetry_equiv_pos_as_xyz
  1  'x, y, z'
loop_
 _atom_site_type_symbol
 _atom_site_label
 _atom_site_symmetry_multiplicity
 _atom_site_fract_x
 _atom_site_fract_y
 _atom_site_fract_z
 _atom_site_occupancy
  Ga  Ga0  1  0.00000000  0.50000000  0.50000000  1.0
  Ga  Ga1  1  0.50000000  0.00000000  0.50000000  1.0
  Hg  Hg2  1  0.00000000  0.00000000  0.00000000  1.0
  Te  Te3  1  0.27699918  0.72300082  0.24806957  1.0
  Te  Te4  1  0.72300082  0.72300082  0.75193043  1.0
  Te  Te5  1  0.27699918  0.27699918  0.75193043  1.0
  Te  Te6  1  0.72300082  0.27699918  0.24806957  1.0
