# generated using pymatgen
data_TaO3
_symmetry_space_group_name_H-M   'P 1'
_cell_length_a   6.85280583
_cell_length_b   6.85280583
_cell_length_c   6.85280583
_cell_angle_alpha   109.47122063
_cell_angle_beta   109.47122063
_cell_angle_gamma   109.47122063
_symmetry_Int_Tables_number   1
_chemical_formula_structural   TaO3
_chemical_formula_sum   'Ta4 O12'
_cell_volume   247.73273030
_cell_formula_units_Z   4
loop_
 _symmetry_equiv_pos_site_id
 _symmetry_equiv_pos_as_xyz
  1  'x, y, z'
loop_
 _atom_site_type_symbol
 _atom_site_label
 _atom_site_symmetry_multiplicity
 _atom_site_fract_x
 _atom_site_fract_y
 _atom_site_fract_z
 _atom_site_occupancy
  Ta  Ta0  1  0.50000000  1.00000000  1.00000000  1.0
  Ta  Ta1  1  0.50000000  0.50000000  0.50000000  1.0
  Ta  Ta2  1  1.00000000  1.00000000  0.50000000  1.0
  Ta  Ta3  1  1.00000000  0.50000000  1.00000000  1.0
  O  O4  1  0.75004569  1.25008870  1.00013439  1.0
  O  O5  1  0.75004569  0.74991130  0.49995699  1.0
  O  O6  1  0.24995431  0.25008870  0.50004301  1.0
  O  O7  1  0.24995431  0.74991130  0.99986561  1.0
  O  O8  1  0.49995699  0.75004569  0.74991130  1.0
  O  O9  1  1.00013439  0.75004569  1.25008870  1.0
  O  O10  1  0.74991130  0.99986561  0.24995431  1.0
  O  O11  1  0.74991130  0.49995699  0.75004569  1.0
  O  O12  1  0.99986561  0.24995431  0.74991130  1.0
  O  O13  1  0.50004301  0.24995431  0.25008870  1.0
  O  O14  1  0.25008870  0.50004301  0.24995431  1.0
  O  O15  1  1.25008870  1.00013439  0.75004569  1.0
