# generated using pymatgen
data_BaMnO3
_symmetry_space_group_name_H-M   'P 1'
_cell_length_a   5.73854442
_cell_length_b   5.73854442
_cell_length_c   18.64287162
_cell_angle_alpha   90.00000000
_cell_angle_beta   90.00000000
_cell_angle_gamma   120.00000000
_symmetry_Int_Tables_number   1
_chemical_formula_structural   BaMnO3
_chemical_formula_sum   'Ba8 Mn8 O24'
_cell_volume   531.67585321
_cell_formula_units_Z   8
loop_
 _symmetry_equiv_pos_site_id
 _symmetry_equiv_pos_as_xyz
  1  'x, y, z'
loop_
 _atom_site_type_symbol
 _atom_site_label
 _atom_site_symmetry_multiplicity
 _atom_site_fract_x
 _atom_site_fract_y
 _atom_site_fract_z
 _atom_site_occupancy
  Ba  Ba0  1  0.00000000  0.00000000  0.87485232  1.0
  Ba  Ba1  1  0.00000000  0.00000000  0.12514768  1.0
  Ba  Ba2  1  0.00000000  0.00000000  0.62437462  1.0
  Ba  Ba3  1  0.00000000  0.00000000  0.37562538  1.0
  Ba  Ba4  1  0.66666667  0.33333333  0.74891945  1.0
  Ba  Ba5  1  0.66666667  0.33333333  0.25108055  1.0
  Ba  Ba6  1  0.66666667  0.33333333  0.50000000  1.0
  Ba  Ba7  1  0.33333333  0.66666667  0.00000000  1.0
  Mn  Mn8  1  0.66666667  0.33333333  0.93165705  1.0
  Mn  Mn9  1  0.66666667  0.33333333  0.06834295  1.0
  Mn  Mn10  1  0.33333333  0.66666667  0.82020394  1.0
  Mn  Mn11  1  0.33333333  0.66666667  0.17979606  1.0
  Mn  Mn12  1  0.33333333  0.66666667  0.68658452  1.0
  Mn  Mn13  1  0.33333333  0.66666667  0.31341548  1.0
  Mn  Mn14  1  0.33333333  0.66666667  0.56662915  1.0
  Mn  Mn15  1  0.33333333  0.66666667  0.43337085  1.0
  O  O16  1  -0.00096158  0.49951921  0.87548706  1.0
  O  O17  1  -0.00096158  0.49951921  0.12451294  1.0
  O  O18  1  0.50048079  0.49951921  0.87548706  1.0
  O  O19  1  0.50048079  0.49951921  0.12451294  1.0
  O  O20  1  0.50048079  0.00096158  0.87548706  1.0
  O  O21  1  0.50048079  0.00096158  0.12451294  1.0
  O  O22  1  0.02603901  0.51301951  0.62599604  1.0
  O  O23  1  0.02603901  0.51301951  0.37400396  1.0
  O  O24  1  0.48698049  0.51301951  0.62599604  1.0
  O  O25  1  0.48698049  0.51301951  0.37400396  1.0
  O  O26  1  0.48698049  -0.02603901  0.62599604  1.0
  O  O27  1  0.48698049  -0.02603901  0.37400396  1.0
  O  O28  1  0.62682398  0.81341199  0.75304485  1.0
  O  O29  1  0.62682398  0.81341199  0.24695515  1.0
  O  O30  1  0.18658801  0.81341199  0.75304485  1.0
  O  O31  1  0.18658801  0.81341199  0.24695515  1.0
  O  O32  1  0.18658801  0.37317602  0.75304485  1.0
  O  O33  1  0.18658801  0.37317602  0.24695515  1.0
  O  O34  1  0.63027360  0.81513680  0.50000000  1.0
  O  O35  1  0.18486320  0.81513680  0.50000000  1.0
  O  O36  1  0.18486320  0.36972640  0.50000000  1.0
  O  O37  1  0.37847710  0.18923855  0.00000000  1.0
  O  O38  1  0.81076145  0.18923855  0.00000000  1.0
  O  O39  1  0.81076145  0.62152290  0.00000000  1.0
