# generated using pymatgen
data_MnPtF6
_symmetry_space_group_name_H-M   'P 1'
_cell_length_a   5.59711207
_cell_length_b   5.59711207
_cell_length_c   5.59711207
_cell_angle_alpha   57.43899386
_cell_angle_beta   57.43899386
_cell_angle_gamma   57.43899386
_symmetry_Int_Tables_number   1
_chemical_formula_structural   MnPtF6
_chemical_formula_sum   'Mn1 Pt1 F6'
_cell_volume   116.68187848
_cell_formula_units_Z   1
loop_
 _symmetry_equiv_pos_site_id
 _symmetry_equiv_pos_as_xyz
  1  'x, y, z'
loop_
 _atom_site_type_symbol
 _atom_site_label
 _atom_site_symmetry_multiplicity
 _atom_site_fract_x
 _atom_site_fract_y
 _atom_site_fract_z
 _atom_site_occupancy
  Mn  Mn0  1  0.50000000  0.50000000  -0.50000000  1.0
  Pt  Pt1  1  -0.00000000  -0.00000000  0.00000000  1.0
  F  F2  1  0.14356080  0.75432799  -0.64986598  1.0
  F  F3  1  0.64986598  -0.14356080  0.24567201  1.0
  F  F4  1  1.24567201  -0.35013402  -0.14356080  1.0
  F  F5  1  0.85643920  0.24567201  -0.35013402  1.0
  F  F6  1  0.35013402  0.14356080  -0.24567201  1.0
  F  F7  1  0.75432799  0.35013402  -0.85643920  1.0
