# generated using pymatgen
data_GdPO4
_symmetry_space_group_name_H-M   'P 1'
_cell_length_a   6.39750962
_cell_length_b   6.93310665
_cell_length_c   8.08238115
_cell_angle_alpha   90.00000000
_cell_angle_beta   125.80320545
_cell_angle_gamma   90.00000000
_symmetry_Int_Tables_number   1
_chemical_formula_structural   GdPO4
_chemical_formula_sum   'Gd4 P4 O16'
_cell_volume   290.74727924
_cell_formula_units_Z   4
loop_
 _symmetry_equiv_pos_site_id
 _symmetry_equiv_pos_as_xyz
  1  'x, y, z'
loop_
 _atom_site_type_symbol
 _atom_site_label
 _atom_site_symmetry_multiplicity
 _atom_site_fract_x
 _atom_site_fract_y
 _atom_site_fract_z
 _atom_site_occupancy
  Gd  Gd0  1  0.80958538  0.84659190  0.21577809  1.0
  Gd  Gd1  1  0.80958538  0.65340810  0.71577809  1.0
  Gd  Gd2  1  0.19041462  0.34659190  0.28422191  1.0
  Gd  Gd3  1  0.19041462  0.15340810  0.78422191  1.0
  P  P4  1  0.69088107  0.34004157  0.30205292  1.0
  P  P5  1  0.69088107  0.15995843  0.80205292  1.0
  P  P6  1  0.30911893  0.84004157  0.19794708  1.0
  P  P7  1  0.30911893  0.65995843  0.69794708  1.0
  O  O8  1  0.88083748  0.16468891  0.38378268  1.0
  O  O9  1  0.88083748  0.33531109  0.88378268  1.0
  O  O10  1  0.11916252  0.66468891  0.11621732  1.0
  O  O11  1  0.11916252  0.83531109  0.61621732  1.0
  O  O12  1  0.81844794  0.49807397  0.25166918  1.0
  O  O13  1  0.81844794  0.00192603  0.75166918  1.0
  O  O14  1  0.18155206  0.99807397  0.24833082  1.0
  O  O15  1  0.18155206  0.50192603  0.74833082  1.0
  O  O16  1  0.65591989  0.40121931  0.47002003  1.0
  O  O17  1  0.65591989  0.09878069  0.97002003  1.0
  O  O18  1  0.34408011  0.90121931  0.02997997  1.0
  O  O19  1  0.34408011  0.59878069  0.52997997  1.0
  O  O20  1  0.41017139  0.29175450  0.12064070  1.0
  O  O21  1  0.41017139  0.20824550  0.62064070  1.0
  O  O22  1  0.58982861  0.79175450  0.37935930  1.0
  O  O23  1  0.58982861  0.70824550  0.87935930  1.0
