# generated using pymatgen
data_H4CN5O2
_symmetry_space_group_name_H-M   'P 1'
_cell_length_a   5.28329401
_cell_length_b   5.14454141
_cell_length_c   16.76703027
_cell_angle_alpha   90.00000000
_cell_angle_beta   91.30040645
_cell_angle_gamma   90.00000000
_symmetry_Int_Tables_number   1
_chemical_formula_structural   H4CN5O2
_chemical_formula_sum   'H16 C4 N20 O8'
_cell_volume   455.61260147
_cell_formula_units_Z   4
loop_
 _symmetry_equiv_pos_site_id
 _symmetry_equiv_pos_as_xyz
  1  'x, y, z'
loop_
 _atom_site_type_symbol
 _atom_site_label
 _atom_site_symmetry_multiplicity
 _atom_site_fract_x
 _atom_site_fract_y
 _atom_site_fract_z
 _atom_site_occupancy
  H  H0  1  0.73855588  0.79943645  0.29828666  1.0
  H  H1  1  0.73855588  0.70056355  0.79828666  1.0
  H  H2  1  0.26144412  0.29943645  0.20171334  1.0
  H  H3  1  0.26144412  0.20056355  0.70171334  1.0
  H  H4  1  0.70306535  0.07208656  0.14536802  1.0
  H  H5  1  0.70306535  0.42791344  0.64536802  1.0
  H  H6  1  0.29693465  0.57208656  0.35463198  1.0
  H  H7  1  0.29693465  0.92791344  0.85463198  1.0
  H  H8  1  0.71740098  0.35669223  0.19623758  1.0
  H  H9  1  0.71740098  0.14330777  0.69623758  1.0
  H  H10  1  0.28259902  0.85669223  0.30376242  1.0
  H  H11  1  0.28259902  0.64330777  0.80376242  1.0
  H  H12  1  0.53509128  0.33494864  0.11133331  1.0
  H  H13  1  0.53509128  0.16505136  0.61133331  1.0
  H  H14  1  0.46490872  0.83494864  0.38866669  1.0
  H  H15  1  0.46490872  0.66505136  0.88866669  1.0
  C  C16  1  0.95429388  0.39859656  0.47342305  1.0
  C  C17  1  0.95429388  0.10140344  0.97342305  1.0
  C  C18  1  0.04570612  0.89859656  0.02657695  1.0
  C  C19  1  0.04570612  0.60140344  0.52657695  1.0
  N  N20  1  0.94313530  0.84779300  0.09805714  1.0
  N  N21  1  0.94313530  0.65220700  0.59805714  1.0
  N  N22  1  0.05686470  0.34779300  0.40194286  1.0
  N  N23  1  0.05686470  0.15220700  0.90194286  1.0
  N  N24  1  0.91320209  0.15195271  0.37551162  1.0
  N  N25  1  0.91320209  0.34804729  0.87551162  1.0
  N  N26  1  0.08679791  0.65195271  0.12448838  1.0
  N  N27  1  0.08679791  0.84804729  0.62448838  1.0
  N  N28  1  0.75922470  0.24081898  0.48923237  1.0
  N  N29  1  0.75922470  0.25918102  0.98923237  1.0
  N  N30  1  0.24077530  0.74081898  0.01076763  1.0
  N  N31  1  0.24077530  0.75918102  0.51076763  1.0
  N  N32  1  0.73397488  0.08347175  0.42652509  1.0
  N  N33  1  0.73397488  0.41652825  0.92652509  1.0
  N  N34  1  0.26602512  0.58347175  0.07347491  1.0
  N  N35  1  0.26602512  0.91652825  0.57347491  1.0
  N  N36  1  0.59899460  0.23566234  0.16240840  1.0
  N  N37  1  0.59899460  0.26433766  0.66240840  1.0
  N  N38  1  0.40100540  0.73566234  0.33759160  1.0
  N  N39  1  0.40100540  0.76433766  0.83759160  1.0
  O  O40  1  0.94328551  1.03669330  0.30792620  1.0
  O  O41  1  0.94328551  0.46330670  0.80792620  1.0
  O  O42  1  0.05671449  0.53669330  0.19207380  1.0
  O  O43  1  0.05671449  -0.03669330  0.69207380  1.0
  O  O44  1  0.38928808  0.15136676  0.20623717  1.0
  O  O45  1  0.38928808  0.34863324  0.70623717  1.0
  O  O46  1  0.61071192  0.65136676  0.29376283  1.0
  O  O47  1  0.61071192  0.84863324  0.79376283  1.0
