# generated using pymatgen
data_BaZnSO
_symmetry_space_group_name_H-M   'P 1'
_cell_length_a   6.81587035
_cell_length_b   6.81587035
_cell_length_c   6.17086626
_cell_angle_alpha   90.00000000
_cell_angle_beta   90.00000000
_cell_angle_gamma   146.06376073
_symmetry_Int_Tables_number   1
_chemical_formula_structural   BaZnSO
_chemical_formula_sum   'Ba2 Zn2 S2 O2'
_cell_volume   160.04166024
_cell_formula_units_Z   2
loop_
 _symmetry_equiv_pos_site_id
 _symmetry_equiv_pos_as_xyz
  1  'x, y, z'
loop_
 _atom_site_type_symbol
 _atom_site_label
 _atom_site_symmetry_multiplicity
 _atom_site_fract_x
 _atom_site_fract_y
 _atom_site_fract_z
 _atom_site_occupancy
  Ba  Ba0  1  -0.60753101  0.60753101  0.25000000  1.0
  Ba  Ba1  1  -0.39246899  1.39246899  0.75000000  1.0
  Zn  Zn2  1  -0.90173842  0.90173842  0.25000000  1.0
  Zn  Zn3  1  -0.09826158  1.09826158  0.75000000  1.0
  S  S4  1  -0.30689973  1.30689973  0.25000000  1.0
  S  S5  1  -0.69310027  0.69310027  0.75000000  1.0
  O  O6  1  0.00000000  0.00000000  0.50000000  1.0
  O  O7  1  0.00000000  0.00000000  0.00000000  1.0
