# generated using pymatgen
data_Li2SnMo3O8
_symmetry_space_group_name_H-M   'P 1'
_cell_length_a   5.81426105
_cell_length_b   5.81426105
_cell_length_c   10.64062201
_cell_angle_alpha   90.00000000
_cell_angle_beta   90.00000000
_cell_angle_gamma   120.00000000
_symmetry_Int_Tables_number   1
_chemical_formula_structural   Li2SnMo3O8
_chemical_formula_sum   'Li4 Sn2 Mo6 O16'
_cell_volume   311.52055060
_cell_formula_units_Z   2
loop_
 _symmetry_equiv_pos_site_id
 _symmetry_equiv_pos_as_xyz
  1  'x, y, z'
loop_
 _atom_site_type_symbol
 _atom_site_label
 _atom_site_symmetry_multiplicity
 _atom_site_fract_x
 _atom_site_fract_y
 _atom_site_fract_z
 _atom_site_occupancy
  Li  Li0  1  0.33333333  0.66666667  0.09459788  1.0
  Li  Li1  1  0.66666667  0.33333333  0.59459788  1.0
  Li  Li2  1  0.00000000  0.00000000  0.18450577  1.0
  Li  Li3  1  0.00000000  0.00000000  0.68450577  1.0
  Sn  Sn4  1  0.33333333  0.66666667  0.69620579  1.0
  Sn  Sn5  1  0.66666667  0.33333333  0.19620579  1.0
  Mo  Mo6  1  0.62134049  0.81067025  0.41094415  1.0
  Mo  Mo7  1  0.81067025  0.62134049  0.91094415  1.0
  Mo  Mo8  1  0.81067025  0.18932975  0.91094415  1.0
  Mo  Mo9  1  0.18932975  0.81067025  0.41094415  1.0
  Mo  Mo10  1  0.18932975  0.37865951  0.41094415  1.0
  Mo  Mo11  1  0.37865951  0.18932975  0.91094415  1.0
  O  O12  1  0.97036987  0.48518494  0.04092422  1.0
  O  O13  1  0.48518494  0.97036987  0.54092422  1.0
  O  O14  1  0.48518494  0.51481506  0.54092422  1.0
  O  O15  1  0.51481506  0.48518494  0.04092422  1.0
  O  O16  1  0.51481506  0.02963013  0.04092422  1.0
  O  O17  1  0.02963013  0.51481506  0.54092422  1.0
  O  O18  1  0.31556549  0.15778275  0.30085914  1.0
  O  O19  1  0.15778275  0.31556549  0.80085914  1.0
  O  O20  1  0.15778275  0.84221725  0.80085914  1.0
  O  O21  1  0.84221725  0.15778275  0.30085914  1.0
  O  O22  1  0.84221725  0.68443451  0.30085914  1.0
  O  O23  1  0.68443451  0.84221725  0.80085914  1.0
  O  O24  1  0.33333333  0.66666667  0.27477561  1.0
  O  O25  1  0.66666667  0.33333333  0.77477561  1.0
  O  O26  1  0.00000000  0.00000000  0.00303244  1.0
  O  O27  1  0.00000000  0.00000000  0.50303244  1.0
