# generated using pymatgen
data_AgB3O5
_symmetry_space_group_name_H-M   'P 1'
_cell_length_a   10.48647393
_cell_length_b   8.36415818
_cell_length_c   3.92770664
_cell_angle_alpha   90.00000000
_cell_angle_beta   90.00000000
_cell_angle_gamma   90.00000000
_symmetry_Int_Tables_number   1
_chemical_formula_structural   AgB3O5
_chemical_formula_sum   'Ag4 B12 O20'
_cell_volume   344.50121773
_cell_formula_units_Z   4
loop_
 _symmetry_equiv_pos_site_id
 _symmetry_equiv_pos_as_xyz
  1  'x, y, z'
loop_
 _atom_site_type_symbol
 _atom_site_label
 _atom_site_symmetry_multiplicity
 _atom_site_fract_x
 _atom_site_fract_y
 _atom_site_fract_z
 _atom_site_occupancy
  Ag  Ag0  1  0.92030704  0.91479916  0.20932067  1.0
  Ag  Ag1  1  0.42030704  0.58520084  0.20932067  1.0
  Ag  Ag2  1  0.07969296  0.08520084  0.70932067  1.0
  Ag  Ag3  1  0.57969296  0.41479916  0.70932067  1.0
  B  B4  1  0.33494504  0.24197729  0.36947755  1.0
  B  B5  1  0.83494504  0.25802271  0.36947755  1.0
  B  B6  1  0.66505496  0.75802271  0.86947755  1.0
  B  B7  1  0.16505496  0.74197729  0.86947755  1.0
  B  B8  1  0.31592950  0.95487571  0.17890454  1.0
  B  B9  1  0.81592950  0.54512429  0.17890454  1.0
  B  B10  1  0.68407050  0.04512429  0.67890454  1.0
  B  B11  1  0.18407050  0.45487571  0.67890454  1.0
  B  B12  1  0.02630135  0.39746980  0.13541641  1.0
  B  B13  1  0.52630135  0.10253020  0.13541641  1.0
  B  B14  1  0.97369865  0.60253020  0.63541641  1.0
  B  B15  1  0.47369865  0.89746980  0.63541641  1.0
  O  O16  1  0.46230327  0.24462353  0.27316736  1.0
  O  O17  1  0.96230327  0.25537647  0.27316736  1.0
  O  O18  1  0.53769673  0.75537647  0.77316736  1.0
  O  O19  1  0.03769673  0.74462353  0.77316736  1.0
  O  O20  1  0.42800106  0.00509042  0.93701161  1.0
  O  O21  1  0.92800106  0.49490958  0.93701161  1.0
  O  O22  1  0.57199894  0.99490958  0.43701161  1.0
  O  O23  1  0.07199894  0.50509042  0.43701161  1.0
  O  O24  1  0.37033242  0.84950713  0.42815454  1.0
  O  O25  1  0.87033242  0.65049287  0.42815454  1.0
  O  O26  1  0.62966758  0.15049287  0.92815454  1.0
  O  O27  1  0.12966758  0.34950713  0.92815454  1.0
  O  O28  1  0.29107039  0.38395145  0.50013347  1.0
  O  O29  1  0.79107039  0.11604855  0.50013347  1.0
  O  O30  1  0.70892961  0.61604855  0.00013347  1.0
  O  O31  1  0.20892961  0.88395145  0.00013347  1.0
  O  O32  1  0.26564192  0.10527850  0.33051386  1.0
  O  O33  1  0.76564192  0.39472150  0.33051386  1.0
  O  O34  1  0.73435808  0.89472150  0.83051386  1.0
  O  O35  1  0.23435808  0.60527850  0.83051386  1.0
