# generated using pymatgen
data_S
_symmetry_space_group_name_H-M   'P 1'
_cell_length_a   9.24298035
_cell_length_b   9.24298035
_cell_length_c   9.24298035
_cell_angle_alpha   94.95058129
_cell_angle_beta   94.95058129
_cell_angle_gamma   145.83329376
_symmetry_Int_Tables_number   1
_chemical_formula_structural   S
_chemical_formula_sum   S16
_cell_volume   423.90438540
_cell_formula_units_Z   16
loop_
 _symmetry_equiv_pos_site_id
 _symmetry_equiv_pos_as_xyz
  1  'x, y, z'
loop_
 _atom_site_type_symbol
 _atom_site_label
 _atom_site_symmetry_multiplicity
 _atom_site_fract_x
 _atom_site_fract_y
 _atom_site_fract_z
 _atom_site_occupancy
  S  S0  1  0.29175209  0.57343811  0.51500655  1.0
  S  S1  1  0.69156843  1.47325445  1.01500655  1.0
  S  S2  1  1.55843157  1.07343811  1.28168602  1.0
  S  S3  1  0.95824791  0.97325445  1.78168602  1.0
  S  S4  1  1.72325445  1.44156843  1.51500655  1.0
  S  S5  1  0.82343811  1.04175209  1.01500655  1.0
  S  S6  1  0.42656189  0.94156843  0.71831398  1.0
  S  S7  1  1.52674555  1.54175209  1.21831398  1.0
  S  S8  1  0.79175209  1.27674555  0.71831398  1.0
  S  S9  1  0.19156843  0.17656189  0.21831398  1.0
  S  S10  1  1.05843157  0.77674555  1.48499345  1.0
  S  S11  1  1.45824791  0.67656189  0.98499345  1.0
  S  S12  1  1.22325445  0.70824791  1.28168602  1.0
  S  S13  1  1.32343811  1.30843157  0.78168602  1.0
  S  S14  1  0.92656189  1.20824791  0.48499345  1.0
  S  S15  1  1.02674555  0.80843157  0.98499345  1.0
