# generated using pymatgen
data_PH6NO4
_symmetry_space_group_name_H-M   'P 1'
_cell_length_a   6.60591023
_cell_length_b   6.60591023
_cell_length_c   6.60591023
_cell_angle_alpha   112.71884551
_cell_angle_beta   112.71884551
_cell_angle_gamma   103.15470161
_symmetry_Int_Tables_number   1
_chemical_formula_structural   PH6NO4
_chemical_formula_sum   'P2 H12 N2 O8'
_cell_volume   219.91742578
_cell_formula_units_Z   2
loop_
 _symmetry_equiv_pos_site_id
 _symmetry_equiv_pos_as_xyz
  1  'x, y, z'
loop_
 _atom_site_type_symbol
 _atom_site_label
 _atom_site_symmetry_multiplicity
 _atom_site_fract_x
 _atom_site_fract_y
 _atom_site_fract_z
 _atom_site_occupancy
  P  P0  1  0.00000000  0.00000000  0.00000000  1.0
  P  P1  1  0.75000000  1.25000000  0.50000000  1.0
  H  H2  1  1.15963966  0.79415544  0.59723786  1.0
  H  H3  1  0.59036034  0.68759819  0.13451577  1.0
  H  H4  1  0.54415544  1.40963966  1.09723786  1.0
  H  H5  1  1.20584456  1.80308242  1.36548423  1.0
  H  H6  1  0.55308242  0.45584456  0.86548423  1.0
  H  H7  1  1.19691758  1.56240181  1.40276214  1.0
  H  H8  1  1.43759819  0.84036034  0.63451577  1.0
  H  H9  1  1.31240181  1.44691758  0.90276214  1.0
  H  H10  1  0.87500000  0.97761960  0.60261960  1.0
  H  H11  1  0.72761960  1.12500000  1.10261960  1.0
  H  H12  1  1.02238040  1.62500000  0.89738040  1.0
  H  H13  1  0.37500000  0.27238040  0.39738040  1.0
  N  N14  1  0.50000000  0.50000000  0.00000000  1.0
  N  N15  1  1.25000000  0.75000000  0.50000000  1.0
  O  O16  1  1.01921324  0.95165476  0.75888001  1.0
  O  O17  1  0.73078676  0.98966677  0.43244152  1.0
  O  O18  1  0.70165476  1.26921324  1.25888001  1.0
  O  O19  1  1.04834524  1.80722525  1.06755848  1.0
  O  O20  1  0.55722525  0.29834524  0.56755848  1.0
  O  O21  1  1.19277475  1.26033323  1.24111999  1.0
  O  O22  1  1.73966677  0.98078676  0.93244152  1.0
  O  O23  1  1.01033323  1.44277475  0.74111999  1.0
