# generated using pymatgen
data_K2ZnP4H8O15
_symmetry_space_group_name_H-M   'P 1'
_cell_length_a   7.62616028
_cell_length_b   7.62616028
_cell_length_c   6.67111064
_cell_angle_alpha   81.25406659
_cell_angle_beta   98.74593341
_cell_angle_gamma   75.04084027
_symmetry_Int_Tables_number   1
_chemical_formula_structural   K2ZnP4H8O15
_chemical_formula_sum   'K2 Zn1 P4 H8 O15'
_cell_volume   362.96247617
_cell_formula_units_Z   1
loop_
 _symmetry_equiv_pos_site_id
 _symmetry_equiv_pos_as_xyz
  1  'x, y, z'
loop_
 _atom_site_type_symbol
 _atom_site_label
 _atom_site_symmetry_multiplicity
 _atom_site_fract_x
 _atom_site_fract_y
 _atom_site_fract_z
 _atom_site_occupancy
  Zn  Zn0  1  0.00000000  0.00000000  0.00000000  1.0
  K  K1  1  0.79264712  -0.79264712  0.41746828  1.0
  K  K2  1  0.20735288  -0.20735288  0.58253172  1.0
  P  P3  1  0.74411311  -0.23082567  0.82836889  1.0
  P  P4  1  1.23082567  0.25588689  0.82836889  1.0
  P  P5  1  0.76917433  -0.25588689  0.17163111  1.0
  P  P6  1  1.25588689  0.23082567  0.17163111  1.0
  H  H7  1  0.49044180  0.00683780  0.74016002  1.0
  H  H8  1  0.99316220  0.50955820  0.74016002  1.0
  H  H9  1  1.00683780  -0.50955820  0.25983998  1.0
  H  H10  1  1.50955820  -0.00683780  0.25983998  1.0
  H  H11  1  1.63391145  0.23484788  0.89404716  1.0
  H  H12  1  0.76515212  -0.63391145  0.89404716  1.0
  H  H13  1  1.23484788  0.63391145  0.10595284  1.0
  H  H14  1  0.36608855  -0.23484788  0.10595284  1.0
  O  O15  1  0.86738238  -0.10868785  0.76843833  1.0
  O  O16  1  1.10868785  0.13261762  0.76843833  1.0
  O  O17  1  0.89131215  -0.13261762  0.23156167  1.0
  O  O18  1  1.13261762  0.10868785  0.23156167  1.0
  O  O19  1  0.53238020  -0.12980124  0.72600198  1.0
  O  O20  1  1.12980124  0.46761980  0.72600198  1.0
  O  O21  1  0.87019876  -0.46761980  0.27399802  1.0
  O  O22  1  1.46761980  0.12980124  0.27399802  1.0
  O  O23  1  1.42379556  0.20696804  0.77491126  1.0
  O  O24  1  0.79303196  -0.42379556  0.77491126  1.0
  O  O25  1  1.20696804  0.42379556  0.22508874  1.0
  O  O26  1  0.57620444  -0.20696804  0.22508874  1.0
  O  O27  1  0.75651809  -0.75651809  0.95960624  1.0
  O  O28  1  0.24348191  -0.24348191  0.04039376  1.0
  O  O29  1  0.50000000  -0.50000000  0.50000000  1.0
