# generated using pymatgen
data_Cu3B4Pb2O11
_symmetry_space_group_name_H-M   'P 1'
_cell_length_a   6.86665525
_cell_length_b   4.78441624
_cell_length_c   15.91155399
_cell_angle_alpha   90.00000000
_cell_angle_beta   109.11588276
_cell_angle_gamma   90.00000000
_symmetry_Int_Tables_number   1
_chemical_formula_structural   Cu3B4Pb2O11
_chemical_formula_sum   'Cu6 B8 Pb4 O22'
_cell_volume   493.91636749
_cell_formula_units_Z   2
loop_
 _symmetry_equiv_pos_site_id
 _symmetry_equiv_pos_as_xyz
  1  'x, y, z'
loop_
 _atom_site_type_symbol
 _atom_site_label
 _atom_site_symmetry_multiplicity
 _atom_site_fract_x
 _atom_site_fract_y
 _atom_site_fract_z
 _atom_site_occupancy
  Pb  Pb0  1  0.79130121  0.60737663  0.30705599  1.0
  Pb  Pb1  1  0.79130121  0.39262337  0.80705599  1.0
  Pb  Pb2  1  0.20869879  0.60737663  0.19294401  1.0
  Pb  Pb3  1  0.20869879  0.39262337  0.69294401  1.0
  O  O4  1  0.64462738  0.97489626  0.16121654  1.0
  O  O5  1  0.64462738  0.02510374  0.66121654  1.0
  O  O6  1  0.35537262  0.97489626  0.33878346  1.0
  O  O7  1  0.35537262  0.02510374  0.83878346  1.0
  O  O8  1  0.00000000  0.91374509  0.25000000  1.0
  O  O9  1  0.00000000  0.08625491  0.75000000  1.0
  O  O10  1  0.90651339  0.85209400  0.09384098  1.0
  O  O11  1  0.90651339  0.14790600  0.59384098  1.0
  O  O12  1  0.09348661  0.85209400  0.40615902  1.0
  O  O13  1  0.09348661  0.14790600  0.90615902  1.0
  O  O14  1  0.51693481  0.71163195  0.95890020  1.0
  O  O15  1  0.51693481  0.28836805  0.45890020  1.0
  O  O16  1  0.48306519  0.71163195  0.54109980  1.0
  O  O17  1  0.48306519  0.28836805  0.04109980  1.0
  O  O18  1  0.89929068  0.32655455  0.15468917  1.0
  O  O19  1  0.89929068  0.67344545  0.65468917  1.0
  O  O20  1  0.10070932  0.32655455  0.34531083  1.0
  O  O21  1  0.10070932  0.67344545  0.84531083  1.0
  O  O22  1  0.72236931  0.96738006  0.40718422  1.0
  O  O23  1  0.72236931  0.03261994  0.90718422  1.0
  O  O24  1  0.27763069  0.96738006  0.09281578  1.0
  O  O25  1  0.27763069  0.03261994  0.59281578  1.0
  B  B26  1  0.85935844  0.96340107  0.66239990  1.0
  B  B27  1  0.85935844  0.03659893  0.16239990  1.0
  B  B28  1  0.14064156  0.96340107  0.83760010  1.0
  B  B29  1  0.14064156  0.03659893  0.33760010  1.0
  B  B30  1  0.53449383  0.92714930  0.90358299  1.0
  B  B31  1  0.53449383  0.07285070  0.40358299  1.0
  B  B32  1  0.46550617  0.92714930  0.59641701  1.0
  B  B33  1  0.46550617  0.07285070  0.09641701  1.0
  Cu  Cu34  1  0.71690590  0.54073227  0.06217043  1.0
  Cu  Cu35  1  0.71690590  0.45926773  0.56217043  1.0
  Cu  Cu36  1  0.28309410  0.54073227  0.43782957  1.0
  Cu  Cu37  1  0.28309410  0.45926773  0.93782957  1.0
  Cu  Cu38  1  -0.00000000  0.00000000  0.50000000  1.0
  Cu  Cu39  1  -0.00000000  0.00000000  -0.00000000  1.0
