# generated using pymatgen
data_KAlO2
_symmetry_space_group_name_H-M   'P 1'
_cell_length_a   5.58465853
_cell_length_b   5.58465853
_cell_length_c   7.76612255
_cell_angle_alpha   90.00000000
_cell_angle_beta   90.00000000
_cell_angle_gamma   90.00000000
_symmetry_Int_Tables_number   1
_chemical_formula_structural   KAlO2
_chemical_formula_sum   'K4 Al4 O8'
_cell_volume   242.21302103
_cell_formula_units_Z   4
loop_
 _symmetry_equiv_pos_site_id
 _symmetry_equiv_pos_as_xyz
  1  'x, y, z'
loop_
 _atom_site_type_symbol
 _atom_site_label
 _atom_site_symmetry_multiplicity
 _atom_site_fract_x
 _atom_site_fract_y
 _atom_site_fract_z
 _atom_site_occupancy
  K  K0  1  0.22366658  0.77633342  0.25000000  1.0
  K  K1  1  0.72366658  0.72366658  0.50000000  1.0
  K  K2  1  0.77633342  0.22366658  0.75000000  1.0
  K  K3  1  0.27633342  0.27633342  0.00000000  1.0
  Al  Al4  1  0.78811863  0.21188137  0.25000000  1.0
  Al  Al5  1  0.28811863  0.28811863  0.50000000  1.0
  Al  Al6  1  0.21188137  0.78811863  0.75000000  1.0
  Al  Al7  1  0.71188137  0.71188137  0.00000000  1.0
  O  O8  1  0.41247449  0.74373419  0.92427397  1.0
  O  O9  1  0.91247449  0.75626581  0.82572603  1.0
  O  O10  1  0.25626581  0.58752551  0.57572603  1.0
  O  O11  1  0.75626581  0.91247449  0.17427397  1.0
  O  O12  1  0.58752551  0.25626581  0.42427397  1.0
  O  O13  1  0.08752551  0.24373419  0.32572603  1.0
  O  O14  1  0.74373419  0.41247449  0.07572603  1.0
  O  O15  1  0.24373419  0.08752551  0.67427397  1.0
