# generated using pymatgen
data_Ta2Hg3S(O2F5)2
_symmetry_space_group_name_H-M   'P 1'
_cell_length_a   10.65544031
_cell_length_b   9.29775185
_cell_length_c   12.27351695
_cell_angle_alpha   57.22576238
_cell_angle_beta   47.19547975
_cell_angle_gamma   75.57875787
_symmetry_Int_Tables_number   1
_chemical_formula_structural   Ta2Hg3S(O2F5)2
_chemical_formula_sum   'Ta4 Hg6 S2 O8 F20'
_cell_volume   736.06530567
_cell_formula_units_Z   2
loop_
 _symmetry_equiv_pos_site_id
 _symmetry_equiv_pos_as_xyz
  1  'x, y, z'
loop_
 _atom_site_type_symbol
 _atom_site_label
 _atom_site_symmetry_multiplicity
 _atom_site_fract_x
 _atom_site_fract_y
 _atom_site_fract_z
 _atom_site_occupancy
  Ta  Ta0  1  0.22495786  0.49309373  1.39092905  1.0
  Ta  Ta1  1  0.85907095  0.35898064  1.02504214  1.0
  Ta  Ta2  1  1.49309373  0.22495786  -0.10898064  1.0
  Ta  Ta3  1  0.35898064  -0.14092905  0.75690627  1.0
  Hg  Hg4  1  0.61982838  -0.38017162  0.38017162  1.0
  Hg  Hg5  1  0.86982838  -0.13017162  0.63017162  1.0
  Hg  Hg6  1  -0.13390295  0.43768003  1.33806440  1.0
  Hg  Hg7  1  0.91193560  -0.10815852  0.38390295  1.0
  Hg  Hg8  1  1.43768003  -0.13390295  0.35815852  1.0
  Hg  Hg9  1  0.89184148  -0.08806440  0.81231997  1.0
  S  S10  1  0.99667654  -0.00332346  0.00332346  1.0
  S  S11  1  0.24667654  0.24667654  1.25332346  1.0
  O  O12  1  0.06482515  0.25538192  1.32849324  1.0
  O  O13  1  0.92150676  -0.10129970  0.18517485  1.0
  O  O14  1  0.25538192  0.06482515  1.35129970  1.0
  O  O15  1  0.89870030  -0.07849324  0.99461808  1.0
  O  O16  1  0.31206057  0.36724861  1.25859959  1.0
  O  O17  1  0.99140041  -0.81209123  0.93793943  1.0
  O  O18  1  0.36724861  0.31206057  1.06209123  1.0
  O  O19  1  0.18790877  -0.00859959  0.88275139  1.0
  F  F20  1  0.51672001  1.07654158  0.57547276  1.0
  F  F21  1  0.67452724  -0.58126566  0.73327999  1.0
  F  F22  1  1.07654158  -0.48327999  0.83126566  1.0
  F  F23  1  0.41873434  0.67452724  1.17345842  1.0
  F  F24  1  0.62016312  1.13949269  0.73850744  1.0
  F  F25  1  0.51149256  -0.25183675  0.62983688  1.0
  F  F26  1  1.13949269  -0.37983688  0.50183675  1.0
  F  F27  1  0.74816325  0.51149256  1.11050731  1.0
  F  F28  1  1.17811504  0.65587203  -0.03769678  1.0
  F  F29  1  0.28769678  0.04629029  1.07188496  1.0
  F  F30  1  0.65587203  0.17811504  1.20370971  1.0
  F  F31  1  0.04629029  0.28769678  1.59412797  1.0
  F  F32  1  0.36386260  0.39414260  1.44997801  1.0
  F  F33  1  0.80002199  -0.54201679  0.88613740  1.0
  F  F34  1  1.39414260  0.36386260  -0.20798321  1.0
  F  F35  1  0.45798321  -0.19997801  0.85585740  1.0
  F  F36  1  0.07881422  0.58942628  1.33620374  1.0
  F  F37  1  -0.08620374  0.25444424  1.17118578  1.0
  F  F38  1  1.58942628  0.07881422  -0.00444424  1.0
  F  F39  1  1.25444424  -0.08620374  0.66057372  1.0
