# generated using pymatgen
data_SrIn4Ni
_symmetry_space_group_name_H-M   'P 1'
_cell_length_a   8.95622954
_cell_length_b   8.95622954
_cell_length_c   7.41293139
_cell_angle_alpha   90.00000000
_cell_angle_beta   90.00000000
_cell_angle_gamma   150.66777751
_symmetry_Int_Tables_number   1
_chemical_formula_structural   SrIn4Ni
_chemical_formula_sum   'Sr2 In8 Ni2'
_cell_volume   291.28877697
_cell_formula_units_Z   2
loop_
 _symmetry_equiv_pos_site_id
 _symmetry_equiv_pos_as_xyz
  1  'x, y, z'
loop_
 _atom_site_type_symbol
 _atom_site_label
 _atom_site_symmetry_multiplicity
 _atom_site_fract_x
 _atom_site_fract_y
 _atom_site_fract_z
 _atom_site_occupancy
  Sr  Sr0  1  -0.62109610  0.62109610  0.25000000  1.0
  Sr  Sr1  1  -0.37890390  1.37890390  0.75000000  1.0
  In  In2  1  -0.80999650  0.80999650  0.45036500  1.0
  In  In3  1  -0.80999650  0.80999650  0.04963500  1.0
  In  In4  1  -0.19000350  1.19000350  0.95036500  1.0
  In  In5  1  -0.19000350  1.19000350  0.54963500  1.0
  In  In6  1  -0.42400518  1.42400518  0.25000000  1.0
  In  In7  1  -0.57599482  0.57599482  0.75000000  1.0
  In  In8  1  0.00000000  0.00000000  0.50000000  1.0
  In  In9  1  0.00000000  0.00000000  0.00000000  1.0
  Ni  Ni10  1  -0.27435972  1.27435972  0.25000000  1.0
  Ni  Ni11  1  -0.72564028  0.72564028  0.75000000  1.0
