# generated using pymatgen
data_Ba3CdIr2O9
_symmetry_space_group_name_H-M   'P 1'
_cell_length_a   5.93585380
_cell_length_b   5.93585380
_cell_length_c   14.72845718
_cell_angle_alpha   88.74548879
_cell_angle_beta   91.25451121
_cell_angle_gamma   60.39638382
_symmetry_Int_Tables_number   1
_chemical_formula_structural   Ba3CdIr2O9
_chemical_formula_sum   'Ba6 Cd2 Ir4 O18'
_cell_volume   450.77864936
_cell_formula_units_Z   2
loop_
 _symmetry_equiv_pos_site_id
 _symmetry_equiv_pos_as_xyz
  1  'x, y, z'
loop_
 _atom_site_type_symbol
 _atom_site_label
 _atom_site_symmetry_multiplicity
 _atom_site_fract_x
 _atom_site_fract_y
 _atom_site_fract_z
 _atom_site_occupancy
  O  O0  1  0.51064635  -0.03175358  0.23621683  1.0
  O  O1  1  1.03175358  0.48935365  0.73621683  1.0
  O  O2  1  0.96824642  -0.48935365  0.26378317  1.0
  O  O3  1  1.48935365  0.03175358  0.76378317  1.0
  O  O4  1  0.77535045  -0.13570707  0.41134198  1.0
  O  O5  1  1.13570707  0.22464955  0.91134198  1.0
  O  O6  1  0.86429293  -0.22464955  0.08865802  1.0
  O  O7  1  1.22464955  0.13570707  0.58865802  1.0
  O  O8  1  0.50904777  -0.49095223  0.25000000  1.0
  O  O9  1  1.49095223  0.49095223  0.75000000  1.0
  O  O10  1  0.40029937  -0.22454086  0.07241614  1.0
  O  O11  1  1.22454086  0.59970063  0.57241614  1.0
  O  O12  1  0.77545914  -0.59970063  0.42758386  1.0
  O  O13  1  1.59970063  0.22454086  0.92758386  1.0
  O  O14  1  0.31249206  -0.13811176  0.39697791  1.0
  O  O15  1  1.13811176  0.68750794  0.89697791  1.0
  O  O16  1  0.86188824  -0.68750794  0.10302209  1.0
  O  O17  1  1.68750794  0.13811176  0.60302209  1.0
  Ba  Ba18  1  1.32433074  0.33811961  0.41556805  1.0
  Ba  Ba19  1  0.66188039  -0.32433074  0.91556805  1.0
  Ba  Ba20  1  1.33811961  0.32433074  0.08443195  1.0
  Ba  Ba21  1  0.67566926  -0.33811961  0.58443195  1.0
  Ba  Ba22  1  0.99051445  -0.00948555  0.25000000  1.0
  Ba  Ba23  1  1.00948555  0.00948555  0.75000000  1.0
  Cd  Cd24  1  0.00000000  -0.00000000  0.50000000  1.0
  Cd  Cd25  1  0.00000000  0.00000000  0.00000000  1.0
  Ir  Ir26  1  0.64378017  -0.31670912  0.33647387  1.0
  Ir  Ir27  1  1.31670912  0.35621983  0.83647387  1.0
  Ir  Ir28  1  0.68329088  -0.35621983  0.16352613  1.0
  Ir  Ir29  1  1.35621983  0.31670912  0.66352613  1.0
