# generated using pymatgen
data_V5Si3
_symmetry_space_group_name_H-M   'P 1'
_cell_length_a   7.10807525
_cell_length_b   7.10807525
_cell_length_c   4.82726178
_cell_angle_alpha   90.00000000
_cell_angle_beta   90.00000000
_cell_angle_gamma   120.00000000
_symmetry_Int_Tables_number   1
_chemical_formula_structural   V5Si3
_chemical_formula_sum   'V10 Si6'
_cell_volume   211.22023274
_cell_formula_units_Z   2
loop_
 _symmetry_equiv_pos_site_id
 _symmetry_equiv_pos_as_xyz
  1  'x, y, z'
loop_
 _atom_site_type_symbol
 _atom_site_label
 _atom_site_symmetry_multiplicity
 _atom_site_fract_x
 _atom_site_fract_y
 _atom_site_fract_z
 _atom_site_occupancy
  Si  Si0  1  0.39585565  0.39585565  0.25000000  1.0
  Si  Si1  1  0.39585565  0.00000000  0.75000000  1.0
  Si  Si2  1  -0.00000000  0.39585565  0.75000000  1.0
  Si  Si3  1  0.00000000  0.60414435  0.25000000  1.0
  Si  Si4  1  0.60414435  0.60414435  0.75000000  1.0
  Si  Si5  1  0.60414435  0.00000000  0.25000000  1.0
  V  V6  1  0.33333333  0.66666667  0.50000000  1.0
  V  V7  1  0.33333333  0.66666667  -0.00000000  1.0
  V  V8  1  0.66666667  0.33333333  0.50000000  1.0
  V  V9  1  0.66666667  0.33333333  0.00000000  1.0
  V  V10  1  0.75633874  0.75633874  0.25000000  1.0
  V  V11  1  0.75633874  -0.00000000  0.75000000  1.0
  V  V12  1  0.00000000  0.75633874  0.75000000  1.0
  V  V13  1  -0.00000000  0.24366126  0.25000000  1.0
  V  V14  1  0.24366126  0.24366126  0.75000000  1.0
  V  V15  1  0.24366126  -0.00000000  0.25000000  1.0
