# generated using pymatgen
data_BeCr2O4
_symmetry_space_group_name_H-M   'P 1'
_cell_length_a   9.89921661
_cell_length_b   5.73650356
_cell_length_c   4.56606744
_cell_angle_alpha   90.00000000
_cell_angle_beta   90.00000000
_cell_angle_gamma   90.00000000
_symmetry_Int_Tables_number   1
_chemical_formula_structural   BeCr2O4
_chemical_formula_sum   'Be4 Cr8 O16'
_cell_volume   259.29277569
_cell_formula_units_Z   4
loop_
 _symmetry_equiv_pos_site_id
 _symmetry_equiv_pos_as_xyz
  1  'x, y, z'
loop_
 _atom_site_type_symbol
 _atom_site_label
 _atom_site_symmetry_multiplicity
 _atom_site_fract_x
 _atom_site_fract_y
 _atom_site_fract_z
 _atom_site_occupancy
  Be  Be0  1  0.59318814  0.25000000  0.06952905  1.0
  Be  Be1  1  0.09318814  0.25000000  0.43047095  1.0
  Be  Be2  1  0.40681186  0.75000000  0.93047095  1.0
  Be  Be3  1  0.90681186  0.75000000  0.56952905  1.0
  Cr  Cr4  1  0.76989441  0.25000000  0.50214754  1.0
  Cr  Cr5  1  0.26989441  0.25000000  0.99785246  1.0
  Cr  Cr6  1  0.23010559  0.75000000  0.49785246  1.0
  Cr  Cr7  1  0.73010559  0.75000000  0.00214754  1.0
  Cr  Cr8  1  0.00000000  0.50000000  0.00000000  1.0
  Cr  Cr9  1  0.00000000  0.00000000  0.00000000  1.0
  Cr  Cr10  1  0.50000000  0.50000000  0.50000000  1.0
  Cr  Cr11  1  0.50000000  0.00000000  0.50000000  1.0
  O  O12  1  0.66305712  0.47664155  0.23915563  1.0
  O  O13  1  0.66305712  0.02335845  0.23915563  1.0
  O  O14  1  0.16305712  0.47664155  0.26084437  1.0
  O  O15  1  0.16305712  0.02335845  0.26084437  1.0
  O  O16  1  0.33694288  0.97664155  0.76084437  1.0
  O  O17  1  0.33694288  0.52335845  0.76084437  1.0
  O  O18  1  0.83694288  0.97664155  0.73915563  1.0
  O  O19  1  0.83694288  0.52335845  0.73915563  1.0
  O  O20  1  0.94022239  0.25000000  0.27144084  1.0
  O  O21  1  0.44022239  0.25000000  0.22855916  1.0
  O  O22  1  0.05977761  0.75000000  0.72855916  1.0
  O  O23  1  0.55977761  0.75000000  0.77144084  1.0
  O  O24  1  0.59288754  0.25000000  0.72129950  1.0
  O  O25  1  0.09288754  0.25000000  0.77870050  1.0
  O  O26  1  0.40711246  0.75000000  0.27870050  1.0
  O  O27  1  0.90711246  0.75000000  0.22129950  1.0
