# generated using pymatgen
data_P4N9
_symmetry_space_group_name_H-M   'P 1'
_cell_length_a   6.77553661
_cell_length_b   6.77553661
_cell_length_c   6.78350153
_cell_angle_alpha   90.00000000
_cell_angle_beta   90.00000000
_cell_angle_gamma   90.00000000
_symmetry_Int_Tables_number   1
_chemical_formula_structural   P4N9
_chemical_formula_sum   'P8 N18'
_cell_volume   311.41628539
_cell_formula_units_Z   2
loop_
 _symmetry_equiv_pos_site_id
 _symmetry_equiv_pos_as_xyz
  1  'x, y, z'
loop_
 _atom_site_type_symbol
 _atom_site_label
 _atom_site_symmetry_multiplicity
 _atom_site_fract_x
 _atom_site_fract_y
 _atom_site_fract_z
 _atom_site_occupancy
  P  P0  1  0.29046079  0.05245108  0.55256544  1.0
  P  P1  1  0.20953921  0.55245108  0.05256544  1.0
  P  P2  1  0.94754892  0.29046079  0.44743456  1.0
  P  P3  1  0.55245108  0.79046079  0.94743456  1.0
  P  P4  1  0.70953921  0.94754892  0.55256544  1.0
  P  P5  1  0.79046079  0.44754892  0.05256544  1.0
  P  P6  1  0.05245108  0.70953921  0.44743456  1.0
  P  P7  1  0.44754892  0.20953921  0.94743456  1.0
  N  N8  1  0.50000000  0.50000000  0.50000000  1.0
  N  N9  1  0.00000000  0.00000000  0.00000000  1.0
  N  N10  1  0.00000000  0.50000000  0.54756042  1.0
  N  N11  1  0.50000000  0.00000000  0.04756042  1.0
  N  N12  1  0.50000000  0.00000000  0.45243958  1.0
  N  N13  1  0.00000000  0.50000000  0.95243958  1.0
  N  N14  1  0.32594300  0.34763305  0.10128604  1.0
  N  N15  1  0.17405700  0.84763305  0.60128604  1.0
  N  N16  1  0.65236695  0.32594300  0.89871396  1.0
  N  N17  1  0.84763305  0.82594300  0.39871396  1.0
  N  N18  1  0.67405700  0.65236695  0.10128604  1.0
  N  N19  1  0.82594300  0.15236695  0.60128604  1.0
  N  N20  1  0.34763305  0.67405700  0.89871396  1.0
  N  N21  1  0.15236695  0.17405700  0.39871396  1.0
  N  N22  1  0.31847908  0.18152092  0.75000000  1.0
  N  N23  1  0.18152092  0.68152092  0.25000000  1.0
  N  N24  1  0.81847908  0.31847908  0.25000000  1.0
  N  N25  1  0.68152092  0.81847908  0.75000000  1.0
