# generated using pymatgen
data_VAu2
_symmetry_space_group_name_H-M   'P 1'
_cell_length_a   4.93597018
_cell_length_b   4.93597018
_cell_length_c   4.78996081
_cell_angle_alpha   90.00000000
_cell_angle_beta   90.00000000
_cell_angle_gamma   58.51058528
_symmetry_Int_Tables_number   1
_chemical_formula_structural   VAu2
_chemical_formula_sum   'V2 Au4'
_cell_volume   99.51578164
_cell_formula_units_Z   2
loop_
 _symmetry_equiv_pos_site_id
 _symmetry_equiv_pos_as_xyz
  1  'x, y, z'
loop_
 _atom_site_type_symbol
 _atom_site_label
 _atom_site_symmetry_multiplicity
 _atom_site_fract_x
 _atom_site_fract_y
 _atom_site_fract_z
 _atom_site_occupancy
  V  V0  1  -0.78629407  0.78629407  0.75000000  1.0
  V  V1  1  -0.21370593  0.21370593  0.25000000  1.0
  Au  Au2  1  -0.12102145  0.44465095  0.75000000  1.0
  Au  Au3  1  -0.55534905  0.87897855  0.25000000  1.0
  Au  Au4  1  -0.44465095  1.12102145  0.75000000  1.0
  Au  Au5  1  0.12102145  0.55534905  0.25000000  1.0
