# generated using pymatgen
data_TlP2HO7
_symmetry_space_group_name_H-M   'P 1'
_cell_length_a   7.40558331
_cell_length_b   9.10736228
_cell_length_c   10.13244225
_cell_angle_alpha   90.00000000
_cell_angle_beta   119.72170132
_cell_angle_gamma   90.00000000
_symmetry_Int_Tables_number   1
_chemical_formula_structural   TlP2HO7
_chemical_formula_sum   'Tl4 P8 H4 O28'
_cell_volume   593.48225374
_cell_formula_units_Z   4
loop_
 _symmetry_equiv_pos_site_id
 _symmetry_equiv_pos_as_xyz
  1  'x, y, z'
loop_
 _atom_site_type_symbol
 _atom_site_label
 _atom_site_symmetry_multiplicity
 _atom_site_fract_x
 _atom_site_fract_y
 _atom_site_fract_z
 _atom_site_occupancy
  Tl  Tl0  1  0.47533043  0.29104050  0.49956515  1.0
  Tl  Tl1  1  0.47533043  0.20895950  0.99956515  1.0
  Tl  Tl2  1  0.52466957  0.79104050  0.00043485  1.0
  Tl  Tl3  1  0.52466957  0.70895950  0.50043485  1.0
  P  P4  1  0.94232829  0.35739102  0.26909313  1.0
  P  P5  1  0.94232829  0.14260898  0.76909313  1.0
  P  P6  1  0.05767171  0.85739102  0.23090687  1.0
  P  P7  1  0.05767171  0.64260898  0.73090687  1.0
  P  P8  1  0.56364929  0.50514567  0.23810464  1.0
  P  P9  1  0.56364929  0.99485433  0.73810464  1.0
  P  P10  1  0.43635071  0.00514567  0.26189536  1.0
  P  P11  1  0.43635071  0.49485433  0.76189536  1.0
  H  H12  1  0.94528491  0.05843257  0.28139299  1.0
  H  H13  1  0.94528491  0.44156743  0.78139299  1.0
  H  H14  1  0.05471509  0.55843257  0.21860701  1.0
  H  H15  1  0.05471509  0.94156743  0.71860701  1.0
  O  O16  1  0.01917720  0.96668695  0.33440174  1.0
  O  O17  1  0.01917720  0.53331305  0.83440174  1.0
  O  O18  1  0.98082280  0.46668695  0.16559826  1.0
  O  O19  1  0.98082280  0.03331305  0.66559826  1.0
  O  O20  1  0.86396501  0.81630033  0.08402331  1.0
  O  O21  1  0.86396501  0.68369967  0.58402331  1.0
  O  O22  1  0.13603499  0.31630033  0.41597669  1.0
  O  O23  1  0.13603499  0.18369967  0.91597669  1.0
  O  O24  1  0.79965241  0.44139095  0.32479797  1.0
  O  O25  1  0.79965241  0.05860905  0.82479797  1.0
  O  O26  1  0.20034759  0.94139095  0.17520203  1.0
  O  O27  1  0.20034759  0.55860905  0.67520203  1.0
  O  O28  1  0.82404354  0.22262404  0.17252557  1.0
  O  O29  1  0.82404354  0.27737596  0.67252557  1.0
  O  O30  1  0.17595646  0.72262404  0.32747443  1.0
  O  O31  1  0.17595646  0.77737596  0.82747443  1.0
  O  O32  1  0.49886761  0.49450382  0.36368603  1.0
  O  O33  1  0.49886761  0.00549618  0.86368603  1.0
  O  O34  1  0.50113239  0.99450382  0.13631397  1.0
  O  O35  1  0.50113239  0.50549618  0.63631397  1.0
  O  O36  1  0.43201533  0.16939703  0.29409389  1.0
  O  O37  1  0.43201533  0.33060297  0.79409389  1.0
  O  O38  1  0.56798467  0.66939703  0.20590611  1.0
  O  O39  1  0.56798467  0.83060297  0.70590611  1.0
  O  O40  1  0.42897993  0.41403092  0.09729993  1.0
  O  O41  1  0.42897993  0.08596908  0.59729993  1.0
  O  O42  1  0.57102007  0.91403092  0.40270007  1.0
  O  O43  1  0.57102007  0.58596908  0.90270007  1.0
