# generated using pymatgen
data_Y5SbPd2
_symmetry_space_group_name_H-M   'P 1'
_cell_length_a   8.78358332
_cell_length_b   8.78358332
_cell_length_c   8.78358332
_cell_angle_alpha   127.58202207
_cell_angle_beta   127.58202207
_cell_angle_gamma   77.30312084
_symmetry_Int_Tables_number   1
_chemical_formula_structural   Y5SbPd2
_chemical_formula_sum   'Y10 Sb2 Pd4'
_cell_volume   412.90777753
_cell_formula_units_Z   2
loop_
 _symmetry_equiv_pos_site_id
 _symmetry_equiv_pos_as_xyz
  1  'x, y, z'
loop_
 _atom_site_type_symbol
 _atom_site_label
 _atom_site_symmetry_multiplicity
 _atom_site_fract_x
 _atom_site_fract_y
 _atom_site_fract_z
 _atom_site_occupancy
  Y  Y0  1  1.20038570  0.70038570  1.18710305  1.0
  Y  Y1  1  0.48671735  0.98671735  1.18710305  1.0
  Y  Y2  1  1.01328265  1.20038570  1.50000000  1.0
  Y  Y3  1  0.29961430  0.48671735  0.50000000  1.0
  Y  Y4  1  0.70038570  0.51328265  0.50000000  1.0
  Y  Y5  1  0.98671735  0.79961430  1.50000000  1.0
  Y  Y6  1  0.51328265  1.01328265  0.81289695  1.0
  Y  Y7  1  0.79961430  0.29961430  0.81289695  1.0
  Y  Y8  1  0.00000000  0.00000000  0.00000000  1.0
  Y  Y9  1  0.50000000  0.50000000  1.00000000  1.0
  Sb  Sb10  1  0.75000000  0.75000000  1.00000000  1.0
  Sb  Sb11  1  0.25000000  0.25000000  0.00000000  1.0
  Pd  Pd12  1  0.86405515  0.36405515  1.22811031  1.0
  Pd  Pd13  1  0.63594485  0.86405515  1.50000000  1.0
  Pd  Pd14  1  0.36405515  0.13594485  0.50000000  1.0
  Pd  Pd15  1  0.13594485  0.63594485  0.77188969  1.0
