# generated using pymatgen
data_TiAl2
_symmetry_space_group_name_H-M   'P 1'
_cell_length_a   12.47224658
_cell_length_b   12.47224658
_cell_length_c   12.47224658
_cell_angle_alpha   161.69246889
_cell_angle_beta   161.69246889
_cell_angle_gamma   26.00335248
_symmetry_Int_Tables_number   1
_chemical_formula_structural   TiAl2
_chemical_formula_sum   'Ti4 Al8'
_cell_volume   191.36882391
_cell_formula_units_Z   4
loop_
 _symmetry_equiv_pos_site_id
 _symmetry_equiv_pos_as_xyz
  1  'x, y, z'
loop_
 _atom_site_type_symbol
 _atom_site_label
 _atom_site_symmetry_multiplicity
 _atom_site_fract_x
 _atom_site_fract_y
 _atom_site_fract_z
 _atom_site_occupancy
  Ti  Ti0  1  0.82786097  0.32786097  0.50000000  1.0
  Ti  Ti1  1  0.92213903  0.92213903  1.00000000  1.0
  Ti  Ti2  1  0.67213903  0.17213903  0.50000000  1.0
  Ti  Ti3  1  0.07786097  0.07786097  0.00000000  1.0
  Al  Al4  1  0.00014087  0.50014087  0.50000000  1.0
  Al  Al5  1  0.74985913  0.74985913  1.00000000  1.0
  Al  Al6  1  0.49985913  -0.00014087  0.50000000  1.0
  Al  Al7  1  0.25014087  0.25014087  -0.00000000  1.0
  Al  Al8  1  0.16352908  0.66352908  0.50000000  1.0
  Al  Al9  1  0.58647092  0.58647092  1.00000000  1.0
  Al  Al10  1  0.33647092  0.83647092  0.50000000  1.0
  Al  Al11  1  0.41352908  0.41352908  -0.00000000  1.0
