# generated using pymatgen
data_Zn(AuF4)2
_symmetry_space_group_name_H-M   'P 1'
_cell_length_a   5.61899799
_cell_length_b   5.75467355
_cell_length_c   11.14847384
_cell_angle_alpha   90.00000000
_cell_angle_beta   109.67185674
_cell_angle_gamma   90.00000000
_symmetry_Int_Tables_number   1
_chemical_formula_structural   Zn(AuF4)2
_chemical_formula_sum   'Zn2 Au4 F16'
_cell_volume   339.45174578
_cell_formula_units_Z   2
loop_
 _symmetry_equiv_pos_site_id
 _symmetry_equiv_pos_as_xyz
  1  'x, y, z'
loop_
 _atom_site_type_symbol
 _atom_site_label
 _atom_site_symmetry_multiplicity
 _atom_site_fract_x
 _atom_site_fract_y
 _atom_site_fract_z
 _atom_site_occupancy
  Zn  Zn0  1  -0.00000000  0.50000000  0.50000000  1.0
  Zn  Zn1  1  0.00000000  -0.00000000  0.00000000  1.0
  Au  Au2  1  0.63532688  0.26990776  0.17368964  1.0
  Au  Au3  1  0.63532688  0.23009224  0.67368964  1.0
  Au  Au4  1  0.36467312  0.76990776  0.32631036  1.0
  Au  Au5  1  0.36467312  0.73009224  0.82631036  1.0
  F  F6  1  0.93270240  0.35967842  0.31880444  1.0
  F  F7  1  0.93270240  0.14032158  0.81880444  1.0
  F  F8  1  0.06729760  0.85967842  0.18119556  1.0
  F  F9  1  0.06729760  0.64032158  0.68119556  1.0
  F  F10  1  0.84144668  0.27426387  0.05984409  1.0
  F  F11  1  0.84144668  0.22573613  0.55984409  1.0
  F  F12  1  0.15855332  0.77426387  0.44015591  1.0
  F  F13  1  0.15855332  0.72573613  0.94015591  1.0
  F  F14  1  0.66618512  0.68465450  0.47016288  1.0
  F  F15  1  0.66618512  0.81534550  0.97016288  1.0
  F  F16  1  0.33381488  0.18465450  0.02983712  1.0
  F  F17  1  0.33381488  0.31534550  0.52983712  1.0
  F  F18  1  0.43500245  0.27216019  0.28363857  1.0
  F  F19  1  0.43500245  0.22783981  0.78363857  1.0
  F  F20  1  0.56499755  0.77216019  0.21636143  1.0
  F  F21  1  0.56499755  0.72783981  0.71636143  1.0
