# generated using pymatgen
data_NaSbS2
_symmetry_space_group_name_H-M   'P 1'
_cell_length_a   5.89031429
_cell_length_b   5.89031429
_cell_length_c   6.91597851
_cell_angle_alpha   67.08167331
_cell_angle_beta   112.91832669
_cell_angle_gamma   88.87002407
_symmetry_Int_Tables_number   1
_chemical_formula_structural   NaSbS2
_chemical_formula_sum   'Na2 Sb2 S4'
_cell_volume   199.37051694
_cell_formula_units_Z   2
loop_
 _symmetry_equiv_pos_site_id
 _symmetry_equiv_pos_as_xyz
  1  'x, y, z'
loop_
 _atom_site_type_symbol
 _atom_site_label
 _atom_site_symmetry_multiplicity
 _atom_site_fract_x
 _atom_site_fract_y
 _atom_site_fract_z
 _atom_site_occupancy
  Na  Na0  1  0.86640099  -0.13359901  0.75000000  1.0
  Na  Na1  1  1.13359901  0.13359901  0.25000000  1.0
  Sb  Sb2  1  1.40120886  0.40120886  0.75000000  1.0
  Sb  Sb3  1  0.59879114  -0.40120886  0.25000000  1.0
  S  S4  1  0.36967773  -0.18517436  0.76393415  1.0
  S  S5  1  1.18517436  0.63032227  0.26393415  1.0
  S  S6  1  0.81482564  -0.63032227  0.73606585  1.0
  S  S7  1  1.63032227  0.18517436  0.23606585  1.0
