# generated using pymatgen
data_Mg2C3
_symmetry_space_group_name_H-M   'P 1'
_cell_length_a   3.35627905
_cell_length_b   3.35627905
_cell_length_c   5.04185749
_cell_angle_alpha   79.76311177
_cell_angle_beta   100.23688823
_cell_angle_gamma   91.31081890
_symmetry_Int_Tables_number   1
_chemical_formula_structural   Mg2C3
_chemical_formula_sum   'Mg2 C3'
_cell_volume   54.99854151
_cell_formula_units_Z   1
loop_
 _symmetry_equiv_pos_site_id
 _symmetry_equiv_pos_as_xyz
  1  'x, y, z'
loop_
 _atom_site_type_symbol
 _atom_site_label
 _atom_site_symmetry_multiplicity
 _atom_site_fract_x
 _atom_site_fract_y
 _atom_site_fract_z
 _atom_site_occupancy
  Mg  Mg0  1  1.30883757  -0.30883757  0.69723244  1.0
  Mg  Mg1  1  0.69116243  0.30883757  0.30276756  1.0
  C  C2  1  0.80336697  0.19663303  0.76170426  1.0
  C  C3  1  1.19663303  -0.19663303  0.23829574  1.0
  C  C4  1  0.00000000  0.00000000  0.00000000  1.0
