# generated using pymatgen
data_Ni6W6C
_symmetry_space_group_name_H-M   'P 1'
_cell_length_a   7.71391446
_cell_length_b   7.71391446
_cell_length_c   7.71391446
_cell_angle_alpha   60.00000000
_cell_angle_beta   60.00000000
_cell_angle_gamma   60.00000000
_symmetry_Int_Tables_number   1
_chemical_formula_structural   Ni6W6C
_chemical_formula_sum   'Ni12 W12 C2'
_cell_volume   324.57080917
_cell_formula_units_Z   2
loop_
 _symmetry_equiv_pos_site_id
 _symmetry_equiv_pos_as_xyz
  1  'x, y, z'
loop_
 _atom_site_type_symbol
 _atom_site_label
 _atom_site_symmetry_multiplicity
 _atom_site_fract_x
 _atom_site_fract_y
 _atom_site_fract_z
 _atom_site_occupancy
  Ni  Ni0  1  -0.08384857  0.91615143  0.25154570  1.0
  Ni  Ni1  1  0.91615143  -0.74845430  0.91615143  1.0
  Ni  Ni2  1  -0.74845430  0.91615143  0.91615143  1.0
  Ni  Ni3  1  0.91615143  -0.08384857  0.91615143  1.0
  Ni  Ni4  1  0.33384857  0.33384857  -0.00154570  1.0
  Ni  Ni5  1  0.33384857  -0.00154570  0.33384857  1.0
  Ni  Ni6  1  -0.00154570  0.33384857  0.33384857  1.0
  Ni  Ni7  1  0.33384857  0.33384857  0.33384857  1.0
  Ni  Ni8  1  0.12500000  0.12500000  1.62500000  1.0
  Ni  Ni9  1  0.12500000  0.62500000  0.12500000  1.0
  Ni  Ni10  1  0.62500000  0.12500000  1.12500000  1.0
  Ni  Ni11  1  0.12500000  0.12500000  0.12500000  1.0
  W  W12  1  0.55064645  -0.44935355  0.94935355  1.0
  W  W13  1  0.94935355  -0.44935355  0.94935355  1.0
  W  W14  1  0.55064645  -0.05064645  0.94935355  1.0
  W  W15  1  0.94935355  -0.05064645  0.55064645  1.0
  W  W16  1  0.55064645  -0.05064645  0.55064645  1.0
  W  W17  1  0.94935355  -0.44935355  0.55064645  1.0
  W  W18  1  -0.30064645  0.69935355  0.30064645  1.0
  W  W19  1  0.30064645  0.69935355  0.30064645  1.0
  W  W20  1  -0.30064645  1.30064645  0.30064645  1.0
  W  W21  1  0.30064645  0.30064645  -0.30064645  1.0
  W  W22  1  0.69935355  0.30064645  0.69935355  1.0
  W  W23  1  0.30064645  0.69935355  -0.30064645  1.0
  C  C24  1  0.75000000  -0.25000000  0.75000000  1.0
  C  C25  1  0.50000000  0.50000000  -0.50000000  1.0
