# generated using pymatgen
data_Cd(PO3)2
_symmetry_space_group_name_H-M   'P 1'
_cell_length_a   7.67815202
_cell_length_b   7.67815202
_cell_length_c   10.62131620
_cell_angle_alpha   66.33863104
_cell_angle_beta   113.66136896
_cell_angle_gamma   110.38127852
_symmetry_Int_Tables_number   1
_chemical_formula_structural   Cd(PO3)2
_chemical_formula_sum   'Cd4 P8 O24'
_cell_volume   512.06960704
_cell_formula_units_Z   4
loop_
 _symmetry_equiv_pos_site_id
 _symmetry_equiv_pos_as_xyz
  1  'x, y, z'
loop_
 _atom_site_type_symbol
 _atom_site_label
 _atom_site_symmetry_multiplicity
 _atom_site_fract_x
 _atom_site_fract_y
 _atom_site_fract_z
 _atom_site_occupancy
  Cd  Cd0  1  0.53543629  -0.46456371  0.75000000  1.0
  Cd  Cd1  1  0.46456371  0.46456371  0.25000000  1.0
  Cd  Cd2  1  0.50000000  -0.00000000  0.50000000  1.0
  Cd  Cd3  1  1.00000000  0.50000000  0.00000000  1.0
  P  P4  1  0.80949133  0.18604532  0.81130752  1.0
  P  P5  1  0.81395468  0.19050867  0.31130752  1.0
  P  P6  1  1.18604532  0.80949133  0.68869248  1.0
  P  P7  1  0.19050867  -0.18604532  0.18869248  1.0
  P  P8  1  1.23946344  0.22240705  0.97934012  1.0
  P  P9  1  0.77759295  0.76053656  0.47934012  1.0
  P  P10  1  1.22240705  0.23946344  0.52065988  1.0
  P  P11  1  1.76053656  -0.22240705  0.02065988  1.0
  O  O12  1  1.69973691  -0.21563647  0.58182564  1.0
  O  O13  1  1.21563647  -0.69973691  0.08182564  1.0
  O  O14  1  0.78436353  -0.30026309  0.91817436  1.0
  O  O15  1  1.30026309  0.21563647  0.41817436  1.0
  O  O16  1  1.75543945  0.00615400  0.94536433  1.0
  O  O17  1  0.99384600  0.24456055  0.44536433  1.0
  O  O18  1  1.00615400  0.75543945  0.55463567  1.0
  O  O19  1  1.24456055  -0.00615400  0.05463567  1.0
  O  O20  1  0.36277334  -0.21964275  0.67348284  1.0
  O  O21  1  1.21964275  -0.36277334  0.17348284  1.0
  O  O22  1  0.78035725  -0.63722666  0.82651716  1.0
  O  O23  1  0.63722666  0.21964275  0.32651716  1.0
  O  O24  1  0.70516153  0.14687450  0.67016582  1.0
  O  O25  1  0.85312550  0.29483847  0.17016582  1.0
  O  O26  1  1.14687450  0.70516153  0.82983418  1.0
  O  O27  1  0.29483847  -0.14687450  0.32983418  1.0
  O  O28  1  1.21264469  0.04075577  0.65581812  1.0
  O  O29  1  0.95924423  0.78735531  0.15581812  1.0
  O  O30  1  1.04075577  0.21264469  0.84418188  1.0
  O  O31  1  1.78735531  -0.04075577  0.34418188  1.0
  O  O32  1  1.40838864  0.31899600  0.92155158  1.0
  O  O33  1  0.68100400  0.59161136  0.42155158  1.0
  O  O34  1  1.31899600  0.40838864  0.57844842  1.0
  O  O35  1  1.59161136  -0.31899600  0.07844842  1.0
