# generated using pymatgen
data_BaTe2F10
_symmetry_space_group_name_H-M   'P 1'
_cell_length_a   9.20401248
_cell_length_b   9.20401248
_cell_length_c   10.54527293
_cell_angle_alpha   67.48360309
_cell_angle_beta   112.51639691
_cell_angle_gamma   148.48305221
_symmetry_Int_Tables_number   1
_chemical_formula_structural   BaTe2F10
_chemical_formula_sum   'Ba2 Te4 F20'
_cell_volume   428.42878571
_cell_formula_units_Z   2
loop_
 _symmetry_equiv_pos_site_id
 _symmetry_equiv_pos_as_xyz
  1  'x, y, z'
loop_
 _atom_site_type_symbol
 _atom_site_label
 _atom_site_symmetry_multiplicity
 _atom_site_fract_x
 _atom_site_fract_y
 _atom_site_fract_z
 _atom_site_occupancy
  Ba  Ba0  1  0.45567842  0.45567842  0.25000000  1.0
  Ba  Ba1  1  0.54432158  0.54432158  0.75000000  1.0
  Te  Te2  1  0.78374054  0.10229740  0.42715603  1.0
  Te  Te3  1  0.89770260  0.21625946  0.92715603  1.0
  Te  Te4  1  1.10229740  0.78374054  0.07284397  1.0
  Te  Te5  1  0.21625946  -0.10229740  0.57284397  1.0
  F  F6  1  0.67270335  -0.20825688  0.44706057  1.0
  F  F7  1  1.20825688  0.32729665  0.94706057  1.0
  F  F8  1  0.79174312  0.67270335  0.05293943  1.0
  F  F9  1  0.32729665  0.20825688  0.55293943  1.0
  F  F10  1  0.85212212  0.00078763  0.12032997  1.0
  F  F11  1  0.99921237  0.14787788  0.62032997  1.0
  F  F12  1  1.00078763  0.85212212  0.37967003  1.0
  F  F13  1  0.14787788  -0.00078763  0.87967003  1.0
  F  F14  1  0.53357900  -0.05479551  0.24660177  1.0
  F  F15  1  1.05479551  0.46642100  0.74660177  1.0
  F  F16  1  0.94520449  0.53357900  0.25339823  1.0
  F  F17  1  0.46642100  0.05479551  0.75339823  1.0
  F  F18  1  0.56040892  0.22178240  0.46426261  1.0
  F  F19  1  0.77821760  0.43959108  0.96426261  1.0
  F  F20  1  1.22178240  0.56040892  0.03573739  1.0
  F  F21  1  0.43959108  -0.22178240  0.53573739  1.0
  F  F22  1  0.31195369  0.09608023  0.16340160  1.0
  F  F23  1  0.90391977  0.68804631  0.66340160  1.0
  F  F24  1  1.09608023  0.31195369  0.33659840  1.0
  F  F25  1  0.68804631  -0.09608023  0.83659840  1.0
