# generated using pymatgen
data_RbBi3S5
_symmetry_space_group_name_H-M   'P 1'
_cell_length_a   12.99182310
_cell_length_b   18.94280099
_cell_length_c   4.17927440
_cell_angle_alpha   90.00000000
_cell_angle_beta   90.00000000
_cell_angle_gamma   90.00000000
_symmetry_Int_Tables_number   1
_chemical_formula_structural   RbBi3S5
_chemical_formula_sum   'Rb4 Bi12 S20'
_cell_volume   1028.52578122
_cell_formula_units_Z   4
loop_
 _symmetry_equiv_pos_site_id
 _symmetry_equiv_pos_as_xyz
  1  'x, y, z'
loop_
 _atom_site_type_symbol
 _atom_site_label
 _atom_site_symmetry_multiplicity
 _atom_site_fract_x
 _atom_site_fract_y
 _atom_site_fract_z
 _atom_site_occupancy
  S  S0  1  0.39831067  0.70834452  0.50000000  1.0
  S  S1  1  0.89831067  0.79165548  -0.00000000  1.0
  S  S2  1  0.60168933  0.29165548  0.50000000  1.0
  S  S3  1  0.10168933  0.20834452  0.00000000  1.0
  S  S4  1  0.20336927  0.06086930  0.50000000  1.0
  S  S5  1  0.70336927  0.43913070  0.00000000  1.0
  S  S6  1  0.79663073  0.93913070  0.50000000  1.0
  S  S7  1  0.29663073  0.56086930  -0.00000000  1.0
  S  S8  1  0.09942371  0.67120470  0.50000000  1.0
  S  S9  1  0.59942371  0.82879530  0.00000000  1.0
  S  S10  1  0.90057629  0.32879530  0.50000000  1.0
  S  S11  1  0.40057629  0.17120470  0.00000000  1.0
  S  S12  1  0.79960468  0.62751752  0.50000000  1.0
  S  S13  1  0.29960468  0.87248248  0.00000000  1.0
  S  S14  1  0.20039532  0.37248248  0.50000000  1.0
  S  S15  1  0.70039532  0.12751752  0.00000000  1.0
  S  S16  1  0.50000000  0.00000000  0.50000000  1.0
  S  S17  1  0.00000000  0.50000000  -0.00000000  1.0
  S  S18  1  0.50000000  0.50000000  0.50000000  1.0
  S  S19  1  0.00000000  0.00000000  0.00000000  1.0
  Rb  Rb20  1  0.07178919  0.88523057  0.50000000  1.0
  Rb  Rb21  1  0.57178919  0.61476943  0.00000000  1.0
  Rb  Rb22  1  0.92821081  0.11476943  0.50000000  1.0
  Rb  Rb23  1  0.42821081  0.38523057  -0.00000000  1.0
  Bi  Bi24  1  0.43558237  0.84997175  0.50000000  1.0
  Bi  Bi25  1  0.93558237  0.65002825  0.00000000  1.0
  Bi  Bi26  1  0.56441763  0.15002825  0.50000000  1.0
  Bi  Bi27  1  0.06441763  0.34997175  0.00000000  1.0
  Bi  Bi28  1  0.23979702  0.19856321  0.50000000  1.0
  Bi  Bi29  1  0.73979702  0.30143679  0.00000000  1.0
  Bi  Bi30  1  0.76020298  0.80143679  0.50000000  1.0
  Bi  Bi31  1  0.26020298  0.69856321  0.00000000  1.0
  Bi  Bi32  1  0.16357482  0.53088471  0.50000000  1.0
  Bi  Bi33  1  0.66357482  0.96911529  0.00000000  1.0
  Bi  Bi34  1  0.83642518  0.46911529  0.50000000  1.0
  Bi  Bi35  1  0.33642518  0.03088471  0.00000000  1.0
