# generated using pymatgen
data_KCuS
_symmetry_space_group_name_H-M   'P 1'
_cell_length_a   10.80361630
_cell_length_b   6.33255036
_cell_length_c   5.32547034
_cell_angle_alpha   90.00000000
_cell_angle_beta   90.00000000
_cell_angle_gamma   90.00000000
_symmetry_Int_Tables_number   1
_chemical_formula_structural   KCuS
_chemical_formula_sum   'K4 Cu4 S4'
_cell_volume   364.33909372
_cell_formula_units_Z   4
loop_
 _symmetry_equiv_pos_site_id
 _symmetry_equiv_pos_as_xyz
  1  'x, y, z'
loop_
 _atom_site_type_symbol
 _atom_site_label
 _atom_site_symmetry_multiplicity
 _atom_site_fract_x
 _atom_site_fract_y
 _atom_site_fract_z
 _atom_site_occupancy
  K  K0  1  0.34706353  0.97949393  0.25144170  1.0
  K  K1  1  0.84706353  0.52050607  0.25144170  1.0
  K  K2  1  0.65293647  0.02050607  0.75144170  1.0
  K  K3  1  0.15293647  0.47949393  0.75144170  1.0
  Cu  Cu4  1  0.50000073  0.50002354  0.50126685  1.0
  Cu  Cu5  1  0.00000073  -0.00002354  0.50126685  1.0
  Cu  Cu6  1  0.49999927  0.49997646  0.00126685  1.0
  Cu  Cu7  1  -0.00000073  0.00002354  0.00126685  1.0
  S  S8  1  0.08898745  0.22176881  0.25129145  1.0
  S  S9  1  0.58898745  0.27823119  0.25129145  1.0
  S  S10  1  0.91101255  0.77823119  0.75129145  1.0
  S  S11  1  0.41101255  0.72176881  0.75129145  1.0
