# generated using pymatgen
data_Gd2HgO4
_symmetry_space_group_name_H-M   'P 1'
_cell_length_a   7.14449029
_cell_length_b   7.14449029
_cell_length_c   10.19478437
_cell_angle_alpha   59.69541153
_cell_angle_beta   120.30458847
_cell_angle_gamma   149.80030097
_symmetry_Int_Tables_number   1
_chemical_formula_structural   Gd2HgO4
_chemical_formula_sum   'Gd4 Hg2 O8'
_cell_volume   223.16335530
_cell_formula_units_Z   2
loop_
 _symmetry_equiv_pos_site_id
 _symmetry_equiv_pos_as_xyz
  1  'x, y, z'
loop_
 _atom_site_type_symbol
 _atom_site_label
 _atom_site_symmetry_multiplicity
 _atom_site_fract_x
 _atom_site_fract_y
 _atom_site_fract_z
 _atom_site_occupancy
  Gd  Gd0  1  0.84126994  -0.84126994  0.20097642  1.0
  Gd  Gd1  1  0.15873006  -0.15873006  0.79902358  1.0
  Gd  Gd2  1  0.61987044  0.38012956  0.46107474  1.0
  Gd  Gd3  1  1.38012956  -0.38012956  0.53892526  1.0
  Hg  Hg4  1  0.88626142  0.11373858  0.83978706  1.0
  Hg  Hg5  1  1.11373858  -0.11373858  0.16021294  1.0
  O  O6  1  0.58122520  0.41877480  0.65348608  1.0
  O  O7  1  1.41877480  -0.41877480  0.34651392  1.0
  O  O8  1  0.96416979  -0.96416979  0.72070552  1.0
  O  O9  1  0.03583021  -0.03583021  0.27929448  1.0
  O  O10  1  0.79653838  0.20346162  0.94324073  1.0
  O  O11  1  1.20346162  -0.20346162  0.05675927  1.0
  O  O12  1  0.77101721  -0.77101721  0.39037817  1.0
  O  O13  1  0.22898279  -0.22898279  0.60962183  1.0
