# generated using pymatgen
data_Y5Ru2
_symmetry_space_group_name_H-M   'P 1'
_cell_length_a   8.53125678
_cell_length_b   8.53125678
_cell_length_c   7.29090002
_cell_angle_alpha   83.23891769
_cell_angle_beta   96.76108231
_cell_angle_gamma   136.09250395
_symmetry_Int_Tables_number   1
_chemical_formula_structural   Y5Ru2
_chemical_formula_sum   'Y10 Ru4'
_cell_volume   365.02614253
_cell_formula_units_Z   2
loop_
 _symmetry_equiv_pos_site_id
 _symmetry_equiv_pos_as_xyz
  1  'x, y, z'
loop_
 _atom_site_type_symbol
 _atom_site_label
 _atom_site_symmetry_multiplicity
 _atom_site_fract_x
 _atom_site_fract_y
 _atom_site_fract_z
 _atom_site_occupancy
  Y  Y0  1  1.70626353  0.13899198  0.18502952  1.0
  Y  Y1  1  0.86100802  -0.70626353  0.68502952  1.0
  Y  Y2  1  1.13899198  -0.29373647  0.31497048  1.0
  Y  Y3  1  1.29373647  -0.13899198  0.81497048  1.0
  Y  Y4  1  1.48252271  0.29586160  0.41337444  1.0
  Y  Y5  1  0.70413840  -0.48252271  0.91337444  1.0
  Y  Y6  1  1.29586160  -0.51747729  0.08662556  1.0
  Y  Y7  1  1.51747729  -0.29586160  0.58662556  1.0
  Y  Y8  1  0.92195604  0.92195604  0.25000000  1.0
  Y  Y9  1  0.07804396  0.07804396  0.75000000  1.0
  Ru  Ru10  1  1.67480188  -0.10298673  0.92285129  1.0
  Ru  Ru11  1  1.10298673  -0.67480188  0.42285129  1.0
  Ru  Ru12  1  0.89701327  -0.32519812  0.57714871  1.0
  Ru  Ru13  1  1.32519812  0.10298673  0.07714871  1.0
