# generated using pymatgen
data_RbGa3
_symmetry_space_group_name_H-M   'P 1'
_cell_length_a   8.83490374
_cell_length_b   8.83490374
_cell_length_c   8.83490374
_cell_angle_alpha   137.47660361
_cell_angle_beta   137.47660361
_cell_angle_gamma   61.70555745
_symmetry_Int_Tables_number   1
_chemical_formula_structural   RbGa3
_chemical_formula_sum   'Rb3 Ga9'
_cell_volume   311.40318588
_cell_formula_units_Z   3
loop_
 _symmetry_equiv_pos_site_id
 _symmetry_equiv_pos_as_xyz
  1  'x, y, z'
loop_
 _atom_site_type_symbol
 _atom_site_label
 _atom_site_symmetry_multiplicity
 _atom_site_fract_x
 _atom_site_fract_y
 _atom_site_fract_z
 _atom_site_occupancy
  Rb  Rb0  1  0.12778253  0.62778253  0.50000000  1.0
  Rb  Rb1  1  0.37221747  0.87221747  0.50000000  1.0
  Rb  Rb2  1  0.50000000  0.50000000  1.00000000  1.0
  Ga  Ga3  1  0.48432815  0.27670963  0.20761852  1.0
  Ga  Ga4  1  0.72329037  0.51567185  0.79238148  1.0
  Ga  Ga5  1  0.72329037  0.93090889  1.20761852  1.0
  Ga  Ga6  1  1.06909111  0.27670963  0.79238148  1.0
  Ga  Ga7  1  0.41460037  0.10833175  0.30626862  1.0
  Ga  Ga8  1  0.89166825  0.58539963  0.69373138  1.0
  Ga  Ga9  1  0.89166825  1.19793687  1.30626862  1.0
  Ga  Ga10  1  0.80206313  0.10833175  0.69373138  1.0
  Ga  Ga11  1  0.00000000  0.00000000  0.00000000  1.0
