# generated using pymatgen
data_Lu2CoGe6
_symmetry_space_group_name_H-M   'P 1'
_cell_length_a   10.81136406
_cell_length_b   10.81136406
_cell_length_c   4.02545796
_cell_angle_alpha   90.00000000
_cell_angle_beta   90.00000000
_cell_angle_gamma   158.97708688
_symmetry_Int_Tables_number   1
_chemical_formula_structural   Lu2CoGe6
_chemical_formula_sum   'Lu2 Co1 Ge6'
_cell_volume   168.79423851
_cell_formula_units_Z   1
loop_
 _symmetry_equiv_pos_site_id
 _symmetry_equiv_pos_as_xyz
  1  'x, y, z'
loop_
 _atom_site_type_symbol
 _atom_site_label
 _atom_site_symmetry_multiplicity
 _atom_site_fract_x
 _atom_site_fract_y
 _atom_site_fract_z
 _atom_site_occupancy
  Lu  Lu0  1  -0.22401254  0.22401254  0.50000000  1.0
  Lu  Lu1  1  0.11422914  0.88577086  0.50000000  1.0
  Co  Co2  1  -0.44445261  0.44445261  0.00000000  1.0
  Ge  Ge3  1  -0.50016802  0.50016802  0.50000000  1.0
  Ge  Ge4  1  0.38122042  0.61877958  0.50000000  1.0
  Ge  Ge5  1  -0.00152549  0.00152549  0.00000000  1.0
  Ge  Ge6  1  -0.12093424  0.12093424  0.00000000  1.0
  Ge  Ge7  1  -0.33753703  0.33753703  0.00000000  1.0
  Ge  Ge8  1  0.24018037  0.75981963  0.00000000  1.0
