# generated using pymatgen
data_Ge3Pb3O10
_symmetry_space_group_name_H-M   'P 1'
_cell_length_a   9.54921466
_cell_length_b   9.54921466
_cell_length_c   9.54921466
_cell_angle_alpha   113.53882955
_cell_angle_beta   113.53882955
_cell_angle_gamma   113.53882955
_symmetry_Int_Tables_number   1
_chemical_formula_structural   Ge3Pb3O10
_chemical_formula_sum   'Ge6 Pb6 O20'
_cell_volume   546.65508190
_cell_formula_units_Z   2
loop_
 _symmetry_equiv_pos_site_id
 _symmetry_equiv_pos_as_xyz
  1  'x, y, z'
loop_
 _atom_site_type_symbol
 _atom_site_label
 _atom_site_symmetry_multiplicity
 _atom_site_fract_x
 _atom_site_fract_y
 _atom_site_fract_z
 _atom_site_occupancy
  O  O0  1  0.97811439  0.04634699  0.27889449  1.0
  O  O1  1  0.72110551  0.02188561  -0.04634699  1.0
  O  O2  1  0.95365301  0.72110551  0.02188561  1.0
  O  O3  1  1.02188561  0.95365301  0.72110551  1.0
  O  O4  1  0.27889449  -0.02188561  0.04634699  1.0
  O  O5  1  1.04634699  1.27889449  -0.02188561  1.0
  O  O6  1  0.81710701  0.23492179  0.34619759  1.0
  O  O7  1  0.65380241  0.18289299  -0.23492179  1.0
  O  O8  1  0.76507821  0.65380241  0.18289299  1.0
  O  O9  1  1.18289299  0.76507821  0.65380241  1.0
  O  O10  1  0.34619759  0.81710701  -0.76507821  1.0
  O  O11  1  1.23492179  1.34619759  -0.18289299  1.0
  O  O12  1  1.21433796  0.96641324  0.46597019  1.0
  O  O13  1  0.53402981  -0.21433796  0.03358676  1.0
  O  O14  1  1.03358676  1.53402981  -0.21433796  1.0
  O  O15  1  0.78566204  1.03358676  -0.46597019  1.0
  O  O16  1  0.46597019  0.21433796  -0.03358676  1.0
  O  O17  1  0.96641324  0.46597019  0.21433796  1.0
  O  O18  1  0.41733661  0.41733661  0.41733661  1.0
  O  O19  1  0.58266339  0.58266339  0.58266339  1.0
  Pb  Pb20  1  0.79660906  0.48866748  0.32642198  1.0
  Pb  Pb21  1  0.67357802  1.20339094  -0.48866748  1.0
  Pb  Pb22  1  0.51133252  0.67357802  -0.79660906  1.0
  Pb  Pb23  1  1.20339094  0.51133252  0.67357802  1.0
  Pb  Pb24  1  1.32642198  0.79660906  0.48866748  1.0
  Pb  Pb25  1  0.48866748  0.32642198  -0.20339094  1.0
  Ge  Ge26  1  0.97832799  0.84665056  0.24114693  1.0
  Ge  Ge27  1  0.75885307  0.02167201  0.15334944  1.0
  Ge  Ge28  1  1.15334944  1.75885307  0.02167201  1.0
  Ge  Ge29  1  1.02167201  1.15334944  -0.24114693  1.0
  Ge  Ge30  1  0.24114693  -0.02167201  -0.15334944  1.0
  Ge  Ge31  1  0.84665056  0.24114693  -0.02167201  1.0
