# generated using pymatgen
data_MnH4(BrO)2
_symmetry_space_group_name_H-M   'P 1'
_cell_length_a   6.18695789
_cell_length_b   6.18695789
_cell_length_c   3.94425388
_cell_angle_alpha   79.22512448
_cell_angle_beta   100.77487552
_cell_angle_gamma   87.34511170
_symmetry_Int_Tables_number   1
_chemical_formula_structural   MnH4(BrO)2
_chemical_formula_sum   'Mn1 H4 Br2 O2'
_cell_volume   145.18551169
_cell_formula_units_Z   1
loop_
 _symmetry_equiv_pos_site_id
 _symmetry_equiv_pos_as_xyz
  1  'x, y, z'
loop_
 _atom_site_type_symbol
 _atom_site_label
 _atom_site_symmetry_multiplicity
 _atom_site_fract_x
 _atom_site_fract_y
 _atom_site_fract_z
 _atom_site_occupancy
  Mn  Mn0  1  0.00000000  0.00000000  0.00000000  1.0
  H  H1  1  0.60987981  -0.21639703  0.86305908  1.0
  H  H2  1  1.21639703  0.39012019  0.86305908  1.0
  H  H3  1  0.78360297  -0.39012019  0.13694092  1.0
  H  H4  1  1.39012019  0.21639703  0.13694092  1.0
  Br  Br5  1  0.76962154  -0.76962154  0.37705287  1.0
  Br  Br6  1  0.23037846  -0.23037846  0.62294713  1.0
  O  O7  1  0.76224831  -0.23775169  0.00000000  1.0
  O  O8  1  1.23775169  0.23775169  0.00000000  1.0
