# generated using pymatgen
data_GdCrGeO5
_symmetry_space_group_name_H-M   'P 1'
_cell_length_a   7.45517233
_cell_length_b   8.53218223
_cell_length_c   5.81380955
_cell_angle_alpha   90.00000000
_cell_angle_beta   90.00000000
_cell_angle_gamma   90.00000000
_symmetry_Int_Tables_number   1
_chemical_formula_structural   GdCrGeO5
_chemical_formula_sum   'Gd4 Cr4 Ge4 O20'
_cell_volume   369.80996569
_cell_formula_units_Z   4
loop_
 _symmetry_equiv_pos_site_id
 _symmetry_equiv_pos_as_xyz
  1  'x, y, z'
loop_
 _atom_site_type_symbol
 _atom_site_label
 _atom_site_symmetry_multiplicity
 _atom_site_fract_x
 _atom_site_fract_y
 _atom_site_fract_z
 _atom_site_occupancy
  Gd  Gd0  1  0.14360350  0.82585862  0.50000000  1.0
  Gd  Gd1  1  0.64360350  0.67414138  0.50000000  1.0
  Gd  Gd2  1  0.85639650  0.17414138  0.50000000  1.0
  Gd  Gd3  1  0.35639650  0.32585862  0.50000000  1.0
  Cr  Cr4  1  0.50000000  0.00000000  0.75103338  1.0
  Cr  Cr5  1  0.50000000  0.00000000  0.24896662  1.0
  Cr  Cr6  1  0.00000000  0.50000000  0.75103338  1.0
  Cr  Cr7  1  0.00000000  0.50000000  0.24896662  1.0
  Ge  Ge8  1  0.38450850  0.64380422  0.00000000  1.0
  Ge  Ge9  1  0.88450850  0.85619578  0.00000000  1.0
  Ge  Ge10  1  0.61549150  0.35619578  0.00000000  1.0
  Ge  Ge11  1  0.11549150  0.14380422  0.00000000  1.0
  O  O12  1  0.50000000  0.50000000  0.78917139  1.0
  O  O13  1  0.50000000  0.50000000  0.21082861  1.0
  O  O14  1  0.00000000  0.00000000  0.78917139  1.0
  O  O15  1  0.00000000  0.00000000  0.21082861  1.0
  O  O16  1  0.39442134  0.78331107  0.75293315  1.0
  O  O17  1  0.39442134  0.78331107  0.24706685  1.0
  O  O18  1  0.89442134  0.71668893  0.75293315  1.0
  O  O19  1  0.89442134  0.71668893  0.24706685  1.0
  O  O20  1  0.60557866  0.21668893  0.75293315  1.0
  O  O21  1  0.60557866  0.21668893  0.24706685  1.0
  O  O22  1  0.10557866  0.28331107  0.75293315  1.0
  O  O23  1  0.10557866  0.28331107  0.24706685  1.0
  O  O24  1  0.16563858  0.55427010  0.50000000  1.0
  O  O25  1  0.66563858  0.94572990  0.50000000  1.0
  O  O26  1  0.83436142  0.44572990  0.50000000  1.0
  O  O27  1  0.33436142  0.05427010  0.50000000  1.0
  O  O28  1  0.15927566  0.57445481  0.00000000  1.0
  O  O29  1  0.65927566  0.92554519  0.00000000  1.0
  O  O30  1  0.84072434  0.42554519  0.00000000  1.0
  O  O31  1  0.34072434  0.07445481  0.00000000  1.0
