# generated using pymatgen
data_Cs(MoO3)3
_symmetry_space_group_name_H-M   'P 1'
_cell_length_a   9.33312449
_cell_length_b   9.33312449
_cell_length_c   6.50928354
_cell_angle_alpha   86.04958763
_cell_angle_beta   93.95041237
_cell_angle_gamma   131.16732011
_symmetry_Int_Tables_number   1
_chemical_formula_structural   Cs(MoO3)3
_chemical_formula_sum   'Cs2 Mo6 O18'
_cell_volume   425.61293950
_cell_formula_units_Z   2
loop_
 _symmetry_equiv_pos_site_id
 _symmetry_equiv_pos_as_xyz
  1  'x, y, z'
loop_
 _atom_site_type_symbol
 _atom_site_label
 _atom_site_symmetry_multiplicity
 _atom_site_fract_x
 _atom_site_fract_y
 _atom_site_fract_z
 _atom_site_occupancy
  Cs  Cs0  1  0.70191427  0.29808573  0.32011287  1.0
  Cs  Cs1  1  0.29808573  -0.29808573  0.67988713  1.0
  Mo  Mo2  1  0.31120350  0.20909721  0.76828759  1.0
  Mo  Mo3  1  0.79090279  0.68879650  0.76828759  1.0
  Mo  Mo4  1  1.20909721  0.31120350  0.23171241  1.0
  Mo  Mo5  1  0.68879650  -0.20909721  0.23171241  1.0
  Mo  Mo6  1  0.89222879  0.10777121  0.85911773  1.0
  Mo  Mo7  1  0.10777121  -0.10777121  0.14088227  1.0
  O  O8  1  0.69155171  -0.16349856  0.91210394  1.0
  O  O9  1  1.16349856  0.30844829  0.91210394  1.0
  O  O10  1  0.83650144  0.69155171  0.08789606  1.0
  O  O11  1  0.30844829  0.16349856  0.08789606  1.0
  O  O12  1  0.41340253  0.11928908  0.71450526  1.0
  O  O13  1  0.88071092  0.58659747  0.71450526  1.0
  O  O14  1  1.11928908  0.41340253  0.28549474  1.0
  O  O15  1  0.58659747  -0.11928908  0.28549474  1.0
  O  O16  1  0.53204141  0.46795859  0.79514108  1.0
  O  O17  1  0.46795859  -0.46795859  0.20485892  1.0
  O  O18  1  0.74203864  0.74203864  0.50000000  1.0
  O  O19  1  0.25796136  0.25796136  0.50000000  1.0
  O  O20  1  0.80300366  0.19699634  0.96668069  1.0
  O  O21  1  0.19699634  -0.19699634  0.03331931  1.0
  O  O22  1  0.86730071  0.13269929  0.59889337  1.0
  O  O23  1  0.13269929  -0.13269929  0.40110663  1.0
  O  O24  1  0.96569650  0.03430350  0.19307292  1.0
  O  O25  1  0.03430350  -0.03430350  0.80692708  1.0
