# generated using pymatgen
data_Ba3GaS4Br
_symmetry_space_group_name_H-M   'P 1'
_cell_length_a   12.54534905
_cell_length_b   9.69473770
_cell_length_c   8.60759859
_cell_angle_alpha   90.00000000
_cell_angle_beta   90.00000000
_cell_angle_gamma   90.00000000
_symmetry_Int_Tables_number   1
_chemical_formula_structural   Ba3GaS4Br
_chemical_formula_sum   'Ba12 Ga4 S16 Br4'
_cell_volume   1046.88943735
_cell_formula_units_Z   4
loop_
 _symmetry_equiv_pos_site_id
 _symmetry_equiv_pos_as_xyz
  1  'x, y, z'
loop_
 _atom_site_type_symbol
 _atom_site_label
 _atom_site_symmetry_multiplicity
 _atom_site_fract_x
 _atom_site_fract_y
 _atom_site_fract_z
 _atom_site_occupancy
  Ba  Ba0  1  0.66317552  0.47915930  0.08948464  1.0
  Ba  Ba1  1  0.66317552  0.02084070  0.08948464  1.0
  Ba  Ba2  1  0.16317552  0.47915930  0.41051536  1.0
  Ba  Ba3  1  0.16317552  0.02084070  0.41051536  1.0
  Ba  Ba4  1  0.33682448  0.97915930  0.91051536  1.0
  Ba  Ba5  1  0.33682448  0.52084070  0.91051536  1.0
  Ba  Ba6  1  0.83682448  0.97915930  0.58948464  1.0
  Ba  Ba7  1  0.83682448  0.52084070  0.58948464  1.0
  Ba  Ba8  1  0.52499136  0.25000000  0.58132090  1.0
  Ba  Ba9  1  0.02499136  0.25000000  0.91867910  1.0
  Ba  Ba10  1  0.47500864  0.75000000  0.41867910  1.0
  Ba  Ba11  1  0.97500864  0.75000000  0.08132090  1.0
  Ga  Ga12  1  0.89370608  0.25000000  0.31052853  1.0
  Ga  Ga13  1  0.39370608  0.25000000  0.18947147  1.0
  Ga  Ga14  1  0.10629392  0.75000000  0.68947147  1.0
  Ga  Ga15  1  0.60629392  0.75000000  0.81052853  1.0
  S  S16  1  0.92876607  0.45090953  0.18693345  1.0
  S  S17  1  0.92876607  0.04909047  0.18693345  1.0
  S  S18  1  0.42876607  0.45090953  0.31306655  1.0
  S  S19  1  0.42876607  0.04909047  0.31306655  1.0
  S  S20  1  0.07123393  0.95090953  0.81306655  1.0
  S  S21  1  0.07123393  0.54909047  0.81306655  1.0
  S  S22  1  0.57123393  0.95090953  0.68693345  1.0
  S  S23  1  0.57123393  0.54909047  0.68693345  1.0
  S  S24  1  0.99248727  0.25000000  0.53547596  1.0
  S  S25  1  0.49248727  0.25000000  0.96452404  1.0
  S  S26  1  0.00751273  0.75000000  0.46452404  1.0
  S  S27  1  0.50751273  0.75000000  0.03547596  1.0
  S  S28  1  0.71419083  0.25000000  0.35937280  1.0
  S  S29  1  0.21419083  0.25000000  0.14062720  1.0
  S  S30  1  0.28580917  0.75000000  0.64062720  1.0
  S  S31  1  0.78580917  0.75000000  0.85937280  1.0
  Br  Br32  1  0.76850602  0.25000000  0.83197602  1.0
  Br  Br33  1  0.26850602  0.25000000  0.66802398  1.0
  Br  Br34  1  0.23149398  0.75000000  0.16802398  1.0
  Br  Br35  1  0.73149398  0.75000000  0.33197602  1.0
