# generated using pymatgen
data_La5Si3O13
_symmetry_space_group_name_H-M   'P 1'
_cell_length_a   9.85036120
_cell_length_b   9.85036120
_cell_length_c   7.27438735
_cell_angle_alpha   90.00000000
_cell_angle_beta   90.00000000
_cell_angle_gamma   120.00000000
_symmetry_Int_Tables_number   1
_chemical_formula_structural   La5Si3O13
_chemical_formula_sum   'La10 Si6 O26'
_cell_volume   611.26758469
_cell_formula_units_Z   2
loop_
 _symmetry_equiv_pos_site_id
 _symmetry_equiv_pos_as_xyz
  1  'x, y, z'
loop_
 _atom_site_type_symbol
 _atom_site_label
 _atom_site_symmetry_multiplicity
 _atom_site_fract_x
 _atom_site_fract_y
 _atom_site_fract_z
 _atom_site_occupancy
  Si  Si0  1  0.36880590  0.96916119  0.25000000  1.0
  Si  Si1  1  0.96916119  0.60035529  0.75000000  1.0
  Si  Si2  1  0.60035529  0.63119410  0.25000000  1.0
  Si  Si3  1  0.03083881  0.39964471  0.25000000  1.0
  Si  Si4  1  0.63119410  0.03083881  0.75000000  1.0
  Si  Si5  1  0.39964471  0.36880590  0.75000000  1.0
  La  La6  1  0.99036459  0.75829256  0.25000000  1.0
  La  La7  1  0.75829256  0.76792796  0.75000000  1.0
  La  La8  1  0.76792796  0.00963541  0.25000000  1.0
  La  La9  1  0.24170744  0.23207204  0.25000000  1.0
  La  La10  1  0.00963541  0.24170744  0.75000000  1.0
  La  La11  1  0.23207204  0.99036459  0.75000000  1.0
  La  La12  1  0.33333333  0.66666667  0.50567488  1.0
  La  La13  1  0.33333333  0.66666667  -0.00567488  1.0
  La  La14  1  0.66666667  0.33333333  1.00567488  1.0
  La  La15  1  0.66666667  0.33333333  0.49432512  1.0
  O  O16  1  0.25201688  0.90841690  0.43131507  1.0
  O  O17  1  0.25201688  0.90841690  0.06868493  1.0
  O  O18  1  0.90841690  0.65640001  0.93131507  1.0
  O  O19  1  0.90841690  0.65640001  0.56868493  1.0
  O  O20  1  0.65640001  0.74798312  0.43131507  1.0
  O  O21  1  0.65640001  0.74798312  0.06868493  1.0
  O  O22  1  0.09158310  0.34359999  0.43131507  1.0
  O  O23  1  0.09158310  0.34359999  0.06868493  1.0
  O  O24  1  0.74798312  0.09158310  0.93131507  1.0
  O  O25  1  0.74798312  0.09158310  0.56868493  1.0
  O  O26  1  0.34359999  0.25201688  0.93131507  1.0
  O  O27  1  0.34359999  0.25201688  0.56868493  1.0
  O  O28  1  0.46942103  0.87643631  0.25000000  1.0
  O  O29  1  0.87643631  0.40701529  0.75000000  1.0
  O  O30  1  0.40701529  0.53057897  0.25000000  1.0
  O  O31  1  0.12356369  0.59298471  0.25000000  1.0
  O  O32  1  0.53057897  0.12356369  0.75000000  1.0
  O  O33  1  0.59298471  0.46942103  0.75000000  1.0
  O  O34  1  0.68065780  0.51978079  0.25000000  1.0
  O  O35  1  0.51978079  0.83912299  0.75000000  1.0
  O  O36  1  0.83912299  0.31934220  0.25000000  1.0
  O  O37  1  0.48021921  0.16087701  0.25000000  1.0
  O  O38  1  0.31934220  0.48021921  0.75000000  1.0
  O  O39  1  0.16087701  0.68065780  0.75000000  1.0
  O  O40  1  0.00000000  0.00000000  0.25000000  1.0
  O  O41  1  0.00000000  0.00000000  0.75000000  1.0
