# generated using pymatgen
data_K3Cd16
_symmetry_space_group_name_H-M   'P 1'
_cell_length_a   9.32948597
_cell_length_b   9.32948597
_cell_length_c   11.68572690
_cell_angle_alpha   90.00000000
_cell_angle_beta   90.00000000
_cell_angle_gamma   90.00000000
_symmetry_Int_Tables_number   1
_chemical_formula_structural   K3Cd16
_chemical_formula_sum   'K6 Cd32'
_cell_volume   1017.11758761
_cell_formula_units_Z   2
loop_
 _symmetry_equiv_pos_site_id
 _symmetry_equiv_pos_as_xyz
  1  'x, y, z'
loop_
 _atom_site_type_symbol
 _atom_site_label
 _atom_site_symmetry_multiplicity
 _atom_site_fract_x
 _atom_site_fract_y
 _atom_site_fract_z
 _atom_site_occupancy
  K  K0  1  0.50000000  0.50000000  0.50000000  1.0
  K  K1  1  0.00000000  0.00000000  0.00000000  1.0
  K  K2  1  0.50000000  0.50000000  0.16630560  1.0
  K  K3  1  0.50000000  0.50000000  0.83369440  1.0
  K  K4  1  0.00000000  0.00000000  0.33369440  1.0
  K  K5  1  0.00000000  0.00000000  0.66630560  1.0
  Cd  Cd6  1  0.15650511  0.36150932  0.68745958  1.0
  Cd  Cd7  1  0.84349489  0.63849068  0.68745958  1.0
  Cd  Cd8  1  0.84349489  0.36150932  0.31254042  1.0
  Cd  Cd9  1  0.15650511  0.63849068  0.31254042  1.0
  Cd  Cd10  1  0.34349489  0.13849068  0.81254042  1.0
  Cd  Cd11  1  0.65650511  0.86150932  0.81254042  1.0
  Cd  Cd12  1  0.65650511  0.13849068  0.18745958  1.0
  Cd  Cd13  1  0.34349489  0.86150932  0.18745958  1.0
  Cd  Cd14  1  0.36150932  0.15650511  0.31254042  1.0
  Cd  Cd15  1  0.63849068  0.84349489  0.31254042  1.0
  Cd  Cd16  1  0.36150932  0.84349489  0.68745958  1.0
  Cd  Cd17  1  0.63849068  0.15650511  0.68745958  1.0
  Cd  Cd18  1  0.13849068  0.34349489  0.18745958  1.0
  Cd  Cd19  1  0.86150932  0.65650511  0.18745958  1.0
  Cd  Cd20  1  0.13849068  0.65650511  0.81254042  1.0
  Cd  Cd21  1  0.86150932  0.34349489  0.81254042  1.0
  Cd  Cd22  1  0.65104778  0.85630404  0.56238739  1.0
  Cd  Cd23  1  0.34895222  0.14369596  0.56238739  1.0
  Cd  Cd24  1  0.34895222  0.85630404  0.43761261  1.0
  Cd  Cd25  1  0.65104778  0.14369596  0.43761261  1.0
  Cd  Cd26  1  0.84895222  0.64369596  0.93761261  1.0
  Cd  Cd27  1  0.15104778  0.35630404  0.93761261  1.0
  Cd  Cd28  1  0.15104778  0.64369596  0.06238739  1.0
  Cd  Cd29  1  0.84895222  0.35630404  0.06238739  1.0
  Cd  Cd30  1  0.85630404  0.65104778  0.43761261  1.0
  Cd  Cd31  1  0.14369596  0.34895222  0.43761261  1.0
  Cd  Cd32  1  0.85630404  0.34895222  0.56238739  1.0
  Cd  Cd33  1  0.14369596  0.65104778  0.56238739  1.0
  Cd  Cd34  1  0.64369596  0.84895222  0.06238739  1.0
  Cd  Cd35  1  0.35630404  0.15104778  0.06238739  1.0
  Cd  Cd36  1  0.64369596  0.15104778  0.93761261  1.0
  Cd  Cd37  1  0.35630404  0.84895222  0.93761261  1.0
