# generated using pymatgen
data_GdSiIr
_symmetry_space_group_name_H-M   'P 1'
_cell_length_a   7.00834429
_cell_length_b   4.29897911
_cell_length_c   7.31745645
_cell_angle_alpha   90.00000000
_cell_angle_beta   90.00000000
_cell_angle_gamma   90.00000000
_symmetry_Int_Tables_number   1
_chemical_formula_structural   GdSiIr
_chemical_formula_sum   'Gd4 Si4 Ir4'
_cell_volume   220.46563809
_cell_formula_units_Z   4
loop_
 _symmetry_equiv_pos_site_id
 _symmetry_equiv_pos_as_xyz
  1  'x, y, z'
loop_
 _atom_site_type_symbol
 _atom_site_label
 _atom_site_symmetry_multiplicity
 _atom_site_fract_x
 _atom_site_fract_y
 _atom_site_fract_z
 _atom_site_occupancy
  Gd  Gd0  1  1.00557819  0.75000000  0.68202573  1.0
  Gd  Gd1  1  0.50557819  0.75000000  0.81797427  1.0
  Gd  Gd2  1  -0.00557819  0.25000000  0.31797427  1.0
  Gd  Gd3  1  0.49442181  0.25000000  0.18202573  1.0
  Si  Si4  1  0.69776930  0.75000000  0.39110421  1.0
  Si  Si5  1  0.19776930  0.75000000  0.10889579  1.0
  Si  Si6  1  0.30223070  0.25000000  0.60889579  1.0
  Si  Si7  1  0.80223070  0.25000000  0.89110421  1.0
  Ir  Ir8  1  0.84740147  0.75000000  0.07040195  1.0
  Ir  Ir9  1  0.34740147  0.75000000  0.42959805  1.0
  Ir  Ir10  1  0.15259853  0.25000000  0.92959805  1.0
  Ir  Ir11  1  0.65259853  0.25000000  0.57040195  1.0
