# generated using pymatgen
data_Ga3Te3Br
_symmetry_space_group_name_H-M   'P 1'
_cell_length_a   11.41470500
_cell_length_b   4.14615620
_cell_length_c   20.21670188
_cell_angle_alpha   90.00000000
_cell_angle_beta   90.00000000
_cell_angle_gamma   90.00000000
_symmetry_Int_Tables_number   1
_chemical_formula_structural   Ga3Te3Br
_chemical_formula_sum   'Ga12 Te12 Br4'
_cell_volume   956.79887957
_cell_formula_units_Z   4
loop_
 _symmetry_equiv_pos_site_id
 _symmetry_equiv_pos_as_xyz
  1  'x, y, z'
loop_
 _atom_site_type_symbol
 _atom_site_label
 _atom_site_symmetry_multiplicity
 _atom_site_fract_x
 _atom_site_fract_y
 _atom_site_fract_z
 _atom_site_occupancy
  Ga  Ga0  1  0.94496987  0.75000000  0.59819633  1.0
  Ga  Ga1  1  0.44496987  0.75000000  0.90180367  1.0
  Ga  Ga2  1  0.05503013  0.25000000  0.40180367  1.0
  Ga  Ga3  1  0.55503013  0.25000000  0.09819633  1.0
  Ga  Ga4  1  0.83355443  0.75000000  0.13422609  1.0
  Ga  Ga5  1  0.33355443  0.75000000  0.36577391  1.0
  Ga  Ga6  1  0.16644557  0.25000000  0.86577391  1.0
  Ga  Ga7  1  0.66644557  0.25000000  0.63422609  1.0
  Ga  Ga8  1  0.82727802  0.75000000  0.49598854  1.0
  Ga  Ga9  1  0.32727802  0.75000000  0.00401146  1.0
  Ga  Ga10  1  0.17272198  0.25000000  0.50401146  1.0
  Ga  Ga11  1  0.67272198  0.25000000  0.99598854  1.0
  Te  Te12  1  0.77610480  0.75000000  0.69196111  1.0
  Te  Te13  1  0.27610480  0.75000000  0.80803889  1.0
  Te  Te14  1  0.22389520  0.25000000  0.30803889  1.0
  Te  Te15  1  0.72389520  0.25000000  0.19196111  1.0
  Te  Te16  1  0.91215171  0.75000000  0.37225297  1.0
  Te  Te17  1  0.41215171  0.75000000  0.12774703  1.0
  Te  Te18  1  0.08784829  0.25000000  0.62774703  1.0
  Te  Te19  1  0.58784829  0.25000000  0.87225297  1.0
  Te  Te20  1  0.82615380  0.75000000  0.00207557  1.0
  Te  Te21  1  0.32615380  0.75000000  0.49792443  1.0
  Te  Te22  1  0.17384620  0.25000000  -0.00207557  1.0
  Te  Te23  1  0.67384620  0.25000000  0.50207557  1.0
  Br  Br24  1  0.53194553  0.75000000  0.33223849  1.0
  Br  Br25  1  0.03194553  0.75000000  0.16776151  1.0
  Br  Br26  1  0.46805447  0.25000000  0.66776151  1.0
  Br  Br27  1  0.96805447  0.25000000  0.83223849  1.0
