# generated using pymatgen
data_K2AgSbS4
_symmetry_space_group_name_H-M   'P 1'
_cell_length_a   10.41639294
_cell_length_b   10.76356614
_cell_length_c   8.08172781
_cell_angle_alpha   90.00000000
_cell_angle_beta   90.00000000
_cell_angle_gamma   90.00000000
_symmetry_Int_Tables_number   1
_chemical_formula_structural   K2AgSbS4
_chemical_formula_sum   'K8 Ag4 Sb4 S16'
_cell_volume   906.10339539
_cell_formula_units_Z   4
loop_
 _symmetry_equiv_pos_site_id
 _symmetry_equiv_pos_as_xyz
  1  'x, y, z'
loop_
 _atom_site_type_symbol
 _atom_site_label
 _atom_site_symmetry_multiplicity
 _atom_site_fract_x
 _atom_site_fract_y
 _atom_site_fract_z
 _atom_site_occupancy
  K  K0  1  0.25451906  0.72360785  0.18790269  1.0
  K  K1  1  0.75451906  0.77639215  0.68790269  1.0
  K  K2  1  0.74548094  0.27639215  0.18790269  1.0
  K  K3  1  0.24548094  0.22360785  0.68790269  1.0
  K  K4  1  0.50000000  0.00000000  0.19074383  1.0
  K  K5  1  0.00000000  0.50000000  0.69074383  1.0
  K  K6  1  0.50000000  0.50000000  0.51837933  1.0
  K  K7  1  0.00000000  0.00000000  0.01837933  1.0
  Ag  Ag8  1  0.50000000  0.00000000  0.69936992  1.0
  Ag  Ag9  1  0.00000000  0.50000000  0.19936992  1.0
  Ag  Ag10  1  0.50000000  0.50000000  0.97326776  1.0
  Ag  Ag11  1  0.00000000  0.00000000  0.47326776  1.0
  Sb  Sb12  1  0.27482687  0.77807601  0.68884475  1.0
  Sb  Sb13  1  0.77482687  0.72192399  0.18884475  1.0
  Sb  Sb14  1  0.72517313  0.22192399  0.68884475  1.0
  Sb  Sb15  1  0.22517313  0.27807601  0.18884475  1.0
  S  S16  1  0.45578405  0.80003872  0.51067051  1.0
  S  S17  1  0.95578405  0.69996128  0.01067051  1.0
  S  S18  1  0.54421595  0.19996128  0.51067051  1.0
  S  S19  1  0.04421595  0.30003872  0.01067051  1.0
  S  S20  1  0.29007761  0.94800571  0.87638999  1.0
  S  S21  1  0.79007761  0.55199429  0.37638999  1.0
  S  S22  1  0.70992239  0.05199429  0.87638999  1.0
  S  S23  1  0.20992239  0.44800571  0.37638999  1.0
  S  S24  1  0.28557621  0.58249663  0.82374202  1.0
  S  S25  1  0.78557621  0.91750337  0.32374202  1.0
  S  S26  1  0.71442379  0.41750337  0.82374202  1.0
  S  S27  1  0.21442379  0.08249663  0.32374202  1.0
  S  S28  1  0.07943549  0.78480444  0.53576962  1.0
  S  S29  1  0.57943549  0.71519556  0.03576962  1.0
  S  S30  1  0.92056451  0.21519556  0.53576962  1.0
  S  S31  1  0.42056451  0.28480444  0.03576962  1.0
