# generated using pymatgen
data_Rb2CO3
_symmetry_space_group_name_H-M   'P 1'
_cell_length_a   7.72863286
_cell_length_b   6.01040227
_cell_length_c   10.13579030
_cell_angle_alpha   90.00000000
_cell_angle_beta   90.00000000
_cell_angle_gamma   90.00000000
_symmetry_Int_Tables_number   1
_chemical_formula_structural   Rb2CO3
_chemical_formula_sum   'Rb8 C4 O12'
_cell_volume   470.82968199
_cell_formula_units_Z   4
loop_
 _symmetry_equiv_pos_site_id
 _symmetry_equiv_pos_as_xyz
  1  'x, y, z'
loop_
 _atom_site_type_symbol
 _atom_site_label
 _atom_site_symmetry_multiplicity
 _atom_site_fract_x
 _atom_site_fract_y
 _atom_site_fract_z
 _atom_site_occupancy
  Rb  Rb0  1  0.97453441  0.75000000  0.72358947  1.0
  Rb  Rb1  1  0.47453441  0.75000000  0.77641053  1.0
  Rb  Rb2  1  0.02546559  0.25000000  0.27641053  1.0
  Rb  Rb3  1  0.52546559  0.25000000  0.22358947  1.0
  Rb  Rb4  1  0.82271963  0.75000000  0.08096242  1.0
  Rb  Rb5  1  0.32271963  0.75000000  0.41903758  1.0
  Rb  Rb6  1  0.17728037  0.25000000  0.91903758  1.0
  Rb  Rb7  1  0.67728037  0.25000000  0.58096242  1.0
  C  C8  1  0.73954084  0.75000000  0.41542274  1.0
  C  C9  1  0.23954084  0.75000000  0.08457726  1.0
  C  C10  1  0.26045916  0.25000000  0.58457726  1.0
  C  C11  1  0.76045916  0.25000000  0.91542274  1.0
  O  O12  1  0.76441075  0.93809566  0.35433823  1.0
  O  O13  1  0.76441075  0.56190434  0.35433823  1.0
  O  O14  1  0.26441075  0.93809566  0.14566177  1.0
  O  O15  1  0.26441075  0.56190434  0.14566177  1.0
  O  O16  1  0.23558925  0.43809566  0.64566177  1.0
  O  O17  1  0.23558925  0.06190434  0.64566177  1.0
  O  O18  1  0.73558925  0.43809566  0.85433823  1.0
  O  O19  1  0.73558925  0.06190434  0.85433823  1.0
  O  O20  1  0.68614116  0.75000000  0.53788367  1.0
  O  O21  1  0.18614116  0.75000000  0.96211633  1.0
  O  O22  1  0.31385884  0.25000000  0.46211633  1.0
  O  O23  1  0.81385884  0.25000000  0.03788367  1.0
