# generated using pymatgen
data_K4SiO4
_symmetry_space_group_name_H-M   'P 1'
_cell_length_a   10.45003994
_cell_length_b   6.50360653
_cell_length_c   10.45361692
_cell_angle_alpha   90.00000000
_cell_angle_beta   112.16545784
_cell_angle_gamma   90.00000000
_symmetry_Int_Tables_number   1
_chemical_formula_structural   K4SiO4
_chemical_formula_sum   'K16 Si4 O16'
_cell_volume   657.95445761
_cell_formula_units_Z   4
loop_
 _symmetry_equiv_pos_site_id
 _symmetry_equiv_pos_as_xyz
  1  'x, y, z'
loop_
 _atom_site_type_symbol
 _atom_site_label
 _atom_site_symmetry_multiplicity
 _atom_site_fract_x
 _atom_site_fract_y
 _atom_site_fract_z
 _atom_site_occupancy
  K  K0  1  0.92725844  0.81513136  0.79738755  1.0
  K  K1  1  0.92725844  0.68486864  0.29738755  1.0
  K  K2  1  0.07274156  0.31513136  0.70261245  1.0
  K  K3  1  0.07274156  0.18486864  0.20261245  1.0
  K  K4  1  0.86596965  0.33810646  0.88984552  1.0
  K  K5  1  0.86596965  0.16189354  0.38984552  1.0
  K  K6  1  0.13403035  0.83810646  0.61015448  1.0
  K  K7  1  0.13403035  0.66189354  0.11015448  1.0
  K  K8  1  0.55973598  0.59375894  0.69421749  1.0
  K  K9  1  0.55973598  0.90624106  0.19421749  1.0
  K  K10  1  0.44026402  0.09375894  0.80578251  1.0
  K  K11  1  0.44026402  0.40624106  0.30578251  1.0
  K  K12  1  0.34186952  0.60986364  0.91265361  1.0
  K  K13  1  0.34186952  0.89013636  0.41265361  1.0
  K  K14  1  0.65813048  0.10986364  0.58734639  1.0
  K  K15  1  0.65813048  0.39013636  0.08734639  1.0
  Si  Si16  1  0.74266976  0.86804336  0.99143561  1.0
  Si  Si17  1  0.74266976  0.63195664  0.49143561  1.0
  Si  Si18  1  0.25733024  0.36804336  0.50856439  1.0
  Si  Si19  1  0.25733024  0.13195664  0.00856439  1.0
  O  O20  1  0.86019957  0.81882972  0.51642606  1.0
  O  O21  1  0.86019957  0.68117028  0.01642606  1.0
  O  O22  1  0.13980043  0.31882972  0.98357394  1.0
  O  O23  1  0.13980043  0.18117028  0.48357394  1.0
  O  O24  1  0.79660904  0.47823234  0.63081423  1.0
  O  O25  1  0.79660904  0.02176766  0.13081423  1.0
  O  O26  1  0.20339096  0.97823234  0.86918577  1.0
  O  O27  1  0.20339096  0.52176766  0.36918577  1.0
  O  O28  1  0.72377799  0.49841566  0.34907346  1.0
  O  O29  1  0.72377799  0.00158434  0.84907346  1.0
  O  O30  1  0.27622201  0.99841566  0.15092654  1.0
  O  O31  1  0.27622201  0.50158434  0.65092654  1.0
  O  O32  1  0.59075462  0.76060392  0.96888023  1.0
  O  O33  1  0.59075462  0.73939608  0.46888023  1.0
  O  O34  1  0.40924538  0.26060392  0.53111977  1.0
  O  O35  1  0.40924538  0.23939608  0.03111977  1.0
