# generated using pymatgen
data_Cu4Te5(ClO3)4
_symmetry_space_group_name_H-M   'P 1'
_cell_length_a   11.68757772
_cell_length_b   11.68757772
_cell_length_c   6.45360137
_cell_angle_alpha   90.00000000
_cell_angle_beta   90.00000000
_cell_angle_gamma   90.00000000
_symmetry_Int_Tables_number   1
_chemical_formula_structural   Cu4Te5(ClO3)4
_chemical_formula_sum   'Cu8 Te10 Cl8 O24'
_cell_volume   881.55854475
_cell_formula_units_Z   2
loop_
 _symmetry_equiv_pos_site_id
 _symmetry_equiv_pos_as_xyz
  1  'x, y, z'
loop_
 _atom_site_type_symbol
 _atom_site_label
 _atom_site_symmetry_multiplicity
 _atom_site_fract_x
 _atom_site_fract_y
 _atom_site_fract_z
 _atom_site_occupancy
  Cl  Cl0  1  0.69981821  0.12457993  0.67966801  1.0
  Cl  Cl1  1  0.30018179  0.87542007  0.67966801  1.0
  Cl  Cl2  1  0.62457993  0.80018179  0.67966801  1.0
  Cl  Cl3  1  0.37542007  0.19981821  0.67966801  1.0
  Cl  Cl4  1  0.80018179  0.37542007  0.32033199  1.0
  Cl  Cl5  1  0.19981821  0.62457993  0.32033199  1.0
  Cl  Cl6  1  0.87542007  0.69981821  0.32033199  1.0
  Cl  Cl7  1  0.12457993  0.30018179  0.32033199  1.0
  O  O8  1  0.84682973  0.54703657  0.77406107  1.0
  O  O9  1  0.15317027  0.45296343  0.77406107  1.0
  O  O10  1  0.04703657  0.65317027  0.77406107  1.0
  O  O11  1  0.95296343  0.34682973  0.77406107  1.0
  O  O12  1  0.65317027  0.95296343  0.22593893  1.0
  O  O13  1  0.34682973  0.04703657  0.22593893  1.0
  O  O14  1  0.45296343  0.84682973  0.22593893  1.0
  O  O15  1  0.54703657  0.15317027  0.22593893  1.0
  O  O16  1  0.67006467  0.55116110  0.06568426  1.0
  O  O17  1  0.32993533  0.44883890  0.06568426  1.0
  O  O18  1  0.05116110  0.82993533  0.06568426  1.0
  O  O19  1  0.94883890  0.17006467  0.06568426  1.0
  O  O20  1  0.82993533  0.94883890  0.93431574  1.0
  O  O21  1  0.17006467  0.05116110  0.93431574  1.0
  O  O22  1  0.44883890  0.67006467  0.93431574  1.0
  O  O23  1  0.55116110  0.32993533  0.93431574  1.0
  O  O24  1  0.37826383  0.53141250  0.64250855  1.0
  O  O25  1  0.62173617  0.46858750  0.64250855  1.0
  O  O26  1  0.03141250  0.12173617  0.64250855  1.0
  O  O27  1  0.96858750  0.87826383  0.64250855  1.0
  O  O28  1  0.12173617  0.96858750  0.35749145  1.0
  O  O29  1  0.87826383  0.03141250  0.35749145  1.0
  O  O30  1  0.46858750  0.37826383  0.35749145  1.0
  O  O31  1  0.53141250  0.62173617  0.35749145  1.0
  Cu  Cu32  1  0.84492983  -0.00136044  0.64757610  1.0
  Cu  Cu33  1  0.15507017  1.00136044  0.64757610  1.0
  Cu  Cu34  1  0.49863956  0.65507017  0.64757610  1.0
  Cu  Cu35  1  0.50136044  0.34492983  0.64757610  1.0
  Cu  Cu36  1  0.65507017  0.50136044  0.35242390  1.0
  Cu  Cu37  1  0.34492983  0.49863956  0.35242390  1.0
  Cu  Cu38  1  1.00136044  0.84492983  0.35242390  1.0
  Cu  Cu39  1  -0.00136044  0.15507017  0.35242390  1.0
  Te  Te40  1  0.00000000  0.50000000  0.63925120  1.0
  Te  Te41  1  0.50000000  0.00000000  0.36074880  1.0
  Te  Te42  1  0.22877563  0.93281016  0.12303006  1.0
  Te  Te43  1  0.77122437  0.06718984  0.12303006  1.0
  Te  Te44  1  0.43281016  0.27122437  0.12303006  1.0
  Te  Te45  1  0.56718984  0.72877563  0.12303006  1.0
  Te  Te46  1  0.27122437  0.56718984  0.87696994  1.0
  Te  Te47  1  0.72877563  0.43281016  0.87696994  1.0
  Te  Te48  1  0.06718984  0.22877563  0.87696994  1.0
  Te  Te49  1  0.93281016  0.77122437  0.87696994  1.0
