# generated using pymatgen
data_AgBiS2
_symmetry_space_group_name_H-M   'P 1'
_cell_length_a   4.04750160
_cell_length_b   4.04750160
_cell_length_c   19.08351074
_cell_angle_alpha   90.00000000
_cell_angle_beta   90.00000000
_cell_angle_gamma   120.00000000
_symmetry_Int_Tables_number   1
_chemical_formula_structural   AgBiS2
_chemical_formula_sum   'Ag3 Bi3 S6'
_cell_volume   270.74657044
_cell_formula_units_Z   3
loop_
 _symmetry_equiv_pos_site_id
 _symmetry_equiv_pos_as_xyz
  1  'x, y, z'
loop_
 _atom_site_type_symbol
 _atom_site_label
 _atom_site_symmetry_multiplicity
 _atom_site_fract_x
 _atom_site_fract_y
 _atom_site_fract_z
 _atom_site_occupancy
  Ag  Ag0  1  0.33333333  0.66666667  0.83327996  1.0
  Ag  Ag1  1  0.66666667  0.33333333  0.16672004  1.0
  Ag  Ag2  1  0.00000000  0.00000000  0.50000000  1.0
  Bi  Bi3  1  0.33333333  0.66666667  0.33335046  1.0
  Bi  Bi4  1  0.66666667  0.33333333  0.66664954  1.0
  Bi  Bi5  1  -0.00000000  0.00000000  0.00000000  1.0
  S  S6  1  0.33333333  0.66666667  0.08612864  1.0
  S  S7  1  0.66666667  0.33333333  0.91387136  1.0
  S  S8  1  0.33333333  0.66666667  0.58054501  1.0
  S  S9  1  0.66666667  0.33333333  0.41945499  1.0
  S  S10  1  0.00000000  -0.00000000  0.24725367  1.0
  S  S11  1  -0.00000000  -0.00000000  0.75274633  1.0
