# generated using pymatgen
data_Ni3B
_symmetry_space_group_name_H-M   'P 1'
_cell_length_a   5.18113224
_cell_length_b   6.63740819
_cell_length_c   4.39519128
_cell_angle_alpha   90.00000000
_cell_angle_beta   90.00000000
_cell_angle_gamma   90.00000000
_symmetry_Int_Tables_number   1
_chemical_formula_structural   Ni3B
_chemical_formula_sum   'Ni12 B4'
_cell_volume   151.14750547
_cell_formula_units_Z   4
loop_
 _symmetry_equiv_pos_site_id
 _symmetry_equiv_pos_as_xyz
  1  'x, y, z'
loop_
 _atom_site_type_symbol
 _atom_site_label
 _atom_site_symmetry_multiplicity
 _atom_site_fract_x
 _atom_site_fract_y
 _atom_site_fract_z
 _atom_site_occupancy
  Ni  Ni0  1  0.31996876  0.93703303  0.65649352  1.0
  Ni  Ni1  1  0.31996876  0.56296697  0.65649352  1.0
  Ni  Ni2  1  0.81996876  0.93703303  0.84350648  1.0
  Ni  Ni3  1  0.81996876  0.56296697  0.84350648  1.0
  Ni  Ni4  1  0.68003124  0.43703303  0.34350648  1.0
  Ni  Ni5  1  0.68003124  0.06296697  0.34350648  1.0
  Ni  Ni6  1  0.18003124  0.43703303  0.15649352  1.0
  Ni  Ni7  1  0.18003124  0.06296697  0.15649352  1.0
  Ni  Ni8  1  0.47148610  0.75000000  0.13377054  1.0
  Ni  Ni9  1  0.97148610  0.75000000  0.36622946  1.0
  Ni  Ni10  1  0.52851390  0.25000000  0.86622946  1.0
  Ni  Ni11  1  0.02851390  0.25000000  0.63377054  1.0
  B  B12  1  0.11805727  0.75000000  0.93939600  1.0
  B  B13  1  0.61805727  0.75000000  0.56060400  1.0
  B  B14  1  0.88194273  0.25000000  0.06060400  1.0
  B  B15  1  0.38194273  0.25000000  0.43939600  1.0
