# generated using pymatgen
data_Li3InF6
_symmetry_space_group_name_H-M   'P 1'
_cell_length_a   9.84336913
_cell_length_b   8.87665093
_cell_length_c   5.26609778
_cell_angle_alpha   90.00000000
_cell_angle_beta   90.00000000
_cell_angle_gamma   90.00000000
_symmetry_Int_Tables_number   1
_chemical_formula_structural   Li3InF6
_chemical_formula_sum   'Li12 In4 F24'
_cell_volume   460.13135848
_cell_formula_units_Z   4
loop_
 _symmetry_equiv_pos_site_id
 _symmetry_equiv_pos_as_xyz
  1  'x, y, z'
loop_
 _atom_site_type_symbol
 _atom_site_label
 _atom_site_symmetry_multiplicity
 _atom_site_fract_x
 _atom_site_fract_y
 _atom_site_fract_z
 _atom_site_occupancy
  Li  Li0  1  0.40487725  0.44799685  0.49043086  1.0
  Li  Li1  1  0.90487725  0.05200315  0.49043086  1.0
  Li  Li2  1  0.59512275  0.55200315  -0.00956914  1.0
  Li  Li3  1  0.09512275  0.94799685  -0.00956914  1.0
  Li  Li4  1  0.34970792  0.04562525  0.49868288  1.0
  Li  Li5  1  0.84970792  0.45437475  0.49868288  1.0
  Li  Li6  1  0.65029208  0.95437475  0.99868288  1.0
  Li  Li7  1  0.15029208  0.54562525  0.99868288  1.0
  Li  Li8  1  0.12696086  0.35385578  0.49049632  1.0
  Li  Li9  1  0.62696086  0.14614422  0.49049632  1.0
  Li  Li10  1  0.87303914  0.64614422  0.99049632  1.0
  Li  Li11  1  0.37303914  0.85385578  0.99049632  1.0
  In  In12  1  0.36989463  0.23708216  0.99720276  1.0
  In  In13  1  0.86989463  0.26291784  0.99720276  1.0
  In  In14  1  0.63010537  0.76291784  0.49720276  1.0
  In  In15  1  0.13010537  0.73708216  0.49720276  1.0
  F  F16  1  0.26082925  0.88985488  0.31070817  1.0
  F  F17  1  0.76082925  0.61014512  0.31070817  1.0
  F  F18  1  0.73917075  0.11014512  0.81070817  1.0
  F  F19  1  0.23917075  0.38985488  0.81070817  1.0
  F  F20  1  0.47659513  0.24754682  0.65104210  1.0
  F  F21  1  0.97659513  0.25245318  0.65104210  1.0
  F  F22  1  0.52340487  0.75245318  0.15104210  1.0
  F  F23  1  0.02340487  0.74754682  0.15104210  1.0
  F  F24  1  0.48125066  0.41437975  0.15833932  1.0
  F  F25  1  0.98125066  0.08562025  0.15833932  1.0
  F  F26  1  0.51874934  0.58562025  0.65833932  1.0
  F  F27  1  0.01874934  0.91437975  0.65833932  1.0
  F  F28  1  0.49621237  0.07766292  0.18471721  1.0
  F  F29  1  0.99621237  0.42233708  0.18471721  1.0
  F  F30  1  0.50378763  0.92233708  0.68471721  1.0
  F  F31  1  0.00378763  0.57766292  0.68471721  1.0
  F  F32  1  0.26733168  0.04615787  0.84642756  1.0
  F  F33  1  0.76733168  0.45384213  0.84642756  1.0
  F  F34  1  0.73266832  0.95384213  0.34642756  1.0
  F  F35  1  0.23266832  0.54615787  0.34642756  1.0
  F  F36  1  0.25576642  0.22433002  0.33345281  1.0
  F  F37  1  0.75576642  0.27566998  0.33345281  1.0
  F  F38  1  0.74423358  0.77566998  0.83345281  1.0
  F  F39  1  0.24423358  0.72433002  0.83345281  1.0
