# generated using pymatgen
data_Li5ReO6
_symmetry_space_group_name_H-M   'P 1'
_cell_length_a   5.07473529
_cell_length_b   5.07473529
_cell_length_c   5.06434874
_cell_angle_alpha   79.98024478
_cell_angle_beta   100.01975522
_cell_angle_gamma   60.32277765
_symmetry_Int_Tables_number   1
_chemical_formula_structural   Li5ReO6
_chemical_formula_sum   'Li5 Re1 O6'
_cell_volume   106.30329633
_cell_formula_units_Z   1
loop_
 _symmetry_equiv_pos_site_id
 _symmetry_equiv_pos_as_xyz
  1  'x, y, z'
loop_
 _atom_site_type_symbol
 _atom_site_label
 _atom_site_symmetry_multiplicity
 _atom_site_fract_x
 _atom_site_fract_y
 _atom_site_fract_z
 _atom_site_occupancy
  Li  Li0  1  0.67531268  -0.32468732  0.50000000  1.0
  Li  Li1  1  1.32468732  0.32468732  0.50000000  1.0
  Li  Li2  1  0.83377117  -0.16622883  -0.00000000  1.0
  Li  Li3  1  1.16622883  0.16622883  -0.00000000  1.0
  Li  Li4  1  0.00000000  -0.00000000  0.50000000  1.0
  Re  Re5  1  0.50000000  -0.50000000  -0.00000000  1.0
  O  O6  1  0.42305425  -0.11749906  0.76589219  1.0
  O  O7  1  1.11749906  0.57694575  0.76589219  1.0
  O  O8  1  0.88250094  -0.57694575  0.23410781  1.0
  O  O9  1  1.57694575  0.11749906  0.23410781  1.0
  O  O10  1  0.72742267  -0.72742267  0.77508388  1.0
  O  O11  1  0.27257733  -0.27257733  0.22491612  1.0
