# generated using pymatgen
data_Ca3Ge4
_symmetry_space_group_name_H-M   'P 1'
_cell_length_a   8.78005457
_cell_length_b   8.78005457
_cell_length_c   15.26130714
_cell_angle_alpha   90.00000000
_cell_angle_beta   90.00000000
_cell_angle_gamma   120.00000000
_symmetry_Int_Tables_number   1
_chemical_formula_structural   Ca3Ge4
_chemical_formula_sum   'Ca18 Ge24'
_cell_volume   1018.86535569
_cell_formula_units_Z   6
loop_
 _symmetry_equiv_pos_site_id
 _symmetry_equiv_pos_as_xyz
  1  'x, y, z'
loop_
 _atom_site_type_symbol
 _atom_site_label
 _atom_site_symmetry_multiplicity
 _atom_site_fract_x
 _atom_site_fract_y
 _atom_site_fract_z
 _atom_site_occupancy
  Ca  Ca0  1  0.90929483  0.57405449  0.39961004  1.0
  Ca  Ca1  1  0.66475966  0.09070517  0.39961004  1.0
  Ca  Ca2  1  0.42594551  0.33524034  0.39961004  1.0
  Ca  Ca3  1  0.09070517  0.42594551  0.89961004  1.0
  Ca  Ca4  1  0.33524034  0.90929483  0.89961004  1.0
  Ca  Ca5  1  0.57405449  0.66475966  0.89961004  1.0
  Ca  Ca6  1  0.09070517  0.42594551  0.60038996  1.0
  Ca  Ca7  1  0.33524034  0.90929483  0.60038996  1.0
  Ca  Ca8  1  0.57405449  0.66475966  0.60038996  1.0
  Ca  Ca9  1  0.90929483  0.57405449  0.10038996  1.0
  Ca  Ca10  1  0.66475966  0.09070517  0.10038996  1.0
  Ca  Ca11  1  0.42594551  0.33524034  0.10038996  1.0
  Ca  Ca12  1  0.33333333  0.66666667  0.25000000  1.0
  Ca  Ca13  1  0.66666667  0.33333333  0.75000000  1.0
  Ca  Ca14  1  0.00000000  0.00000000  0.50000000  1.0
  Ca  Ca15  1  0.00000000  0.00000000  0.00000000  1.0
  Ca  Ca16  1  0.00000000  0.00000000  0.25000000  1.0
  Ca  Ca17  1  0.00000000  0.00000000  0.75000000  1.0
  Ge  Ge18  1  0.25537917  0.91070936  0.39650310  1.0
  Ge  Ge19  1  0.65533018  0.74462083  0.39650310  1.0
  Ge  Ge20  1  0.08929064  0.34466982  0.39650310  1.0
  Ge  Ge21  1  0.74462083  0.08929064  0.89650310  1.0
  Ge  Ge22  1  0.34466982  0.25537917  0.89650310  1.0
  Ge  Ge23  1  0.91070936  0.65533018  0.89650310  1.0
  Ge  Ge24  1  0.74462083  0.08929064  0.60349690  1.0
  Ge  Ge25  1  0.34466982  0.25537917  0.60349690  1.0
  Ge  Ge26  1  0.91070936  0.65533018  0.60349690  1.0
  Ge  Ge27  1  0.25537917  0.91070936  0.10349690  1.0
  Ge  Ge28  1  0.65533018  0.74462083  0.10349690  1.0
  Ge  Ge29  1  0.08929064  0.34466982  0.10349690  1.0
  Ge  Ge30  1  0.68785113  0.63202113  0.25000000  1.0
  Ge  Ge31  1  0.94417000  0.31214887  0.25000000  1.0
  Ge  Ge32  1  0.36797887  0.05583000  0.25000000  1.0
  Ge  Ge33  1  0.31214887  0.36797887  0.75000000  1.0
  Ge  Ge34  1  0.05583000  0.68785113  0.75000000  1.0
  Ge  Ge35  1  0.63202113  0.94417000  0.75000000  1.0
  Ge  Ge36  1  0.33333333  0.66666667  0.44873139  1.0
  Ge  Ge37  1  0.66666667  0.33333333  0.94873139  1.0
  Ge  Ge38  1  0.66666667  0.33333333  0.55126861  1.0
  Ge  Ge39  1  0.33333333  0.66666667  0.05126861  1.0
  Ge  Ge40  1  0.66666667  0.33333333  0.25000000  1.0
  Ge  Ge41  1  0.33333333  0.66666667  0.75000000  1.0
