# generated using pymatgen
data_B2RuC6(O3F4)2
_symmetry_space_group_name_H-M   'P 1'
_cell_length_a   7.95835487
_cell_length_b   7.95835487
_cell_length_c   7.95835487
_cell_angle_alpha   120.12249160
_cell_angle_beta   120.12249160
_cell_angle_gamma   89.78796894
_symmetry_Int_Tables_number   1
_chemical_formula_structural   B2RuC6(O3F4)2
_chemical_formula_sum   'B2 Ru1 C6 O6 F8'
_cell_volume   355.75159753
_cell_formula_units_Z   1
loop_
 _symmetry_equiv_pos_site_id
 _symmetry_equiv_pos_as_xyz
  1  'x, y, z'
loop_
 _atom_site_type_symbol
 _atom_site_label
 _atom_site_symmetry_multiplicity
 _atom_site_fract_x
 _atom_site_fract_y
 _atom_site_fract_z
 _atom_site_occupancy
  B  B0  1  0.25000000  0.75000000  0.50000000  1.0
  B  B1  1  0.75000000  0.25000000  0.50000000  1.0
  Ru  Ru2  1  0.00000000  0.00000000  0.00000000  1.0
  C  C3  1  0.83510056  0.80825566  1.64335622  1.0
  C  C4  1  0.19174434  0.83510056  1.02684490  1.0
  C  C5  1  0.16489944  0.19174434  0.35664378  1.0
  C  C6  1  0.80825566  0.16489944  0.97315510  1.0
  C  C7  1  0.82181292  0.82181292  1.00000000  1.0
  C  C8  1  0.17818708  0.17818708  0.00000000  1.0
  O  O9  1  0.74140624  0.70083637  1.44224261  1.0
  O  O10  1  0.29916363  0.74140624  1.04056987  1.0
  O  O11  1  0.25859376  0.29916363  0.55775739  1.0
  O  O12  1  0.70083637  0.25859376  0.95943013  1.0
  O  O13  1  0.72139281  0.72139281  1.00000000  1.0
  O  O14  1  0.27860719  0.27860719  0.00000000  1.0
  F  F15  1  0.46580668  0.79547695  0.61605525  1.0
  F  F16  1  0.82057830  1.15024857  1.61605525  1.0
  F  F17  1  0.84975143  0.46580668  0.67032973  1.0
  F  F18  1  0.20452305  0.82057830  0.67032973  1.0
  F  F19  1  1.17942170  0.84975143  1.38394475  1.0
  F  F20  1  0.53419332  0.20452305  0.38394475  1.0
  F  F21  1  0.79547695  1.17942170  1.32967027  1.0
  F  F22  1  1.15024857  0.53419332  1.32967027  1.0
