# generated using pymatgen
data_Ba(CoSn4)2
_symmetry_space_group_name_H-M   'P 1'
_cell_length_a   9.22981788
_cell_length_b   9.22981788
_cell_length_c   14.08817025
_cell_angle_alpha   90.00000000
_cell_angle_beta   90.00000000
_cell_angle_gamma   111.46061199
_symmetry_Int_Tables_number   1
_chemical_formula_structural   Ba(CoSn4)2
_chemical_formula_sum   'Ba4 Co8 Sn32'
_cell_volume   1116.95645641
_cell_formula_units_Z   4
loop_
 _symmetry_equiv_pos_site_id
 _symmetry_equiv_pos_as_xyz
  1  'x, y, z'
loop_
 _atom_site_type_symbol
 _atom_site_label
 _atom_site_symmetry_multiplicity
 _atom_site_fract_x
 _atom_site_fract_y
 _atom_site_fract_z
 _atom_site_occupancy
  Ba  Ba0  1  -0.39721940  1.29147835  0.00000000  1.0
  Ba  Ba1  1  0.29147835  0.60278060  0.50000000  1.0
  Ba  Ba2  1  -0.29147835  1.39721940  0.50000000  1.0
  Ba  Ba3  1  0.39721940  0.70852165  0.00000000  1.0
  Co  Co4  1  0.07192724  0.77929119  0.82999391  1.0
  Co  Co5  1  0.07192724  0.77929119  0.17000609  1.0
  Co  Co6  1  -0.22070881  1.07192724  0.32999391  1.0
  Co  Co7  1  -0.22070881  1.07192724  0.67000609  1.0
  Co  Co8  1  0.22070881  0.92807276  0.32999391  1.0
  Co  Co9  1  0.22070881  0.92807276  0.67000609  1.0
  Co  Co10  1  -0.07192724  1.22070881  0.82999391  1.0
  Co  Co11  1  -0.07192724  1.22070881  0.17000609  1.0
  Sn  Sn12  1  -0.03606269  1.66009411  0.66476762  1.0
  Sn  Sn13  1  -0.03606269  1.66009411  0.33523238  1.0
  Sn  Sn14  1  0.66009411  0.96393731  0.16476762  1.0
  Sn  Sn15  1  0.66009411  0.96393731  0.83523238  1.0
  Sn  Sn16  1  -0.66009411  1.03606269  0.16476762  1.0
  Sn  Sn17  1  -0.66009411  1.03606269  0.83523238  1.0
  Sn  Sn18  1  0.03606269  0.33990589  0.66476762  1.0
  Sn  Sn19  1  0.03606269  0.33990589  0.33523238  1.0
  Sn  Sn20  1  -0.22127482  1.69398561  0.88533264  1.0
  Sn  Sn21  1  -0.22127482  1.69398561  0.11466736  1.0
  Sn  Sn22  1  0.69398561  0.77872518  0.38533264  1.0
  Sn  Sn23  1  0.69398561  0.77872518  0.61466736  1.0
  Sn  Sn24  1  -0.69398561  1.22127482  0.38533264  1.0
  Sn  Sn25  1  -0.69398561  1.22127482  0.61466736  1.0
  Sn  Sn26  1  0.22127482  0.30601439  0.88533264  1.0
  Sn  Sn27  1  0.22127482  0.30601439  0.11466736  1.0
  Sn  Sn28  1  0.08666513  0.89295319  0.00000000  1.0
  Sn  Sn29  1  -0.10704681  1.08666513  0.50000000  1.0
  Sn  Sn30  1  0.10704681  0.91333487  0.50000000  1.0
  Sn  Sn31  1  -0.08666513  1.10704681  0.00000000  1.0
  Sn  Sn32  1  0.00000000  1.50000000  0.89344518  1.0
  Sn  Sn33  1  0.00000000  1.50000000  0.10655482  1.0
  Sn  Sn34  1  0.50000000  1.00000000  0.39344518  1.0
  Sn  Sn35  1  0.50000000  1.00000000  0.60655482  1.0
  Sn  Sn36  1  0.29342089  0.70657911  0.75000000  1.0
  Sn  Sn37  1  0.29342089  0.70657911  0.25000000  1.0
  Sn  Sn38  1  -0.29342089  1.29342089  0.25000000  1.0
  Sn  Sn39  1  -0.29342089  1.29342089  0.75000000  1.0
  Sn  Sn40  1  0.50000000  0.50000000  0.75000000  1.0
  Sn  Sn41  1  0.50000000  0.50000000  0.25000000  1.0
  Sn  Sn42  1  0.00000000  0.00000000  0.75000000  1.0
  Sn  Sn43  1  0.00000000  0.00000000  0.25000000  1.0
