# generated using pymatgen
data_Gd5Ir3
_symmetry_space_group_name_H-M   'P 1'
_cell_length_a   11.02257590
_cell_length_b   11.02257590
_cell_length_c   6.41680019
_cell_angle_alpha   90.00000000
_cell_angle_beta   90.00000000
_cell_angle_gamma   90.00000000
_symmetry_Int_Tables_number   1
_chemical_formula_structural   Gd5Ir3
_chemical_formula_sum   'Gd20 Ir12'
_cell_volume   779.62312463
_cell_formula_units_Z   4
loop_
 _symmetry_equiv_pos_site_id
 _symmetry_equiv_pos_as_xyz
  1  'x, y, z'
loop_
 _atom_site_type_symbol
 _atom_site_label
 _atom_site_symmetry_multiplicity
 _atom_site_fract_x
 _atom_site_fract_y
 _atom_site_fract_z
 _atom_site_occupancy
  Gd  Gd0  1  0.08902825  0.29205139  0.38070831  1.0
  Gd  Gd1  1  0.91097175  0.29205139  0.88070831  1.0
  Gd  Gd2  1  0.08902825  0.70794861  0.88070831  1.0
  Gd  Gd3  1  0.91097175  0.70794861  0.38070831  1.0
  Gd  Gd4  1  0.79205139  0.58902825  0.88070831  1.0
  Gd  Gd5  1  0.20794861  0.58902825  0.38070831  1.0
  Gd  Gd6  1  0.79205139  0.41097175  0.38070831  1.0
  Gd  Gd7  1  0.20794861  0.41097175  0.88070831  1.0
  Gd  Gd8  1  0.41097175  0.20794861  0.61929169  1.0
  Gd  Gd9  1  0.58902825  0.20794861  0.11929169  1.0
  Gd  Gd10  1  0.41097175  0.79205139  0.11929169  1.0
  Gd  Gd11  1  0.58902825  0.79205139  0.61929169  1.0
  Gd  Gd12  1  0.70794861  0.91097175  0.11929169  1.0
  Gd  Gd13  1  0.29205139  0.91097175  0.61929169  1.0
  Gd  Gd14  1  0.70794861  0.08902825  0.61929169  1.0
  Gd  Gd15  1  0.29205139  0.08902825  0.11929169  1.0
  Gd  Gd16  1  0.00000000  0.00000000  0.50000000  1.0
  Gd  Gd17  1  0.00000000  0.00000000  0.00000000  1.0
  Gd  Gd18  1  0.50000000  0.50000000  0.00000000  1.0
  Gd  Gd19  1  0.50000000  0.50000000  0.50000000  1.0
  Ir  Ir20  1  0.15340353  0.84659647  0.25000000  1.0
  Ir  Ir21  1  0.84659647  0.84659647  0.75000000  1.0
  Ir  Ir22  1  0.15340353  0.15340353  0.75000000  1.0
  Ir  Ir23  1  0.84659647  0.15340353  0.25000000  1.0
  Ir  Ir24  1  0.34659647  0.65340353  0.75000000  1.0
  Ir  Ir25  1  0.65340353  0.65340353  0.25000000  1.0
  Ir  Ir26  1  0.34659647  0.34659647  0.25000000  1.0
  Ir  Ir27  1  0.65340353  0.34659647  0.75000000  1.0
  Ir  Ir28  1  0.00000000  0.50000000  0.12526797  1.0
  Ir  Ir29  1  0.00000000  0.50000000  0.62526797  1.0
  Ir  Ir30  1  0.50000000  0.00000000  0.87473203  1.0
  Ir  Ir31  1  0.50000000  0.00000000  0.37473203  1.0
