# generated using pymatgen
data_Ba(GaH)2
_symmetry_space_group_name_H-M   'P 1'
_cell_length_a   4.55708603
_cell_length_b   4.55708603
_cell_length_c   4.95212784
_cell_angle_alpha   90.00000000
_cell_angle_beta   90.00000000
_cell_angle_gamma   120.00000000
_symmetry_Int_Tables_number   1
_chemical_formula_structural   Ba(GaH)2
_chemical_formula_sum   'Ba1 Ga2 H2'
_cell_volume   89.06292102
_cell_formula_units_Z   1
loop_
 _symmetry_equiv_pos_site_id
 _symmetry_equiv_pos_as_xyz
  1  'x, y, z'
loop_
 _atom_site_type_symbol
 _atom_site_label
 _atom_site_symmetry_multiplicity
 _atom_site_fract_x
 _atom_site_fract_y
 _atom_site_fract_z
 _atom_site_occupancy
  Ba  Ba0  1  0.00000000  0.00000000  0.00000000  1.0
  Ga  Ga1  1  0.33333333  0.66666667  0.47017410  1.0
  Ga  Ga2  1  0.66666667  0.33333333  0.52982590  1.0
  H  H3  1  0.33333333  0.66666667  0.12676493  1.0
  H  H4  1  0.66666667  0.33333333  0.87323507  1.0
