# generated using pymatgen
data_Na(TeMo)3
_symmetry_space_group_name_H-M   'P 1'
_cell_length_a   9.43414899
_cell_length_b   9.43414899
_cell_length_c   4.61157452
_cell_angle_alpha   90.00000000
_cell_angle_beta   90.00000000
_cell_angle_gamma   120.00000000
_symmetry_Int_Tables_number   1
_chemical_formula_structural   Na(TeMo)3
_chemical_formula_sum   'Na2 Te6 Mo6'
_cell_volume   355.45556979
_cell_formula_units_Z   2
loop_
 _symmetry_equiv_pos_site_id
 _symmetry_equiv_pos_as_xyz
  1  'x, y, z'
loop_
 _atom_site_type_symbol
 _atom_site_label
 _atom_site_symmetry_multiplicity
 _atom_site_fract_x
 _atom_site_fract_y
 _atom_site_fract_z
 _atom_site_occupancy
  Na  Na0  1  0.33333333  0.66666667  0.25000000  1.0
  Na  Na1  1  0.66666667  0.33333333  0.75000000  1.0
  Te  Te2  1  0.70038133  0.61766474  0.25000000  1.0
  Te  Te3  1  0.61766474  0.91728341  0.75000000  1.0
  Te  Te4  1  0.91728341  0.29961867  0.25000000  1.0
  Te  Te5  1  0.38233526  0.08271659  0.25000000  1.0
  Te  Te6  1  0.29961867  0.38233526  0.75000000  1.0
  Te  Te7  1  0.08271659  0.70038133  0.75000000  1.0
  Mo  Mo8  1  0.04021236  0.86169288  0.25000000  1.0
  Mo  Mo9  1  0.86169288  0.82148053  0.75000000  1.0
  Mo  Mo10  1  0.82148053  0.95978764  0.25000000  1.0
  Mo  Mo11  1  0.13830712  0.17851947  0.25000000  1.0
  Mo  Mo12  1  0.95978764  0.13830712  0.75000000  1.0
  Mo  Mo13  1  0.17851947  0.04021236  0.75000000  1.0
