# generated using pymatgen
data_C19Cl15
_symmetry_space_group_name_H-M   'P 1'
_cell_length_a   9.48837255
_cell_length_b   9.48837255
_cell_length_c   19.42316327
_cell_angle_alpha   75.66493761
_cell_angle_beta   104.33506239
_cell_angle_gamma   98.86492804
_symmetry_Int_Tables_number   1
_chemical_formula_structural   C19Cl15
_chemical_formula_sum   'C38 Cl30'
_cell_volume   1633.41499672
_cell_formula_units_Z   2
loop_
 _symmetry_equiv_pos_site_id
 _symmetry_equiv_pos_as_xyz
  1  'x, y, z'
loop_
 _atom_site_type_symbol
 _atom_site_label
 _atom_site_symmetry_multiplicity
 _atom_site_fract_x
 _atom_site_fract_y
 _atom_site_fract_z
 _atom_site_occupancy
  Cl  Cl0  1  1.76726982  -0.09068607  0.96773873  1.0
  Cl  Cl1  1  1.09068607  -0.76726982  0.46773873  1.0
  Cl  Cl2  1  0.90931393  0.76726982  0.53226127  1.0
  Cl  Cl3  1  0.23273018  0.09068607  0.03226127  1.0
  Cl  Cl4  1  1.56898440  -0.26859821  0.49136031  1.0
  Cl  Cl5  1  1.26859821  -0.56898440  -0.00863969  1.0
  Cl  Cl6  1  0.73140179  0.56898440  1.00863969  1.0
  Cl  Cl7  1  0.43101560  0.26859821  0.50863969  1.0
  Cl  Cl8  1  1.59465474  -0.05690863  0.64167342  1.0
  Cl  Cl9  1  1.05690863  -0.59465474  0.14167342  1.0
  Cl  Cl10  1  0.94309137  0.59465474  0.85832658  1.0
  Cl  Cl11  1  0.40534526  0.05690863  0.35832658  1.0
  Cl  Cl12  1  1.34102722  -0.30253614  0.64269950  1.0
  Cl  Cl13  1  1.30253614  -0.34102722  0.14269950  1.0
  Cl  Cl14  1  0.69746386  0.34102722  0.85730050  1.0
  Cl  Cl15  1  0.65897278  0.30253614  0.35730050  1.0
  Cl  Cl16  1  1.28593292  -0.08793525  0.92771910  1.0
  Cl  Cl17  1  1.08793525  -0.28593292  0.42771910  1.0
  Cl  Cl18  1  0.91206475  0.28593292  0.57228090  1.0
  Cl  Cl19  1  0.71406708  0.08793525  0.07228090  1.0
  Cl  Cl20  1  0.38434528  0.06999593  0.78585307  1.0
  Cl  Cl21  1  0.93000407  0.61565472  0.28585307  1.0
  Cl  Cl22  1  1.06999593  -0.61565472  0.71414693  1.0
  Cl  Cl23  1  1.61565472  -0.06999593  0.21414693  1.0
  Cl  Cl24  1  0.59425642  0.34612571  0.65456734  1.0
  Cl  Cl25  1  0.65387429  0.40574358  0.15456734  1.0
  Cl  Cl26  1  1.34612571  -0.40574358  0.84543266  1.0
  Cl  Cl27  1  1.40574358  -0.34612571  0.34543266  1.0
  Cl  Cl28  1  0.89505371  0.89505371  0.75000000  1.0
  Cl  Cl29  1  0.10494629  0.10494629  0.25000000  1.0
  C  C30  1  1.50791015  -0.33776586  0.70071893  1.0
  C  C31  1  1.33776586  -0.50791015  0.20071893  1.0
  C  C32  1  0.66223414  0.50791015  0.79928107  1.0
  C  C33  1  0.49208985  0.33776586  0.29928107  1.0
  C  C34  1  1.62099620  -0.22353954  0.70055026  1.0
  C  C35  1  1.22353954  -0.62099620  0.20055026  1.0
  C  C36  1  0.77646046  0.62099620  0.79944974  1.0
  C  C37  1  0.37900380  0.22353954  0.29944974  1.0
  C  C38  1  0.30493962  0.09999467  0.90446961  1.0
  C  C39  1  0.90000533  0.69506038  0.40446961  1.0
  C  C40  1  1.09999467  -0.69506038  0.59553039  1.0
  C  C41  1  1.69506038  -0.09999467  0.09553039  1.0
  C  C42  1  0.34538299  0.17375840  0.83909119  1.0
  C  C43  1  0.82624160  0.65461701  0.33909119  1.0
  C  C44  1  1.17375840  -0.65461701  0.66090881  1.0
  C  C45  1  1.65461701  -0.17375840  0.16090881  1.0
  C  C46  1  0.28232787  0.17990538  0.95220711  1.0
  C  C47  1  0.82009462  0.71767213  0.45220711  1.0
  C  C48  1  1.17990538  -0.71767213  0.54779289  1.0
  C  C49  1  1.71767213  -0.17990538  0.04779289  1.0
  C  C50  1  0.36376957  0.32876674  0.81870831  1.0
  C  C51  1  0.67123326  0.63623043  0.31870831  1.0
  C  C52  1  1.32876674  -0.63623043  0.68129169  1.0
  C  C53  1  1.63623043  -0.32876674  0.18129169  1.0
  C  C54  1  1.30024215  -0.66648092  0.93381738  1.0
  C  C55  1  1.66648092  -0.30024215  0.43381738  1.0
  C  C56  1  0.33351908  0.30024215  0.56618262  1.0
  C  C57  1  0.69975785  0.66648092  0.06618262  1.0
  C  C58  1  1.33976868  -0.59391385  0.86806844  1.0
  C  C59  1  1.59391385  -0.33976868  0.36806844  1.0
  C  C60  1  0.40608615  0.33976868  0.63193156  1.0
  C  C61  1  0.66023132  0.59391385  0.13193156  1.0
  C  C62  1  0.75602662  0.75602662  0.75000000  1.0
  C  C63  1  0.24397338  0.24397338  0.25000000  1.0
  C  C64  1  0.52475357  0.52475357  0.75000000  1.0
  C  C65  1  0.47524643  0.47524643  0.25000000  1.0
  C  C66  1  0.40554813  0.40554813  0.75000000  1.0
  C  C67  1  0.59445187  0.59445187  0.25000000  1.0
