# generated using pymatgen
data_V2PbO6
_symmetry_space_group_name_H-M   'P 1'
_cell_length_a   8.71189027
_cell_length_b   8.71189027
_cell_length_c   9.69853070
_cell_angle_alpha   73.60939515
_cell_angle_beta   106.39060485
_cell_angle_gamma   155.68817838
_symmetry_Int_Tables_number   1
_chemical_formula_structural   V2PbO6
_chemical_formula_sum   'V4 Pb2 O12'
_cell_volume   290.14989887
_cell_formula_units_Z   2
loop_
 _symmetry_equiv_pos_site_id
 _symmetry_equiv_pos_as_xyz
  1  'x, y, z'
loop_
 _atom_site_type_symbol
 _atom_site_label
 _atom_site_symmetry_multiplicity
 _atom_site_fract_x
 _atom_site_fract_y
 _atom_site_fract_z
 _atom_site_occupancy
  V  V0  1  0.66698637  0.33301363  0.64736547  1.0
  V  V1  1  0.33301363  -0.33301363  0.35263453  1.0
  V  V2  1  0.91631783  0.08368217  0.17403341  1.0
  V  V3  1  0.08368217  -0.08368217  0.82596659  1.0
  Pb  Pb4  1  0.37421419  -0.37421419  0.77542863  1.0
  Pb  Pb5  1  0.62578581  0.37421419  0.22457137  1.0
  O  O6  1  0.87511129  0.12488871  0.99850725  1.0
  O  O7  1  0.12488871  -0.12488871  0.00149275  1.0
  O  O8  1  0.62221130  0.37778870  0.47335841  1.0
  O  O9  1  0.37778870  -0.37778870  0.52664159  1.0
  O  O10  1  0.59659549  0.40340451  0.77981373  1.0
  O  O11  1  0.40340451  -0.40340451  0.22018627  1.0
  O  O12  1  0.76992845  0.23007155  0.67900097  1.0
  O  O13  1  0.23007155  -0.23007155  0.32099903  1.0
  O  O14  1  0.84298618  0.15701382  0.30191537  1.0
  O  O15  1  0.15701382  -0.15701382  0.69808463  1.0
  O  O16  1  0.98045068  0.01954932  0.78938225  1.0
  O  O17  1  0.01954932  -0.01954932  0.21061775  1.0
