# generated using pymatgen
data_Ni2P2(C2O3)3
_symmetry_space_group_name_H-M   'P 1'
_cell_length_a   9.45391847
_cell_length_b   9.45391847
_cell_length_c   9.45391847
_cell_angle_alpha   90.00000000
_cell_angle_beta   90.00000000
_cell_angle_gamma   90.00000000
_symmetry_Int_Tables_number   1
_chemical_formula_structural   Ni2P2(C2O3)3
_chemical_formula_sum   'Ni4 P4 C12 O18'
_cell_volume   844.95884793
_cell_formula_units_Z   2
loop_
 _symmetry_equiv_pos_site_id
 _symmetry_equiv_pos_as_xyz
  1  'x, y, z'
loop_
 _atom_site_type_symbol
 _atom_site_label
 _atom_site_symmetry_multiplicity
 _atom_site_fract_x
 _atom_site_fract_y
 _atom_site_fract_z
 _atom_site_occupancy
  Ni  Ni0  1  0.75911981  0.75911981  0.24088019  1.0
  Ni  Ni1  1  0.75911981  0.24088019  0.75911981  1.0
  Ni  Ni2  1  0.24088019  0.75911981  0.75911981  1.0
  Ni  Ni3  1  0.24088019  0.24088019  0.24088019  1.0
  P  P4  1  0.88983026  0.88983026  0.11016974  1.0
  P  P5  1  0.88983026  0.11016974  0.88983026  1.0
  P  P6  1  0.11016974  0.88983026  0.88983026  1.0
  P  P7  1  0.11016974  0.11016974  0.11016974  1.0
  C  C8  1  0.79830195  0.79830195  0.42303177  1.0
  C  C9  1  0.79830195  0.57696823  0.20169805  1.0
  C  C10  1  0.79830195  0.20169805  0.57696823  1.0
  C  C11  1  0.79830195  0.42303177  0.79830195  1.0
  C  C12  1  0.57696823  0.79830195  0.20169805  1.0
  C  C13  1  0.57696823  0.20169805  0.79830195  1.0
  C  C14  1  0.20169805  0.79830195  0.57696823  1.0
  C  C15  1  0.20169805  0.57696823  0.79830195  1.0
  C  C16  1  0.20169805  0.20169805  0.42303177  1.0
  C  C17  1  0.20169805  0.42303177  0.20169805  1.0
  C  C18  1  0.42303177  0.79830195  0.79830195  1.0
  C  C19  1  0.42303177  0.20169805  0.20169805  1.0
  O  O20  1  0.82110942  0.82110942  0.54051855  1.0
  O  O21  1  0.82110942  0.45948145  0.17889058  1.0
  O  O22  1  0.82110942  0.17889058  0.45948145  1.0
  O  O23  1  0.82110942  0.54051855  0.82110942  1.0
  O  O24  1  0.45948145  0.82110942  0.17889058  1.0
  O  O25  1  0.45948145  0.17889058  0.82110942  1.0
  O  O26  1  0.17889058  0.82110942  0.45948145  1.0
  O  O27  1  0.17889058  0.45948145  0.82110942  1.0
  O  O28  1  0.17889058  0.17889058  0.54051855  1.0
  O  O29  1  0.17889058  0.54051855  0.17889058  1.0
  O  O30  1  0.54051855  0.82110942  0.82110942  1.0
  O  O31  1  0.54051855  0.17889058  0.17889058  1.0
  O  O32  1  0.80930788  0.00000000  0.00000000  1.0
  O  O33  1  0.00000000  0.80930788  0.00000000  1.0
  O  O34  1  0.00000000  0.00000000  0.19069212  1.0
  O  O35  1  0.00000000  0.19069212  0.00000000  1.0
  O  O36  1  0.00000000  0.00000000  0.80930788  1.0
  O  O37  1  0.19069212  0.00000000  0.00000000  1.0
