# generated using pymatgen
data_Ce(Si2Rh3)2
_symmetry_space_group_name_H-M   'P 1'
_cell_length_a   7.02929478
_cell_length_b   7.02929478
_cell_length_c   3.79842509
_cell_angle_alpha   90.00000000
_cell_angle_beta   90.00000000
_cell_angle_gamma   120.00000000
_symmetry_Int_Tables_number   1
_chemical_formula_structural   Ce(Si2Rh3)2
_chemical_formula_sum   'Ce1 Si4 Rh6'
_cell_volume   162.53904751
_cell_formula_units_Z   1
loop_
 _symmetry_equiv_pos_site_id
 _symmetry_equiv_pos_as_xyz
  1  'x, y, z'
loop_
 _atom_site_type_symbol
 _atom_site_label
 _atom_site_symmetry_multiplicity
 _atom_site_fract_x
 _atom_site_fract_y
 _atom_site_fract_z
 _atom_site_occupancy
  Ce  Ce0  1  0.00000000  0.00000000  0.00000000  1.0
  Si  Si1  1  0.40306501  0.20153250  0.50000000  1.0
  Si  Si2  1  0.79846750  0.20153250  0.50000000  1.0
  Si  Si3  1  0.79846750  0.59693499  0.50000000  1.0
  Si  Si4  1  0.33333333  0.66666667  0.00000000  1.0
  Rh  Rh5  1  0.60336778  0.80168389  0.50000000  1.0
  Rh  Rh6  1  0.19831611  0.80168389  0.50000000  1.0
  Rh  Rh7  1  0.19831611  0.39663222  0.50000000  1.0
  Rh  Rh8  1  0.93493699  0.46746849  0.00000000  1.0
  Rh  Rh9  1  0.53253151  0.46746849  0.00000000  1.0
  Rh  Rh10  1  0.53253151  0.06506301  0.00000000  1.0
