# generated using pymatgen
data_BaMnVF7
_symmetry_space_group_name_H-M   'P 1'
_cell_length_a   7.51385836
_cell_length_b   7.51385836
_cell_length_c   15.08011171
_cell_angle_alpha   90.61383422
_cell_angle_beta   89.38616578
_cell_angle_gamma   139.02650776
_symmetry_Int_Tables_number   1
_chemical_formula_structural   BaMnVF7
_chemical_formula_sum   'Ba4 Mn4 V4 F28'
_cell_volume   558.23085004
_cell_formula_units_Z   4
loop_
 _symmetry_equiv_pos_site_id
 _symmetry_equiv_pos_as_xyz
  1  'x, y, z'
loop_
 _atom_site_type_symbol
 _atom_site_label
 _atom_site_symmetry_multiplicity
 _atom_site_fract_x
 _atom_site_fract_y
 _atom_site_fract_z
 _atom_site_occupancy
  Ba  Ba0  1  0.64560428  0.25466301  0.62175952  1.0
  Ba  Ba1  1  0.74533699  0.35439572  0.12175952  1.0
  Ba  Ba2  1  1.25466301  0.64560428  0.87824048  1.0
  Ba  Ba3  1  0.35439572  -0.25466301  0.37824048  1.0
  Mn  Mn4  1  0.36890804  -0.40840406  0.62751661  1.0
  Mn  Mn5  1  1.40840406  0.63109196  0.12751661  1.0
  Mn  Mn6  1  0.59159594  0.36890804  0.87248339  1.0
  Mn  Mn7  1  0.63109196  0.40840406  0.37248339  1.0
  V  V8  1  0.00000000  0.00000000  0.00000000  1.0
  V  V9  1  -0.00000000  0.00000000  0.50000000  1.0
  V  V10  1  0.95157938  0.95157938  0.75000000  1.0
  V  V11  1  0.04842062  0.04842062  0.25000000  1.0
  F  F12  1  0.38135718  0.23377822  0.99702508  1.0
  F  F13  1  0.76622178  0.61864282  0.49702508  1.0
  F  F14  1  1.23377822  0.38135718  0.50297492  1.0
  F  F15  1  0.61864282  -0.23377822  0.00297492  1.0
  F  F16  1  0.28772980  0.07513345  0.77802586  1.0
  F  F17  1  0.92486655  0.71227020  0.27802586  1.0
  F  F18  1  1.07513345  0.28772980  0.72197414  1.0
  F  F19  1  0.71227020  -0.07513345  0.22197414  1.0
  F  F20  1  0.67749078  0.18590782  0.91793253  1.0
  F  F21  1  0.81409218  0.32250922  0.41793253  1.0
  F  F22  1  1.18590782  0.67749078  0.58206747  1.0
  F  F23  1  0.32250922  -0.18590782  0.08206747  1.0
  F  F24  1  0.52852825  -0.12457804  0.72603001  1.0
  F  F25  1  1.12457804  0.47147175  0.22603001  1.0
  F  F26  1  0.87542196  0.52852825  0.77396999  1.0
  F  F27  1  0.47147175  0.12457804  0.27396999  1.0
  F  F28  1  0.70729763  -0.06414280  0.54092165  1.0
  F  F29  1  1.06414280  0.29270237  0.04092165  1.0
  F  F30  1  0.93585720  0.70729763  0.95907835  1.0
  F  F31  1  0.29270237  0.06414280  0.45907835  1.0
  F  F32  1  0.84433755  -0.07857531  0.37726111  1.0
  F  F33  1  1.07857531  0.15566245  0.87726111  1.0
  F  F34  1  0.92142469  0.84433755  0.12273889  1.0
  F  F35  1  0.15566245  0.07857531  0.62273889  1.0
  F  F36  1  0.65012626  -0.32140172  0.83275758  1.0
  F  F37  1  1.32140172  0.34987374  0.33275758  1.0
  F  F38  1  0.67859828  0.65012626  0.66724242  1.0
  F  F39  1  0.34987374  0.32140172  0.16724242  1.0
