# generated using pymatgen
data_CsCrH18N6(ClO2)4
_symmetry_space_group_name_H-M   'P 1'
_cell_length_a   10.18882255
_cell_length_b   10.18882255
_cell_length_c   10.18882255
_cell_angle_alpha   43.21718971
_cell_angle_beta   43.21718971
_cell_angle_gamma   43.21718971
_symmetry_Int_Tables_number   1
_chemical_formula_structural   CsCrH18N6(ClO2)4
_chemical_formula_sum   'Cs1 Cr1 H18 N6 Cl4 O8'
_cell_volume   449.74845233
_cell_formula_units_Z   1
loop_
 _symmetry_equiv_pos_site_id
 _symmetry_equiv_pos_as_xyz
  1  'x, y, z'
loop_
 _atom_site_type_symbol
 _atom_site_label
 _atom_site_symmetry_multiplicity
 _atom_site_fract_x
 _atom_site_fract_y
 _atom_site_fract_z
 _atom_site_occupancy
  Cs  Cs0  1  0.50000000  0.50000000  -0.50000000  1.0
  Cr  Cr1  1  0.00000000  0.00000000  0.00000000  1.0
  H  H2  1  0.71002206  0.31819020  -0.88869038  1.0
  H  H3  1  0.88869038  0.28997794  -0.31819020  1.0
  H  H4  1  0.68180980  -0.11130962  0.28997794  1.0
  H  H5  1  1.28997794  -0.31819020  -0.11130962  1.0
  H  H6  1  0.11130962  0.71002206  -0.68180980  1.0
  H  H7  1  0.31819020  0.11130962  -0.28997794  1.0
  H  H8  1  0.96896724  -0.05949237  -0.67601552  1.0
  H  H9  1  0.67601552  0.03103276  0.05949237  1.0
  H  H10  1  1.05949237  -0.32398448  0.03103276  1.0
  H  H11  1  1.03103276  0.05949237  -0.32398448  1.0
  H  H12  1  0.32398448  -0.03103276  -0.05949237  1.0
  H  H13  1  0.94050763  -0.67601552  -0.03103276  1.0
  H  H14  1  0.85383353  -0.18714000  -0.58124798  1.0
  H  H15  1  0.58124798  0.14616647  0.18714000  1.0
  H  H16  1  1.18714000  -0.41875202  0.14616647  1.0
  H  H17  1  1.14616647  0.18714000  -0.41875202  1.0
  H  H18  1  0.41875202  -0.14616647  -0.18714000  1.0
  H  H19  1  0.81286000  -0.58124798  -0.14616647  1.0
  N  N20  1  0.98060115  -0.14771714  -0.70290433  1.0
  N  N21  1  0.70290433  0.01939885  0.14771714  1.0
  N  N22  1  1.14771714  -0.29709567  0.01939885  1.0
  N  N23  1  1.01939885  0.14771714  -0.29709567  1.0
  N  N24  1  0.29709567  -0.01939885  -0.14771714  1.0
  N  N25  1  0.85228286  -0.70290433  -0.01939885  1.0
  Cl  Cl26  1  0.18856737  0.18856737  0.18856737  1.0
  Cl  Cl27  1  0.81143263  -0.18856737  -0.18856737  1.0
  Cl  Cl28  1  0.36418100  0.36418100  -0.63581900  1.0
  Cl  Cl29  1  0.63581900  0.63581900  -0.36418100  1.0
  O  O30  1  0.99919163  0.35314070  -0.73364618  1.0
  O  O31  1  0.73364618  0.00080837  -0.35314070  1.0
  O  O32  1  0.64685930  -0.26635382  0.00080837  1.0
  O  O33  1  1.00080837  -0.35314070  -0.26635382  1.0
  O  O34  1  0.26635382  0.99919163  -0.64685930  1.0
  O  O35  1  0.35314070  0.26635382  -0.00080837  1.0
  O  O36  1  0.13528197  0.13528197  0.13528197  1.0
  O  O37  1  0.86471803  -0.13528197  -0.13528197  1.0
