# generated using pymatgen
data_Li4Ga3Si3BrO12
_symmetry_space_group_name_H-M   'P 1'
_cell_length_a   8.63868880
_cell_length_b   8.63868880
_cell_length_c   8.63868880
_cell_angle_alpha   90.00000000
_cell_angle_beta   90.00000000
_cell_angle_gamma   90.00000000
_symmetry_Int_Tables_number   1
_chemical_formula_structural   Li4Ga3Si3BrO12
_chemical_formula_sum   'Li8 Ga6 Si6 Br2 O24'
_cell_volume   644.67894601
_cell_formula_units_Z   2
loop_
 _symmetry_equiv_pos_site_id
 _symmetry_equiv_pos_as_xyz
  1  'x, y, z'
loop_
 _atom_site_type_symbol
 _atom_site_label
 _atom_site_symmetry_multiplicity
 _atom_site_fract_x
 _atom_site_fract_y
 _atom_site_fract_z
 _atom_site_occupancy
  Li  Li0  1  0.32166146  0.32166146  0.67833854  1.0
  Li  Li1  1  0.32166146  0.67833854  0.32166146  1.0
  Li  Li2  1  0.82166146  0.82166146  0.17833854  1.0
  Li  Li3  1  0.82166146  0.17833854  0.82166146  1.0
  Li  Li4  1  0.67833854  0.32166146  0.32166146  1.0
  Li  Li5  1  0.67833854  0.67833854  0.67833854  1.0
  Li  Li6  1  0.17833854  0.82166146  0.82166146  1.0
  Li  Li7  1  0.17833854  0.17833854  0.17833854  1.0
  Ga  Ga8  1  0.25000000  0.50000000  0.00000000  1.0
  Ga  Ga9  1  0.75000000  0.50000000  0.00000000  1.0
  Ga  Ga10  1  0.00000000  0.25000000  0.50000000  1.0
  Ga  Ga11  1  0.00000000  0.75000000  0.50000000  1.0
  Ga  Ga12  1  0.50000000  0.00000000  0.25000000  1.0
  Ga  Ga13  1  0.50000000  0.00000000  0.75000000  1.0
  Si  Si14  1  0.25000000  0.00000000  0.50000000  1.0
  Si  Si15  1  0.75000000  0.00000000  0.50000000  1.0
  Si  Si16  1  0.50000000  0.25000000  0.00000000  1.0
  Si  Si17  1  0.50000000  0.75000000  0.00000000  1.0
  Si  Si18  1  0.00000000  0.50000000  0.25000000  1.0
  Si  Si19  1  0.00000000  0.50000000  0.75000000  1.0
  Br  Br20  1  0.50000000  0.50000000  0.50000000  1.0
  Br  Br21  1  0.00000000  0.00000000  0.00000000  1.0
  O  O22  1  0.35317261  0.09738583  0.62744548  1.0
  O  O23  1  0.35317261  0.90261417  0.37255452  1.0
  O  O24  1  0.85317261  0.87255452  0.40261417  1.0
  O  O25  1  0.85317261  0.12744548  0.59738583  1.0
  O  O26  1  0.37255452  0.35317261  0.90261417  1.0
  O  O27  1  0.37255452  0.64682739  0.09738583  1.0
  O  O28  1  0.87255452  0.59738583  0.14682739  1.0
  O  O29  1  0.87255452  0.40261417  0.85317261  1.0
  O  O30  1  0.09738583  0.37255452  0.64682739  1.0
  O  O31  1  0.09738583  0.62744548  0.35317261  1.0
  O  O32  1  0.59738583  0.85317261  0.12744548  1.0
  O  O33  1  0.59738583  0.14682739  0.87255452  1.0
  O  O34  1  0.64682739  0.09738583  0.37255452  1.0
  O  O35  1  0.64682739  0.90261417  0.62744548  1.0
  O  O36  1  0.14682739  0.87255452  0.59738583  1.0
  O  O37  1  0.14682739  0.12744548  0.40261417  1.0
  O  O38  1  0.62744548  0.35317261  0.09738583  1.0
  O  O39  1  0.62744548  0.64682739  0.90261417  1.0
  O  O40  1  0.12744548  0.59738583  0.85317261  1.0
  O  O41  1  0.12744548  0.40261417  0.14682739  1.0
  O  O42  1  0.90261417  0.37255452  0.35317261  1.0
  O  O43  1  0.90261417  0.62744548  0.64682739  1.0
  O  O44  1  0.40261417  0.85317261  0.87255452  1.0
  O  O45  1  0.40261417  0.14682739  0.12744548  1.0
