# generated using pymatgen
data_Li3In(BO3)2
_symmetry_space_group_name_H-M   'P 1'
_cell_length_a   5.22223867
_cell_length_b   9.01584251
_cell_length_c   11.47811458
_cell_angle_alpha   90.00000000
_cell_angle_beta   116.10156766
_cell_angle_gamma   90.00000000
_symmetry_Int_Tables_number   1
_chemical_formula_structural   Li3In(BO3)2
_chemical_formula_sum   'Li12 In4 B8 O24'
_cell_volume   485.30798833
_cell_formula_units_Z   4
loop_
 _symmetry_equiv_pos_site_id
 _symmetry_equiv_pos_as_xyz
  1  'x, y, z'
loop_
 _atom_site_type_symbol
 _atom_site_label
 _atom_site_symmetry_multiplicity
 _atom_site_fract_x
 _atom_site_fract_y
 _atom_site_fract_z
 _atom_site_occupancy
  Li  Li0  1  0.98293664  0.47656191  0.32305835  1.0
  Li  Li1  1  0.98293664  0.02343809  0.82305835  1.0
  Li  Li2  1  0.01706336  0.97656191  0.17694165  1.0
  Li  Li3  1  0.01706336  0.52343809  0.67694165  1.0
  Li  Li4  1  0.95017451  0.65919349  0.11635233  1.0
  Li  Li5  1  0.95017451  0.84080651  0.61635233  1.0
  Li  Li6  1  0.04982549  0.15919349  0.38364767  1.0
  Li  Li7  1  0.04982549  0.34080651  0.88364767  1.0
  Li  Li8  1  0.57911124  0.01153316  0.40555248  1.0
  Li  Li9  1  0.57911124  0.48846684  0.90555248  1.0
  Li  Li10  1  0.42088876  0.51153316  0.09444752  1.0
  Li  Li11  1  0.42088876  0.98846684  0.59444752  1.0
  In  In12  1  0.46887134  0.16755595  0.12238283  1.0
  In  In13  1  0.46887134  0.33244405  0.62238283  1.0
  In  In14  1  0.53112866  0.66755595  0.37761717  1.0
  In  In15  1  0.53112866  0.83244405  0.87761717  1.0
  B  B16  1  0.95476687  0.32774822  0.11909157  1.0
  B  B17  1  0.95476687  0.17225178  0.61909157  1.0
  B  B18  1  0.04523313  0.82774822  0.38090843  1.0
  B  B19  1  0.04523313  0.67225178  0.88090843  1.0
  B  B20  1  0.53506126  0.32837848  0.36885609  1.0
  B  B21  1  0.53506126  0.17162152  0.86885609  1.0
  B  B22  1  0.46493874  0.82837848  0.13114391  1.0
  B  B23  1  0.46493874  0.67162152  0.63114391  1.0
  O  O24  1  0.89601915  0.18593647  0.15133095  1.0
  O  O25  1  0.89601915  0.31406353  0.65133095  1.0
  O  O26  1  0.10398085  0.68593647  0.34866905  1.0
  O  O27  1  0.10398085  0.81406353  0.84866905  1.0
  O  O28  1  0.81802781  0.84401769  0.41309468  1.0
  O  O29  1  0.81802781  0.65598231  0.91309468  1.0
  O  O30  1  0.18197219  0.34401769  0.08690532  1.0
  O  O31  1  0.18197219  0.15598231  0.58690532  1.0
  O  O32  1  0.79832752  0.45010271  0.11910904  1.0
  O  O33  1  0.79832752  0.04989729  0.61910904  1.0
  O  O34  1  0.20167248  0.95010271  0.38089096  1.0
  O  O35  1  0.20167248  0.54989729  0.88089096  1.0
  O  O36  1  0.66863300  0.45689860  0.35994144  1.0
  O  O37  1  0.66863300  0.04310140  0.85994144  1.0
  O  O38  1  0.33136700  0.95689860  0.14005856  1.0
  O  O39  1  0.33136700  0.54310140  0.64005856  1.0
  O  O40  1  0.62438926  0.19609587  0.33582615  1.0
  O  O41  1  0.62438926  0.30390413  0.83582615  1.0
  O  O42  1  0.37561074  0.69609587  0.16417385  1.0
  O  O43  1  0.37561074  0.80390413  0.66417385  1.0
  O  O44  1  0.31689738  0.33233694  0.40820523  1.0
  O  O45  1  0.31689738  0.16766306  0.90820523  1.0
  O  O46  1  0.68310262  0.83233694  0.09179477  1.0
  O  O47  1  0.68310262  0.66766306  0.59179477  1.0
