# generated using pymatgen
data_Ni3(BiS)2
_symmetry_space_group_name_H-M   'P 1'
_cell_length_a   6.89722413
_cell_length_b   6.89722413
_cell_length_c   8.01359872
_cell_angle_alpha   55.96648107
_cell_angle_beta   124.03351893
_cell_angle_gamma   107.69474842
_symmetry_Int_Tables_number   1
_chemical_formula_structural   Ni3(BiS)2
_chemical_formula_sum   'Ni6 Bi4 S4'
_cell_volume   261.78331773
_cell_formula_units_Z   2
loop_
 _symmetry_equiv_pos_site_id
 _symmetry_equiv_pos_as_xyz
  1  'x, y, z'
loop_
 _atom_site_type_symbol
 _atom_site_label
 _atom_site_symmetry_multiplicity
 _atom_site_fract_x
 _atom_site_fract_y
 _atom_site_fract_z
 _atom_site_occupancy
  Ni  Ni0  1  0.98441142  0.01558858  0.72030881  1.0
  Ni  Ni1  1  0.01558858  -0.01558858  0.27969119  1.0
  Ni  Ni2  1  0.73846887  0.73846887  -0.00000000  1.0
  Ni  Ni3  1  0.26153113  0.26153113  -0.00000000  1.0
  Ni  Ni4  1  1.50000000  -0.00000000  -0.00000000  1.0
  Ni  Ni5  1  1.00000000  0.50000000  -0.00000000  1.0
  Bi  Bi6  1  0.76217468  -0.76217468  0.76990272  1.0
  Bi  Bi7  1  1.23782532  -0.23782532  0.23009728  1.0
  Bi  Bi8  1  0.25257763  -0.25257763  0.75397532  1.0
  Bi  Bi9  1  0.74742237  0.25257763  0.24602468  1.0
  S  S10  1  1.71270554  -0.24886497  0.70997519  1.0
  S  S11  1  1.24886497  0.28729446  0.70997519  1.0
  S  S12  1  0.75113503  0.71270554  0.29002481  1.0
  S  S13  1  1.28729446  0.24886497  0.29002481  1.0
