# generated using pymatgen
data_Rb2NbAgSe2
_symmetry_space_group_name_H-M   'P 1'
_cell_length_a   19.68903282
_cell_length_b   18.87145054
_cell_length_c   7.12904091
_cell_angle_alpha   85.88740641
_cell_angle_beta   72.94178736
_cell_angle_gamma   21.17080623
_symmetry_Int_Tables_number   1
_chemical_formula_structural   Rb2NbAgSe2
_chemical_formula_sum   'Rb8 Nb4 Ag4 Se8'
_cell_volume   742.01914127
_cell_formula_units_Z   4
loop_
 _symmetry_equiv_pos_site_id
 _symmetry_equiv_pos_as_xyz
  1  'x, y, z'
loop_
 _atom_site_type_symbol
 _atom_site_label
 _atom_site_symmetry_multiplicity
 _atom_site_fract_x
 _atom_site_fract_y
 _atom_site_fract_z
 _atom_site_occupancy
  Rb  Rb0  1  1.10978596  0.46550044  0.62961312  1.0
  Rb  Rb1  1  0.79510049  0.62961312  0.46550044  1.0
  Rb  Rb2  1  0.78449956  1.14021404  0.45489951  1.0
  Rb  Rb3  1  0.62038688  0.45489951  1.14021404  1.0
  Rb  Rb4  1  1.62961312  -0.20489951  0.10978596  1.0
  Rb  Rb5  1  1.46550044  0.10978596  -0.20489951  1.0
  Rb  Rb6  1  0.45489951  0.62038688  0.78449956  1.0
  Rb  Rb7  1  1.14021404  0.78449956  0.62038688  1.0
  Nb  Nb8  1  1.12500000  0.12500000  0.62500000  1.0
  Nb  Nb9  1  1.12500000  0.62500000  0.12500000  1.0
  Nb  Nb10  1  1.12500000  0.12500000  0.12500000  1.0
  Nb  Nb11  1  1.62500000  0.12500000  0.12500000  1.0
  Ag  Ag12  1  0.62500000  0.62500000  1.12500000  1.0
  Ag  Ag13  1  0.62500000  1.12500000  0.62500000  1.0
  Ag  Ag14  1  0.62500000  0.62500000  0.62500000  1.0
  Ag  Ag15  1  1.12500000  0.62500000  0.62500000  1.0
  Se  Se16  1  1.13670845  -0.01618030  0.62501739  1.0
  Se  Se17  1  1.25445446  0.62501739  -0.01618030  1.0
  Se  Se18  1  0.26618030  1.11329155  0.99554554  1.0
  Se  Se19  1  0.62498261  0.99554554  1.11329155  1.0
  Se  Se20  1  1.62501739  0.25445446  0.13670845  1.0
  Se  Se21  1  0.98381970  0.13670845  0.25445446  1.0
  Se  Se22  1  0.99554554  0.62498261  0.26618030  1.0
  Se  Se23  1  1.11329155  0.26618030  0.62498261  1.0
