# generated using pymatgen
data_La3Te4Br
_symmetry_space_group_name_H-M   'P 1'
_cell_length_a   16.50339327
_cell_length_b   4.41536150
_cell_length_c   14.42226167
_cell_angle_alpha   90.00000000
_cell_angle_beta   90.00000000
_cell_angle_gamma   90.00000000
_symmetry_Int_Tables_number   1
_chemical_formula_structural   La3Te4Br
_chemical_formula_sum   'La12 Te16 Br4'
_cell_volume   1050.92781317
_cell_formula_units_Z   4
loop_
 _symmetry_equiv_pos_site_id
 _symmetry_equiv_pos_as_xyz
  1  'x, y, z'
loop_
 _atom_site_type_symbol
 _atom_site_label
 _atom_site_symmetry_multiplicity
 _atom_site_fract_x
 _atom_site_fract_y
 _atom_site_fract_z
 _atom_site_occupancy
  La  La0  1  0.37402184  0.75000000  0.90976398  1.0
  La  La1  1  0.87402184  0.75000000  0.59023602  1.0
  La  La2  1  0.62597816  0.25000000  0.09023602  1.0
  La  La3  1  0.12597816  0.25000000  0.40976398  1.0
  La  La4  1  0.13296423  0.75000000  0.07381648  1.0
  La  La5  1  0.63296423  0.75000000  0.42618352  1.0
  La  La6  1  0.86703577  0.25000000  0.92618352  1.0
  La  La7  1  0.36703577  0.25000000  0.57381648  1.0
  La  La8  1  0.11911571  0.75000000  0.75051546  1.0
  La  La9  1  0.61911571  0.75000000  0.74948454  1.0
  La  La10  1  0.88088429  0.25000000  0.24948454  1.0
  La  La11  1  0.38088429  0.25000000  0.25051546  1.0
  Te  Te12  1  0.47580511  0.75000000  0.11228393  1.0
  Te  Te13  1  0.97580511  0.75000000  0.38771607  1.0
  Te  Te14  1  0.52419489  0.25000000  0.88771607  1.0
  Te  Te15  1  0.02419489  0.25000000  0.61228393  1.0
  Te  Te16  1  0.23273019  0.75000000  0.27709645  1.0
  Te  Te17  1  0.73273019  0.75000000  0.22290355  1.0
  Te  Te18  1  0.76726981  0.25000000  0.72290355  1.0
  Te  Te19  1  0.26726981  0.25000000  0.77709645  1.0
  Te  Te20  1  0.21644282  0.75000000  0.54825602  1.0
  Te  Te21  1  0.71644282  0.75000000  0.95174398  1.0
  Te  Te22  1  0.78355718  0.25000000  0.45174398  1.0
  Te  Te23  1  0.28355718  0.25000000  0.04825602  1.0
  Te  Te24  1  0.92747928  0.75000000  0.08083622  1.0
  Te  Te25  1  0.42747928  0.75000000  0.41916378  1.0
  Te  Te26  1  0.07252072  0.25000000  0.91916378  1.0
  Te  Te27  1  0.57252072  0.25000000  0.58083622  1.0
  Br  Br28  1  0.43198885  0.75000000  0.70271632  1.0
  Br  Br29  1  0.93198885  0.75000000  0.79728368  1.0
  Br  Br30  1  0.56801115  0.25000000  0.29728368  1.0
  Br  Br31  1  0.06801115  0.25000000  0.20271632  1.0
