# generated using pymatgen
data_KCrF6
_symmetry_space_group_name_H-M   'P 1'
_cell_length_a   5.03470781
_cell_length_b   5.03470781
_cell_length_c   5.03470781
_cell_angle_alpha   97.74987710
_cell_angle_beta   97.74987710
_cell_angle_gamma   97.74987710
_symmetry_Int_Tables_number   1
_chemical_formula_structural   KCrF6
_chemical_formula_sum   'K1 Cr1 F6'
_cell_volume   123.76908480
_cell_formula_units_Z   1
loop_
 _symmetry_equiv_pos_site_id
 _symmetry_equiv_pos_as_xyz
  1  'x, y, z'
loop_
 _atom_site_type_symbol
 _atom_site_label
 _atom_site_symmetry_multiplicity
 _atom_site_fract_x
 _atom_site_fract_y
 _atom_site_fract_z
 _atom_site_occupancy
  K  K0  1  0.50000000  0.50000000  0.50000000  1.0
  Cr  Cr1  1  0.00000000  0.00000000  0.00000000  1.0
  F  F2  1  0.75031223  0.74923958  0.08214718  1.0
  F  F3  1  1.25076042  -0.08214718  0.24968777  1.0
  F  F4  1  0.91785282  0.24968777  0.25076042  1.0
  F  F5  1  1.24968777  0.25076042  -0.08214718  1.0
  F  F6  1  0.74923958  1.08214718  -0.24968777  1.0
  F  F7  1  1.08214718  0.75031223  -0.25076042  1.0
