# generated using pymatgen
data_CsGdZnSe3
_symmetry_space_group_name_H-M   'P 1'
_cell_length_a   8.39451532
_cell_length_b   8.39451532
_cell_length_c   11.12935361
_cell_angle_alpha   90.00000000
_cell_angle_beta   90.00000000
_cell_angle_gamma   150.92039713
_symmetry_Int_Tables_number   1
_chemical_formula_structural   CsGdZnSe3
_chemical_formula_sum   'Cs2 Gd2 Zn2 Se6'
_cell_volume   381.17039917
_cell_formula_units_Z   2
loop_
 _symmetry_equiv_pos_site_id
 _symmetry_equiv_pos_as_xyz
  1  'x, y, z'
loop_
 _atom_site_type_symbol
 _atom_site_label
 _atom_site_symmetry_multiplicity
 _atom_site_fract_x
 _atom_site_fract_y
 _atom_site_fract_z
 _atom_site_occupancy
  Cs  Cs0  1  -0.25616436  0.25616436  0.75000000  1.0
  Cs  Cs1  1  0.25616436  0.74383564  0.25000000  1.0
  Gd  Gd2  1  -0.00000000  -0.00000000  0.00000000  1.0
  Gd  Gd3  1  0.00000000  0.00000000  0.50000000  1.0
  Zn  Zn4  1  0.46311764  0.53688236  0.75000000  1.0
  Zn  Zn5  1  -0.46311764  0.46311764  0.25000000  1.0
  Se  Se6  1  0.38394853  0.61605147  0.93782612  1.0
  Se  Se7  1  0.38394853  0.61605147  0.56217388  1.0
  Se  Se8  1  -0.38394853  0.38394853  0.43782612  1.0
  Se  Se9  1  -0.38394853  0.38394853  0.06217388  1.0
  Se  Se10  1  0.05590368  0.94409632  0.75000000  1.0
  Se  Se11  1  -0.05590368  0.05590368  0.25000000  1.0
