# generated using pymatgen
data_K3(WO3)5
_symmetry_space_group_name_H-M   'P 1'
_cell_length_a   12.47258180
_cell_length_b   12.47258180
_cell_length_c   3.88498849
_cell_angle_alpha   90.00000000
_cell_angle_beta   90.00000000
_cell_angle_gamma   90.00000000
_symmetry_Int_Tables_number   1
_chemical_formula_structural   K3(WO3)5
_chemical_formula_sum   'K6 W10 O30'
_cell_volume   604.36938641
_cell_formula_units_Z   2
loop_
 _symmetry_equiv_pos_site_id
 _symmetry_equiv_pos_as_xyz
  1  'x, y, z'
loop_
 _atom_site_type_symbol
 _atom_site_label
 _atom_site_symmetry_multiplicity
 _atom_site_fract_x
 _atom_site_fract_y
 _atom_site_fract_z
 _atom_site_occupancy
  K  K0  1  0.82866531  0.67133469  0.50000000  1.0
  K  K1  1  0.32866531  0.82866531  0.50000000  1.0
  K  K2  1  0.17133469  0.32866531  0.50000000  1.0
  K  K3  1  0.67133469  0.17133469  0.50000000  1.0
  K  K4  1  0.50000000  0.50000000  0.50000000  1.0
  K  K5  1  0.00000000  0.00000000  0.50000000  1.0
  W  W6  1  0.29026890  0.57561382  0.00000000  1.0
  W  W7  1  0.79026890  0.92438618  0.00000000  1.0
  W  W8  1  0.42438618  0.29026890  0.00000000  1.0
  W  W9  1  0.92438618  0.20973110  0.00000000  1.0
  W  W10  1  0.70973110  0.42438618  0.00000000  1.0
  W  W11  1  0.20973110  0.07561382  0.00000000  1.0
  W  W12  1  0.57561382  0.70973110  0.00000000  1.0
  W  W13  1  0.07561382  0.79026890  0.00000000  1.0
  W  W14  1  0.50000000  0.00000000  0.00000000  1.0
  W  W15  1  0.00000000  0.50000000  0.00000000  1.0
  O  O16  1  0.29220270  0.57649051  0.50000000  1.0
  O  O17  1  0.79220270  0.92350949  0.50000000  1.0
  O  O18  1  0.42350949  0.29220270  0.50000000  1.0
  O  O19  1  0.92350949  0.20779730  0.50000000  1.0
  O  O20  1  0.70779730  0.42350949  0.50000000  1.0
  O  O21  1  0.20779730  0.07649051  0.50000000  1.0
  O  O22  1  0.57649051  0.70779730  0.50000000  1.0
  O  O23  1  0.07649051  0.79220270  0.50000000  1.0
  O  O24  1  0.49911085  0.84558627  0.00000000  1.0
  O  O25  1  -0.00088915  0.65441373  0.00000000  1.0
  O  O26  1  0.15441373  0.49911085  0.00000000  1.0
  O  O27  1  0.65441373  0.00088915  0.00000000  1.0
  O  O28  1  0.50088915  0.15441373  0.00000000  1.0
  O  O29  1  0.00088915  0.34558627  0.00000000  1.0
  O  O30  1  0.84558627  0.50088915  0.00000000  1.0
  O  O31  1  0.34558627  -0.00088915  0.00000000  1.0
  O  O32  1  0.43152148  0.64340730  0.00000000  1.0
  O  O33  1  0.93152148  0.85659270  0.00000000  1.0
  O  O34  1  0.35659270  0.43152148  0.00000000  1.0
  O  O35  1  0.85659270  0.06847852  0.00000000  1.0
  O  O36  1  0.56847852  0.35659270  0.00000000  1.0
  O  O37  1  0.06847852  0.14340730  0.00000000  1.0
  O  O38  1  0.64340730  0.56847852  0.00000000  1.0
  O  O39  1  0.14340730  0.93152148  0.00000000  1.0
  O  O40  1  0.29020205  0.20979795  0.00000000  1.0
  O  O41  1  0.79020205  0.29020205  0.00000000  1.0
  O  O42  1  0.70979795  0.79020205  0.00000000  1.0
  O  O43  1  0.20979795  0.70979795  0.00000000  1.0
  O  O44  1  0.50000000  0.00000000  0.50000000  1.0
  O  O45  1  0.00000000  0.50000000  0.50000000  1.0
