# generated using pymatgen
data_Gd3Al3CoGe2
_symmetry_space_group_name_H-M   'P 1'
_cell_length_a   6.99241308
_cell_length_b   6.99241308
_cell_length_c   4.20209071
_cell_angle_alpha   90.00000000
_cell_angle_beta   90.00000000
_cell_angle_gamma   120.00000000
_symmetry_Int_Tables_number   1
_chemical_formula_structural   Gd3Al3CoGe2
_chemical_formula_sum   'Gd3 Al3 Co1 Ge2'
_cell_volume   177.93042165
_cell_formula_units_Z   1
loop_
 _symmetry_equiv_pos_site_id
 _symmetry_equiv_pos_as_xyz
  1  'x, y, z'
loop_
 _atom_site_type_symbol
 _atom_site_label
 _atom_site_symmetry_multiplicity
 _atom_site_fract_x
 _atom_site_fract_y
 _atom_site_fract_z
 _atom_site_occupancy
  Gd  Gd0  1  0.40210251  0.40210251  0.00000000  1.0
  Gd  Gd1  1  0.00000000  0.59789749  0.00000000  1.0
  Gd  Gd2  1  0.59789749  0.00000000  0.00000000  1.0
  Al  Al3  1  0.77481503  0.77481503  0.50000000  1.0
  Al  Al4  1  -0.00000000  0.22518497  0.50000000  1.0
  Al  Al5  1  0.22518497  0.00000000  0.50000000  1.0
  Co  Co6  1  0.00000000  0.00000000  0.00000000  1.0
  Ge  Ge7  1  0.33333333  0.66666667  0.50000000  1.0
  Ge  Ge8  1  0.66666667  0.33333333  0.50000000  1.0
