# generated using pymatgen
data_LiScMo3O8
_symmetry_space_group_name_H-M   'P 1'
_cell_length_a   5.76143390
_cell_length_b   5.76143390
_cell_length_c   5.00584472
_cell_angle_alpha   90.00000000
_cell_angle_beta   90.00000000
_cell_angle_gamma   120.00000000
_symmetry_Int_Tables_number   1
_chemical_formula_structural   LiScMo3O8
_chemical_formula_sum   'Li1 Sc1 Mo3 O8'
_cell_volume   143.90277645
_cell_formula_units_Z   1
loop_
 _symmetry_equiv_pos_site_id
 _symmetry_equiv_pos_as_xyz
  1  'x, y, z'
loop_
 _atom_site_type_symbol
 _atom_site_label
 _atom_site_symmetry_multiplicity
 _atom_site_fract_x
 _atom_site_fract_y
 _atom_site_fract_z
 _atom_site_occupancy
  Li  Li0  1  0.00000000  0.00000000  -0.01652396  1.0
  Sc  Sc1  1  0.33333333  0.66666667  0.01052900  1.0
  Mo  Mo2  1  0.37391393  0.18695697  0.53790679  1.0
  Mo  Mo3  1  0.81304303  0.18695697  0.53790679  1.0
  Mo  Mo4  1  0.81304303  0.62608607  0.53790679  1.0
  O  O5  1  0.67816354  0.83908177  0.76752334  1.0
  O  O6  1  0.16091823  0.83908177  0.76752334  1.0
  O  O7  1  0.16091823  0.32183646  0.76752334  1.0
  O  O8  1  0.00160855  0.50080428  0.29856311  1.0
  O  O9  1  0.49919572  0.50080428  0.29856311  1.0
  O  O10  1  0.49919572  -0.00160855  0.29856311  1.0
  O  O11  1  0.66666667  0.33333333  0.81917197  1.0
  O  O12  1  0.00000000  0.00000000  0.34484327  1.0
