# generated using pymatgen
data_Rb2MnF4
_symmetry_space_group_name_H-M   'P 1'
_cell_length_a   7.66076666
_cell_length_b   7.66076666
_cell_length_c   7.66076666
_cell_angle_alpha   147.33151500
_cell_angle_beta   147.33151500
_cell_angle_gamma   46.87316967
_symmetry_Int_Tables_number   1
_chemical_formula_structural   Rb2MnF4
_chemical_formula_sum   'Rb2 Mn1 F4'
_cell_volume   130.50832508
_cell_formula_units_Z   1
loop_
 _symmetry_equiv_pos_site_id
 _symmetry_equiv_pos_as_xyz
  1  'x, y, z'
loop_
 _atom_site_type_symbol
 _atom_site_label
 _atom_site_symmetry_multiplicity
 _atom_site_fract_x
 _atom_site_fract_y
 _atom_site_fract_z
 _atom_site_occupancy
  Rb  Rb0  1  0.64627606  0.64627606  1.00000000  1.0
  Rb  Rb1  1  0.35372394  0.35372394  -0.00000000  1.0
  Mn  Mn2  1  0.00000000  0.00000000  0.00000000  1.0
  F  F3  1  0.84864851  0.84864851  1.00000000  1.0
  F  F4  1  0.15135149  0.15135149  -0.00000000  1.0
  F  F5  1  0.50000000  0.00000000  0.50000000  1.0
  F  F6  1  0.00000000  0.50000000  0.50000000  1.0
