# generated using pymatgen
data_K2HfF6
_symmetry_space_group_name_H-M   'P 1'
_cell_length_a   7.12835661
_cell_length_b   7.12835661
_cell_length_c   8.58188169
_cell_angle_alpha   90.00000000
_cell_angle_beta   90.00000000
_cell_angle_gamma   90.00000000
_symmetry_Int_Tables_number   1
_chemical_formula_structural   K2HfF6
_chemical_formula_sum   'K4 Hf2 F12'
_cell_volume   436.07517046
_cell_formula_units_Z   2
loop_
 _symmetry_equiv_pos_site_id
 _symmetry_equiv_pos_as_xyz
  1  'x, y, z'
loop_
 _atom_site_type_symbol
 _atom_site_label
 _atom_site_symmetry_multiplicity
 _atom_site_fract_x
 _atom_site_fract_y
 _atom_site_fract_z
 _atom_site_occupancy
  K  K0  1  0.00000000  0.50000000  0.25000000  1.0
  K  K1  1  0.50000000  0.00000000  0.75000000  1.0
  K  K2  1  0.50000000  0.00000000  0.25000000  1.0
  K  K3  1  0.00000000  0.50000000  0.75000000  1.0
  Hf  Hf4  1  0.50000000  0.50000000  0.50000000  1.0
  Hf  Hf5  1  0.00000000  0.00000000  -0.00000000  1.0
  F  F6  1  0.50000000  0.50000000  0.26687156  1.0
  F  F7  1  0.00000000  0.00000000  0.76687156  1.0
  F  F8  1  0.50000000  0.50000000  0.73312844  1.0
  F  F9  1  0.00000000  0.00000000  0.23312844  1.0
  F  F10  1  0.50043822  0.78355890  0.50000000  1.0
  F  F11  1  0.49956178  0.21644110  0.50000000  1.0
  F  F12  1  0.99956178  0.28355890  0.00000000  1.0
  F  F13  1  0.00043822  0.71644110  -0.00000000  1.0
  F  F14  1  0.78355890  0.49956178  0.50000000  1.0
  F  F15  1  0.21644110  0.50043822  0.50000000  1.0
  F  F16  1  0.28355890  0.00043822  -0.00000000  1.0
  F  F17  1  0.71644110  0.99956178  -0.00000000  1.0
