# generated using pymatgen
data_GdNiSn4
_symmetry_space_group_name_H-M   'P 1'
_cell_length_a   14.62531758
_cell_length_b   14.62531758
_cell_length_c   4.49677825
_cell_angle_alpha   90.00000000
_cell_angle_beta   90.00000000
_cell_angle_gamma   162.57122705
_symmetry_Int_Tables_number   1
_chemical_formula_structural   GdNiSn4
_chemical_formula_sum   'Gd2 Ni2 Sn8'
_cell_volume   288.09641048
_cell_formula_units_Z   2
loop_
 _symmetry_equiv_pos_site_id
 _symmetry_equiv_pos_as_xyz
  1  'x, y, z'
loop_
 _atom_site_type_symbol
 _atom_site_label
 _atom_site_symmetry_multiplicity
 _atom_site_fract_x
 _atom_site_fract_y
 _atom_site_fract_z
 _atom_site_occupancy
  Gd  Gd0  1  -0.80767250  0.80767250  0.50000000  1.0
  Gd  Gd1  1  -0.19232750  1.19232750  0.50000000  1.0
  Ni  Ni2  1  -0.55157231  0.55157231  0.00000000  1.0
  Ni  Ni3  1  -0.44842769  1.44842769  0.00000000  1.0
  Sn  Sn4  1  -0.60769915  0.60769915  0.50000000  1.0
  Sn  Sn5  1  -0.39230085  1.39230085  0.50000000  1.0
  Sn  Sn6  1  -0.89186349  0.89186349  0.00000000  1.0
  Sn  Sn7  1  -0.10813651  1.10813651  0.00000000  1.0
  Sn  Sn8  1  -0.71505632  0.71505632  0.00000000  1.0
  Sn  Sn9  1  -0.28494368  1.28494368  0.00000000  1.0
  Sn  Sn10  1  0.50000000  0.50000000  0.50000000  1.0
  Sn  Sn11  1  0.00000000  0.00000000  0.00000000  1.0
