# generated using pymatgen
data_TiCl3
_symmetry_space_group_name_H-M   'P 1'
_cell_length_a   6.10721245
_cell_length_b   6.10721245
_cell_length_c   13.43444738
_cell_angle_alpha   90.00000000
_cell_angle_beta   90.00000000
_cell_angle_gamma   120.00000000
_symmetry_Int_Tables_number   1
_chemical_formula_structural   TiCl3
_chemical_formula_sum   'Ti4 Cl12'
_cell_volume   433.94680473
_cell_formula_units_Z   4
loop_
 _symmetry_equiv_pos_site_id
 _symmetry_equiv_pos_as_xyz
  1  'x, y, z'
loop_
 _atom_site_type_symbol
 _atom_site_label
 _atom_site_symmetry_multiplicity
 _atom_site_fract_x
 _atom_site_fract_y
 _atom_site_fract_z
 _atom_site_occupancy
  Ti  Ti0  1  0.33333333  0.66666667  0.25000000  1.0
  Ti  Ti1  1  0.66666667  0.33333333  0.75000000  1.0
  Ti  Ti2  1  0.00000000  0.00000000  0.25000000  1.0
  Ti  Ti3  1  0.00000000  0.00000000  0.75000000  1.0
  Cl  Cl4  1  0.31398152  0.98058935  0.14548556  1.0
  Cl  Cl5  1  0.31398152  0.33339217  0.35451444  1.0
  Cl  Cl6  1  0.98058935  0.31398152  0.64548556  1.0
  Cl  Cl7  1  0.98058935  0.66660783  0.85451444  1.0
  Cl  Cl8  1  0.66660783  0.98058935  0.35451444  1.0
  Cl  Cl9  1  0.66660783  0.68601848  0.14548556  1.0
  Cl  Cl10  1  0.01941065  0.68601848  0.35451444  1.0
  Cl  Cl11  1  0.01941065  0.33339217  0.14548556  1.0
  Cl  Cl12  1  0.68601848  0.66660783  0.64548556  1.0
  Cl  Cl13  1  0.68601848  0.01941065  0.85451444  1.0
  Cl  Cl14  1  0.33339217  0.31398152  0.85451444  1.0
  Cl  Cl15  1  0.33339217  0.01941065  0.64548556  1.0
