# generated using pymatgen
data_Ca2PNO3
_symmetry_space_group_name_H-M   'P 1'
_cell_length_a   6.82178626
_cell_length_b   5.50295494
_cell_length_c   9.47534540
_cell_angle_alpha   90.00000000
_cell_angle_beta   90.00000000
_cell_angle_gamma   90.00000000
_symmetry_Int_Tables_number   1
_chemical_formula_structural   Ca2PNO3
_chemical_formula_sum   'Ca8 P4 N4 O12'
_cell_volume   355.70429968
_cell_formula_units_Z   4
loop_
 _symmetry_equiv_pos_site_id
 _symmetry_equiv_pos_as_xyz
  1  'x, y, z'
loop_
 _atom_site_type_symbol
 _atom_site_label
 _atom_site_symmetry_multiplicity
 _atom_site_fract_x
 _atom_site_fract_y
 _atom_site_fract_z
 _atom_site_occupancy
  Ca  Ca0  1  0.83746773  0.25000000  0.58007579  1.0
  Ca  Ca1  1  0.66253227  0.75000000  0.08007579  1.0
  Ca  Ca2  1  0.16253227  0.75000000  0.41992421  1.0
  Ca  Ca3  1  0.33746773  0.25000000  0.91992421  1.0
  Ca  Ca4  1  0.97024724  0.25000000  0.20477443  1.0
  Ca  Ca5  1  0.52975276  0.75000000  0.70477443  1.0
  Ca  Ca6  1  0.02975276  0.75000000  0.79522557  1.0
  Ca  Ca7  1  0.47024724  0.25000000  0.29522557  1.0
  P  P8  1  0.78755392  0.25000000  0.91413063  1.0
  P  P9  1  0.71244608  0.75000000  0.41413063  1.0
  P  P10  1  0.21244608  0.75000000  0.08586937  1.0
  P  P11  1  0.28755392  0.25000000  0.58586937  1.0
  N  N12  1  0.64939609  0.25000000  0.04912115  1.0
  N  N13  1  0.85060391  0.75000000  0.54912115  1.0
  N  N14  1  0.35060391  0.75000000  0.95087885  1.0
  N  N15  1  0.14939609  0.25000000  0.45087885  1.0
  O  O16  1  0.75461070  0.02381560  0.81128083  1.0
  O  O17  1  0.74538930  0.97618440  0.31128083  1.0
  O  O18  1  0.24538930  0.52381560  0.18871917  1.0
  O  O19  1  0.25461070  0.47618440  0.68871917  1.0
  O  O20  1  0.24538930  0.97618440  0.18871917  1.0
  O  O21  1  0.25461070  0.02381560  0.68871917  1.0
  O  O22  1  0.75461070  0.47618440  0.81128083  1.0
  O  O23  1  0.74538930  0.52381560  0.31128083  1.0
  O  O24  1  0.51299792  0.25000000  0.54995033  1.0
  O  O25  1  0.98700208  0.75000000  0.04995033  1.0
  O  O26  1  0.48700208  0.75000000  0.45004967  1.0
  O  O27  1  0.01299792  0.25000000  0.95004967  1.0
