# generated using pymatgen
data_Lu10Al3Ir
_symmetry_space_group_name_H-M   'P 1'
_cell_length_a   9.31229856
_cell_length_b   9.31229856
_cell_length_c   9.38830563
_cell_angle_alpha   90.00000000
_cell_angle_beta   90.00000000
_cell_angle_gamma   120.00000000
_symmetry_Int_Tables_number   1
_chemical_formula_structural   Lu10Al3Ir
_chemical_formula_sum   'Lu20 Al6 Ir2'
_cell_volume   705.06902164
_cell_formula_units_Z   2
loop_
 _symmetry_equiv_pos_site_id
 _symmetry_equiv_pos_as_xyz
  1  'x, y, z'
loop_
 _atom_site_type_symbol
 _atom_site_label
 _atom_site_symmetry_multiplicity
 _atom_site_fract_x
 _atom_site_fract_y
 _atom_site_fract_z
 _atom_site_occupancy
  Lu  Lu0  1  0.20626869  0.79373131  0.44322276  1.0
  Lu  Lu1  1  0.20626869  0.41253737  0.44322276  1.0
  Lu  Lu2  1  0.58746263  0.79373131  0.44322276  1.0
  Lu  Lu3  1  0.79373131  0.20626869  0.55677724  1.0
  Lu  Lu4  1  0.79373131  0.58746263  0.55677724  1.0
  Lu  Lu5  1  0.41253737  0.20626869  0.55677724  1.0
  Lu  Lu6  1  0.79373131  0.20626869  0.94322276  1.0
  Lu  Lu7  1  0.79373131  0.58746263  0.94322276  1.0
  Lu  Lu8  1  0.41253737  0.20626869  0.94322276  1.0
  Lu  Lu9  1  0.20626869  0.79373131  0.05677724  1.0
  Lu  Lu10  1  0.20626869  0.41253737  0.05677724  1.0
  Lu  Lu11  1  0.58746263  0.79373131  0.05677724  1.0
  Lu  Lu12  1  0.54042621  0.45957379  0.25000000  1.0
  Lu  Lu13  1  0.54042621  0.08085243  0.25000000  1.0
  Lu  Lu14  1  0.91914757  0.45957379  0.25000000  1.0
  Lu  Lu15  1  0.45957379  0.54042621  0.75000000  1.0
  Lu  Lu16  1  0.45957379  0.91914757  0.75000000  1.0
  Lu  Lu17  1  0.08085243  0.54042621  0.75000000  1.0
  Lu  Lu18  1  0.00000000  0.00000000  0.50000000  1.0
  Lu  Lu19  1  0.00000000  0.00000000  0.00000000  1.0
  Al  Al20  1  0.22266238  0.11133119  0.25000000  1.0
  Al  Al21  1  0.88866881  0.11133119  0.25000000  1.0
  Al  Al22  1  0.88866881  0.77733762  0.25000000  1.0
  Al  Al23  1  0.77733762  0.88866881  0.75000000  1.0
  Al  Al24  1  0.11133119  0.88866881  0.75000000  1.0
  Al  Al25  1  0.11133119  0.22266238  0.75000000  1.0
  Ir  Ir26  1  0.33333333  0.66666667  0.25000000  1.0
  Ir  Ir27  1  0.66666667  0.33333333  0.75000000  1.0
