# generated using pymatgen
data_Sm2Ti2O7
_symmetry_space_group_name_H-M   'P 1'
_cell_length_a   7.28104242
_cell_length_b   7.28104242
_cell_length_c   7.28104242
_cell_angle_alpha   60.00000000
_cell_angle_beta   60.00000000
_cell_angle_gamma   60.00000000
_symmetry_Int_Tables_number   1
_chemical_formula_structural   Sm2Ti2O7
_chemical_formula_sum   'Sm4 Ti4 O14'
_cell_volume   272.93905635
_cell_formula_units_Z   2
loop_
 _symmetry_equiv_pos_site_id
 _symmetry_equiv_pos_as_xyz
  1  'x, y, z'
loop_
 _atom_site_type_symbol
 _atom_site_label
 _atom_site_symmetry_multiplicity
 _atom_site_fract_x
 _atom_site_fract_y
 _atom_site_fract_z
 _atom_site_occupancy
  Sm  Sm0  1  0.62500000  1.12500000  0.12500000  1.0
  Sm  Sm1  1  0.12500000  1.62500000  0.12500000  1.0
  Sm  Sm2  1  0.12500000  0.12500000  1.62500000  1.0
  Sm  Sm3  1  0.12500000  0.12500000  0.12500000  1.0
  Ti  Ti4  1  1.12500000  0.62500000  0.62500000  1.0
  Ti  Ti5  1  0.62500000  1.12500000  -0.37500000  1.0
  Ti  Ti6  1  -0.37500000  0.62500000  1.12500000  1.0
  Ti  Ti7  1  -0.37500000  0.62500000  0.62500000  1.0
  O  O8  1  0.70073196  0.70073196  -0.70073196  1.0
  O  O9  1  0.29926804  1.29926804  -0.29926804  1.0
  O  O10  1  0.70073196  -0.70073196  0.70073196  1.0
  O  O11  1  0.29926804  -0.29926804  0.29926804  1.0
  O  O12  1  -0.70073196  0.70073196  0.70073196  1.0
  O  O13  1  -0.29926804  0.29926804  0.29926804  1.0
  O  O14  1  -0.45073196  0.54926804  0.95073196  1.0
  O  O15  1  0.95073196  0.95073196  -0.45073196  1.0
  O  O16  1  0.54926804  0.95073196  0.54926804  1.0
  O  O17  1  0.95073196  0.54926804  0.95073196  1.0
  O  O18  1  0.95073196  0.54926804  -0.45073196  1.0
  O  O19  1  0.54926804  0.95073196  -0.04926804  1.0
  O  O20  1  0.25000000  1.25000000  0.25000000  1.0
  O  O21  1  0.00000000  0.00000000  0.00000000  1.0
