# generated using pymatgen
data_S7N
_symmetry_space_group_name_H-M   'P 1'
_cell_length_a   8.91339635
_cell_length_b   13.75300378
_cell_length_c   8.67105147
_cell_angle_alpha   90.00000000
_cell_angle_beta   90.00000000
_cell_angle_gamma   90.00000000
_symmetry_Int_Tables_number   1
_chemical_formula_structural   S7N
_chemical_formula_sum   'S28 N4'
_cell_volume   1062.94928713
_cell_formula_units_Z   4
loop_
 _symmetry_equiv_pos_site_id
 _symmetry_equiv_pos_as_xyz
  1  'x, y, z'
loop_
 _atom_site_type_symbol
 _atom_site_label
 _atom_site_symmetry_multiplicity
 _atom_site_fract_x
 _atom_site_fract_y
 _atom_site_fract_z
 _atom_site_occupancy
  N  N0  1  0.33402596  0.75000000  0.78095680  1.0
  N  N1  1  0.83402596  0.75000000  0.71904320  1.0
  N  N2  1  0.66597404  0.25000000  0.21904320  1.0
  N  N3  1  0.16597404  0.25000000  0.28095680  1.0
  S  S4  1  0.36142096  0.75000000  0.22580144  1.0
  S  S5  1  0.86142096  0.75000000  0.27419856  1.0
  S  S6  1  0.63857904  0.25000000  0.77419856  1.0
  S  S7  1  0.13857904  0.25000000  0.72580144  1.0
  S  S8  1  0.06272386  0.37154969  0.84054524  1.0
  S  S9  1  0.06272386  0.12845031  0.84054524  1.0
  S  S10  1  0.56272386  0.37154969  0.65945476  1.0
  S  S11  1  0.56272386  0.12845031  0.65945476  1.0
  S  S12  1  0.93727614  0.87154969  0.15945476  1.0
  S  S13  1  0.93727614  0.62845031  0.15945476  1.0
  S  S14  1  0.43727614  0.87154969  0.34054524  1.0
  S  S15  1  0.43727614  0.62845031  0.34054524  1.0
  S  S16  1  0.27882754  0.90220828  0.51023476  1.0
  S  S17  1  0.27882754  0.59779172  0.51023476  1.0
  S  S18  1  0.77882754  0.90220828  0.98976524  1.0
  S  S19  1  0.77882754  0.59779172  0.98976524  1.0
  S  S20  1  0.72117246  0.40220828  0.48976524  1.0
  S  S21  1  0.72117246  0.09779172  0.48976524  1.0
  S  S22  1  0.22117246  0.40220828  0.01023476  1.0
  S  S23  1  0.22117246  0.09779172  0.01023476  1.0
  S  S24  1  0.36398515  0.86048085  0.72482268  1.0
  S  S25  1  0.36398515  0.63951915  0.72482268  1.0
  S  S26  1  0.86398515  0.86048085  0.77517732  1.0
  S  S27  1  0.86398515  0.63951915  0.77517732  1.0
  S  S28  1  0.63601485  0.36048085  0.27517732  1.0
  S  S29  1  0.63601485  0.13951915  0.27517732  1.0
  S  S30  1  0.13601485  0.36048085  0.22482268  1.0
  S  S31  1  0.13601485  0.13951915  0.22482268  1.0
