# generated using pymatgen
data_NaFe3H6(SO7)2
_symmetry_space_group_name_H-M   'P 1'
_cell_length_a   7.09661389
_cell_length_b   7.09661389
_cell_length_c   7.09661389
_cell_angle_alpha   61.90918987
_cell_angle_beta   61.90918987
_cell_angle_gamma   61.90918987
_symmetry_Int_Tables_number   1
_chemical_formula_structural   NaFe3H6(SO7)2
_chemical_formula_sum   'Na1 Fe3 H6 S2 O14'
_cell_volume   263.51856885
_cell_formula_units_Z   1
loop_
 _symmetry_equiv_pos_site_id
 _symmetry_equiv_pos_as_xyz
  1  'x, y, z'
loop_
 _atom_site_type_symbol
 _atom_site_label
 _atom_site_symmetry_multiplicity
 _atom_site_fract_x
 _atom_site_fract_y
 _atom_site_fract_z
 _atom_site_occupancy
  Fe  Fe0  1  1.00000000  0.50000000  -0.50000000  1.0
  Fe  Fe1  1  0.50000000  -0.50000000  0.00000000  1.0
  Fe  Fe2  1  0.50000000  -0.00000000  -0.50000000  1.0
  S  S3  1  1.18811437  1.18811437  0.18811437  1.0
  S  S4  1  0.81188563  0.81188563  -0.18811437  1.0
  Na  Na5  1  0.50000000  0.50000000  -0.50000000  1.0
  O  O6  1  1.10101559  1.10101559  0.10101559  1.0
  O  O7  1  0.89898441  0.89898441  -0.10101559  1.0
  O  O8  1  0.76119737  0.76119737  -0.61961133  1.0
  O  O9  1  0.76119737  0.38038867  -0.23880263  1.0
  O  O10  1  0.38038867  0.76119737  -0.23880263  1.0
  O  O11  1  0.23880263  0.23880263  -0.38038867  1.0
  O  O12  1  0.23880263  0.61961133  -0.76119737  1.0
  O  O13  1  0.61961133  0.23880263  -0.76119737  1.0
  O  O14  1  0.99276255  0.32891673  -0.67108327  1.0
  O  O15  1  0.32891673  0.32891673  -0.00723745  1.0
  O  O16  1  0.32891673  0.99276255  -0.67108327  1.0
  O  O17  1  1.00723745  -0.32891673  -0.32891673  1.0
  O  O18  1  0.67108327  -0.32891673  0.00723745  1.0
  O  O19  1  0.67108327  0.00723745  -0.32891673  1.0
  H  H20  1  0.80720929  -0.19279071  0.21423692  1.0
  H  H21  1  0.80720929  0.21423692  -0.19279071  1.0
  H  H22  1  1.21423692  -0.19279071  -0.19279071  1.0
  H  H23  1  0.19279071  0.19279071  -0.21423692  1.0
  H  H24  1  0.19279071  0.78576308  -0.80720929  1.0
  H  H25  1  0.78576308  0.19279071  -0.80720929  1.0
