# generated using pymatgen
data_Mg3(SiO3)4
_symmetry_space_group_name_H-M   'P 1'
_cell_length_a   5.36055656
_cell_length_b   5.36055656
_cell_length_c   26.61844332
_cell_angle_alpha   88.28338823
_cell_angle_beta   91.71661177
_cell_angle_gamma   60.33232939
_symmetry_Int_Tables_number   1
_chemical_formula_structural   Mg3(SiO3)4
_chemical_formula_sum   'Mg6 Si8 O24'
_cell_volume   663.44455707
_cell_formula_units_Z   2
loop_
 _symmetry_equiv_pos_site_id
 _symmetry_equiv_pos_as_xyz
  1  'x, y, z'
loop_
 _atom_site_type_symbol
 _atom_site_label
 _atom_site_symmetry_multiplicity
 _atom_site_fract_x
 _atom_site_fract_y
 _atom_site_fract_z
 _atom_site_occupancy
  Mg  Mg0  1  1.00000000  0.50000000  0.00000000  1.0
  Mg  Mg1  1  1.50000000  0.00000000  0.50000000  1.0
  Mg  Mg2  1  1.67700417  0.14650565  0.00004155  1.0
  Mg  Mg3  1  0.85349435  -0.67700417  0.50004155  1.0
  Mg  Mg4  1  0.32299583  -0.14650565  -0.00004155  1.0
  Mg  Mg5  1  1.14650565  0.67700417  0.49995845  1.0
  O  O6  1  1.68610583  -0.17859493  0.04254152  1.0
  O  O7  1  1.17859493  0.31389417  0.54254152  1.0
  O  O8  1  1.02101069  -0.84749683  0.04254079  1.0
  O  O9  1  1.84749683  -0.02101069  0.54254079  1.0
  O  O10  1  0.87988196  -0.53731713  0.12468393  1.0
  O  O11  1  1.53731713  0.12011804  0.62468393  1.0
  O  O12  1  0.37664127  -0.04088330  0.12501082  1.0
  O  O13  1  1.04088330  0.62335873  0.62501082  1.0
  O  O14  1  1.87330435  -0.03407332  0.12519031  1.0
  O  O15  1  1.03407332  -0.87330435  0.62519031  1.0
  O  O16  1  0.46268287  -0.12011804  0.37531607  1.0
  O  O17  1  1.12011804  0.53731713  0.87531607  1.0
  O  O18  1  0.95911670  -0.62335873  0.37498918  1.0
  O  O19  1  1.62335873  0.04088330  0.87498918  1.0
  O  O20  1  0.96592668  0.87330435  0.37480969  1.0
  O  O21  1  0.12669565  0.03407332  0.87480969  1.0
  O  O22  1  0.82140507  0.68610583  0.45745848  1.0
  O  O23  1  1.31389417  0.17859493  0.95745848  1.0
  O  O24  1  0.15250317  0.02101069  0.45745921  1.0
  O  O25  1  0.97898931  0.84749683  0.95745921  1.0
  O  O26  1  1.35990419  0.48977211  0.03162638  1.0
  O  O27  1  0.51022789  -0.35990419  0.53162638  1.0
  O  O28  1  1.48977211  0.35990419  0.46837362  1.0
  O  O29  1  0.64009581  -0.48977211  0.96837362  1.0
  Si  Si30  1  1.70344467  -0.19811357  0.10457836  1.0
  Si  Si31  1  1.19811357  0.29655533  0.60457836  1.0
  Si  Si32  1  1.03771822  -0.86473678  0.10457539  1.0
  Si  Si33  1  1.86473678  -0.03771822  0.60457539  1.0
  Si  Si34  1  0.80188643  0.70344467  0.39542164  1.0
  Si  Si35  1  1.29655533  0.19811357  0.89542164  1.0
  Si  Si36  1  0.13526322  0.03771822  0.39542461  1.0
  Si  Si37  1  0.96228178  0.86473678  0.89542461  1.0
