# generated using pymatgen
data_Ba5V3O12F
_symmetry_space_group_name_H-M   'P 1'
_cell_length_a   10.56575348
_cell_length_b   10.56575348
_cell_length_c   7.91920154
_cell_angle_alpha   90.00000000
_cell_angle_beta   90.00000000
_cell_angle_gamma   120.00000000
_symmetry_Int_Tables_number   1
_chemical_formula_structural   Ba5V3O12F
_chemical_formula_sum   'Ba10 V6 O24 F2'
_cell_volume   765.61947909
_cell_formula_units_Z   2
loop_
 _symmetry_equiv_pos_site_id
 _symmetry_equiv_pos_as_xyz
  1  'x, y, z'
loop_
 _atom_site_type_symbol
 _atom_site_label
 _atom_site_symmetry_multiplicity
 _atom_site_fract_x
 _atom_site_fract_y
 _atom_site_fract_z
 _atom_site_occupancy
  Ba  Ba0  1  0.01180398  0.75818015  0.25000000  1.0
  Ba  Ba1  1  0.75818015  0.74637618  0.75000000  1.0
  Ba  Ba2  1  0.74637618  0.98819602  0.25000000  1.0
  Ba  Ba3  1  0.24181985  0.25362382  0.25000000  1.0
  Ba  Ba4  1  0.98819602  0.24181985  0.75000000  1.0
  Ba  Ba5  1  0.25362382  0.01180398  0.75000000  1.0
  Ba  Ba6  1  0.33333333  0.66666667  0.49957809  1.0
  Ba  Ba7  1  0.33333333  0.66666667  0.00042191  1.0
  Ba  Ba8  1  0.66666667  0.33333333  0.99957809  1.0
  Ba  Ba9  1  0.66666667  0.33333333  0.50042191  1.0
  V  V10  1  0.63235547  0.59939495  0.25000000  1.0
  V  V11  1  0.59939495  0.96703948  0.75000000  1.0
  V  V12  1  0.96703948  0.36764453  0.25000000  1.0
  V  V13  1  0.40060505  0.03296052  0.25000000  1.0
  V  V14  1  0.36764453  0.40060505  0.75000000  1.0
  V  V15  1  0.03296052  0.63235547  0.75000000  1.0
  O  O16  1  0.74485506  0.65401146  0.42370068  1.0
  O  O17  1  0.74485506  0.65401146  0.07629932  1.0
  O  O18  1  0.65401146  0.90915640  0.92370068  1.0
  O  O19  1  0.65401146  0.90915640  0.57629932  1.0
  O  O20  1  0.90915640  0.25514494  0.42370068  1.0
  O  O21  1  0.90915640  0.25514494  0.07629932  1.0
  O  O22  1  0.34598854  0.09084360  0.42370068  1.0
  O  O23  1  0.34598854  0.09084360  0.07629932  1.0
  O  O24  1  0.25514494  0.34598854  0.92370068  1.0
  O  O25  1  0.25514494  0.34598854  0.57629932  1.0
  O  O26  1  0.09084360  0.74485506  0.92370068  1.0
  O  O27  1  0.09084360  0.74485506  0.57629932  1.0
  O  O28  1  0.32483767  0.84504216  0.25000000  1.0
  O  O29  1  0.84504216  0.52020449  0.75000000  1.0
  O  O30  1  0.52020449  0.67516233  0.25000000  1.0
  O  O31  1  0.15495784  0.47979551  0.25000000  1.0
  O  O32  1  0.67516233  0.15495784  0.75000000  1.0
  O  O33  1  0.47979551  0.32483767  0.75000000  1.0
  O  O34  1  0.53451363  0.41026575  0.25000000  1.0
  O  O35  1  0.41026575  0.87575211  0.75000000  1.0
  O  O36  1  0.87575211  0.46548637  0.25000000  1.0
  O  O37  1  0.58973425  0.12424789  0.25000000  1.0
  O  O38  1  0.46548637  0.58973425  0.75000000  1.0
  O  O39  1  0.12424789  0.53451363  0.75000000  1.0
  F  F40  1  0.00000000  0.00000000  0.25000000  1.0
  F  F41  1  0.00000000  0.00000000  0.75000000  1.0
