# generated using pymatgen
data_Sr2H6Pt
_symmetry_space_group_name_H-M   'P 1'
_cell_length_a   7.46234567
_cell_length_b   7.46234567
_cell_length_c   5.63269386
_cell_angle_alpha   90.00000000
_cell_angle_beta   90.00000000
_cell_angle_gamma   44.41318882
_symmetry_Int_Tables_number   1
_chemical_formula_structural   Sr2H6Pt
_chemical_formula_sum   'Sr4 H12 Pt2'
_cell_volume   219.51189268
_cell_formula_units_Z   2
loop_
 _symmetry_equiv_pos_site_id
 _symmetry_equiv_pos_as_xyz
  1  'x, y, z'
loop_
 _atom_site_type_symbol
 _atom_site_label
 _atom_site_symmetry_multiplicity
 _atom_site_fract_x
 _atom_site_fract_y
 _atom_site_fract_z
 _atom_site_occupancy
  Sr  Sr0  1  0.14618477  1.14618477  0.50000000  1.0
  Sr  Sr1  1  0.64618477  0.64618477  0.00000000  1.0
  Sr  Sr2  1  0.85381523  0.85381523  0.50000000  1.0
  Sr  Sr3  1  0.35381523  1.35381523  0.00000000  1.0
  H  H4  1  0.50075163  0.99924837  0.25000000  1.0
  H  H5  1  0.00075163  1.49924837  0.25000000  1.0
  H  H6  1  -0.00075163  1.50075163  0.75000000  1.0
  H  H7  1  0.49924837  1.00075163  0.75000000  1.0
  H  H8  1  0.37951232  1.37951232  0.50000000  1.0
  H  H9  1  0.87951232  0.87951232  0.00000000  1.0
  H  H10  1  0.62048768  0.62048768  0.50000000  1.0
  H  H11  1  0.12048768  1.12048768  0.00000000  1.0
  H  H12  1  -0.28633379  0.28633379  0.28629579  1.0
  H  H13  1  -0.78633379  0.78633379  0.21370421  1.0
  H  H14  1  -0.71366621  0.71366621  0.71370421  1.0
  H  H15  1  -0.21366621  0.21366621  0.78629579  1.0
  Pt  Pt16  1  -0.50000000  0.50000000  0.50000000  1.0
  Pt  Pt17  1  0.00000000  0.00000000  0.00000000  1.0
