# generated using pymatgen
data_As2Pb3O8
_symmetry_space_group_name_H-M   'P 1'
_cell_length_a   7.57413675
_cell_length_b   6.47962849
_cell_length_c   9.55525905
_cell_angle_alpha   90.00000000
_cell_angle_beta   113.95175003
_cell_angle_gamma   90.00000000
_symmetry_Int_Tables_number   1
_chemical_formula_structural   As2Pb3O8
_chemical_formula_sum   'As4 Pb6 O16'
_cell_volume   428.56680020
_cell_formula_units_Z   2
loop_
 _symmetry_equiv_pos_site_id
 _symmetry_equiv_pos_as_xyz
  1  'x, y, z'
loop_
 _atom_site_type_symbol
 _atom_site_label
 _atom_site_symmetry_multiplicity
 _atom_site_fract_x
 _atom_site_fract_y
 _atom_site_fract_z
 _atom_site_occupancy
  As  As0  1  0.79985417  0.97980401  0.10020383  1.0
  As  As1  1  0.79985417  0.52019599  0.60020383  1.0
  As  As2  1  0.20014583  0.47980401  0.39979617  1.0
  As  As3  1  0.20014583  0.02019599  0.89979617  1.0
  Pb  Pb4  1  -0.00000000  0.50000000  -0.00000000  1.0
  Pb  Pb5  1  0.00000000  0.00000000  0.50000000  1.0
  Pb  Pb6  1  0.62539374  0.40001135  0.21615439  1.0
  Pb  Pb7  1  0.62539374  0.09998865  0.71615439  1.0
  Pb  Pb8  1  0.37460626  0.90001135  0.28384561  1.0
  Pb  Pb9  1  0.37460626  0.59998865  0.78384561  1.0
  O  O10  1  0.96123903  0.46431845  0.27048282  1.0
  O  O11  1  0.96123903  0.03568155  0.77048282  1.0
  O  O12  1  0.03876097  0.96431845  0.22951718  1.0
  O  O13  1  0.03876097  0.53568155  0.72951718  1.0
  O  O14  1  0.75233398  0.30200784  0.47999694  1.0
  O  O15  1  0.75233398  0.19799216  0.97999694  1.0
  O  O16  1  0.24766602  0.80200784  0.02000306  1.0
  O  O17  1  0.24766602  0.69799216  0.52000306  1.0
  O  O18  1  0.72396557  0.73683122  0.48576489  1.0
  O  O19  1  0.72396557  0.76316878  0.98576489  1.0
  O  O20  1  0.27603443  0.23683122  0.01423511  1.0
  O  O21  1  0.27603443  0.26316878  0.51423511  1.0
  O  O22  1  0.67737370  0.03026866  0.21908926  1.0
  O  O23  1  0.67737370  0.46973134  0.71908926  1.0
  O  O24  1  0.32262630  0.53026866  0.28091074  1.0
  O  O25  1  0.32262630  0.96973134  0.78091074  1.0
