# generated using pymatgen
data_Sr3(PO4)2
_symmetry_space_group_name_H-M   'P 1'
_cell_length_a   7.37902441
_cell_length_b   7.37902441
_cell_length_c   7.37902441
_cell_angle_alpha   43.43322695
_cell_angle_beta   43.43322695
_cell_angle_gamma   43.43322695
_symmetry_Int_Tables_number   1
_chemical_formula_structural   Sr3(PO4)2
_chemical_formula_sum   'Sr3 P2 O8'
_cell_volume   172.28982279
_cell_formula_units_Z   1
loop_
 _symmetry_equiv_pos_site_id
 _symmetry_equiv_pos_as_xyz
  1  'x, y, z'
loop_
 _atom_site_type_symbol
 _atom_site_label
 _atom_site_symmetry_multiplicity
 _atom_site_fract_x
 _atom_site_fract_y
 _atom_site_fract_z
 _atom_site_occupancy
  Sr  Sr0  1  0.79249576  0.79249576  0.79249576  1.0
  Sr  Sr1  1  1.20750424  1.20750424  0.20750424  1.0
  Sr  Sr2  1  0.00000000  0.00000000  0.00000000  1.0
  P  P3  1  1.59356282  0.59356282  0.59356282  1.0
  P  P4  1  1.40643718  0.40643718  0.40643718  1.0
  O  O5  1  1.27676856  0.27676856  0.74504566  1.0
  O  O6  1  1.27676856  0.74504566  0.27676856  1.0
  O  O7  1  1.25495434  0.72323144  0.72323144  1.0
  O  O8  1  1.72323144  0.25495434  0.72323144  1.0
  O  O9  1  1.72323144  0.72323144  0.25495434  1.0
  O  O10  1  1.74504566  0.27676856  0.27676856  1.0
  O  O11  1  0.67091884  0.67091884  0.67091884  1.0
  O  O12  1  1.32908116  1.32908116  0.32908116  1.0
