# generated using pymatgen
data_Ti4CoBi2
_symmetry_space_group_name_H-M   'P 1'
_cell_length_a   7.86942570
_cell_length_b   7.86942570
_cell_length_c   7.86942570
_cell_angle_alpha   95.49105910
_cell_angle_beta   95.49105910
_cell_angle_gamma   143.96123787
_symmetry_Int_Tables_number   1
_chemical_formula_structural   Ti4CoBi2
_chemical_formula_sum   'Ti8 Co2 Bi4'
_cell_volume   272.65312444
_cell_formula_units_Z   2
loop_
 _symmetry_equiv_pos_site_id
 _symmetry_equiv_pos_as_xyz
  1  'x, y, z'
loop_
 _atom_site_type_symbol
 _atom_site_label
 _atom_site_symmetry_multiplicity
 _atom_site_fract_x
 _atom_site_fract_y
 _atom_site_fract_z
 _atom_site_occupancy
  Ti  Ti0  1  0.30694126  0.41952316  0.72646441  1.0
  Ti  Ti1  1  1.19305874  0.91952316  1.11258190  1.0
  Ti  Ti2  1  0.91952316  0.80694126  1.72646441  1.0
  Ti  Ti3  1  0.58047684  1.30694126  0.88741810  1.0
  Ti  Ti4  1  0.80694126  1.08047684  0.88741810  1.0
  Ti  Ti5  1  0.69305874  0.58047684  1.27353559  1.0
  Ti  Ti6  1  1.41952316  0.69305874  1.11258190  1.0
  Ti  Ti7  1  0.08047684  0.19305874  0.27353559  1.0
  Co  Co8  1  0.25000000  0.25000000  0.00000000  1.0
  Co  Co9  1  0.75000000  0.75000000  0.00000000  1.0
  Bi  Bi10  1  0.86050907  0.36050907  1.22101814  1.0
  Bi  Bi11  1  0.63949093  0.86050907  0.50000000  1.0
  Bi  Bi12  1  1.36050907  1.13949093  1.50000000  1.0
  Bi  Bi13  1  0.13949093  0.63949093  0.77898186  1.0
