# generated using pymatgen
data_LaF3
_symmetry_space_group_name_H-M   'P 1'
_cell_length_a   7.26383249
_cell_length_b   7.26383249
_cell_length_c   7.40844032
_cell_angle_alpha   90.00000000
_cell_angle_beta   90.00000000
_cell_angle_gamma   120.00000000
_symmetry_Int_Tables_number   1
_chemical_formula_structural   LaF3
_chemical_formula_sum   'La6 F18'
_cell_volume   338.52368479
_cell_formula_units_Z   6
loop_
 _symmetry_equiv_pos_site_id
 _symmetry_equiv_pos_as_xyz
  1  'x, y, z'
loop_
 _atom_site_type_symbol
 _atom_site_label
 _atom_site_symmetry_multiplicity
 _atom_site_fract_x
 _atom_site_fract_y
 _atom_site_fract_z
 _atom_site_occupancy
  La  La0  1  0.65732475  0.65732475  0.25000000  1.0
  La  La1  1  0.65732475  0.00000000  0.75000000  1.0
  La  La2  1  -0.00000000  0.65732475  0.75000000  1.0
  La  La3  1  -0.00000000  0.34267525  0.25000000  1.0
  La  La4  1  0.34267525  0.34267525  0.75000000  1.0
  La  La5  1  0.34267525  0.00000000  0.25000000  1.0
  F  F6  1  0.33333333  0.66666667  0.18570589  1.0
  F  F7  1  0.33333333  0.66666667  0.68570589  1.0
  F  F8  1  0.66666667  0.33333333  0.31429411  1.0
  F  F9  1  0.66666667  0.33333333  0.81429411  1.0
  F  F10  1  0.93947968  0.62980819  0.07992532  1.0
  F  F11  1  0.93947968  0.30967149  0.57992532  1.0
  F  F12  1  0.62980819  0.93947968  0.42007468  1.0
  F  F13  1  0.62980819  0.69032851  0.92007468  1.0
  F  F14  1  0.69032851  0.62980819  0.57992532  1.0
  F  F15  1  0.69032851  0.06052032  0.07992532  1.0
  F  F16  1  0.37019181  0.06052032  0.57992532  1.0
  F  F17  1  0.37019181  0.30967149  0.07992532  1.0
  F  F18  1  0.06052032  0.69032851  0.42007468  1.0
  F  F19  1  0.06052032  0.37019181  0.92007468  1.0
  F  F20  1  0.30967149  0.93947968  0.92007468  1.0
  F  F21  1  0.30967149  0.37019181  0.42007468  1.0
  F  F22  1  0.00000000  0.00000000  0.25000000  1.0
  F  F23  1  0.00000000  0.00000000  0.75000000  1.0
