# generated using pymatgen
data_MnTl2H12(SO7)2
_symmetry_space_group_name_H-M   'P 1'
_cell_length_a   6.38130265
_cell_length_b   12.64423790
_cell_length_c   9.30311697
_cell_angle_alpha   90.00000000
_cell_angle_beta   104.38542022
_cell_angle_gamma   90.00000000
_symmetry_Int_Tables_number   1
_chemical_formula_structural   MnTl2H12(SO7)2
_chemical_formula_sum   'Mn2 Tl4 H24 S4 O28'
_cell_volume   727.10269885
_cell_formula_units_Z   2
loop_
 _symmetry_equiv_pos_site_id
 _symmetry_equiv_pos_as_xyz
  1  'x, y, z'
loop_
 _atom_site_type_symbol
 _atom_site_label
 _atom_site_symmetry_multiplicity
 _atom_site_fract_x
 _atom_site_fract_y
 _atom_site_fract_z
 _atom_site_occupancy
  Mn  Mn0  1  0.50000000  0.50000000  0.50000000  1.0
  Mn  Mn1  1  0.50000000  0.00000000  -0.00000000  1.0
  Tl  Tl2  1  0.84145078  0.64919891  0.13398982  1.0
  Tl  Tl3  1  0.84145078  0.85080109  0.63398982  1.0
  Tl  Tl4  1  0.15854922  0.14919891  0.36601018  1.0
  Tl  Tl5  1  0.15854922  0.35080109  0.86601018  1.0
  H  H6  1  0.83492293  0.43211845  0.38932892  1.0
  H  H7  1  0.83492293  0.06788155  0.88932892  1.0
  H  H8  1  0.16507707  0.93211845  0.11067108  1.0
  H  H9  1  0.16507707  0.56788155  0.61067108  1.0
  H  H10  1  0.82638689  0.14636795  0.02096998  1.0
  H  H11  1  0.82638689  0.35363205  0.52096998  1.0
  H  H12  1  0.17361311  0.64636795  0.47903002  1.0
  H  H13  1  0.17361311  0.85363205  0.97903002  1.0
  H  H14  1  0.82549041  0.90646347  0.22316520  1.0
  H  H15  1  0.82549041  0.59353653  0.72316520  1.0
  H  H16  1  0.17450959  0.40646347  0.27683480  1.0
  H  H17  1  0.17450959  0.09353653  0.77683480  1.0
  H  H18  1  0.58237494  0.10532110  0.27841386  1.0
  H  H19  1  0.58237494  0.39467890  0.77841386  1.0
  H  H20  1  0.41762506  0.60532110  0.22158614  1.0
  H  H21  1  0.41762506  0.89467890  0.72158614  1.0
  H  H22  1  0.51398673  0.19303258  0.15401368  1.0
  H  H23  1  0.51398673  0.30696742  0.65401368  1.0
  H  H24  1  0.48601327  0.69303258  0.34598632  1.0
  H  H25  1  0.48601327  0.80696742  0.84598632  1.0
  H  H26  1  0.40361245  0.37371613  0.24820313  1.0
  H  H27  1  0.40361245  0.12628387  0.74820313  1.0
  H  H28  1  0.59638755  0.87371613  0.25179687  1.0
  H  H29  1  0.59638755  0.62628387  0.75179687  1.0
  S  S30  1  0.77273422  0.36067571  0.09372494  1.0
  S  S31  1  0.77273422  0.13932429  0.59372494  1.0
  S  S32  1  0.22726578  0.86067571  0.40627506  1.0
  S  S33  1  0.22726578  0.63932429  0.90627506  1.0
  O  O34  1  0.91181110  0.26542185  0.09083273  1.0
  O  O35  1  0.91181110  0.23457815  0.59083273  1.0
  O  O36  1  0.08818890  0.76542185  0.40916727  1.0
  O  O37  1  0.08818890  0.73457815  0.90916727  1.0
  O  O38  1  0.88964808  0.43161308  0.21873120  1.0
  O  O39  1  0.88964808  0.06838692  0.71873120  1.0
  O  O40  1  0.11035192  0.93161308  0.28126880  1.0
  O  O41  1  0.11035192  0.56838692  0.78126880  1.0
  O  O42  1  0.79453802  0.42761529  0.48563042  1.0
  O  O43  1  0.79453802  0.07238471  0.98563042  1.0
  O  O44  1  0.20546198  0.92761529  0.01436958  1.0
  O  O45  1  0.20546198  0.57238471  0.51436958  1.0
  O  O46  1  0.73927961  0.07922008  0.45186883  1.0
  O  O47  1  0.73927961  0.42077992  0.95186883  1.0
  O  O48  1  0.26072039  0.57922008  0.04813117  1.0
  O  O49  1  0.26072039  0.92077992  0.54813117  1.0
  O  O50  1  0.55893514  0.32678994  0.11978054  1.0
  O  O51  1  0.55893514  0.17321006  0.61978054  1.0
  O  O52  1  0.44106486  0.82678994  0.38021946  1.0
  O  O53  1  0.44106486  0.67321006  0.88021946  1.0
  O  O54  1  0.48334405  0.11907125  0.17898109  1.0
  O  O55  1  0.48334405  0.38092875  0.67898109  1.0
  O  O56  1  0.51665595  0.61907125  0.32101891  1.0
  O  O57  1  0.51665595  0.88092875  0.82101891  1.0
  O  O58  1  0.32663196  0.38811283  0.32616316  1.0
  O  O59  1  0.32663196  0.11188717  0.82616316  1.0
  O  O60  1  0.67336804  0.88811283  0.17383684  1.0
  O  O61  1  0.67336804  0.61188717  0.67383684  1.0
