# generated using pymatgen
data_PH8C2NO2
_symmetry_space_group_name_H-M   'P 1'
_cell_length_a   5.93417418
_cell_length_b   6.35448543
_cell_length_c   13.73343827
_cell_angle_alpha   90.00000000
_cell_angle_beta   97.67128270
_cell_angle_gamma   90.00000000
_symmetry_Int_Tables_number   1
_chemical_formula_structural   PH8C2NO2
_chemical_formula_sum   'P4 H32 C8 N4 O8'
_cell_volume   513.23424287
_cell_formula_units_Z   4
loop_
 _symmetry_equiv_pos_site_id
 _symmetry_equiv_pos_as_xyz
  1  'x, y, z'
loop_
 _atom_site_type_symbol
 _atom_site_label
 _atom_site_symmetry_multiplicity
 _atom_site_fract_x
 _atom_site_fract_y
 _atom_site_fract_z
 _atom_site_occupancy
  P  P0  1  0.33173352  0.35657933  0.62569579  1.0
  P  P1  1  0.66826648  0.85657933  0.87430421  1.0
  P  P2  1  0.66826648  0.64342067  0.37430421  1.0
  P  P3  1  0.33173352  0.14342067  0.12569579  1.0
  H  H4  1  0.70873217  0.33127823  0.57893009  1.0
  H  H5  1  0.29126783  0.83127823  0.92106991  1.0
  H  H6  1  0.29126783  0.66872177  0.42106991  1.0
  H  H7  1  0.70873217  0.16872177  0.07893009  1.0
  H  H8  1  0.75111817  0.50405265  0.74933965  1.0
  H  H9  1  0.24888183  0.00405265  0.75066035  1.0
  H  H10  1  0.24888183  0.49594735  0.25066035  1.0
  H  H11  1  0.75111817  -0.00405265  0.24933965  1.0
  H  H12  1  0.72815208  0.25279764  0.79524932  1.0
  H  H13  1  0.27184792  0.75279764  0.70475068  1.0
  H  H14  1  0.27184792  0.74720236  0.20475068  1.0
  H  H15  1  0.72815208  0.24720236  0.29524932  1.0
  H  H16  1  0.94372285  0.31754659  0.72920195  1.0
  H  H17  1  0.05627715  0.81754659  0.77079805  1.0
  H  H18  1  0.05627715  0.68245341  0.27079805  1.0
  H  H19  1  0.94372285  0.18245341  0.22920195  1.0
  H  H20  1  0.63943574  0.09861695  0.64051916  1.0
  H  H21  1  0.36056426  0.59861695  0.85948084  1.0
  H  H22  1  0.36056426  0.90138305  0.35948084  1.0
  H  H23  1  0.63943574  0.40138305  0.14051916  1.0
  H  H24  1  0.33488604  0.26479500  0.45516330  1.0
  H  H25  1  0.66511396  0.76479500  0.04483670  1.0
  H  H26  1  0.66511396  0.73520500  0.54483670  1.0
  H  H27  1  0.33488604  0.23520500  0.95516330  1.0
  H  H28  1  0.05154270  0.28114928  0.48574111  1.0
  H  H29  1  0.94845730  0.78114928  0.01425889  1.0
  H  H30  1  0.94845730  0.71885072  0.51425889  1.0
  H  H31  1  0.05154270  0.21885072  0.98574111  1.0
  H  H32  1  0.22298391  0.05540184  0.52211524  1.0
  H  H33  1  0.77701609  0.55540184  0.97788476  1.0
  H  H34  1  0.77701609  0.94459816  0.47788476  1.0
  H  H35  1  0.22298391  0.44459816  0.02211524  1.0
  C  C36  1  0.22520793  0.22646259  0.51120742  1.0
  C  C37  1  0.77479207  0.72646259  0.98879258  1.0
  C  C38  1  0.77479207  0.77353741  0.48879258  1.0
  C  C39  1  0.22520793  0.27353741  0.01120742  1.0
  C  C40  1  0.63287245  0.27139956  0.64221775  1.0
  C  C41  1  0.36712755  0.77139956  0.85778225  1.0
  C  C42  1  0.36712755  0.72860044  0.35778225  1.0
  C  C43  1  0.63287245  0.22860044  0.14221775  1.0
  N  N44  1  0.76958408  0.34277170  0.73473252  1.0
  N  N45  1  0.23041592  0.84277170  0.76526748  1.0
  N  N46  1  0.23041592  0.65722830  0.26526748  1.0
  N  N47  1  0.76958408  0.15722830  0.23473252  1.0
  O  O48  1  0.21861054  0.26627195  0.71132592  1.0
  O  O49  1  0.78138946  0.76627195  0.78867408  1.0
  O  O50  1  0.78138946  0.73372805  0.28867408  1.0
  O  O51  1  0.21861054  0.23372805  0.21132592  1.0
  O  O52  1  0.31984881  0.59519037  0.61255499  1.0
  O  O53  1  0.68015119  0.09519037  0.88744501  1.0
  O  O54  1  0.68015119  0.40480963  0.38744501  1.0
  O  O55  1  0.31984881  0.90480963  0.11255499  1.0
