# generated using pymatgen
data_H2O
_symmetry_space_group_name_H-M   'P 1'
_cell_length_a   4.40144867
_cell_length_b   4.40144867
_cell_length_c   7.17597796
_cell_angle_alpha   90.00000000
_cell_angle_beta   90.00000000
_cell_angle_gamma   120.19000916
_symmetry_Int_Tables_number   1
_chemical_formula_structural   H2O
_chemical_formula_sum   'H8 O4'
_cell_volume   120.16231769
_cell_formula_units_Z   4
loop_
 _symmetry_equiv_pos_site_id
 _symmetry_equiv_pos_as_xyz
  1  'x, y, z'
loop_
 _atom_site_type_symbol
 _atom_site_label
 _atom_site_symmetry_multiplicity
 _atom_site_fract_x
 _atom_site_fract_y
 _atom_site_fract_z
 _atom_site_occupancy
  H  H0  1  0.04858839  0.58546072  0.96439070  1.0
  H  H1  1  0.58546072  1.04858839  0.46439070  1.0
  H  H2  1  0.41453928  0.95141161  0.96439070  1.0
  H  H3  1  -0.04858839  0.41453928  0.46439070  1.0
  H  H4  1  0.04039699  0.95960301  0.49983238  1.0
  H  H5  1  -0.04039699  0.04039699  -0.00016762  1.0
  H  H6  1  0.16435147  0.83564853  0.68130544  1.0
  H  H7  1  -0.16435147  0.16435147  0.18130544  1.0
  O  O8  1  0.16593692  0.83406308  0.54149707  1.0
  O  O9  1  -0.16593692  0.16593692  0.04149707  1.0
  O  O10  1  0.16663709  0.83336291  0.91678371  1.0
  O  O11  1  -0.16663709  0.16663709  0.41678371  1.0
