# generated using pymatgen
data_YSi2
_symmetry_space_group_name_H-M   'P 1'
_cell_length_a   10.75611422
_cell_length_b   10.75611422
_cell_length_c   10.75611422
_cell_angle_alpha   148.08894059
_cell_angle_beta   148.08894059
_cell_angle_gamma   45.75408869
_symmetry_Int_Tables_number   1
_chemical_formula_structural   YSi2
_chemical_formula_sum   'Y4 Si8'
_cell_volume   346.55195111
_cell_formula_units_Z   4
loop_
 _symmetry_equiv_pos_site_id
 _symmetry_equiv_pos_as_xyz
  1  'x, y, z'
loop_
 _atom_site_type_symbol
 _atom_site_label
 _atom_site_symmetry_multiplicity
 _atom_site_fract_x
 _atom_site_fract_y
 _atom_site_fract_z
 _atom_site_occupancy
  Y  Y0  1  0.37500000  0.12500000  0.25000000  1.0
  Y  Y1  1  0.87500000  0.12500000  0.75000000  1.0
  Y  Y2  1  0.87500000  1.12500000  1.25000000  1.0
  Y  Y3  1  0.87500000  0.62500000  0.75000000  1.0
  Si  Si4  1  1.05326113  0.27488128  0.77837985  1.0
  Si  Si5  1  1.25349858  0.97511872  1.27837985  1.0
  Si  Si6  1  0.49650142  0.27488128  0.22162015  1.0
  Si  Si7  1  0.69673887  0.97511872  0.72162015  1.0
  Si  Si8  1  0.72511872  0.50349858  0.77837985  1.0
  Si  Si9  1  0.02488128  0.30326113  0.27837985  1.0
  Si  Si10  1  0.72511872  0.94673887  1.22162015  1.0
  Si  Si11  1  0.02488128  0.74650142  0.72162015  1.0
