# generated using pymatgen
data_La3NbO7
_symmetry_space_group_name_H-M   'P 1'
_cell_length_a   7.81276762
_cell_length_b   11.19212631
_cell_length_c   7.78766808
_cell_angle_alpha   90.00000000
_cell_angle_beta   90.00000000
_cell_angle_gamma   90.00000000
_symmetry_Int_Tables_number   1
_chemical_formula_structural   La3NbO7
_chemical_formula_sum   'La12 Nb4 O28'
_cell_volume   680.96523915
_cell_formula_units_Z   4
loop_
 _symmetry_equiv_pos_site_id
 _symmetry_equiv_pos_as_xyz
  1  'x, y, z'
loop_
 _atom_site_type_symbol
 _atom_site_label
 _atom_site_symmetry_multiplicity
 _atom_site_fract_x
 _atom_site_fract_y
 _atom_site_fract_z
 _atom_site_occupancy
  La  La0  1  0.25070029  0.97675294  0.95546474  1.0
  La  La1  1  0.25070029  0.52324706  0.95546474  1.0
  La  La2  1  0.75070029  0.97675294  0.54453526  1.0
  La  La3  1  0.75070029  0.52324706  0.54453526  1.0
  La  La4  1  0.74929971  0.47675294  0.04453526  1.0
  La  La5  1  0.74929971  0.02324706  0.04453526  1.0
  La  La6  1  0.24929971  0.47675294  0.45546474  1.0
  La  La7  1  0.24929971  0.02324706  0.45546474  1.0
  La  La8  1  0.00914742  0.75000000  0.28620549  1.0
  La  La9  1  0.50914742  0.75000000  0.21379451  1.0
  La  La10  1  0.99085258  0.25000000  0.71379451  1.0
  La  La11  1  0.49085258  0.25000000  0.78620549  1.0
  Nb  Nb12  1  0.50741697  0.75000000  0.74790390  1.0
  Nb  Nb13  1  0.00741697  0.75000000  0.75209610  1.0
  Nb  Nb14  1  0.49258303  0.25000000  0.25209610  1.0
  Nb  Nb15  1  0.99258303  0.25000000  0.24790390  1.0
  O  O16  1  0.46154917  0.88230259  0.59271639  1.0
  O  O17  1  0.46154917  0.61769741  0.59271639  1.0
  O  O18  1  0.96154917  0.88230259  0.90728361  1.0
  O  O19  1  0.96154917  0.61769741  0.90728361  1.0
  O  O20  1  0.53845083  0.38230259  0.40728361  1.0
  O  O21  1  0.53845083  0.11769741  0.40728361  1.0
  O  O22  1  0.03845083  0.38230259  0.09271639  1.0
  O  O23  1  0.03845083  0.11769741  0.09271639  1.0
  O  O24  1  0.24565226  0.38211795  0.72796653  1.0
  O  O25  1  0.24565226  0.11788205  0.72796653  1.0
  O  O26  1  0.74565226  0.38211795  0.77203347  1.0
  O  O27  1  0.74565226  0.11788205  0.77203347  1.0
  O  O28  1  0.75434774  0.88211795  0.27203347  1.0
  O  O29  1  0.75434774  0.61788205  0.27203347  1.0
  O  O30  1  0.25434774  0.88211795  0.22796653  1.0
  O  O31  1  0.25434774  0.61788205  0.22796653  1.0
  O  O32  1  0.03149054  0.87084843  0.55067665  1.0
  O  O33  1  0.03149054  0.62915157  0.55067665  1.0
  O  O34  1  0.53149054  0.87084843  0.94932335  1.0
  O  O35  1  0.53149054  0.62915157  0.94932335  1.0
  O  O36  1  0.96850946  0.37084843  0.44932335  1.0
  O  O37  1  0.96850946  0.12915157  0.44932335  1.0
  O  O38  1  0.46850946  0.37084843  0.05067665  1.0
  O  O39  1  0.46850946  0.12915157  0.05067665  1.0
  O  O40  1  0.24611256  0.75000000  0.81710057  1.0
  O  O41  1  0.74611256  0.75000000  0.68289943  1.0
  O  O42  1  0.75388744  0.25000000  0.18289943  1.0
  O  O43  1  0.25388744  0.25000000  0.31710057  1.0
