# generated using pymatgen
data_K4CO4
_symmetry_space_group_name_H-M   'P 1'
_cell_length_a   5.41120974
_cell_length_b   5.41120974
_cell_length_c   5.41120974
_cell_angle_alpha   88.33336395
_cell_angle_beta   88.33336395
_cell_angle_gamma   88.33336395
_symmetry_Int_Tables_number   1
_chemical_formula_structural   K4CO4
_chemical_formula_sum   'K4 C1 O4'
_cell_volume   158.24939787
_cell_formula_units_Z   1
loop_
 _symmetry_equiv_pos_site_id
 _symmetry_equiv_pos_as_xyz
  1  'x, y, z'
loop_
 _atom_site_type_symbol
 _atom_site_label
 _atom_site_symmetry_multiplicity
 _atom_site_fract_x
 _atom_site_fract_y
 _atom_site_fract_z
 _atom_site_occupancy
  K  K0  1  0.77303842  0.21679031  -0.22692861  1.0
  K  K1  1  1.21679031  -0.22692861  -0.22696158  1.0
  K  K2  1  0.77307139  -0.22696158  0.21679031  1.0
  K  K3  1  1.20770212  1.20770212  0.20770212  1.0
  C  C4  1  0.48081105  0.48081105  -0.51918895  1.0
  O  O5  1  0.32699066  0.32682680  -0.35916734  1.0
  O  O6  1  0.32682680  0.64083266  -0.67300934  1.0
  O  O7  1  0.64083266  0.32699066  -0.67317320  1.0
  O  O8  1  0.63114660  0.63114660  -0.36885340  1.0
