# generated using pymatgen
data_LiMgPO4
_symmetry_space_group_name_H-M   'P 1'
_cell_length_a   10.25506051
_cell_length_b   5.96522054
_cell_length_c   4.73606204
_cell_angle_alpha   90.00000000
_cell_angle_beta   90.00000000
_cell_angle_gamma   90.00000000
_symmetry_Int_Tables_number   1
_chemical_formula_structural   LiMgPO4
_chemical_formula_sum   'Li4 Mg4 P4 O16'
_cell_volume   289.72242687
_cell_formula_units_Z   4
loop_
 _symmetry_equiv_pos_site_id
 _symmetry_equiv_pos_as_xyz
  1  'x, y, z'
loop_
 _atom_site_type_symbol
 _atom_site_label
 _atom_site_symmetry_multiplicity
 _atom_site_fract_x
 _atom_site_fract_y
 _atom_site_fract_z
 _atom_site_occupancy
  Li  Li0  1  0.00000000  0.50000000  0.00000000  1.0
  Li  Li1  1  0.00000000  0.00000000  0.00000000  1.0
  Li  Li2  1  0.50000000  0.50000000  0.50000000  1.0
  Li  Li3  1  0.50000000  0.00000000  0.50000000  1.0
  Mg  Mg4  1  0.77805214  0.25000000  0.51704310  1.0
  Mg  Mg5  1  0.27805214  0.25000000  0.98295690  1.0
  Mg  Mg6  1  0.22194786  0.75000000  0.48295690  1.0
  Mg  Mg7  1  0.72194786  0.75000000  0.01704310  1.0
  P  P8  1  0.59492235  0.25000000  0.08263007  1.0
  P  P9  1  0.09492235  0.25000000  0.41736993  1.0
  P  P10  1  0.40507765  0.75000000  0.91736993  1.0
  P  P11  1  0.90507765  0.75000000  0.58263007  1.0
  O  O12  1  0.66633611  0.45650938  0.22056951  1.0
  O  O13  1  0.66633611  0.04349062  0.22056951  1.0
  O  O14  1  0.16633611  0.45650938  0.27943049  1.0
  O  O15  1  0.16633611  0.04349062  0.27943049  1.0
  O  O16  1  0.33366389  0.95650938  0.77943049  1.0
  O  O17  1  0.33366389  0.54349062  0.77943049  1.0
  O  O18  1  0.83366389  0.95650938  0.72056951  1.0
  O  O19  1  0.83366389  0.54349062  0.72056951  1.0
  O  O20  1  0.95298651  0.25000000  0.29985857  1.0
  O  O21  1  0.45298651  0.25000000  0.20014143  1.0
  O  O22  1  0.04701349  0.75000000  0.70014143  1.0
  O  O23  1  0.54701349  0.75000000  0.79985857  1.0
  O  O24  1  0.60133794  0.25000000  0.75721957  1.0
  O  O25  1  0.10133794  0.25000000  0.74278043  1.0
  O  O26  1  0.39866206  0.75000000  0.24278043  1.0
  O  O27  1  0.89866206  0.75000000  0.25721957  1.0
