# generated using pymatgen
data_Nb4Si8Ni
_symmetry_space_group_name_H-M   'P 1'
_cell_length_a   9.02521389
_cell_length_b   9.02521389
_cell_length_c   9.02521389
_cell_angle_alpha   32.08907683
_cell_angle_beta   32.08907683
_cell_angle_gamma   32.08907683
_symmetry_Int_Tables_number   1
_chemical_formula_structural   Nb4Si8Ni
_chemical_formula_sum   'Nb4 Si8 Ni1'
_cell_volume   184.35913157
_cell_formula_units_Z   1
loop_
 _symmetry_equiv_pos_site_id
 _symmetry_equiv_pos_as_xyz
  1  'x, y, z'
loop_
 _atom_site_type_symbol
 _atom_site_label
 _atom_site_symmetry_multiplicity
 _atom_site_fract_x
 _atom_site_fract_y
 _atom_site_fract_z
 _atom_site_occupancy
  Nb  Nb0  1  0.64414268  0.64414268  -0.35585732  1.0
  Nb  Nb1  1  0.35585732  0.35585732  -0.64414268  1.0
  Nb  Nb2  1  0.84138477  -0.15861523  -0.15861523  1.0
  Nb  Nb3  1  0.15861523  0.15861523  0.15861523  1.0
  Si  Si4  1  0.54452051  0.54452051  -0.45547949  1.0
  Si  Si5  1  0.45547949  0.45547949  -0.54452051  1.0
  Si  Si6  1  0.41374989  -0.09680586  -0.09680586  1.0
  Si  Si7  1  0.90319414  -0.09680586  -0.58625011  1.0
  Si  Si8  1  0.90319414  -0.58625011  -0.09680586  1.0
  Si  Si9  1  0.58625011  0.09680586  0.09680586  1.0
  Si  Si10  1  1.09680586  0.09680586  -0.41374989  1.0
  Si  Si11  1  1.09680586  -0.41374989  0.09680586  1.0
  Ni  Ni12  1  -0.00000000  -0.00000000  0.00000000  1.0
