# generated using pymatgen
data_MnH4NF3
_symmetry_space_group_name_H-M   'P 1'
_cell_length_a   5.99264461
_cell_length_b   8.79070830
_cell_length_c   6.00825694
_cell_angle_alpha   90.00000000
_cell_angle_beta   90.00000000
_cell_angle_gamma   90.00000000
_symmetry_Int_Tables_number   1
_chemical_formula_structural   MnH4NF3
_chemical_formula_sum   'Mn4 H16 N4 F12'
_cell_volume   316.51251642
_cell_formula_units_Z   4
loop_
 _symmetry_equiv_pos_site_id
 _symmetry_equiv_pos_as_xyz
  1  'x, y, z'
loop_
 _atom_site_type_symbol
 _atom_site_label
 _atom_site_symmetry_multiplicity
 _atom_site_fract_x
 _atom_site_fract_y
 _atom_site_fract_z
 _atom_site_occupancy
  Mn  Mn0  1  0.50000000  0.00000000  0.50000000  1.0
  Mn  Mn1  1  0.50000000  0.50000000  0.50000000  1.0
  Mn  Mn2  1  0.00000000  0.00000000  -0.00000000  1.0
  Mn  Mn3  1  -0.00000000  0.50000000  -0.00000000  1.0
  H  H4  1  0.43029740  0.84584336  0.92927474  1.0
  H  H5  1  0.43029740  0.65415664  0.92927474  1.0
  H  H6  1  0.93029740  0.84584336  0.57072526  1.0
  H  H7  1  0.93029740  0.65415664  0.57072526  1.0
  H  H8  1  0.56970260  0.34584336  0.07072526  1.0
  H  H9  1  0.56970260  0.15415664  0.07072526  1.0
  H  H10  1  0.06970260  0.34584336  0.42927474  1.0
  H  H11  1  0.06970260  0.15415664  0.42927474  1.0
  H  H12  1  0.46890030  0.75000000  0.17287744  1.0
  H  H13  1  0.96890030  0.75000000  0.32712256  1.0
  H  H14  1  0.53109970  0.25000000  0.82712256  1.0
  H  H15  1  0.03109970  0.25000000  0.67287744  1.0
  H  H16  1  0.17096646  0.75000000  0.51793163  1.0
  H  H17  1  0.67096646  0.75000000  0.98206837  1.0
  H  H18  1  0.82903354  0.25000000  0.48206837  1.0
  H  H19  1  0.32903354  0.25000000  0.01793163  1.0
  N  N20  1  -0.00030480  0.75000000  0.49705238  1.0
  N  N21  1  0.49969520  0.75000000  0.00294762  1.0
  N  N22  1  0.00030480  0.25000000  0.50294762  1.0
  N  N23  1  0.50030480  0.25000000  -0.00294762  1.0
  F  F24  1  0.27992704  0.98354382  0.78000042  1.0
  F  F25  1  0.27992704  0.51645618  0.78000042  1.0
  F  F26  1  0.77992704  0.98354382  0.71999958  1.0
  F  F27  1  0.77992704  0.51645618  0.71999958  1.0
  F  F28  1  0.72007296  0.48354382  0.21999958  1.0
  F  F29  1  0.72007296  0.01645618  0.21999958  1.0
  F  F30  1  0.22007296  0.48354382  0.28000042  1.0
  F  F31  1  0.22007296  0.01645618  0.28000042  1.0
  F  F32  1  0.97526211  0.75000000  0.03129281  1.0
  F  F33  1  0.47526211  0.75000000  0.46870719  1.0
  F  F34  1  0.02473789  0.25000000  0.96870719  1.0
  F  F35  1  0.52473789  0.25000000  0.53129281  1.0
