# generated using pymatgen
data_Bi3Te2S
_symmetry_space_group_name_H-M   'P 1'
_cell_length_a   4.36140554
_cell_length_b   4.36140554
_cell_length_c   24.77183718
_cell_angle_alpha   90.00000000
_cell_angle_beta   90.00000000
_cell_angle_gamma   120.00000000
_symmetry_Int_Tables_number   1
_chemical_formula_structural   Bi3Te2S
_chemical_formula_sum   'Bi6 Te4 S2'
_cell_volume   408.07669261
_cell_formula_units_Z   2
loop_
 _symmetry_equiv_pos_site_id
 _symmetry_equiv_pos_as_xyz
  1  'x, y, z'
loop_
 _atom_site_type_symbol
 _atom_site_label
 _atom_site_symmetry_multiplicity
 _atom_site_fract_x
 _atom_site_fract_y
 _atom_site_fract_z
 _atom_site_occupancy
  Bi  Bi0  1  0.00000000  0.00000000  0.88587757  1.0
  Bi  Bi1  1  -0.00000000  0.00000000  0.11412243  1.0
  Bi  Bi2  1  0.66666667  0.33333333  0.71728460  1.0
  Bi  Bi3  1  0.33333333  0.66666667  0.28271540  1.0
  Bi  Bi4  1  0.33333333  0.66666667  0.53480138  1.0
  Bi  Bi5  1  0.66666667  0.33333333  0.46519862  1.0
  Te  Te6  1  0.33333333  0.66666667  0.80070555  1.0
  Te  Te7  1  0.66666667  0.33333333  0.19929445  1.0
  Te  Te8  1  0.00000000  0.00000000  0.64507696  1.0
  Te  Te9  1  0.00000000  0.00000000  0.35492304  1.0
  S  S10  1  0.66666667  0.33333333  0.93515706  1.0
  S  S11  1  0.33333333  0.66666667  0.06484294  1.0
