# generated using pymatgen
data_K2GdCl5
_symmetry_space_group_name_H-M   'P 1'
_cell_length_a   12.99393492
_cell_length_b   8.69207734
_cell_length_c   8.08788076
_cell_angle_alpha   90.00000000
_cell_angle_beta   90.00000000
_cell_angle_gamma   90.00000000
_symmetry_Int_Tables_number   1
_chemical_formula_structural   K2GdCl5
_chemical_formula_sum   'K8 Gd4 Cl20'
_cell_volume   913.47992720
_cell_formula_units_Z   4
loop_
 _symmetry_equiv_pos_site_id
 _symmetry_equiv_pos_as_xyz
  1  'x, y, z'
loop_
 _atom_site_type_symbol
 _atom_site_label
 _atom_site_symmetry_multiplicity
 _atom_site_fract_x
 _atom_site_fract_y
 _atom_site_fract_z
 _atom_site_occupancy
  K  K0  1  0.67193039  0.99659536  0.44862982  1.0
  K  K1  1  0.67193039  0.50340464  0.44862982  1.0
  K  K2  1  0.17193039  0.99659536  0.05137018  1.0
  K  K3  1  0.17193039  0.50340464  0.05137018  1.0
  K  K4  1  0.32806961  0.49659536  0.55137018  1.0
  K  K5  1  0.32806961  0.00340464  0.55137018  1.0
  K  K6  1  0.82806961  0.49659536  0.94862982  1.0
  K  K7  1  0.82806961  0.00340464  0.94862982  1.0
  Gd  Gd8  1  0.99534900  0.25000000  0.42685933  1.0
  Gd  Gd9  1  0.49534900  0.25000000  0.07314067  1.0
  Gd  Gd10  1  0.00465100  0.75000000  0.57314067  1.0
  Gd  Gd11  1  0.50465100  0.75000000  0.92685933  1.0
  Cl  Cl12  1  0.69812378  0.25000000  0.15745150  1.0
  Cl  Cl13  1  0.19812378  0.25000000  0.34254850  1.0
  Cl  Cl14  1  0.30187622  0.75000000  0.84254850  1.0
  Cl  Cl15  1  0.80187622  0.75000000  0.65745150  1.0
  Cl  Cl16  1  0.92563159  0.95742997  0.33814479  1.0
  Cl  Cl17  1  0.92563159  0.54257003  0.33814479  1.0
  Cl  Cl18  1  0.42563159  0.95742997  0.16185521  1.0
  Cl  Cl19  1  0.42563159  0.54257003  0.16185521  1.0
  Cl  Cl20  1  0.07436841  0.45742997  0.66185521  1.0
  Cl  Cl21  1  0.07436841  0.04257003  0.66185521  1.0
  Cl  Cl22  1  0.57436841  0.45742997  0.83814479  1.0
  Cl  Cl23  1  0.57436841  0.04257003  0.83814479  1.0
  Cl  Cl24  1  0.98881386  0.25000000  0.08737646  1.0
  Cl  Cl25  1  0.48881386  0.25000000  0.41262354  1.0
  Cl  Cl26  1  0.01118614  0.75000000  0.91262354  1.0
  Cl  Cl27  1  0.51118614  0.75000000  0.58737646  1.0
  Cl  Cl28  1  0.82395838  0.25000000  0.61977315  1.0
  Cl  Cl29  1  0.32395838  0.25000000  0.88022685  1.0
  Cl  Cl30  1  0.17604162  0.75000000  0.38022685  1.0
  Cl  Cl31  1  0.67604162  0.75000000  0.11977315  1.0
