# generated using pymatgen
data_Gd2Zr3Ge4
_symmetry_space_group_name_H-M   'P 1'
_cell_length_a   7.48002453
_cell_length_b   7.48002453
_cell_length_c   13.71893001
_cell_angle_alpha   90.00000000
_cell_angle_beta   90.00000000
_cell_angle_gamma   90.00000000
_symmetry_Int_Tables_number   1
_chemical_formula_structural   Gd2Zr3Ge4
_chemical_formula_sum   'Gd8 Zr12 Ge16'
_cell_volume   767.58465613
_cell_formula_units_Z   4
loop_
 _symmetry_equiv_pos_site_id
 _symmetry_equiv_pos_as_xyz
  1  'x, y, z'
loop_
 _atom_site_type_symbol
 _atom_site_label
 _atom_site_symmetry_multiplicity
 _atom_site_fract_x
 _atom_site_fract_y
 _atom_site_fract_z
 _atom_site_occupancy
  Gd  Gd0  1  0.50104974  0.84149938  0.03283561  1.0
  Gd  Gd1  1  1.00104974  0.65850062  0.71716439  1.0
  Gd  Gd2  1  0.15850062  0.49895026  0.46716439  1.0
  Gd  Gd3  1  0.65850062  1.00104974  0.28283561  1.0
  Gd  Gd4  1  0.49895026  0.15850062  0.53283561  1.0
  Gd  Gd5  1  -0.00104974  0.34149938  0.21716439  1.0
  Gd  Gd6  1  0.84149938  0.50104974  0.96716439  1.0
  Gd  Gd7  1  0.34149938  -0.00104974  0.78283561  1.0
  Zr  Zr8  1  0.34365785  0.49620951  0.87492166  1.0
  Zr  Zr9  1  0.84365785  1.00379049  0.87507834  1.0
  Zr  Zr10  1  0.50379049  0.65634215  0.62507834  1.0
  Zr  Zr11  1  1.00379049  0.84365785  0.12492166  1.0
  Zr  Zr12  1  0.65634215  0.50379049  0.37492166  1.0
  Zr  Zr13  1  0.15634215  -0.00379049  0.37507834  1.0
  Zr  Zr14  1  0.49620951  0.34365785  0.12507834  1.0
  Zr  Zr15  1  -0.00379049  0.15634215  0.62492166  1.0
  Zr  Zr16  1  0.32893381  0.67106619  0.25000000  1.0
  Zr  Zr17  1  0.82893381  0.82893381  0.50000000  1.0
  Zr  Zr18  1  0.67106619  0.32893381  0.75000000  1.0
  Zr  Zr19  1  0.17106619  0.17106619  0.00000000  1.0
  Ge  Ge20  1  0.20367136  0.53738646  0.06754113  1.0
  Ge  Ge21  1  0.70367136  0.96261354  0.68245887  1.0
  Ge  Ge22  1  0.46261354  0.79632864  0.43245887  1.0
  Ge  Ge23  1  0.96261354  0.70367136  0.31754113  1.0
  Ge  Ge24  1  0.79632864  0.46261354  0.56754113  1.0
  Ge  Ge25  1  0.29632864  0.03738646  0.18245887  1.0
  Ge  Ge26  1  0.53738646  0.20367136  0.93245887  1.0
  Ge  Ge27  1  0.03738646  0.29632864  0.81754113  1.0
  Ge  Ge28  1  0.13326948  0.80025346  0.92829940  1.0
  Ge  Ge29  1  0.63326948  0.69974654  0.82170060  1.0
  Ge  Ge30  1  0.19974654  0.86673052  0.57170060  1.0
  Ge  Ge31  1  0.69974654  0.63326948  0.17829940  1.0
  Ge  Ge32  1  0.86673052  0.19974654  0.42829940  1.0
  Ge  Ge33  1  0.36673052  0.30025346  0.32170060  1.0
  Ge  Ge34  1  0.80025346  0.13326948  0.07170060  1.0
  Ge  Ge35  1  0.30025346  0.36673052  0.67829940  1.0
