# generated using pymatgen
data_Co2Te3O8
_symmetry_space_group_name_H-M   'P 1'
_cell_length_a   6.91830899
_cell_length_b   6.91830899
_cell_length_c   11.58463336
_cell_angle_alpha   82.18039572
_cell_angle_beta   97.81960428
_cell_angle_gamma   135.19917611
_symmetry_Int_Tables_number   1
_chemical_formula_structural   Co2Te3O8
_chemical_formula_sum   'Co4 Te6 O16'
_cell_volume   386.45424434
_cell_formula_units_Z   2
loop_
 _symmetry_equiv_pos_site_id
 _symmetry_equiv_pos_as_xyz
  1  'x, y, z'
loop_
 _atom_site_type_symbol
 _atom_site_label
 _atom_site_symmetry_multiplicity
 _atom_site_fract_x
 _atom_site_fract_y
 _atom_site_fract_z
 _atom_site_occupancy
  Co  Co0  1  0.42704342  -0.03849039  0.85034327  1.0
  Co  Co1  1  1.03849039  0.57295658  0.35034327  1.0
  Co  Co2  1  0.96150961  0.42704342  0.64965673  1.0
  Co  Co3  1  0.57295658  0.03849039  0.14965673  1.0
  O  O4  1  0.74490487  -0.03056764  0.86809581  1.0
  O  O5  1  1.03056764  0.25509513  0.36809581  1.0
  O  O6  1  0.96943236  0.74490487  0.63190419  1.0
  O  O7  1  0.25509513  0.03056764  0.13190419  1.0
  O  O8  1  0.72681716  0.26127648  0.47156919  1.0
  O  O9  1  0.73872352  0.27318284  0.97156919  1.0
  O  O10  1  1.26127648  0.72681716  0.02843081  1.0
  O  O11  1  0.27318284  -0.26127648  0.52843081  1.0
  O  O12  1  0.13981213  -0.03439531  0.86155538  1.0
  O  O13  1  1.03439531  0.86018787  0.36155538  1.0
  O  O14  1  0.96560469  0.13981213  0.63844462  1.0
  O  O15  1  0.86018787  0.03439531  0.13844462  1.0
  O  O16  1  0.56252879  0.17115823  0.69696200  1.0
  O  O17  1  0.82884177  0.43747121  0.19696200  1.0
  O  O18  1  1.17115823  0.56252879  0.80303800  1.0
  O  O19  1  0.43747121  -0.17115823  0.30303800  1.0
  Te  Te20  1  0.67330952  -0.06061104  0.44958240  1.0
  Te  Te21  1  1.06061104  0.32669048  0.94958240  1.0
  Te  Te22  1  0.93938896  0.67330952  0.05041760  1.0
  Te  Te23  1  0.32669048  0.06061104  0.55041760  1.0
  Te  Te24  1  0.82476016  0.82476016  0.75000000  1.0
  Te  Te25  1  0.17523984  0.17523984  0.25000000  1.0
