# generated using pymatgen
data_Ba(BO2)2
_symmetry_space_group_name_H-M   'P 1'
_cell_length_a   14.06069471
_cell_length_b   14.06069471
_cell_length_c   14.06069471
_cell_angle_alpha   30.10315200
_cell_angle_beta   30.10315200
_cell_angle_gamma   30.10315200
_symmetry_Int_Tables_number   1
_chemical_formula_structural   Ba(BO2)2
_chemical_formula_sum   'Ba6 B12 O24'
_cell_volume   619.52178708
_cell_formula_units_Z   6
loop_
 _symmetry_equiv_pos_site_id
 _symmetry_equiv_pos_as_xyz
  1  'x, y, z'
loop_
 _atom_site_type_symbol
 _atom_site_label
 _atom_site_symmetry_multiplicity
 _atom_site_fract_x
 _atom_site_fract_y
 _atom_site_fract_z
 _atom_site_occupancy
  Ba  Ba0  1  0.84868928  -0.15131072  -0.15131072  1.0
  Ba  Ba1  1  0.34868928  0.34868928  0.34868928  1.0
  Ba  Ba2  1  0.65131072  0.65131072  -0.34868928  1.0
  Ba  Ba3  1  1.15131072  0.15131072  0.15131072  1.0
  Ba  Ba4  1  0.75000000  0.75000000  -0.25000000  1.0
  Ba  Ba5  1  0.25000000  0.25000000  0.25000000  1.0
  B  B6  1  0.75081126  0.13797365  -0.00365220  1.0
  B  B7  1  1.25081126  0.49634780  -0.36202635  1.0
  B  B8  1  0.50365220  0.36202635  -0.25081126  1.0
  B  B9  1  1.00365220  0.24918874  -0.13797365  1.0
  B  B10  1  0.86202635  0.00365220  0.24918874  1.0
  B  B11  1  0.36202635  0.74918874  -0.49634780  1.0
  B  B12  1  1.24918874  -0.13797365  0.00365220  1.0
  B  B13  1  0.74918874  0.50365220  -0.63797365  1.0
  B  B14  1  0.99634780  -0.24918874  0.13797365  1.0
  B  B15  1  0.49634780  0.63797365  0.25081126  1.0
  B  B16  1  0.63797365  1.25081126  -0.50365220  1.0
  B  B17  1  1.13797365  -0.00365220  -0.24918874  1.0
  O  O18  1  0.92730608  0.16560199  -0.21088028  1.0
  O  O19  1  1.42730608  0.28911972  -0.33439801  1.0
  O  O20  1  0.71088028  0.33439801  -0.42730608  1.0
  O  O21  1  1.21088028  0.07269392  -0.16560199  1.0
  O  O22  1  0.83439801  0.21088028  0.07269392  1.0
  O  O23  1  0.33439801  0.57269392  -0.28911972  1.0
  O  O24  1  1.07269392  -0.16560199  0.21088028  1.0
  O  O25  1  0.57269392  0.71088028  -0.66560199  1.0
  O  O26  1  0.78911972  -0.07269392  0.16560199  1.0
  O  O27  1  1.28911972  -0.33439801  0.42730608  1.0
  O  O28  1  0.66560199  0.42730608  0.28911972  1.0
  O  O29  1  1.16560199  -0.21088028  -0.07269392  1.0
  O  O30  1  0.52677742  0.80622092  0.05855666  1.0
  O  O31  1  1.02677742  0.55855666  -0.69377908  1.0
  O  O32  1  0.44144334  0.69377908  -0.02677742  1.0
  O  O33  1  0.94144334  -0.52677742  0.19377908  1.0
  O  O34  1  1.19377908  -0.05855666  -0.52677742  1.0
  O  O35  1  0.69377908  0.97322258  -0.55855666  1.0
  O  O36  1  0.47322258  0.19377908  -0.05855666  1.0
  O  O37  1  0.97322258  0.44144334  -0.30622092  1.0
  O  O38  1  1.05855666  0.52677742  -0.19377908  1.0
  O  O39  1  0.55855666  0.30622092  0.02677742  1.0
  O  O40  1  0.30622092  1.02677742  -0.44144334  1.0
  O  O41  1  0.80622092  1.05855666  -0.47322258  1.0
