# generated using pymatgen
data_Mn2PClO4
_symmetry_space_group_name_H-M   'P 1'
_cell_length_a   11.43996153
_cell_length_b   8.17927248
_cell_length_c   4.95685724
_cell_angle_alpha   90.00000000
_cell_angle_beta   90.00000000
_cell_angle_gamma   90.00000000
_symmetry_Int_Tables_number   1
_chemical_formula_structural   Mn2PClO4
_chemical_formula_sum   'Mn8 P4 Cl4 O16'
_cell_volume   463.81592070
_cell_formula_units_Z   4
loop_
 _symmetry_equiv_pos_site_id
 _symmetry_equiv_pos_as_xyz
  1  'x, y, z'
loop_
 _atom_site_type_symbol
 _atom_site_label
 _atom_site_symmetry_multiplicity
 _atom_site_fract_x
 _atom_site_fract_y
 _atom_site_fract_z
 _atom_site_occupancy
  Mn  Mn0  1  0.12300704  0.10567959  0.29974624  1.0
  Mn  Mn1  1  0.62300704  0.39432041  0.29974624  1.0
  Mn  Mn2  1  0.87699296  0.89432041  0.79974624  1.0
  Mn  Mn3  1  0.37699296  0.60567959  0.79974624  1.0
  Mn  Mn4  1  0.37498920  0.15038543  0.79913477  1.0
  Mn  Mn5  1  0.87498920  0.34961457  0.79913477  1.0
  Mn  Mn6  1  0.62501080  0.84961457  0.29913477  1.0
  Mn  Mn7  1  0.12501080  0.65038543  0.29913477  1.0
  P  P8  1  0.33882236  0.37687662  0.34262500  1.0
  P  P9  1  0.83882236  0.12312338  0.34262500  1.0
  P  P10  1  0.66117764  0.62312338  0.84262500  1.0
  P  P11  1  0.16117764  0.87687662  0.84262500  1.0
  Cl  Cl12  1  0.06309277  0.37986155  0.03862411  1.0
  Cl  Cl13  1  0.56309277  0.12013845  0.03862411  1.0
  Cl  Cl14  1  0.93690723  0.62013845  0.53862411  1.0
  Cl  Cl15  1  0.43690723  0.87986155  0.53862411  1.0
  O  O16  1  0.46016041  0.37516116  0.48932343  1.0
  O  O17  1  0.96016041  0.12483884  0.48932343  1.0
  O  O18  1  0.53983959  0.62483884  -0.01067657  1.0
  O  O19  1  0.03983959  0.87516116  -0.01067657  1.0
  O  O20  1  0.34843567  0.37663401  0.03032402  1.0
  O  O21  1  0.84843567  0.12336599  0.03032402  1.0
  O  O22  1  0.65156433  0.62336599  0.53032402  1.0
  O  O23  1  0.15156433  0.87663401  0.53032402  1.0
  O  O24  1  0.27360033  0.22134432  0.44762922  1.0
  O  O25  1  0.77360033  0.27865568  0.44762922  1.0
  O  O26  1  0.72639967  0.77865568  0.94762922  1.0
  O  O27  1  0.22639967  0.72134432  0.94762922  1.0
  O  O28  1  0.22403103  0.03506609  0.94539320  1.0
  O  O29  1  0.72403103  0.46493391  0.94539320  1.0
  O  O30  1  0.77596897  0.96493391  0.44539320  1.0
  O  O31  1  0.27596897  0.53506609  0.44539320  1.0
