# generated using pymatgen
data_ZnGeO3
_symmetry_space_group_name_H-M   'P 1'
_cell_length_a   5.30825918
_cell_length_b   5.30825918
_cell_length_c   5.30825918
_cell_angle_alpha   57.29456550
_cell_angle_beta   57.29456550
_cell_angle_gamma   57.29456550
_symmetry_Int_Tables_number   1
_chemical_formula_structural   ZnGeO3
_chemical_formula_sum   'Zn2 Ge2 O6'
_cell_volume   99.17685686
_cell_formula_units_Z   2
loop_
 _symmetry_equiv_pos_site_id
 _symmetry_equiv_pos_as_xyz
  1  'x, y, z'
loop_
 _atom_site_type_symbol
 _atom_site_label
 _atom_site_symmetry_multiplicity
 _atom_site_fract_x
 _atom_site_fract_y
 _atom_site_fract_z
 _atom_site_occupancy
  Zn  Zn0  1  0.72225922  -0.27774078  -0.27774078  1.0
  Zn  Zn1  1  0.22225922  0.22225922  0.22225922  1.0
  Ge  Ge2  1  0.49870966  0.49870966  -0.50129034  1.0
  Ge  Ge3  1  -0.00129034  -0.00129034  -0.00129034  1.0
  O  O4  1  0.87399174  -0.36569634  0.27333572  1.0
  O  O5  1  0.63430366  0.27333572  -0.12600826  1.0
  O  O6  1  1.27333572  -0.12600826  -0.36569634  1.0
  O  O7  1  0.37399174  0.77333572  -0.86569634  1.0
  O  O8  1  0.77333572  0.13430366  -0.62600826  1.0
  O  O9  1  0.13430366  0.37399174  -0.22666428  1.0
