# generated using pymatgen
data_SrLiPO4
_symmetry_space_group_name_H-M   'P 1'
_cell_length_a   5.05680774
_cell_length_b   5.05680774
_cell_length_c   24.88585644
_cell_angle_alpha   90.00000000
_cell_angle_beta   90.00000000
_cell_angle_gamma   120.00000000
_symmetry_Int_Tables_number   1
_chemical_formula_structural   SrLiPO4
_chemical_formula_sum   'Sr6 Li6 P6 O24'
_cell_volume   551.10722843
_cell_formula_units_Z   6
loop_
 _symmetry_equiv_pos_site_id
 _symmetry_equiv_pos_as_xyz
  1  'x, y, z'
loop_
 _atom_site_type_symbol
 _atom_site_label
 _atom_site_symmetry_multiplicity
 _atom_site_fract_x
 _atom_site_fract_y
 _atom_site_fract_z
 _atom_site_occupancy
  Sr  Sr0  1  0.99955628  0.99066787  0.66614717  1.0
  Sr  Sr1  1  0.99066787  0.99111159  0.49948051  1.0
  Sr  Sr2  1  0.99111159  0.00044372  0.33281384  1.0
  Sr  Sr3  1  0.00933213  0.00888841  -0.00051949  1.0
  Sr  Sr4  1  0.00044372  0.00933213  0.16614717  1.0
  Sr  Sr5  1  0.00888841  0.99955628  0.83281384  1.0
  Li  Li6  1  0.28149321  0.61619600  0.77537208  1.0
  Li  Li7  1  0.61619600  0.33470279  0.60870542  1.0
  Li  Li8  1  0.33470279  0.71850679  0.44203875  1.0
  Li  Li9  1  0.38380400  0.66529721  0.10870542  1.0
  Li  Li10  1  0.71850679  0.38380400  0.27537208  1.0
  Li  Li11  1  0.66529721  0.28149321  0.94203875  1.0
  P  P12  1  0.61354010  0.29771891  0.74270278  1.0
  P  P13  1  0.29771891  0.68417881  0.57603612  1.0
  P  P14  1  0.68417881  0.38645990  0.40936945  1.0
  P  P15  1  0.70228109  0.31582119  0.07603612  1.0
  P  P16  1  0.38645990  0.70228109  0.24270278  1.0
  P  P17  1  0.31582119  0.61354010  0.90936945  1.0
  O  O18  1  0.31292833  0.98028724  0.74794767  1.0
  O  O19  1  0.98028724  0.66735890  0.58128100  1.0
  O  O20  1  0.66735890  0.68707167  0.41461433  1.0
  O  O21  1  0.01971276  0.33264110  0.08128100  1.0
  O  O22  1  0.68707167  0.01971276  0.24794767  1.0
  O  O23  1  0.33264110  0.31292833  0.91461433  1.0
  O  O24  1  0.74589236  0.64303589  0.08329694  1.0
  O  O25  1  0.64303589  0.89714353  0.91663028  1.0
  O  O26  1  0.89714353  0.25410764  0.74996361  1.0
  O  O27  1  0.35696411  0.10285647  0.41663028  1.0
  O  O28  1  0.25410764  0.35696411  0.58329694  1.0
  O  O29  1  0.10285647  0.74589236  0.24996361  1.0
  O  O30  1  0.60322128  0.51363531  0.78616232  1.0
  O  O31  1  0.51363531  0.91041402  0.61949565  1.0
  O  O32  1  0.91041402  0.39677872  0.45282898  1.0
  O  O33  1  0.48636469  0.08958598  0.11949565  1.0
  O  O34  1  0.39677872  0.48636469  0.28616232  1.0
  O  O35  1  0.08958598  0.60322128  0.95282898  1.0
  O  O36  1  0.61884301  0.42926644  0.68573770  1.0
  O  O37  1  0.42926644  0.81042342  0.51907104  1.0
  O  O38  1  0.81042342  0.38115699  0.35240437  1.0
  O  O39  1  0.57073356  0.18957658  0.01907104  1.0
  O  O40  1  0.38115699  0.57073356  0.18573770  1.0
  O  O41  1  0.18957658  0.61884301  0.85240437  1.0
