# generated using pymatgen
data_SrIn2Pd
_symmetry_space_group_name_H-M   'P 1'
_cell_length_a   5.94518185
_cell_length_b   5.94518185
_cell_length_c   8.06519824
_cell_angle_alpha   90.00000000
_cell_angle_beta   90.00000000
_cell_angle_gamma   134.71728398
_symmetry_Int_Tables_number   1
_chemical_formula_structural   SrIn2Pd
_chemical_formula_sum   'Sr2 In4 Pd2'
_cell_volume   202.56422459
_cell_formula_units_Z   2
loop_
 _symmetry_equiv_pos_site_id
 _symmetry_equiv_pos_as_xyz
  1  'x, y, z'
loop_
 _atom_site_type_symbol
 _atom_site_label
 _atom_site_symmetry_multiplicity
 _atom_site_fract_x
 _atom_site_fract_y
 _atom_site_fract_z
 _atom_site_occupancy
  Sr  Sr0  1  0.43926153  0.56073847  0.75000000  1.0
  Sr  Sr1  1  -0.43926153  0.43926153  0.25000000  1.0
  In  In2  1  0.15199634  0.84800366  0.94587123  1.0
  In  In3  1  0.15199634  0.84800366  0.55412877  1.0
  In  In4  1  -0.15199634  0.15199634  0.44587123  1.0
  In  In5  1  -0.15199634  0.15199634  0.05412877  1.0
  Pd  Pd6  1  -0.28008596  0.28008596  0.75000000  1.0
  Pd  Pd7  1  0.28008596  0.71991404  0.25000000  1.0
