# generated using pymatgen
data_K2Na4Fe2O5
_symmetry_space_group_name_H-M   'P 1'
_cell_length_a   6.47380048
_cell_length_b   6.47380048
_cell_length_c   10.44247011
_cell_angle_alpha   90.00000000
_cell_angle_beta   90.00000000
_cell_angle_gamma   90.00000000
_symmetry_Int_Tables_number   1
_chemical_formula_structural   K2Na4Fe2O5
_chemical_formula_sum   'K4 Na8 Fe4 O10'
_cell_volume   437.64488910
_cell_formula_units_Z   2
loop_
 _symmetry_equiv_pos_site_id
 _symmetry_equiv_pos_as_xyz
  1  'x, y, z'
loop_
 _atom_site_type_symbol
 _atom_site_label
 _atom_site_symmetry_multiplicity
 _atom_site_fract_x
 _atom_site_fract_y
 _atom_site_fract_z
 _atom_site_occupancy
  K  K0  1  0.19228714  0.19228714  0.50000000  1.0
  K  K1  1  0.69228714  0.30771286  0.00000000  1.0
  K  K2  1  0.80771286  0.80771286  0.50000000  1.0
  K  K3  1  0.30771286  0.69228714  0.00000000  1.0
  Na  Na4  1  0.50000000  0.50000000  0.27710671  1.0
  Na  Na5  1  0.50000000  0.50000000  0.72289329  1.0
  Na  Na6  1  0.00000000  0.00000000  0.77710671  1.0
  Na  Na7  1  0.00000000  0.00000000  0.22289329  1.0
  Na  Na8  1  0.50000000  0.00000000  0.25000000  1.0
  Na  Na9  1  0.50000000  0.00000000  0.75000000  1.0
  Na  Na10  1  0.00000000  0.50000000  0.75000000  1.0
  Na  Na11  1  0.00000000  0.50000000  0.25000000  1.0
  Fe  Fe12  1  0.29049731  0.70950269  0.50000000  1.0
  Fe  Fe13  1  0.79049731  0.79049731  0.00000000  1.0
  Fe  Fe14  1  0.70950269  0.29049731  0.50000000  1.0
  Fe  Fe15  1  0.20950269  0.20950269  0.00000000  1.0
  O  O16  1  0.21254861  0.78745139  0.33798362  1.0
  O  O17  1  0.21254861  0.78745139  0.66201638  1.0
  O  O18  1  0.71254861  0.71254861  0.83798362  1.0
  O  O19  1  0.71254861  0.71254861  0.16201638  1.0
  O  O20  1  0.78745139  0.21254861  0.33798362  1.0
  O  O21  1  0.78745139  0.21254861  0.66201638  1.0
  O  O22  1  0.28745139  0.28745139  0.83798362  1.0
  O  O23  1  0.28745139  0.28745139  0.16201638  1.0
  O  O24  1  0.50000000  0.50000000  0.50000000  1.0
  O  O25  1  0.00000000  0.00000000  0.00000000  1.0
