# generated using pymatgen
data_LiC12
_symmetry_space_group_name_H-M   'P 1'
_cell_length_a   5.77029027
_cell_length_b   5.77029027
_cell_length_c   5.77029027
_cell_angle_alpha   136.26899936
_cell_angle_beta   99.67075416
_cell_angle_gamma   96.28191402
_symmetry_Int_Tables_number   1
_chemical_formula_structural   LiC12
_chemical_formula_sum   'Li1 C12'
_cell_volume   123.18791404
_cell_formula_units_Z   1
loop_
 _symmetry_equiv_pos_site_id
 _symmetry_equiv_pos_as_xyz
  1  'x, y, z'
loop_
 _atom_site_type_symbol
 _atom_site_label
 _atom_site_symmetry_multiplicity
 _atom_site_fract_x
 _atom_site_fract_y
 _atom_site_fract_z
 _atom_site_occupancy
  Li  Li0  1  0.50000000  1.00000000  0.50000000  1.0
  C  C1  1  1.08334483  0.58335448  1.16672067  1.0
  C  C2  1  0.41663381  0.91662416  0.83327933  1.0
  C  C3  1  0.91665517  1.08337584  0.50000964  1.0
  C  C4  1  1.58336619  1.41664552  1.49999036  1.0
  C  C5  1  0.91665517  1.41664552  0.83327933  1.0
  C  C6  1  1.58336619  1.08337584  1.16672067  1.0
  C  C7  1  1.08334483  0.91662416  1.49999036  1.0
  C  C8  1  0.41663381  0.58335448  0.50000964  1.0
  C  C9  1  0.25078963  0.41754969  0.16676006  1.0
  C  C10  1  0.25078963  1.08402956  0.83323994  1.0
  C  C11  1  0.74921037  0.91597044  0.16676006  1.0
  C  C12  1  0.74921037  1.58245031  0.83323994  1.0
