# generated using pymatgen
data_BaPtF6
_symmetry_space_group_name_H-M   'P 1'
_cell_length_a   5.04574815
_cell_length_b   5.04574815
_cell_length_c   5.04574815
_cell_angle_alpha   98.30847096
_cell_angle_beta   98.30847096
_cell_angle_gamma   98.30847096
_symmetry_Int_Tables_number   1
_chemical_formula_structural   BaPtF6
_chemical_formula_sum   'Ba1 Pt1 F6'
_cell_volume   123.97289056
_cell_formula_units_Z   1
loop_
 _symmetry_equiv_pos_site_id
 _symmetry_equiv_pos_as_xyz
  1  'x, y, z'
loop_
 _atom_site_type_symbol
 _atom_site_label
 _atom_site_symmetry_multiplicity
 _atom_site_fract_x
 _atom_site_fract_y
 _atom_site_fract_z
 _atom_site_occupancy
  Ba  Ba0  1  0.50000000  0.50000000  0.50000000  1.0
  Pt  Pt1  1  0.00000000  0.00000000  0.00000000  1.0
  F  F2  1  1.28293153  0.28293153  -0.06500826  1.0
  F  F3  1  1.28293153  -0.06500826  0.28293153  1.0
  F  F4  1  1.06500826  0.71706847  -0.28293153  1.0
  F  F5  1  0.71706847  1.06500826  -0.28293153  1.0
  F  F6  1  0.71706847  0.71706847  0.06500826  1.0
  F  F7  1  0.93499174  0.28293153  0.28293153  1.0
