# generated using pymatgen
data_Sb8Te3
_symmetry_space_group_name_H-M   'P 1'
_cell_length_a   21.80390575
_cell_length_b   21.80390575
_cell_length_c   21.80390575
_cell_angle_alpha   11.49548258
_cell_angle_beta   11.49548258
_cell_angle_gamma   11.49548258
_symmetry_Int_Tables_number   1
_chemical_formula_structural   Sb8Te3
_chemical_formula_sum   'Sb8 Te3'
_cell_volume   357.73532459
_cell_formula_units_Z   1
loop_
 _symmetry_equiv_pos_site_id
 _symmetry_equiv_pos_as_xyz
  1  'x, y, z'
loop_
 _atom_site_type_symbol
 _atom_site_label
 _atom_site_symmetry_multiplicity
 _atom_site_fract_x
 _atom_site_fract_y
 _atom_site_fract_z
 _atom_site_occupancy
  Sb  Sb0  1  0.90494385  0.90494385  0.90494385  1.0
  Sb  Sb1  1  1.09505615  1.09505615  0.09505615  1.0
  Sb  Sb2  1  0.82156273  0.82156273  0.82156273  1.0
  Sb  Sb3  1  1.17843727  1.17843727  0.17843727  1.0
  Sb  Sb4  1  1.63642175  0.63642175  0.63642175  1.0
  Sb  Sb5  1  1.36357825  0.36357825  0.36357825  1.0
  Sb  Sb6  1  1.54796215  0.54796215  0.54796215  1.0
  Sb  Sb7  1  1.45203785  0.45203785  0.45203785  1.0
  Te  Te8  1  0.72309550  0.72309550  0.72309550  1.0
  Te  Te9  1  1.27690450  1.27690450  0.27690450  1.0
  Te  Te10  1  0.00000000  0.00000000  0.00000000  1.0
