# generated using pymatgen
data_BaGaBO3F2
_symmetry_space_group_name_H-M   'P 1'
_cell_length_a   4.93803961
_cell_length_b   4.93803961
_cell_length_c   9.83431677
_cell_angle_alpha   90.00000000
_cell_angle_beta   90.00000000
_cell_angle_gamma   120.00000000
_symmetry_Int_Tables_number   1
_chemical_formula_structural   BaGaBO3F2
_chemical_formula_sum   'Ba2 Ga2 B2 O6 F4'
_cell_volume   207.67487724
_cell_formula_units_Z   2
loop_
 _symmetry_equiv_pos_site_id
 _symmetry_equiv_pos_as_xyz
  1  'x, y, z'
loop_
 _atom_site_type_symbol
 _atom_site_label
 _atom_site_symmetry_multiplicity
 _atom_site_fract_x
 _atom_site_fract_y
 _atom_site_fract_z
 _atom_site_occupancy
  Ba  Ba0  1  -0.00000000  -0.00000000  0.50000000  1.0
  Ba  Ba1  1  0.00000000  0.00000000  0.00000000  1.0
  Ga  Ga2  1  0.33333333  0.66666667  0.25000000  1.0
  Ga  Ga3  1  0.66666667  0.33333333  0.75000000  1.0
  B  B4  1  0.66666667  0.33333333  0.25000000  1.0
  B  B5  1  0.33333333  0.66666667  0.75000000  1.0
  O  O6  1  0.69070171  0.62423036  0.25000000  1.0
  O  O7  1  0.62423036  0.93352865  0.75000000  1.0
  O  O8  1  0.93352865  0.30929829  0.25000000  1.0
  O  O9  1  0.37576964  0.06647135  0.25000000  1.0
  O  O10  1  0.30929829  0.37576964  0.75000000  1.0
  O  O11  1  0.06647135  0.69070171  0.75000000  1.0
  F  F12  1  0.33333333  0.66666667  0.45270247  1.0
  F  F13  1  0.33333333  0.66666667  0.04729753  1.0
  F  F14  1  0.66666667  0.33333333  0.95270247  1.0
  F  F15  1  0.66666667  0.33333333  0.54729753  1.0
