# generated using pymatgen
data_Rb2AgPS4
_symmetry_space_group_name_H-M   'P 1'
_cell_length_a   11.52483545
_cell_length_b   7.02973528
_cell_length_c   6.75542571
_cell_angle_alpha   68.05648537
_cell_angle_beta   70.89258796
_cell_angle_gamma   70.22478923
_symmetry_Int_Tables_number   1
_chemical_formula_structural   Rb2AgPS4
_chemical_formula_sum   'Rb4 Ag2 P2 S8'
_cell_volume   464.88625757
_cell_formula_units_Z   2
loop_
 _symmetry_equiv_pos_site_id
 _symmetry_equiv_pos_as_xyz
  1  'x, y, z'
loop_
 _atom_site_type_symbol
 _atom_site_label
 _atom_site_symmetry_multiplicity
 _atom_site_fract_x
 _atom_site_fract_y
 _atom_site_fract_z
 _atom_site_occupancy
  Rb  Rb0  1  0.09810817  -0.72831570  0.75429326  1.0
  Rb  Rb1  1  0.90189183  -0.27168430  -0.75429326  1.0
  Rb  Rb2  1  0.68456469  -0.95476793  -0.24526494  1.0
  Rb  Rb3  1  0.31543531  -0.04523207  0.24526494  1.0
  Ag  Ag4  1  0.41010652  -0.61476846  0.36860259  1.0
  Ag  Ag5  1  0.58989348  -0.38523154  -0.36860259  1.0
  P  P6  1  0.73118769  -0.62915688  0.13473794  1.0
  P  P7  1  0.26881231  -0.37084312  -0.13473794  1.0
  S  S8  1  0.89343982  -0.76483917  -0.75197526  1.0
  S  S9  1  0.10656018  -0.23516083  0.75197526  1.0
  S  S10  1  0.77923510  -0.54573257  -0.20874338  1.0
  S  S11  1  0.22076490  -0.45426743  0.20874338  1.0
  S  S12  1  0.62423488  -0.85098815  0.25556331  1.0
  S  S13  1  0.37576512  -0.14901185  -0.25556331  1.0
  S  S14  1  0.62759448  -0.35749265  0.22592906  1.0
  S  S15  1  0.37240552  -0.64250735  -0.22592906  1.0
