# generated using pymatgen
data_MgV2O6
_symmetry_space_group_name_H-M   'P 1'
_cell_length_a   5.34271597
_cell_length_b   5.34271597
_cell_length_c   7.09011476
_cell_angle_alpha   84.18449836
_cell_angle_beta   95.81550164
_cell_angle_gamma   142.20852755
_symmetry_Int_Tables_number   1
_chemical_formula_structural   MgV2O6
_chemical_formula_sum   'Mg1 V2 O6'
_cell_volume   123.30585358
_cell_formula_units_Z   1
loop_
 _symmetry_equiv_pos_site_id
 _symmetry_equiv_pos_as_xyz
  1  'x, y, z'
loop_
 _atom_site_type_symbol
 _atom_site_label
 _atom_site_symmetry_multiplicity
 _atom_site_fract_x
 _atom_site_fract_y
 _atom_site_fract_z
 _atom_site_occupancy
  Mg  Mg0  1  0.50000000  0.50000000  0.00000000  1.0
  V  V1  1  0.76526263  0.23473737  0.69228875  1.0
  V  V2  1  0.23473737  -0.23473737  0.30771125  1.0
  O  O3  1  0.62770600  0.37229400  0.79487963  1.0
  O  O4  1  0.37229400  -0.37229400  0.20512037  1.0
  O  O5  1  0.71261022  0.28738978  0.39658378  1.0
  O  O6  1  0.28738978  -0.28738978  0.60341622  1.0
  O  O7  1  0.89460221  0.10539779  0.86483304  1.0
  O  O8  1  0.10539779  -0.10539779  0.13516696  1.0
