# generated using pymatgen
data_Ta12SiNi4
_symmetry_space_group_name_H-M   'P 1'
_cell_length_a   10.09774259
_cell_length_b   10.09774259
_cell_length_c   10.09774259
_cell_angle_alpha   60.00000000
_cell_angle_beta   60.00000000
_cell_angle_gamma   60.00000000
_symmetry_Int_Tables_number   1
_chemical_formula_structural   Ta12SiNi4
_chemical_formula_sum   'Ta24 Si2 Ni8'
_cell_volume   728.04443915
_cell_formula_units_Z   2
loop_
 _symmetry_equiv_pos_site_id
 _symmetry_equiv_pos_as_xyz
  1  'x, y, z'
loop_
 _atom_site_type_symbol
 _atom_site_label
 _atom_site_symmetry_multiplicity
 _atom_site_fract_x
 _atom_site_fract_y
 _atom_site_fract_z
 _atom_site_occupancy
  Ta  Ta0  1  0.95159408  -0.58723045  0.68404229  1.0
  Ta  Ta1  1  -0.04840592  0.68404229  0.41276955  1.0
  Ta  Ta2  1  -0.16276955  0.29840592  0.29840592  1.0
  Ta  Ta3  1  0.56595771  0.29840592  0.29840592  1.0
  Ta  Ta4  1  -0.58723045  0.95159408  0.68404229  1.0
  Ta  Ta5  1  0.95159408  -0.04840592  0.68404229  1.0
  Ta  Ta6  1  0.95159408  -0.31595771  0.95159408  1.0
  Ta  Ta7  1  -0.58723045  0.68404229  0.95159408  1.0
  Ta  Ta8  1  0.29840592  -0.16276955  0.29840592  1.0
  Ta  Ta9  1  0.29840592  0.29840592  -0.16276955  1.0
  Ta  Ta10  1  0.56595771  0.29840592  -0.16276955  1.0
  Ta  Ta11  1  0.56595771  -0.16276955  0.29840592  1.0
  Ta  Ta12  1  0.68404229  -0.04840592  0.95159408  1.0
  Ta  Ta13  1  -0.58723045  0.95159408  0.95159408  1.0
  Ta  Ta14  1  0.29840592  0.56595771  -0.16276955  1.0
  Ta  Ta15  1  0.29840592  -0.16276955  0.56595771  1.0
  Ta  Ta16  1  -0.31595771  0.95159408  0.41276955  1.0
  Ta  Ta17  1  0.68404229  -0.58723045  0.95159408  1.0
  Ta  Ta18  1  0.95159408  -0.58723045  0.95159408  1.0
  Ta  Ta19  1  -0.04840592  0.95159408  0.41276955  1.0
  Ta  Ta20  1  0.29840592  0.56595771  0.29840592  1.0
  Ta  Ta21  1  -0.16276955  0.56595771  0.29840592  1.0
  Ta  Ta22  1  -0.16276955  0.29840592  0.56595771  1.0
  Ta  Ta23  1  0.29840592  0.29840592  0.56595771  1.0
  Si  Si24  1  0.50000000  0.50000000  -0.50000000  1.0
  Si  Si25  1  0.75000000  -0.25000000  0.75000000  1.0
  Ni  Ni26  1  0.66627320  -0.33372680  1.00118039  1.0
  Ni  Ni27  1  0.66627320  0.00118039  0.66627320  1.0
  Ni  Ni28  1  0.58372680  -0.41627320  0.58372680  1.0
  Ni  Ni29  1  1.24881961  -0.41627320  0.58372680  1.0
  Ni  Ni30  1  1.00118039  -0.33372680  0.66627320  1.0
  Ni  Ni31  1  0.66627320  -0.33372680  0.66627320  1.0
  Ni  Ni32  1  0.58372680  0.24881961  0.58372680  1.0
  Ni  Ni33  1  0.58372680  -0.41627320  1.24881961  1.0
