# generated using pymatgen
data_CsAsSe2
_symmetry_space_group_name_H-M   'P 1'
_cell_length_a   6.89273243
_cell_length_b   9.99650075
_cell_length_c   17.30716050
_cell_angle_alpha   90.00000000
_cell_angle_beta   90.00000000
_cell_angle_gamma   90.00000000
_symmetry_Int_Tables_number   1
_chemical_formula_structural   CsAsSe2
_chemical_formula_sum   'Cs8 As8 Se16'
_cell_volume   1192.51882707
_cell_formula_units_Z   8
loop_
 _symmetry_equiv_pos_site_id
 _symmetry_equiv_pos_as_xyz
  1  'x, y, z'
loop_
 _atom_site_type_symbol
 _atom_site_label
 _atom_site_symmetry_multiplicity
 _atom_site_fract_x
 _atom_site_fract_y
 _atom_site_fract_z
 _atom_site_occupancy
  Cs  Cs0  1  0.35357858  0.79724667  0.91877226  1.0
  Cs  Cs1  1  0.35357858  0.70275333  0.41877226  1.0
  Cs  Cs2  1  0.85357858  0.79724667  0.58122774  1.0
  Cs  Cs3  1  0.85357858  0.70275333  0.08122774  1.0
  Cs  Cs4  1  0.64642142  0.29724667  0.58122774  1.0
  Cs  Cs5  1  0.64642142  0.20275333  0.08122774  1.0
  Cs  Cs6  1  0.14642142  0.29724667  0.91877226  1.0
  Cs  Cs7  1  0.14642142  0.20275333  0.41877226  1.0
  As  As8  1  0.26929370  0.96281755  0.70868660  1.0
  As  As9  1  0.26929370  0.53718245  0.20868660  1.0
  As  As10  1  0.76929370  0.96281755  0.79131340  1.0
  As  As11  1  0.76929370  0.53718245  0.29131340  1.0
  As  As12  1  0.73070630  0.46281755  0.79131340  1.0
  As  As13  1  0.73070630  0.03718245  0.29131340  1.0
  As  As14  1  0.23070630  0.46281755  0.70868660  1.0
  As  As15  1  0.23070630  0.03718245  0.20868660  1.0
  Se  Se16  1  0.35609603  0.97669169  0.57781460  1.0
  Se  Se17  1  0.35609603  0.52330831  0.07781460  1.0
  Se  Se18  1  0.85609603  0.97669169  0.92218540  1.0
  Se  Se19  1  0.85609603  0.52330831  0.42218540  1.0
  Se  Se20  1  0.64390397  0.47669169  0.92218540  1.0
  Se  Se21  1  0.64390397  0.02330831  0.42218540  1.0
  Se  Se22  1  0.14390397  0.47669169  0.57781460  1.0
  Se  Se23  1  0.14390397  0.02330831  0.07781460  1.0
  Se  Se24  1  0.01155561  0.61744800  0.78024941  1.0
  Se  Se25  1  0.01155561  0.88255200  0.28024941  1.0
  Se  Se26  1  0.51155561  0.61744800  0.71975059  1.0
  Se  Se27  1  0.51155561  0.88255200  0.21975059  1.0
  Se  Se28  1  0.98844439  0.11744800  0.71975059  1.0
  Se  Se29  1  0.98844439  0.38255200  0.21975059  1.0
  Se  Se30  1  0.48844439  0.11744800  0.78024941  1.0
  Se  Se31  1  0.48844439  0.38255200  0.28024941  1.0
