# generated using pymatgen
data_Ni(Te4Mo3)2
_symmetry_space_group_name_H-M   'P 1'
_cell_length_a   7.10153277
_cell_length_b   7.13237126
_cell_length_c   7.19319582
_cell_angle_alpha   87.38406460
_cell_angle_beta   98.63487488
_cell_angle_gamma   92.35033634
_symmetry_Int_Tables_number   1
_chemical_formula_structural   Ni(Te4Mo3)2
_chemical_formula_sum   'Ni1 Te8 Mo6'
_cell_volume   359.62051772
_cell_formula_units_Z   1
loop_
 _symmetry_equiv_pos_site_id
 _symmetry_equiv_pos_as_xyz
  1  'x, y, z'
loop_
 _atom_site_type_symbol
 _atom_site_label
 _atom_site_symmetry_multiplicity
 _atom_site_fract_x
 _atom_site_fract_y
 _atom_site_fract_z
 _atom_site_occupancy
  Ni  Ni0  1  0.00000000  0.00000000  0.00000000  1.0
  Te  Te1  1  0.72775547  0.38517553  0.14357928  1.0
  Te  Te2  1  0.27224453  0.61482447  0.85642072  1.0
  Te  Te3  1  0.19014436  0.23241385  0.20836831  1.0
  Te  Te4  1  0.80985564  0.76758615  0.79163169  1.0
  Te  Te5  1  0.10431337  0.75590049  0.33624627  1.0
  Te  Te6  1  0.89568663  0.24409951  0.66375373  1.0
  Te  Te7  1  0.39071527  0.10168096  0.75007981  1.0
  Te  Te8  1  0.60928473  0.89831904  0.24992019  1.0
  Mo  Mo9  1  0.40718134  0.55918103  0.24368878  1.0
  Mo  Mo10  1  0.59281866  0.44081897  0.75631122  1.0
  Mo  Mo11  1  0.54350904  0.24296630  0.43273556  1.0
  Mo  Mo12  1  0.45649096  0.75703370  0.56726444  1.0
  Mo  Mo13  1  0.24289582  0.41653580  0.54008855  1.0
  Mo  Mo14  1  0.75710418  0.58346420  0.45991145  1.0
