# generated using pymatgen
data_Br
_symmetry_space_group_name_H-M   'P 1'
_cell_length_a   4.67895047
_cell_length_b   4.67895047
_cell_length_c   8.72595369
_cell_angle_alpha   90.00000000
_cell_angle_beta   90.00000000
_cell_angle_gamma   53.93912957
_symmetry_Int_Tables_number   1
_chemical_formula_structural   Br
_chemical_formula_sum   Br4
_cell_volume   154.43006322
_cell_formula_units_Z   4
loop_
 _symmetry_equiv_pos_site_id
 _symmetry_equiv_pos_as_xyz
  1  'x, y, z'
loop_
 _atom_site_type_symbol
 _atom_site_label
 _atom_site_symmetry_multiplicity
 _atom_site_fract_x
 _atom_site_fract_y
 _atom_site_fract_z
 _atom_site_occupancy
  Br  Br0  1  -0.14236237  0.14236237  0.61876913  1.0
  Br  Br1  1  -0.85763763  0.85763763  0.38123087  1.0
  Br  Br2  1  -0.35763763  0.35763763  0.11876913  1.0
  Br  Br3  1  -0.64236237  0.64236237  0.88123087  1.0
