# generated using pymatgen
data_Fe12As5
_symmetry_space_group_name_H-M   'P 1'
_cell_length_a   6.65738853
_cell_length_b   6.65738853
_cell_length_c   6.65738853
_cell_angle_alpha   61.08445571
_cell_angle_beta   61.08445571
_cell_angle_gamma   61.08445571
_symmetry_Int_Tables_number   1
_chemical_formula_structural   Fe12As5
_chemical_formula_sum   'Fe12 As5'
_cell_volume   213.73315169
_cell_formula_units_Z   1
loop_
 _symmetry_equiv_pos_site_id
 _symmetry_equiv_pos_as_xyz
  1  'x, y, z'
loop_
 _atom_site_type_symbol
 _atom_site_label
 _atom_site_symmetry_multiplicity
 _atom_site_fract_x
 _atom_site_fract_y
 _atom_site_fract_z
 _atom_site_occupancy
  Fe  Fe0  1  1.14589815  1.14589815  0.14589815  1.0
  Fe  Fe1  1  0.64595252  0.88258445  -0.59077843  1.0
  Fe  Fe2  1  0.88258445  0.40922157  -0.35404748  1.0
  Fe  Fe3  1  0.40922157  0.64595252  -0.11741555  1.0
  Fe  Fe4  1  0.15069914  0.65887353  -0.62953360  1.0
  Fe  Fe5  1  0.65887353  0.37046640  -0.84930086  1.0
  Fe  Fe6  1  0.37046640  0.15069914  -0.34112647  1.0
  Fe  Fe7  1  1.14109452  -0.07860964  -0.36708754  1.0
  Fe  Fe8  1  0.92139036  -0.36708754  0.14109452  1.0
  Fe  Fe9  1  0.63291246  0.14109452  -0.07860964  1.0
  Fe  Fe10  1  0.52876399  0.52876399  -0.47123601  1.0
  Fe  Fe11  1  0.76309281  0.76309281  -0.23690719  1.0
  As  As12  1  0.00217448  0.00217448  0.00217448  1.0
  As  As13  1  1.28963508  1.28963508  0.28963508  1.0
  As  As14  1  0.79992277  0.14594246  -0.50812469  1.0
  As  As15  1  1.14594246  -0.50812469  -0.20007723  1.0
  As  As16  1  0.49187531  -0.20007723  0.14594246  1.0
