# generated using pymatgen
data_Zn3(PS4)2
_symmetry_space_group_name_H-M   'P 1'
_cell_length_a   7.91672712
_cell_length_b   7.91672712
_cell_length_c   9.19105114
_cell_angle_alpha   90.00000000
_cell_angle_beta   90.00000000
_cell_angle_gamma   90.00000000
_symmetry_Int_Tables_number   1
_chemical_formula_structural   Zn3(PS4)2
_chemical_formula_sum   'Zn6 P4 S16'
_cell_volume   576.04516262
_cell_formula_units_Z   2
loop_
 _symmetry_equiv_pos_site_id
 _symmetry_equiv_pos_as_xyz
  1  'x, y, z'
loop_
 _atom_site_type_symbol
 _atom_site_label
 _atom_site_symmetry_multiplicity
 _atom_site_fract_x
 _atom_site_fract_y
 _atom_site_fract_z
 _atom_site_occupancy
  Zn  Zn0  1  0.00000000  0.50000000  0.51558639  1.0
  Zn  Zn1  1  0.50000000  0.00000000  0.01558639  1.0
  Zn  Zn2  1  0.50000000  0.00000000  0.48441361  1.0
  Zn  Zn3  1  0.00000000  0.50000000  0.98441361  1.0
  Zn  Zn4  1  0.50000000  0.50000000  0.50000000  1.0
  Zn  Zn5  1  0.00000000  0.00000000  0.00000000  1.0
  P  P6  1  0.24214986  0.25785014  0.75000000  1.0
  P  P7  1  0.25785014  0.75785014  0.25000000  1.0
  P  P8  1  0.74214986  0.24214986  0.25000000  1.0
  P  P9  1  0.75785014  0.74214986  0.75000000  1.0
  S  S10  1  0.26313341  0.46735466  0.87601234  1.0
  S  S11  1  0.23686659  0.96735466  0.37601234  1.0
  S  S12  1  0.53264534  0.26313341  0.12398766  1.0
  S  S13  1  0.96735466  0.76313341  0.62398766  1.0
  S  S14  1  0.73686659  0.53264534  0.87601234  1.0
  S  S15  1  0.76313341  0.03264534  0.37601234  1.0
  S  S16  1  0.46735466  0.73686659  0.12398766  1.0
  S  S17  1  0.03264534  0.23686659  0.62398766  1.0
  S  S18  1  0.47646416  0.24887738  0.63901338  1.0
  S  S19  1  0.02353584  0.74887738  0.13901338  1.0
  S  S20  1  0.75112262  0.47646416  0.36098662  1.0
  S  S21  1  0.74887738  0.97646416  0.86098662  1.0
  S  S22  1  0.52353584  0.75112262  0.63901338  1.0
  S  S23  1  0.97646416  0.25112262  0.13901338  1.0
  S  S24  1  0.24887738  0.52353584  0.36098662  1.0
  S  S25  1  0.25112262  0.02353584  0.86098662  1.0
