# generated using pymatgen
data_BaC2(SN)2
_symmetry_space_group_name_H-M   'P 1'
_cell_length_a   6.36329589
_cell_length_b   6.36329589
_cell_length_c   8.71060908
_cell_angle_alpha   91.71109888
_cell_angle_beta   88.28890112
_cell_angle_gamma   114.78259161
_symmetry_Int_Tables_number   1
_chemical_formula_structural   BaC2(SN)2
_chemical_formula_sum   'Ba2 C4 S4 N4'
_cell_volume   320.02218720
_cell_formula_units_Z   2
loop_
 _symmetry_equiv_pos_site_id
 _symmetry_equiv_pos_as_xyz
  1  'x, y, z'
loop_
 _atom_site_type_symbol
 _atom_site_label
 _atom_site_symmetry_multiplicity
 _atom_site_fract_x
 _atom_site_fract_y
 _atom_site_fract_z
 _atom_site_occupancy
  Ba  Ba0  1  0.89579539  -0.10420461  0.25000000  1.0
  Ba  Ba1  1  1.10420461  0.10420461  0.75000000  1.0
  C  C2  1  1.47404133  0.23306422  0.39185053  1.0
  C  C3  1  0.76693578  -0.47404133  0.89185053  1.0
  C  C4  1  1.23306422  0.47404133  0.10814947  1.0
  C  C5  1  0.52595867  -0.23306422  0.60814947  1.0
  S  S6  1  0.33740180  -0.26216110  0.17851247  1.0
  S  S7  1  1.26216110  0.66259820  0.67851247  1.0
  S  S8  1  0.73783890  -0.66259820  0.32148753  1.0
  S  S9  1  1.66259820  0.26216110  0.82148753  1.0
  N  N10  1  1.28106641  0.15454361  0.44173435  1.0
  N  N11  1  0.84545639  -0.28106641  0.94173435  1.0
  N  N12  1  1.15454361  0.28106641  0.05826565  1.0
  N  N13  1  0.71893359  -0.15454361  0.55826565  1.0
