# generated using pymatgen
data_Sr3CdPtO6
_symmetry_space_group_name_H-M   'P 1'
_cell_length_a   6.84887486
_cell_length_b   6.84887486
_cell_length_c   6.84887486
_cell_angle_alpha   90.20692387
_cell_angle_beta   90.20692387
_cell_angle_gamma   90.20692386
_symmetry_Int_Tables_number   1
_chemical_formula_structural   Sr3CdPtO6
_chemical_formula_sum   'Sr6 Cd2 Pt2 O12'
_cell_volume   321.25446747
_cell_formula_units_Z   2
loop_
 _symmetry_equiv_pos_site_id
 _symmetry_equiv_pos_as_xyz
  1  'x, y, z'
loop_
 _atom_site_type_symbol
 _atom_site_label
 _atom_site_symmetry_multiplicity
 _atom_site_fract_x
 _atom_site_fract_y
 _atom_site_fract_z
 _atom_site_occupancy
  Sr  Sr0  1  0.88717241  1.25000000  -0.38717241  1.0
  Sr  Sr1  1  1.38717241  0.11282759  -0.25000000  1.0
  Sr  Sr2  1  0.75000000  0.38717241  0.11282759  1.0
  Sr  Sr3  1  1.25000000  0.61282759  -0.11282759  1.0
  Sr  Sr4  1  1.11282759  -0.25000000  0.38717241  1.0
  Sr  Sr5  1  0.61282759  0.88717241  0.25000000  1.0
  Cd  Cd6  1  0.25000000  0.25000000  0.25000000  1.0
  Cd  Cd7  1  0.75000000  0.75000000  0.75000000  1.0
  Pt  Pt8  1  0.50000000  0.50000000  0.50000000  1.0
  Pt  Pt9  1  -0.00000000  0.00000000  0.00000000  1.0
  O  O10  1  1.21550741  0.41755387  -0.44856149  1.0
  O  O11  1  0.71550741  1.05143851  -0.08244613  1.0
  O  O12  1  0.94856149  0.08244613  0.28449259  1.0
  O  O13  1  1.44856149  -0.21550741  0.58244613  1.0
  O  O14  1  1.58244613  0.44856149  -0.21550741  1.0
  O  O15  1  1.08244613  0.28449259  -0.05143851  1.0
  O  O16  1  0.78449259  0.58244613  0.44856149  1.0
  O  O17  1  1.28449259  -0.05143851  0.08244613  1.0
  O  O18  1  0.55143851  1.21550741  -0.58244613  1.0
  O  O19  1  1.05143851  0.91755387  -0.28449259  1.0
  O  O20  1  0.91755387  0.71550741  0.05143851  1.0
  O  O21  1  0.41755387  0.55143851  0.21550741  1.0
