# generated using pymatgen
data_Ti(PO4)3
_symmetry_space_group_name_H-M   'P 1'
_cell_length_a   9.60018622
_cell_length_b   9.60018622
_cell_length_c   9.60018622
_cell_angle_alpha   48.08770517
_cell_angle_beta   48.08770517
_cell_angle_gamma   48.08770517
_symmetry_Int_Tables_number   1
_chemical_formula_structural   Ti(PO4)3
_chemical_formula_sum   'Ti2 P6 O24'
_cell_volume   448.97500303
_cell_formula_units_Z   2
loop_
 _symmetry_equiv_pos_site_id
 _symmetry_equiv_pos_as_xyz
  1  'x, y, z'
loop_
 _atom_site_type_symbol
 _atom_site_label
 _atom_site_symmetry_multiplicity
 _atom_site_fract_x
 _atom_site_fract_y
 _atom_site_fract_z
 _atom_site_occupancy
  Ti  Ti0  1  -0.00042590  -0.00042590  -0.00042590  1.0
  Ti  Ti1  1  0.49957410  0.49957410  -0.50042590  1.0
  O  O2  1  0.57320881  0.73066147  -0.67002781  1.0
  O  O3  1  0.07320881  0.82997219  -0.76933853  1.0
  O  O4  1  0.82997219  0.23066147  -0.92679119  1.0
  O  O5  1  0.32997219  0.57320881  -0.26933853  1.0
  O  O6  1  0.23066147  0.07320881  -0.17002781  1.0
  O  O7  1  0.73066147  0.32997219  -0.42679119  1.0
  O  O8  1  1.08058629  -0.52721563  0.09542813  1.0
  O  O9  1  0.58058629  -0.40457187  -0.02721563  1.0
  O  O10  1  0.59542813  -0.02721563  -0.41941371  1.0
  O  O11  1  1.09542813  0.08058629  -0.52721563  1.0
  O  O12  1  0.97278437  -0.41941371  -0.40457187  1.0
  O  O13  1  0.47278437  0.09542813  0.08058629  1.0
  O  O14  1  0.91858340  -0.47371640  -0.09618413  1.0
  O  O15  1  0.41858340  0.40381587  0.02628360  1.0
  O  O16  1  0.40381587  1.02628360  -0.58141660  1.0
  O  O17  1  0.90381587  -0.08141660  -0.47371640  1.0
  O  O18  1  1.02628360  0.41858340  -0.59618413  1.0
  O  O19  1  0.52628360  -0.09618413  -0.08141660  1.0
  O  O20  1  0.76850560  -0.07404430  0.16912416  1.0
  O  O21  1  0.26850560  0.66912416  -0.57404430  1.0
  O  O22  1  0.66912416  0.42595570  -0.73149440  1.0
  O  O23  1  1.16912416  -0.23149440  -0.07404430  1.0
  O  O24  1  0.42595570  0.26850560  -0.33087584  1.0
  O  O25  1  0.92595570  0.16912416  -0.23149440  1.0
  P  P26  1  0.55774468  0.94141916  -0.75044753  1.0
  P  P27  1  0.05774468  0.74955247  -0.55858084  1.0
  P  P28  1  0.74955247  0.44141916  -0.94225532  1.0
  P  P29  1  0.24955247  0.55774468  -0.05858084  1.0
  P  P30  1  0.44141916  0.05774468  -0.25044753  1.0
  P  P31  1  0.94141916  0.24955247  -0.44225532  1.0
