# generated using pymatgen
data_PbCN2
_symmetry_space_group_name_H-M   'P 1'
_cell_length_a   5.58676368
_cell_length_b   3.91284965
_cell_length_c   12.50705631
_cell_angle_alpha   90.00000000
_cell_angle_beta   90.00000000
_cell_angle_gamma   90.00000000
_symmetry_Int_Tables_number   1
_chemical_formula_structural   PbCN2
_chemical_formula_sum   'Pb4 C4 N8'
_cell_volume   273.40633100
_cell_formula_units_Z   4
loop_
 _symmetry_equiv_pos_site_id
 _symmetry_equiv_pos_as_xyz
  1  'x, y, z'
loop_
 _atom_site_type_symbol
 _atom_site_label
 _atom_site_symmetry_multiplicity
 _atom_site_fract_x
 _atom_site_fract_y
 _atom_site_fract_z
 _atom_site_occupancy
  Pb  Pb0  1  0.88147286  0.75000000  0.87173901  1.0
  Pb  Pb1  1  0.38147286  0.75000000  0.62826099  1.0
  Pb  Pb2  1  0.11852714  0.25000000  0.12826099  1.0
  Pb  Pb3  1  0.61852714  0.25000000  0.37173901  1.0
  C  C4  1  0.61944238  0.75000000  0.09929631  1.0
  C  C5  1  0.11944238  0.75000000  0.40070369  1.0
  C  C6  1  0.38055762  0.25000000  0.90070369  1.0
  C  C7  1  0.88055762  0.25000000  0.59929631  1.0
  N  N8  1  0.92132712  0.75000000  0.35889829  1.0
  N  N9  1  0.42132712  0.75000000  0.14110171  1.0
  N  N10  1  0.07867288  0.25000000  0.64110171  1.0
  N  N11  1  0.57867288  0.25000000  0.85889829  1.0
  N  N12  1  0.82591970  0.75000000  0.06087389  1.0
  N  N13  1  0.32591970  0.75000000  0.43912611  1.0
  N  N14  1  0.17408030  0.25000000  0.93912611  1.0
  N  N15  1  0.67408030  0.25000000  0.56087389  1.0
