# generated using pymatgen
data_SrHgRuO5
_symmetry_space_group_name_H-M   'P 1'
_cell_length_a   10.18021617
_cell_length_b   10.18021617
_cell_length_c   8.13000386
_cell_angle_alpha   90.00000000
_cell_angle_beta   90.00000000
_cell_angle_gamma   120.00000000
_symmetry_Int_Tables_number   1
_chemical_formula_structural   SrHgRuO5
_chemical_formula_sum   'Sr6 Hg6 Ru6 O30'
_cell_volume   729.68494079
_cell_formula_units_Z   6
loop_
 _symmetry_equiv_pos_site_id
 _symmetry_equiv_pos_as_xyz
  1  'x, y, z'
loop_
 _atom_site_type_symbol
 _atom_site_label
 _atom_site_symmetry_multiplicity
 _atom_site_fract_x
 _atom_site_fract_y
 _atom_site_fract_z
 _atom_site_occupancy
  Hg  Hg0  1  0.98852591  0.67709469  0.25000000  1.0
  Hg  Hg1  1  0.67709469  0.68856878  0.75000000  1.0
  Hg  Hg2  1  0.68856878  0.01147409  0.25000000  1.0
  Hg  Hg3  1  0.32290531  0.31143122  0.25000000  1.0
  Hg  Hg4  1  0.01147409  0.32290531  0.75000000  1.0
  Hg  Hg5  1  0.31143122  0.98852591  0.75000000  1.0
  O  O6  1  0.45719197  0.87362001  0.25000000  1.0
  O  O7  1  0.87362001  0.41642804  0.75000000  1.0
  O  O8  1  0.41642804  0.54280803  0.25000000  1.0
  O  O9  1  0.12637999  0.58357196  0.25000000  1.0
  O  O10  1  0.54280803  0.12637999  0.75000000  1.0
  O  O11  1  0.58357196  0.45719197  0.75000000  1.0
  O  O12  1  0.87623290  0.79837475  0.25000000  1.0
  O  O13  1  0.79837475  0.92214186  0.75000000  1.0
  O  O14  1  0.92214186  0.12376710  0.25000000  1.0
  O  O15  1  0.20162525  0.07785814  0.25000000  1.0
  O  O16  1  0.12376710  0.20162525  0.75000000  1.0
  O  O17  1  0.07785814  0.87623290  0.75000000  1.0
  O  O18  1  0.25174517  0.88588827  0.43626361  1.0
  O  O19  1  0.25174517  0.88588827  0.06373639  1.0
  O  O20  1  0.88588827  0.63414310  0.93626361  1.0
  O  O21  1  0.88588827  0.63414310  0.56373639  1.0
  O  O22  1  0.63414310  0.74825483  0.43626361  1.0
  O  O23  1  0.63414310  0.74825483  0.06373639  1.0
  O  O24  1  0.11411173  0.36585690  0.43626361  1.0
  O  O25  1  0.11411173  0.36585690  0.06373639  1.0
  O  O26  1  0.74825483  0.11411173  0.93626361  1.0
  O  O27  1  0.74825483  0.11411173  0.56373639  1.0
  O  O28  1  0.36585690  0.25174517  0.93626361  1.0
  O  O29  1  0.36585690  0.25174517  0.56373639  1.0
  O  O30  1  0.65567595  0.49330504  0.25000000  1.0
  O  O31  1  0.49330504  0.83762909  0.75000000  1.0
  O  O32  1  0.83762909  0.34432405  0.25000000  1.0
  O  O33  1  0.50669496  0.16237091  0.25000000  1.0
  O  O34  1  0.34432405  0.50669496  0.75000000  1.0
  O  O35  1  0.16237091  0.65567595  0.75000000  1.0
  Sr  Sr36  1  0.33333333  0.66666667  0.48146822  1.0
  Sr  Sr37  1  0.33333333  0.66666667  0.01853178  1.0
  Sr  Sr38  1  0.66666667  0.33333333  0.98146822  1.0
  Sr  Sr39  1  0.66666667  0.33333333  0.51853178  1.0
  Sr  Sr40  1  0.00000000  0.00000000  0.50000000  1.0
  Sr  Sr41  1  0.00000000  0.00000000  0.00000000  1.0
  Ru  Ru42  1  0.33599152  0.98264491  0.25000000  1.0
  Ru  Ru43  1  0.98264491  0.64665339  0.75000000  1.0
  Ru  Ru44  1  0.64665339  0.66400848  0.25000000  1.0
  Ru  Ru45  1  0.01735509  0.35334661  0.25000000  1.0
  Ru  Ru46  1  0.66400848  0.01735509  0.75000000  1.0
  Ru  Ru47  1  0.35334661  0.33599152  0.75000000  1.0
