# generated using pymatgen
data_SiH8
_symmetry_space_group_name_H-M   'P 1'
_cell_length_a   5.93272482
_cell_length_b   5.93272482
_cell_length_c   5.93272482
_cell_angle_alpha   118.06298512
_cell_angle_beta   118.06298512
_cell_angle_gamma   93.38908457
_symmetry_Int_Tables_number   1
_chemical_formula_structural   SiH8
_chemical_formula_sum   'Si1 H8'
_cell_volume   151.69079337
_cell_formula_units_Z   1
loop_
 _symmetry_equiv_pos_site_id
 _symmetry_equiv_pos_as_xyz
  1  'x, y, z'
loop_
 _atom_site_type_symbol
 _atom_site_label
 _atom_site_symmetry_multiplicity
 _atom_site_fract_x
 _atom_site_fract_y
 _atom_site_fract_z
 _atom_site_occupancy
  Si  Si0  1  -0.00000000  -0.00000000  -0.00000000  1.0
  H  H1  1  0.30544602  0.10586392  0.19958210  1.0
  H  H2  1  0.90628183  0.10586392  0.80041790  1.0
  H  H3  1  0.89413608  0.69455398  0.80041790  1.0
  H  H4  1  0.89413608  1.09371817  1.19958210  1.0
  H  H5  1  0.45387323  0.45387323  0.00000000  1.0
  H  H6  1  0.54612677  0.54612677  -0.00000000  1.0
  H  H7  1  0.20385740  0.70385740  0.50000000  1.0
  H  H8  1  0.29614260  0.79614260  0.50000000  1.0
