# generated using pymatgen
data_K2LaZr6BCl18
_symmetry_space_group_name_H-M   'P 1'
_cell_length_a   10.65787323
_cell_length_b   10.65787323
_cell_length_c   10.65787323
_cell_angle_alpha   54.77103906
_cell_angle_beta   54.77103906
_cell_angle_gamma   54.77103906
_symmetry_Int_Tables_number   1
_chemical_formula_structural   K2LaZr6BCl18
_chemical_formula_sum   'K2 La1 Zr6 B1 Cl18'
_cell_volume   751.80029708
_cell_formula_units_Z   1
loop_
 _symmetry_equiv_pos_site_id
 _symmetry_equiv_pos_as_xyz
  1  'x, y, z'
loop_
 _atom_site_type_symbol
 _atom_site_label
 _atom_site_symmetry_multiplicity
 _atom_site_fract_x
 _atom_site_fract_y
 _atom_site_fract_z
 _atom_site_occupancy
  K  K0  1  0.21994351  0.21994351  0.21994351  1.0
  K  K1  1  0.78005649  -0.21994351  -0.21994351  1.0
  La  La2  1  0.50000000  0.50000000  -0.50000000  1.0
  Zr  Zr3  1  0.21777196  0.83858078  -0.91002170  1.0
  Zr  Zr4  1  0.91002170  -0.21777196  0.16141922  1.0
  Zr  Zr5  1  1.16141922  -0.08997830  -0.21777196  1.0
  Zr  Zr6  1  0.78222804  0.16141922  -0.08997830  1.0
  Zr  Zr7  1  0.08997830  0.21777196  -0.16141922  1.0
  Zr  Zr8  1  0.83858078  0.08997830  -0.78222804  1.0
  B  B9  1  0.00000000  0.00000000  0.00000000  1.0
  Cl  Cl10  1  0.34484926  0.81447059  -0.48281890  1.0
  Cl  Cl11  1  0.48281890  0.65515074  -0.81447059  1.0
  Cl  Cl12  1  0.18552941  0.48281890  -0.34484926  1.0
  Cl  Cl13  1  0.65515074  0.18552941  -0.51718110  1.0
  Cl  Cl14  1  0.51718110  0.34484926  -0.18552941  1.0
  Cl  Cl15  1  0.81447059  0.51718110  -0.65515074  1.0
  Cl  Cl16  1  0.33872235  0.06423242  -0.07490560  1.0
  Cl  Cl17  1  1.07490560  -0.33872235  -0.06423242  1.0
  Cl  Cl18  1  0.93576758  0.07490560  -0.33872235  1.0
  Cl  Cl19  1  0.66127765  -0.06423242  0.07490560  1.0
  Cl  Cl20  1  0.92509440  -0.66127765  0.06423242  1.0
  Cl  Cl21  1  1.06423242  -0.07490560  -0.66127765  1.0
  Cl  Cl22  1  0.58110205  0.27123011  0.14397191  1.0
  Cl  Cl23  1  0.85602809  -0.58110205  -0.27123011  1.0
  Cl  Cl24  1  0.72876989  -0.14397191  -0.58110205  1.0
  Cl  Cl25  1  0.41889795  -0.27123011  -0.14397191  1.0
  Cl  Cl26  1  1.14397191  -0.41889795  0.27123011  1.0
  Cl  Cl27  1  1.27123011  0.14397191  -0.41889795  1.0
