# generated using pymatgen
data_CaTaAlO5
_symmetry_space_group_name_H-M   'P 1'
_cell_length_a   5.64657728
_cell_length_b   5.64657728
_cell_length_c   7.45954916
_cell_angle_alpha   75.32977455
_cell_angle_beta   104.67022545
_cell_angle_gamma   74.31629834
_symmetry_Int_Tables_number   1
_chemical_formula_structural   CaTaAlO5
_chemical_formula_sum   'Ca2 Ta2 Al2 O10'
_cell_volume   207.88418068
_cell_formula_units_Z   2
loop_
 _symmetry_equiv_pos_site_id
 _symmetry_equiv_pos_as_xyz
  1  'x, y, z'
loop_
 _atom_site_type_symbol
 _atom_site_label
 _atom_site_symmetry_multiplicity
 _atom_site_fract_x
 _atom_site_fract_y
 _atom_site_fract_z
 _atom_site_occupancy
  Ca  Ca0  1  0.66916181  -0.33083819  0.25000000  1.0
  Ca  Ca1  1  1.33083819  0.33083819  0.75000000  1.0
  Ta  Ta2  1  -0.00000000  0.00000000  0.50000000  1.0
  Ta  Ta3  1  0.00000000  0.00000000  0.00000000  1.0
  Al  Al4  1  1.31718273  0.31718273  0.25000000  1.0
  Al  Al5  1  0.68281727  -0.31718273  0.75000000  1.0
  O  O6  1  1.63626338  0.25155320  0.40962702  1.0
  O  O7  1  0.74844680  -0.63626338  0.90962702  1.0
  O  O8  1  1.25155320  0.63626338  0.09037298  1.0
  O  O9  1  0.36373662  -0.25155320  0.59037298  1.0
  O  O10  1  1.30569189  0.10408664  0.11067225  1.0
  O  O11  1  0.89591336  -0.30569189  0.61067225  1.0
  O  O12  1  1.10408664  0.30569189  0.38932775  1.0
  O  O13  1  0.69430811  -0.10408664  0.88932775  1.0
  O  O14  1  0.92717551  -0.07282449  0.25000000  1.0
  O  O15  1  1.07282449  0.07282449  0.75000000  1.0
