# generated using pymatgen
data_Rb(GeAs)3
_symmetry_space_group_name_H-M   'P 1'
_cell_length_a   10.22549243
_cell_length_b   3.88080442
_cell_length_c   20.22930387
_cell_angle_alpha   90.00000000
_cell_angle_beta   90.00000000
_cell_angle_gamma   90.00000000
_symmetry_Int_Tables_number   1
_chemical_formula_structural   Rb(GeAs)3
_chemical_formula_sum   'Rb4 Ge12 As12'
_cell_volume   802.76222169
_cell_formula_units_Z   4
loop_
 _symmetry_equiv_pos_site_id
 _symmetry_equiv_pos_as_xyz
  1  'x, y, z'
loop_
 _atom_site_type_symbol
 _atom_site_label
 _atom_site_symmetry_multiplicity
 _atom_site_fract_x
 _atom_site_fract_y
 _atom_site_fract_z
 _atom_site_occupancy
  Rb  Rb0  1  0.73975918  0.75000000  0.45022090  1.0
  Rb  Rb1  1  0.23975918  0.75000000  0.04977910  1.0
  Rb  Rb2  1  0.26024082  0.25000000  0.54977910  1.0
  Rb  Rb3  1  0.76024082  0.25000000  0.95022090  1.0
  Ge  Ge4  1  0.64985061  0.75000000  0.16228801  1.0
  Ge  Ge5  1  0.14985061  0.75000000  0.33771199  1.0
  Ge  Ge6  1  0.35014939  0.25000000  0.83771199  1.0
  Ge  Ge7  1  0.85014939  0.25000000  0.66228801  1.0
  Ge  Ge8  1  0.62567671  0.75000000  0.75441467  1.0
  Ge  Ge9  1  0.12567671  0.75000000  0.74558533  1.0
  Ge  Ge10  1  0.37432329  0.25000000  0.24558533  1.0
  Ge  Ge11  1  0.87432329  0.25000000  0.25441467  1.0
  Ge  Ge12  1  0.52241569  0.75000000  0.63752504  1.0
  Ge  Ge13  1  1.02241569  0.75000000  0.86247496  1.0
  Ge  Ge14  1  0.47758431  0.25000000  0.36247496  1.0
  Ge  Ge15  1  -0.02241569  0.25000000  0.13752504  1.0
  As  As16  1  0.99719080  0.75000000  0.63969022  1.0
  As  As17  1  0.49719080  0.75000000  0.86030978  1.0
  As  As18  1  0.00280920  0.25000000  0.36030978  1.0
  As  As19  1  0.50280920  0.25000000  0.13969022  1.0
  As  As20  1  0.84355240  0.75000000  0.09036457  1.0
  As  As21  1  0.34355240  0.75000000  0.40963543  1.0
  As  As22  1  0.15644760  0.25000000  0.90963543  1.0
  As  As23  1  0.65644760  0.25000000  0.59036457  1.0
  As  As24  1  0.72373350  0.75000000  0.27768386  1.0
  As  As25  1  0.22373350  0.75000000  0.22231614  1.0
  As  As26  1  0.27626650  0.25000000  0.72231614  1.0
  As  As27  1  0.77626650  0.25000000  0.77768386  1.0
