# generated using pymatgen
data_Y6P13Ru20
_symmetry_space_group_name_H-M   'P 1'
_cell_length_a   13.16494045
_cell_length_b   13.16494045
_cell_length_c   3.96975819
_cell_angle_alpha   90.00000000
_cell_angle_beta   90.00000000
_cell_angle_gamma   120.00000000
_symmetry_Int_Tables_number   1
_chemical_formula_structural   Y6P13Ru20
_chemical_formula_sum   'Y6 P13 Ru20'
_cell_volume   595.84388077
_cell_formula_units_Z   1
loop_
 _symmetry_equiv_pos_site_id
 _symmetry_equiv_pos_as_xyz
  1  'x, y, z'
loop_
 _atom_site_type_symbol
 _atom_site_label
 _atom_site_symmetry_multiplicity
 _atom_site_fract_x
 _atom_site_fract_y
 _atom_site_fract_z
 _atom_site_occupancy
  Y  Y0  1  0.28353245  0.80955522  0.50000000  1.0
  Y  Y1  1  0.52602276  0.71646755  0.50000000  1.0
  Y  Y2  1  0.19044478  0.47397724  0.50000000  1.0
  Y  Y3  1  0.80521007  0.52905826  -0.00000000  1.0
  Y  Y4  1  0.72384819  0.19478993  0.00000000  1.0
  Y  Y5  1  0.47094174  0.27615181  -0.00000000  1.0
  P  P6  1  0.48831331  0.86581592  0.00000000  1.0
  P  P7  1  0.37750261  0.51168669  -0.00000000  1.0
  P  P8  1  0.13418408  0.62249739  0.00000000  1.0
  P  P9  1  0.95350669  0.72788474  0.50000000  1.0
  P  P10  1  0.77437805  0.04649331  0.50000000  1.0
  P  P11  1  0.27211526  0.22562195  0.50000000  1.0
  P  P12  1  0.60458081  0.47461551  0.50000000  1.0
  P  P13  1  0.87003469  0.39541919  0.50000000  1.0
  P  P14  1  0.52538449  0.12996531  0.50000000  1.0
  P  P15  1  0.24748678  0.95771439  -0.00000000  1.0
  P  P16  1  0.71022761  0.75251322  0.00000000  1.0
  P  P17  1  0.04228561  0.28977239  0.00000000  1.0
  P  P18  1  -0.00000000  -0.00000000  0.00000000  1.0
  Ru  Ru19  1  0.57192805  0.97534527  0.50000000  1.0
  Ru  Ru20  1  0.40341722  0.42807195  0.50000000  1.0
  Ru  Ru21  1  0.02465473  0.59658278  0.50000000  1.0
  Ru  Ru22  1  0.07650266  0.92979396  0.50000000  1.0
  Ru  Ru23  1  0.85329130  0.92349734  0.50000000  1.0
  Ru  Ru24  1  0.07020604  0.14670870  0.50000000  1.0
  Ru  Ru25  1  0.74702607  0.67531967  0.50000000  1.0
  Ru  Ru26  1  0.92829360  0.25297393  0.50000000  1.0
  Ru  Ru27  1  0.32468033  0.07170640  0.50000000  1.0
  Ru  Ru28  1  0.90482823  0.80481330  -0.00000000  1.0
  Ru  Ru29  1  0.89998507  0.09517177  0.00000000  1.0
  Ru  Ru30  1  0.19518670  0.10001493  0.00000000  1.0
  Ru  Ru31  1  0.08728928  0.77201488  0.00000000  1.0
  Ru  Ru32  1  0.68472560  0.91271072  -0.00000000  1.0
  Ru  Ru33  1  0.22798512  0.31527440  0.00000000  1.0
  Ru  Ru34  1  0.57373470  0.55026925  0.00000000  1.0
  Ru  Ru35  1  0.97653455  0.42626530  0.00000000  1.0
  Ru  Ru36  1  0.44973075  0.02346545  0.00000000  1.0
  Ru  Ru37  1  0.66666667  0.33333333  0.50000000  1.0
  Ru  Ru38  1  0.33333333  0.66666667  0.00000000  1.0
