# generated using pymatgen
data_Na3P6(PbO9)2
_symmetry_space_group_name_H-M   'P 1'
_cell_length_a   8.23283704
_cell_length_b   7.89021871
_cell_length_c   8.10294230
_cell_angle_alpha   116.24751532
_cell_angle_beta   104.06705545
_cell_angle_gamma   97.66270368
_symmetry_Int_Tables_number   1
_chemical_formula_structural   Na3P6(PbO9)2
_chemical_formula_sum   'Na3 P6 Pb2 O18'
_cell_volume   440.03417482
_cell_formula_units_Z   1
loop_
 _symmetry_equiv_pos_site_id
 _symmetry_equiv_pos_as_xyz
  1  'x, y, z'
loop_
 _atom_site_type_symbol
 _atom_site_label
 _atom_site_symmetry_multiplicity
 _atom_site_fract_x
 _atom_site_fract_y
 _atom_site_fract_z
 _atom_site_occupancy
  Na  Na0  1  0.64827398  0.36410933  0.55115081  1.0
  Na  Na1  1  0.35172602  0.63589067  0.44884919  1.0
  Na  Na2  1  0.00000000  0.50000000  -0.00000000  1.0
  P  P3  1  0.98010941  0.76813283  0.71765259  1.0
  P  P4  1  0.01989059  0.23186717  0.28234741  1.0
  P  P5  1  0.73446887  0.63486649  0.32622340  1.0
  P  P6  1  0.26553113  0.36513351  0.67377660  1.0
  P  P7  1  0.25656668  1.00272596  0.33844909  1.0
  P  P8  1  0.74343332  -0.00272596  0.66155091  1.0
  Pb  Pb9  1  0.62340624  0.83902716  0.97926636  1.0
  Pb  Pb10  1  0.37659376  0.16097284  0.02073364  1.0
  O  O11  1  0.91911273  0.65953465  0.47901762  1.0
  O  O12  1  0.08088727  0.34046535  0.52098238  1.0
  O  O13  1  0.92732995  0.97455192  0.76891174  1.0
  O  O14  1  0.07267005  0.02544808  0.23108826  1.0
  O  O15  1  0.87657228  0.65067205  0.78089902  1.0
  O  O16  1  0.12342772  0.34932795  0.21910098  1.0
  O  O17  1  0.75760006  0.59139771  0.13549695  1.0
  O  O18  1  0.24239994  0.40860229  0.86450305  1.0
  O  O19  1  0.76920264  0.20687616  0.71056695  1.0
  O  O20  1  0.23079736  0.79312384  0.28943305  1.0
  O  O21  1  0.71643212  0.86150965  0.42981251  1.0
  O  O22  1  0.28356788  0.13849035  0.57018749  1.0
  O  O23  1  0.59867398  0.89946445  0.70424404  1.0
  O  O24  1  0.40132602  0.10053555  0.29575596  1.0
  O  O25  1  0.41285271  0.49806375  0.66721029  1.0
  O  O26  1  0.58714729  0.50193625  0.33278971  1.0
  O  O27  1  0.17657251  0.82421970  0.79446708  1.0
  O  O28  1  0.82342749  0.17578030  0.20553292  1.0
