# generated using pymatgen
data_Sr7Mn4O12
_symmetry_space_group_name_H-M   'P 1'
_cell_length_a   6.92064669
_cell_length_b   9.67195773
_cell_length_c   10.21597372
_cell_angle_alpha   90.00000000
_cell_angle_beta   93.09892103
_cell_angle_gamma   90.00000000
_symmetry_Int_Tables_number   1
_chemical_formula_structural   Sr7Mn4O12
_chemical_formula_sum   'Sr14 Mn8 O24'
_cell_volume   682.81852844
_cell_formula_units_Z   2
loop_
 _symmetry_equiv_pos_site_id
 _symmetry_equiv_pos_as_xyz
  1  'x, y, z'
loop_
 _atom_site_type_symbol
 _atom_site_label
 _atom_site_symmetry_multiplicity
 _atom_site_fract_x
 _atom_site_fract_y
 _atom_site_fract_z
 _atom_site_occupancy
  O  O0  1  0.67305038  0.17639986  0.33541983  1.0
  O  O1  1  0.32694962  0.67639986  0.16458017  1.0
  O  O2  1  0.32694962  0.82360014  0.66458017  1.0
  O  O3  1  0.67305038  0.32360014  0.83541983  1.0
  O  O4  1  0.32683123  0.22431359  0.96605431  1.0
  O  O5  1  0.67316877  0.72431359  0.53394569  1.0
  O  O6  1  0.67316877  0.77568641  0.03394569  1.0
  O  O7  1  0.32683123  0.27568641  0.46605431  1.0
  O  O8  1  0.83788906  0.02111922  0.62183999  1.0
  O  O9  1  0.16211094  0.52111922  0.87816001  1.0
  O  O10  1  0.16211094  0.97888078  0.37816001  1.0
  O  O11  1  0.83788906  0.47888078  0.12183999  1.0
  O  O12  1  0.00548608  0.25817933  0.71077004  1.0
  O  O13  1  0.99451392  0.75817933  0.78922996  1.0
  O  O14  1  0.99451392  0.74182067  0.28922996  1.0
  O  O15  1  0.00548608  0.24182067  0.21077004  1.0
  O  O16  1  0.81973070  0.07339299  0.92566773  1.0
  O  O17  1  0.18026930  0.57339299  0.57433227  1.0
  O  O18  1  0.18026930  0.92660701  0.07433227  1.0
  O  O19  1  0.81973070  0.42660701  0.42566773  1.0
  O  O20  1  0.50089169  0.09834672  0.73505696  1.0
  O  O21  1  0.49910831  0.59834672  0.76494304  1.0
  O  O22  1  0.49910831  0.90165328  0.26494304  1.0
  O  O23  1  0.50089169  0.40165328  0.23505696  1.0
  Mn  Mn24  1  0.56637308  0.15298594  0.93216772  1.0
  Mn  Mn25  1  0.43362692  0.65298594  0.56783228  1.0
  Mn  Mn26  1  0.43362692  0.84701406  0.06783228  1.0
  Mn  Mn27  1  0.56637308  0.34701406  0.43216772  1.0
  Mn  Mn28  1  0.76316301  0.17258564  0.72338234  1.0
  Mn  Mn29  1  0.23683699  0.67258564  0.77661766  1.0
  Mn  Mn30  1  0.23683699  0.82741436  0.27661766  1.0
  Mn  Mn31  1  0.76316301  0.32741436  0.22338234  1.0
  Sr  Sr32  1  0.99689832  0.18459820  0.46759791  1.0
  Sr  Sr33  1  0.00310168  0.68459820  0.03240209  1.0
  Sr  Sr34  1  0.00310168  0.81540180  0.53240209  1.0
  Sr  Sr35  1  0.99689832  0.31540180  0.96759791  1.0
  Sr  Sr36  1  0.33804377  0.15114508  0.20869892  1.0
  Sr  Sr37  1  0.66195623  0.65114508  0.29130108  1.0
  Sr  Sr38  1  0.66195623  0.84885492  0.79130108  1.0
  Sr  Sr39  1  0.33804377  0.34885492  0.70869892  1.0
  Sr  Sr40  1  0.50000000  0.00000000  0.50000000  1.0
  Sr  Sr41  1  0.50000000  0.50000000  0.00000000  1.0
  Sr  Sr42  1  0.14973448  0.00765124  0.83026249  1.0
  Sr  Sr43  1  0.85026552  0.50765124  0.66973751  1.0
  Sr  Sr44  1  0.85026552  0.99234876  0.16973751  1.0
  Sr  Sr45  1  0.14973448  0.49234876  0.33026249  1.0
