# generated using pymatgen
data_W5N6
_symmetry_space_group_name_H-M   'P 1'
_cell_length_a   4.90474561
_cell_length_b   4.90474561
_cell_length_c   11.28126239
_cell_angle_alpha   90.00000000
_cell_angle_beta   90.00000000
_cell_angle_gamma   120.00000000
_symmetry_Int_Tables_number   1
_chemical_formula_structural   W5N6
_chemical_formula_sum   'W10 N12'
_cell_volume   235.02892050
_cell_formula_units_Z   2
loop_
 _symmetry_equiv_pos_site_id
 _symmetry_equiv_pos_as_xyz
  1  'x, y, z'
loop_
 _atom_site_type_symbol
 _atom_site_label
 _atom_site_symmetry_multiplicity
 _atom_site_fract_x
 _atom_site_fract_y
 _atom_site_fract_z
 _atom_site_occupancy
  W  W0  1  0.00000000  0.00000000  0.75000000  1.0
  W  W1  1  0.00000000  0.00000000  0.25000000  1.0
  W  W2  1  0.33333333  0.66666667  0.75000000  1.0
  W  W3  1  0.66666667  0.33333333  0.75000000  1.0
  W  W4  1  0.66666667  0.33333333  0.25000000  1.0
  W  W5  1  0.33333333  0.66666667  0.25000000  1.0
  W  W6  1  0.33333333  0.66666667  0.00000000  1.0
  W  W7  1  0.66666667  0.33333333  0.00000000  1.0
  W  W8  1  0.66666667  0.33333333  0.50000000  1.0
  W  W9  1  0.33333333  0.66666667  0.50000000  1.0
  N  N10  1  -0.00000000  0.33310010  0.36939301  1.0
  N  N11  1  0.66689990  0.66689990  0.36939301  1.0
  N  N12  1  0.33310010  0.00000000  0.36939301  1.0
  N  N13  1  -0.00000000  0.66689990  0.63060699  1.0
  N  N14  1  0.33310010  0.33310010  0.63060699  1.0
  N  N15  1  0.66689990  0.00000000  0.63060699  1.0
  N  N16  1  -0.00000000  0.66689990  0.86939301  1.0
  N  N17  1  0.33310010  0.33310010  0.86939301  1.0
  N  N18  1  0.66689990  0.00000000  0.86939301  1.0
  N  N19  1  -0.00000000  0.33310010  0.13060699  1.0
  N  N20  1  0.66689990  0.66689990  0.13060699  1.0
  N  N21  1  0.33310010  0.00000000  0.13060699  1.0
