# generated using pymatgen
data_CaSiO3
_symmetry_space_group_name_H-M   'P 1'
_cell_length_a   5.09666475
_cell_length_b   5.09666475
_cell_length_c   5.09666475
_cell_angle_alpha   119.92217780
_cell_angle_beta   90.34598344
_cell_angle_gamma   119.67886576
_symmetry_Int_Tables_number   1
_chemical_formula_structural   CaSiO3
_chemical_formula_sum   'Ca2 Si2 O6'
_cell_volume   93.89439667
_cell_formula_units_Z   2
loop_
 _symmetry_equiv_pos_site_id
 _symmetry_equiv_pos_as_xyz
  1  'x, y, z'
loop_
 _atom_site_type_symbol
 _atom_site_label
 _atom_site_symmetry_multiplicity
 _atom_site_fract_x
 _atom_site_fract_y
 _atom_site_fract_z
 _atom_site_occupancy
  Ca  Ca0  1  1.74878128  1.49878128  1.25000000  1.0
  Ca  Ca1  1  0.25121872  0.50121872  0.75000000  1.0
  Si  Si2  1  0.00000000  0.00000000  0.00000000  1.0
  Si  Si3  1  0.50000000  -0.00000000  0.50000000  1.0
  O  O4  1  0.27012001  1.00000000  0.77012001  1.0
  O  O5  1  1.72987999  1.50000000  1.72987999  1.0
  O  O6  1  0.27012001  0.50000000  0.27012001  1.0
  O  O7  1  1.72987999  1.00000000  1.22987999  1.0
  O  O8  1  1.21088489  0.96088489  0.25000000  1.0
  O  O9  1  0.78911511  0.03911511  0.75000000  1.0
