# generated using pymatgen
data_Li5P(S2Cl)2
_symmetry_space_group_name_H-M   'P 1'
_cell_length_a   6.04073259
_cell_length_b   6.04073259
_cell_length_c   7.21059476
_cell_angle_alpha   90.00000000
_cell_angle_beta   90.00000000
_cell_angle_gamma   59.63554524
_symmetry_Int_Tables_number   1
_chemical_formula_structural   Li5P(S2Cl)2
_chemical_formula_sum   'Li5 P1 S4 Cl2'
_cell_volume   227.02529956
_cell_formula_units_Z   1
loop_
 _symmetry_equiv_pos_site_id
 _symmetry_equiv_pos_as_xyz
  1  'x, y, z'
loop_
 _atom_site_type_symbol
 _atom_site_label
 _atom_site_symmetry_multiplicity
 _atom_site_fract_x
 _atom_site_fract_y
 _atom_site_fract_z
 _atom_site_occupancy
  Li  Li0  1  -0.30163777  0.91677563  0.75420130  1.0
  Li  Li1  1  0.08322437  0.30163777  0.24579870  1.0
  Li  Li2  1  -0.30163777  0.91677563  0.24579870  1.0
  Li  Li3  1  0.08322437  0.30163777  0.75420130  1.0
  Li  Li4  1  -0.62323376  0.62323376  0.50000000  1.0
  P  P5  1  -0.56288483  0.56288483  0.00000000  1.0
  S  S6  1  0.07473786  0.60422475  0.00000000  1.0
  S  S7  1  -0.60422475  0.92526214  0.00000000  1.0
  S  S8  1  -0.36298474  0.36298474  0.76621855  1.0
  S  S9  1  -0.36298474  0.36298474  0.23378145  1.0
  Cl  Cl10  1  -0.68109856  1.03431268  0.50000000  1.0
  Cl  Cl11  1  -0.03431268  0.68109856  0.50000000  1.0
