# generated using pymatgen
data_Ta6S
_symmetry_space_group_name_H-M   'P 1'
_cell_length_a   7.58664592
_cell_length_b   7.58664592
_cell_length_c   14.86213474
_cell_angle_alpha   63.80969741
_cell_angle_beta   116.19030259
_cell_angle_gamma   139.13834151
_symmetry_Int_Tables_number   1
_chemical_formula_structural   Ta6S
_chemical_formula_sum   'Ta24 S4'
_cell_volume   493.68913375
_cell_formula_units_Z   4
loop_
 _symmetry_equiv_pos_site_id
 _symmetry_equiv_pos_as_xyz
  1  'x, y, z'
loop_
 _atom_site_type_symbol
 _atom_site_label
 _atom_site_symmetry_multiplicity
 _atom_site_fract_x
 _atom_site_fract_y
 _atom_site_fract_z
 _atom_site_occupancy
  Ta  Ta0  1  1.27328115  0.39933071  0.40582739  1.0
  Ta  Ta1  1  1.60066929  -0.27328115  0.90582739  1.0
  Ta  Ta2  1  0.39933071  0.27328115  0.09417261  1.0
  Ta  Ta3  1  0.72671885  -0.39933071  0.59417261  1.0
  Ta  Ta4  1  0.34455730  -0.16005506  0.24825956  1.0
  Ta  Ta5  1  1.16005506  -0.34455730  0.74825956  1.0
  Ta  Ta6  1  0.83994494  0.34455730  0.25174044  1.0
  Ta  Ta7  1  1.65544270  0.16005506  0.75174044  1.0
  Ta  Ta8  1  0.42440614  0.21254232  0.31734876  1.0
  Ta  Ta9  1  0.78745768  0.57559386  0.81734876  1.0
  Ta  Ta10  1  1.21254232  -0.57559386  0.18265124  1.0
  Ta  Ta11  1  1.57559386  -0.21254232  0.68265124  1.0
  Ta  Ta12  1  1.81703285  -0.11120625  0.32606825  1.0
  Ta  Ta13  1  1.11120625  -0.81703285  0.82606825  1.0
  Ta  Ta14  1  0.88879375  0.81703285  0.17393175  1.0
  Ta  Ta15  1  0.18296715  0.11120625  0.67393175  1.0
  Ta  Ta16  1  0.68019651  0.00205884  0.45431136  1.0
  Ta  Ta17  1  0.99794116  -0.68019651  0.95431136  1.0
  Ta  Ta18  1  1.00205884  0.68019651  0.04568864  1.0
  Ta  Ta19  1  1.31980349  -0.00205884  0.54568864  1.0
  Ta  Ta20  1  0.64104743  0.06272030  0.10317898  1.0
  Ta  Ta21  1  0.93727970  -0.64104743  0.60317898  1.0
  Ta  Ta22  1  1.06272030  0.64104743  0.39682102  1.0
  Ta  Ta23  1  1.35895257  -0.06272030  0.89682102  1.0
  S  S24  1  1.47586290  -0.30609983  0.04348842  1.0
  S  S25  1  1.30609983  -0.47586290  0.54348842  1.0
  S  S26  1  0.69390017  0.47586290  0.45651158  1.0
  S  S27  1  0.52413710  0.30609983  0.95651158  1.0
