# generated using pymatgen
data_Gd3Si2S8Br
_symmetry_space_group_name_H-M   'P 1'
_cell_length_a   8.77555141
_cell_length_b   8.77555141
_cell_length_c   10.84134182
_cell_angle_alpha   80.56668109
_cell_angle_beta   99.43331891
_cell_angle_gamma   128.91395775
_symmetry_Int_Tables_number   1
_chemical_formula_structural   Gd3Si2S8Br
_chemical_formula_sum   'Gd6 Si4 S16 Br2'
_cell_volume   638.81545286
_cell_formula_units_Z   2
loop_
 _symmetry_equiv_pos_site_id
 _symmetry_equiv_pos_as_xyz
  1  'x, y, z'
loop_
 _atom_site_type_symbol
 _atom_site_label
 _atom_site_symmetry_multiplicity
 _atom_site_fract_x
 _atom_site_fract_y
 _atom_site_fract_z
 _atom_site_occupancy
  Gd  Gd0  1  0.57649211  0.17082340  0.67991279  1.0
  Gd  Gd1  1  0.82917660  0.42350789  0.17991279  1.0
  Gd  Gd2  1  1.17082340  0.57649211  0.82008721  1.0
  Gd  Gd3  1  0.42350789  -0.17082340  0.32008721  1.0
  Gd  Gd4  1  0.86508154  0.86508154  0.75000000  1.0
  Gd  Gd5  1  0.13491846  0.13491846  0.25000000  1.0
  Si  Si6  1  0.80495799  0.11869604  0.97779601  1.0
  Si  Si7  1  0.88130396  0.19504201  0.47779601  1.0
  Si  Si8  1  1.11869604  0.80495799  0.52220399  1.0
  Si  Si9  1  0.19504201  -0.11869604  0.02220399  1.0
  S  S10  1  0.76233938  -0.10145649  0.46984000  1.0
  S  S11  1  1.10145649  0.23766062  0.96984000  1.0
  S  S12  1  0.89854351  0.76233938  0.03016000  1.0
  S  S13  1  0.23766062  0.10145649  0.53016000  1.0
  S  S14  1  0.60106456  -0.11415967  0.85920695  1.0
  S  S15  1  1.11415967  0.39893544  0.35920695  1.0
  S  S16  1  0.88584033  0.60106456  0.64079305  1.0
  S  S17  1  0.39893544  0.11415967  0.14079305  1.0
  S  S18  1  0.65279355  0.21821230  0.41172639  1.0
  S  S19  1  0.78178770  0.34720645  0.91172639  1.0
  S  S20  1  1.21821230  0.65279355  0.08827361  1.0
  S  S21  1  0.34720645  -0.21821230  0.58827361  1.0
  S  S22  1  0.24016363  -0.04733228  0.82761842  1.0
  S  S23  1  1.04733228  0.75983637  0.32761842  1.0
  S  S24  1  0.95266772  0.24016363  0.67238158  1.0
  S  S25  1  0.75983637  0.04733228  0.17238158  1.0
  Br  Br26  1  0.48810882  0.48810882  0.75000000  1.0
  Br  Br27  1  0.51189118  0.51189118  0.25000000  1.0
