# generated using pymatgen
data_KSnS2
_symmetry_space_group_name_H-M   'P 1'
_cell_length_a   7.88803887
_cell_length_b   7.88803887
_cell_length_c   7.88803887
_cell_angle_alpha   29.42137514
_cell_angle_beta   29.42137514
_cell_angle_gamma   29.42137514
_symmetry_Int_Tables_number   1
_chemical_formula_structural   KSnS2
_chemical_formula_sum   'K1 Sn1 S2'
_cell_volume   104.81714916
_cell_formula_units_Z   1
loop_
 _symmetry_equiv_pos_site_id
 _symmetry_equiv_pos_as_xyz
  1  'x, y, z'
loop_
 _atom_site_type_symbol
 _atom_site_label
 _atom_site_symmetry_multiplicity
 _atom_site_fract_x
 _atom_site_fract_y
 _atom_site_fract_z
 _atom_site_occupancy
  K  K0  1  0.83452468  -0.16547532  -0.16547532  1.0
  Sn  Sn1  1  0.00201092  0.00201092  0.00201092  1.0
  S  S2  1  0.60118875  0.60118875  -0.39881125  1.0
  S  S3  1  0.40227564  0.40227564  -0.59772436  1.0
