# generated using pymatgen
data_Sn3Te3Ir2
_symmetry_space_group_name_H-M   'P 1'
_cell_length_a   9.48161970
_cell_length_b   9.48161970
_cell_length_c   9.48161970
_cell_angle_alpha   89.93231018
_cell_angle_beta   89.93231018
_cell_angle_gamma   89.93231018
_symmetry_Int_Tables_number   1
_chemical_formula_structural   Sn3Te3Ir2
_chemical_formula_sum   'Sn12 Te12 Ir8'
_cell_volume   852.40637215
_cell_formula_units_Z   4
loop_
 _symmetry_equiv_pos_site_id
 _symmetry_equiv_pos_as_xyz
  1  'x, y, z'
loop_
 _atom_site_type_symbol
 _atom_site_label
 _atom_site_symmetry_multiplicity
 _atom_site_fract_x
 _atom_site_fract_y
 _atom_site_fract_z
 _atom_site_occupancy
  Sn  Sn0  1  0.66041654  0.50029903  -0.82533463  1.0
  Sn  Sn1  1  0.49970097  0.82533463  -0.66041654  1.0
  Sn  Sn2  1  0.82533463  0.33958346  -0.50029903  1.0
  Sn  Sn3  1  0.33958346  0.49970097  -0.17466537  1.0
  Sn  Sn4  1  0.50029903  0.17466537  -0.33958346  1.0
  Sn  Sn5  1  0.17466537  0.66041654  -0.49970097  1.0
  Sn  Sn6  1  0.67485561  -0.15998696  0.00159503  1.0
  Sn  Sn7  1  1.15998696  -0.00159503  -0.67485561  1.0
  Sn  Sn8  1  0.99840497  -0.67485561  0.15998696  1.0
  Sn  Sn9  1  0.32514439  0.15998696  -0.00159503  1.0
  Sn  Sn10  1  0.84001304  0.00159503  -0.32514439  1.0
  Sn  Sn11  1  1.00159503  -0.32514439  -0.15998696  1.0
  Te  Te12  1  0.64987836  0.50210229  -0.15385140  1.0
  Te  Te13  1  0.49789771  0.15385140  -0.64987836  1.0
  Te  Te14  1  0.15385140  0.35012164  -0.50210229  1.0
  Te  Te15  1  0.35012164  0.49789771  -0.84614860  1.0
  Te  Te16  1  0.50210229  0.84614860  -0.35012164  1.0
  Te  Te17  1  0.84614860  0.64987836  -0.49789771  1.0
  Te  Te18  1  1.65408438  1.15027528  0.00012195  1.0
  Te  Te19  1  0.84972472  -0.00012195  0.34591562  1.0
  Te  Te20  1  0.99987805  0.34591562  -0.15027528  1.0
  Te  Te21  1  1.34591562  -0.15027528  -0.00012195  1.0
  Te  Te22  1  1.15027528  1.00012195  0.65408438  1.0
  Te  Te23  1  1.00012195  1.65408438  0.15027528  1.0
  Ir  Ir24  1  0.75103431  -0.24859803  0.25200116  1.0
  Ir  Ir25  1  0.24859803  0.74799884  -0.75103431  1.0
  Ir  Ir26  1  0.74799884  0.24896569  -0.75140197  1.0
  Ir  Ir27  1  0.24896569  0.24859803  -0.25200116  1.0
  Ir  Ir28  1  0.75140197  0.25200116  -0.24896569  1.0
  Ir  Ir29  1  1.25200116  -0.24896569  -0.24859803  1.0
  Ir  Ir30  1  0.74963399  0.74963399  -0.25036601  1.0
  Ir  Ir31  1  1.25036601  1.25036601  0.25036601  1.0
