# generated using pymatgen
data_Zn12Ni4Ge
_symmetry_space_group_name_H-M   'P 1'
_cell_length_a   10.04272535
_cell_length_b   10.04272535
_cell_length_c   10.04272535
_cell_angle_alpha   60.00000000
_cell_angle_beta   60.00000000
_cell_angle_gamma   60.00000000
_symmetry_Int_Tables_number   1
_chemical_formula_structural   Zn12Ni4Ge
_chemical_formula_sum   'Zn24 Ni8 Ge2'
_cell_volume   716.20897573
_cell_formula_units_Z   2
loop_
 _symmetry_equiv_pos_site_id
 _symmetry_equiv_pos_as_xyz
  1  'x, y, z'
loop_
 _atom_site_type_symbol
 _atom_site_label
 _atom_site_symmetry_multiplicity
 _atom_site_fract_x
 _atom_site_fract_y
 _atom_site_fract_z
 _atom_site_occupancy
  Zn  Zn0  1  0.95468932  -0.58817762  0.67879897  1.0
  Zn  Zn1  1  -0.04531068  0.67879897  0.41182238  1.0
  Zn  Zn2  1  -0.16182238  0.29531068  0.29531068  1.0
  Zn  Zn3  1  0.57120103  0.29531068  0.29531068  1.0
  Zn  Zn4  1  -0.58817762  0.95468932  0.67879897  1.0
  Zn  Zn5  1  0.95468932  -0.04531068  0.67879897  1.0
  Zn  Zn6  1  0.95468932  -0.32120103  0.95468932  1.0
  Zn  Zn7  1  -0.58817762  0.67879897  0.95468932  1.0
  Zn  Zn8  1  0.29531068  -0.16182238  0.29531068  1.0
  Zn  Zn9  1  0.29531068  0.29531068  -0.16182238  1.0
  Zn  Zn10  1  0.57120103  0.29531068  -0.16182238  1.0
  Zn  Zn11  1  0.57120103  -0.16182238  0.29531068  1.0
  Zn  Zn12  1  0.67879897  -0.04531068  0.95468932  1.0
  Zn  Zn13  1  -0.58817762  0.95468932  0.95468932  1.0
  Zn  Zn14  1  0.29531068  0.57120103  -0.16182238  1.0
  Zn  Zn15  1  0.29531068  -0.16182238  0.57120103  1.0
  Zn  Zn16  1  -0.32120103  0.95468932  0.41182238  1.0
  Zn  Zn17  1  0.67879897  -0.58817762  0.95468932  1.0
  Zn  Zn18  1  0.95468932  -0.58817762  0.95468932  1.0
  Zn  Zn19  1  -0.04531068  0.95468932  0.41182238  1.0
  Zn  Zn20  1  0.29531068  0.57120103  0.29531068  1.0
  Zn  Zn21  1  -0.16182238  0.57120103  0.29531068  1.0
  Zn  Zn22  1  -0.16182238  0.29531068  0.57120103  1.0
  Zn  Zn23  1  0.29531068  0.29531068  0.57120103  1.0
  Ni  Ni24  1  0.66665412  -0.33334588  1.00003765  1.0
  Ni  Ni25  1  0.66665412  0.00003765  0.66665412  1.0
  Ni  Ni26  1  0.58334588  -0.41665412  0.58334588  1.0
  Ni  Ni27  1  1.24996235  -0.41665412  0.58334588  1.0
  Ni  Ni28  1  1.00003765  -0.33334588  0.66665412  1.0
  Ni  Ni29  1  0.66665412  -0.33334588  0.66665412  1.0
  Ni  Ni30  1  0.58334588  0.24996235  0.58334588  1.0
  Ni  Ni31  1  0.58334588  -0.41665412  1.24996235  1.0
  Ge  Ge32  1  0.50000000  0.50000000  -0.50000000  1.0
  Ge  Ge33  1  0.75000000  -0.25000000  0.75000000  1.0
