# generated using pymatgen
data_Ca(ClO3)2
_symmetry_space_group_name_H-M   'P 1'
_cell_length_a   5.67733301
_cell_length_b   5.67733301
_cell_length_c   5.12687139
_cell_angle_alpha   90.00000000
_cell_angle_beta   90.00000000
_cell_angle_gamma   120.00000000
_symmetry_Int_Tables_number   1
_chemical_formula_structural   Ca(ClO3)2
_chemical_formula_sum   'Ca1 Cl2 O6'
_cell_volume   143.11059707
_cell_formula_units_Z   1
loop_
 _symmetry_equiv_pos_site_id
 _symmetry_equiv_pos_as_xyz
  1  'x, y, z'
loop_
 _atom_site_type_symbol
 _atom_site_label
 _atom_site_symmetry_multiplicity
 _atom_site_fract_x
 _atom_site_fract_y
 _atom_site_fract_z
 _atom_site_occupancy
  Ca  Ca0  1  0.00000000  -0.00000000  0.00000000  1.0
  Cl  Cl1  1  0.33333333  0.66666667  0.20521350  1.0
  Cl  Cl2  1  0.66666667  0.33333333  0.79478650  1.0
  O  O3  1  0.84551969  0.84551969  0.50000000  1.0
  O  O4  1  -0.00000000  0.15448031  0.50000000  1.0
  O  O5  1  0.15448031  0.00000000  0.50000000  1.0
  O  O6  1  0.42865298  0.42865298  -0.00000000  1.0
  O  O7  1  0.00000000  0.57134702  -0.00000000  1.0
  O  O8  1  0.57134702  -0.00000000  -0.00000000  1.0
