# generated using pymatgen
data_K6MnSe4
_symmetry_space_group_name_H-M   'P 1'
_cell_length_a   10.31927273
_cell_length_b   10.31927273
_cell_length_c   8.03121316
_cell_angle_alpha   90.00000000
_cell_angle_beta   90.00000000
_cell_angle_gamma   120.00000000
_symmetry_Int_Tables_number   1
_chemical_formula_structural   K6MnSe4
_chemical_formula_sum   'K12 Mn2 Se8'
_cell_volume   740.64477975
_cell_formula_units_Z   2
loop_
 _symmetry_equiv_pos_site_id
 _symmetry_equiv_pos_as_xyz
  1  'x, y, z'
loop_
 _atom_site_type_symbol
 _atom_site_label
 _atom_site_symmetry_multiplicity
 _atom_site_fract_x
 _atom_site_fract_y
 _atom_site_fract_z
 _atom_site_occupancy
  K  K0  1  0.70607190  0.85303595  0.29350360  1.0
  K  K1  1  0.85303595  0.70607190  0.79350360  1.0
  K  K2  1  0.85303595  0.14696405  0.79350360  1.0
  K  K3  1  0.14696405  0.85303595  0.29350360  1.0
  K  K4  1  0.14696405  0.29392810  0.29350360  1.0
  K  K5  1  0.29392810  0.14696405  0.79350360  1.0
  K  K6  1  0.94260948  0.47130474  0.11705929  1.0
  K  K7  1  0.47130474  0.94260948  0.61705929  1.0
  K  K8  1  0.47130474  0.52869526  0.61705929  1.0
  K  K9  1  0.52869526  0.47130474  0.11705929  1.0
  K  K10  1  0.52869526  0.05739052  0.11705929  1.0
  K  K11  1  0.05739052  0.52869526  0.61705929  1.0
  Mn  Mn12  1  0.33333333  0.66666667  0.00186210  1.0
  Mn  Mn13  1  0.66666667  0.33333333  0.50186210  1.0
  Se  Se14  1  0.39134600  0.19567300  0.40197633  1.0
  Se  Se15  1  0.19567300  0.39134600  0.90197633  1.0
  Se  Se16  1  0.19567300  0.80432700  0.90197633  1.0
  Se  Se17  1  0.80432700  0.19567300  0.40197633  1.0
  Se  Se18  1  0.80432700  0.60865400  0.40197633  1.0
  Se  Se19  1  0.60865400  0.80432700  0.90197633  1.0
  Se  Se20  1  0.33333333  0.66666667  0.32322024  1.0
  Se  Se21  1  0.66666667  0.33333333  0.82322024  1.0
