# generated using pymatgen
data_Ta2ZnO6
_symmetry_space_group_name_H-M   'P 1'
_cell_length_a   4.75227789
_cell_length_b   17.34818757
_cell_length_c   5.10444581
_cell_angle_alpha   90.00000000
_cell_angle_beta   90.00000000
_cell_angle_gamma   90.00000000
_symmetry_Int_Tables_number   1
_chemical_formula_structural   Ta2ZnO6
_chemical_formula_sum   'Ta8 Zn4 O24'
_cell_volume   420.82790937
_cell_formula_units_Z   4
loop_
 _symmetry_equiv_pos_site_id
 _symmetry_equiv_pos_as_xyz
  1  'x, y, z'
loop_
 _atom_site_type_symbol
 _atom_site_label
 _atom_site_symmetry_multiplicity
 _atom_site_fract_x
 _atom_site_fract_y
 _atom_site_fract_z
 _atom_site_occupancy
  Ta  Ta0  1  0.50000000  0.05604253  0.25000000  1.0
  Ta  Ta1  1  0.50000000  0.94395747  0.75000000  1.0
  Ta  Ta2  1  0.00000000  0.55604253  0.25000000  1.0
  Ta  Ta3  1  0.00000000  0.44395747  0.75000000  1.0
  Ta  Ta4  1  0.50000000  0.71924744  0.25000000  1.0
  Ta  Ta5  1  0.50000000  0.28075256  0.75000000  1.0
  Ta  Ta6  1  0.00000000  0.21924744  0.25000000  1.0
  Ta  Ta7  1  0.00000000  0.78075256  0.75000000  1.0
  Zn  Zn8  1  0.50000000  0.39857947  0.25000000  1.0
  Zn  Zn9  1  0.50000000  0.60142053  0.75000000  1.0
  Zn  Zn10  1  0.00000000  0.89857947  0.25000000  1.0
  Zn  Zn11  1  0.00000000  0.10142053  0.75000000  1.0
  O  O12  1  0.25956332  0.28821120  0.07210832  1.0
  O  O13  1  0.25956332  0.71178880  0.57210832  1.0
  O  O14  1  0.75956332  0.78821120  0.42789168  1.0
  O  O15  1  0.75956332  0.21178880  0.92789168  1.0
  O  O16  1  0.74043668  0.28821120  0.42789168  1.0
  O  O17  1  0.74043668  0.71178880  0.92789168  1.0
  O  O18  1  0.24043668  0.78821120  0.07210832  1.0
  O  O19  1  0.24043668  0.21178880  0.57210832  1.0
  O  O20  1  0.21717639  0.46479963  0.07186320  1.0
  O  O21  1  0.21717639  0.53520037  0.57186320  1.0
  O  O22  1  0.71717639  0.96479963  0.42813680  1.0
  O  O23  1  0.71717639  0.03520037  0.92813680  1.0
  O  O24  1  0.78282361  0.46479963  0.42813680  1.0
  O  O25  1  0.78282361  0.53520037  0.92813680  1.0
  O  O26  1  0.28282361  0.96479963  0.07186320  1.0
  O  O27  1  0.28282361  0.03520037  0.57186320  1.0
  O  O28  1  0.22988541  0.12815208  0.10075264  1.0
  O  O29  1  0.22988541  0.87184792  0.60075264  1.0
  O  O30  1  0.72988541  0.62815208  0.39924736  1.0
  O  O31  1  0.72988541  0.37184792  0.89924736  1.0
  O  O32  1  0.77011459  0.12815208  0.39924736  1.0
  O  O33  1  0.77011459  0.87184792  0.89924736  1.0
  O  O34  1  0.27011459  0.62815208  0.10075264  1.0
  O  O35  1  0.27011459  0.37184792  0.60075264  1.0
