# generated using pymatgen
data_Mn2In2O7
_symmetry_space_group_name_H-M   'P 1'
_cell_length_a   6.94556570
_cell_length_b   6.94556570
_cell_length_c   6.94556570
_cell_angle_alpha   60.00000000
_cell_angle_beta   60.00000000
_cell_angle_gamma   60.00000000
_symmetry_Int_Tables_number   1
_chemical_formula_structural   Mn2In2O7
_chemical_formula_sum   'Mn4 In4 O14'
_cell_volume   236.92335522
_cell_formula_units_Z   2
loop_
 _symmetry_equiv_pos_site_id
 _symmetry_equiv_pos_as_xyz
  1  'x, y, z'
loop_
 _atom_site_type_symbol
 _atom_site_label
 _atom_site_symmetry_multiplicity
 _atom_site_fract_x
 _atom_site_fract_y
 _atom_site_fract_z
 _atom_site_occupancy
  Mn  Mn0  1  1.12500000  0.62500000  0.62500000  1.0
  Mn  Mn1  1  0.62500000  1.12500000  -0.37500000  1.0
  Mn  Mn2  1  -0.37500000  0.62500000  1.12500000  1.0
  Mn  Mn3  1  -0.37500000  0.62500000  0.62500000  1.0
  In  In4  1  0.62500000  1.12500000  0.12500000  1.0
  In  In5  1  0.12500000  1.62500000  0.12500000  1.0
  In  In6  1  0.12500000  0.12500000  1.62500000  1.0
  In  In7  1  0.12500000  0.12500000  0.12500000  1.0
  O  O8  1  0.70438375  0.70438375  -0.70438375  1.0
  O  O9  1  0.29561625  1.29561625  -0.29561625  1.0
  O  O10  1  0.70438375  -0.70438375  0.70438375  1.0
  O  O11  1  0.29561625  -0.29561625  0.29561625  1.0
  O  O12  1  -0.70438375  0.70438375  0.70438375  1.0
  O  O13  1  -0.29561625  0.29561625  0.29561625  1.0
  O  O14  1  -0.45438375  0.54561625  0.95438375  1.0
  O  O15  1  0.95438375  0.95438375  -0.45438375  1.0
  O  O16  1  0.54561625  0.95438375  0.54561625  1.0
  O  O17  1  0.95438375  0.54561625  0.95438375  1.0
  O  O18  1  0.95438375  0.54561625  -0.45438375  1.0
  O  O19  1  0.54561625  0.95438375  -0.04561625  1.0
  O  O20  1  0.25000000  1.25000000  0.25000000  1.0
  O  O21  1  0.00000000  0.00000000  0.00000000  1.0
