# generated using pymatgen
data_YSiOs2C
_symmetry_space_group_name_H-M   'P 1'
_cell_length_a   5.88447475
_cell_length_b   5.88447475
_cell_length_c   7.12898797
_cell_angle_alpha   90.00000000
_cell_angle_beta   90.00000000
_cell_angle_gamma   141.59626347
_symmetry_Int_Tables_number   1
_chemical_formula_structural   YSiOs2C
_chemical_formula_sum   'Y2 Si2 Os4 C2'
_cell_volume   153.34653184
_cell_formula_units_Z   2
loop_
 _symmetry_equiv_pos_site_id
 _symmetry_equiv_pos_as_xyz
  1  'x, y, z'
loop_
 _atom_site_type_symbol
 _atom_site_label
 _atom_site_symmetry_multiplicity
 _atom_site_fract_x
 _atom_site_fract_y
 _atom_site_fract_z
 _atom_site_occupancy
  Y  Y0  1  0.45216647  0.54783353  0.75000000  1.0
  Y  Y1  1  -0.45216647  0.45216647  0.25000000  1.0
  Si  Si2  1  -0.26907183  0.26907183  0.75000000  1.0
  Si  Si3  1  0.26907183  0.73092817  0.25000000  1.0
  Os  Os4  1  0.16521749  0.83478251  0.94144937  1.0
  Os  Os5  1  0.16521749  0.83478251  0.55855063  1.0
  Os  Os6  1  -0.16521749  0.16521749  0.44144937  1.0
  Os  Os7  1  -0.16521749  0.16521749  0.05855063  1.0
  C  C8  1  0.00000000  0.00000000  0.00000000  1.0
  C  C9  1  0.00000000  0.00000000  0.50000000  1.0
