# generated using pymatgen
data_CrCl3
_symmetry_space_group_name_H-M   'P 1'
_cell_length_a   6.06456877
_cell_length_b   6.06456877
_cell_length_c   6.97909755
_cell_angle_alpha   81.98688827
_cell_angle_beta   98.01311173
_cell_angle_gamma   60.00762621
_symmetry_Int_Tables_number   1
_chemical_formula_structural   CrCl3
_chemical_formula_sum   'Cr2 Cl6'
_cell_volume   213.49936381
_cell_formula_units_Z   2
loop_
 _symmetry_equiv_pos_site_id
 _symmetry_equiv_pos_as_xyz
  1  'x, y, z'
loop_
 _atom_site_type_symbol
 _atom_site_label
 _atom_site_symmetry_multiplicity
 _atom_site_fract_x
 _atom_site_fract_y
 _atom_site_fract_z
 _atom_site_occupancy
  Cr  Cr0  1  0.83332180  -0.16667820  -0.00000000  1.0
  Cr  Cr1  1  1.16667820  0.16667820  -0.00000000  1.0
  Cl  Cl2  1  0.43613055  -0.07566171  0.80085435  1.0
  Cl  Cl3  1  1.07566171  0.56386945  0.80085435  1.0
  Cl  Cl4  1  0.92433829  -0.56386945  0.19914565  1.0
  Cl  Cl5  1  1.56386945  0.07566171  0.19914565  1.0
  Cl  Cl6  1  0.79672923  -0.79672923  0.80066944  1.0
  Cl  Cl7  1  0.20327077  -0.20327077  0.19933056  1.0
