# generated using pymatgen
data_SrCd2Pt
_symmetry_space_group_name_H-M   'P 1'
_cell_length_a   5.80366793
_cell_length_b   5.80366793
_cell_length_c   8.24264577
_cell_angle_alpha   90.00000000
_cell_angle_beta   90.00000000
_cell_angle_gamma   134.78034145
_symmetry_Int_Tables_number   1
_chemical_formula_structural   SrCd2Pt
_chemical_formula_sum   'Sr2 Cd4 Pt2'
_cell_volume   197.06766276
_cell_formula_units_Z   2
loop_
 _symmetry_equiv_pos_site_id
 _symmetry_equiv_pos_as_xyz
  1  'x, y, z'
loop_
 _atom_site_type_symbol
 _atom_site_label
 _atom_site_symmetry_multiplicity
 _atom_site_fract_x
 _atom_site_fract_y
 _atom_site_fract_z
 _atom_site_occupancy
  Sr  Sr0  1  0.43639884  0.56360116  0.75000000  1.0
  Sr  Sr1  1  -0.43639884  0.43639884  0.25000000  1.0
  Cd  Cd2  1  0.14796111  0.85203889  0.94483292  1.0
  Cd  Cd3  1  0.14796111  0.85203889  0.55516708  1.0
  Cd  Cd4  1  -0.14796111  0.14796111  0.44483292  1.0
  Cd  Cd5  1  -0.14796111  0.14796111  0.05516708  1.0
  Pt  Pt6  1  -0.27621605  0.27621605  0.75000000  1.0
  Pt  Pt7  1  0.27621605  0.72378395  0.25000000  1.0
