# generated using pymatgen
data_BaGePt
_symmetry_space_group_name_H-M   'P 1'
_cell_length_a   6.83632720
_cell_length_b   6.83632720
_cell_length_c   6.83632720
_cell_angle_alpha   90.00000000
_cell_angle_beta   90.00000000
_cell_angle_gamma   90.00000000
_symmetry_Int_Tables_number   1
_chemical_formula_structural   BaGePt
_chemical_formula_sum   'Ba4 Ge4 Pt4'
_cell_volume   319.49827789
_cell_formula_units_Z   4
loop_
 _symmetry_equiv_pos_site_id
 _symmetry_equiv_pos_as_xyz
  1  'x, y, z'
loop_
 _atom_site_type_symbol
 _atom_site_label
 _atom_site_symmetry_multiplicity
 _atom_site_fract_x
 _atom_site_fract_y
 _atom_site_fract_z
 _atom_site_occupancy
  Ba  Ba0  1  0.13627876  0.63627876  0.86372124  1.0
  Ba  Ba1  1  0.63627876  0.86372124  0.13627876  1.0
  Ba  Ba2  1  0.86372124  0.13627876  0.63627876  1.0
  Ba  Ba3  1  0.36372124  0.36372124  0.36372124  1.0
  Ge  Ge4  1  0.84190402  0.34190402  0.15809598  1.0
  Ge  Ge5  1  0.34190402  0.15809598  0.84190402  1.0
  Ge  Ge6  1  0.15809598  0.84190402  0.34190402  1.0
  Ge  Ge7  1  0.65809598  0.65809598  0.65809598  1.0
  Pt  Pt8  1  0.40992454  0.90992454  0.59007546  1.0
  Pt  Pt9  1  0.90992454  0.59007546  0.40992454  1.0
  Pt  Pt10  1  0.59007546  0.40992454  0.90992454  1.0
  Pt  Pt11  1  0.09007546  0.09007546  0.09007546  1.0
