# generated using pymatgen
data_NaLaH2S2O9
_symmetry_space_group_name_H-M   'P 1'
_cell_length_a   7.15051026
_cell_length_b   7.15051026
_cell_length_c   13.14625024
_cell_angle_alpha   90.00000000
_cell_angle_beta   90.00000000
_cell_angle_gamma   120.00000000
_symmetry_Int_Tables_number   1
_chemical_formula_structural   NaLaH2S2O9
_chemical_formula_sum   'Na3 La3 H6 S6 O27'
_cell_volume   582.11205669
_cell_formula_units_Z   3
loop_
 _symmetry_equiv_pos_site_id
 _symmetry_equiv_pos_as_xyz
  1  'x, y, z'
loop_
 _atom_site_type_symbol
 _atom_site_label
 _atom_site_symmetry_multiplicity
 _atom_site_fract_x
 _atom_site_fract_y
 _atom_site_fract_z
 _atom_site_occupancy
  Na  Na0  1  0.52349276  0.52349276  0.50000000  1.0
  Na  Na1  1  0.00000000  0.47650724  0.16666667  1.0
  Na  Na2  1  0.47650724  0.00000000  0.83333333  1.0
  La  La3  1  0.56492522  0.56492522  0.00000000  1.0
  La  La4  1  0.00000000  0.43507478  0.66666667  1.0
  La  La5  1  0.43507478  0.00000000  0.33333333  1.0
  H  H6  1  0.05984743  0.95323007  0.03077581  1.0
  H  H7  1  0.95323007  0.05984743  0.96922419  1.0
  H  H8  1  0.89338264  0.94015257  0.69744248  1.0
  H  H9  1  0.04676993  0.10661736  0.36410914  1.0
  H  H10  1  0.94015257  0.89338264  0.30255752  1.0
  H  H11  1  0.10661736  0.04676993  0.63589086  1.0
  S  S12  1  0.55603928  0.54308617  0.75566117  1.0
  S  S13  1  0.54308617  0.55603928  0.24433883  1.0
  S  S14  1  0.98704689  0.44396072  0.42232784  1.0
  S  S15  1  0.45691383  0.01295311  0.08899451  1.0
  S  S16  1  0.44396072  0.98704689  0.57767216  1.0
  S  S17  1  0.01295311  0.45691383  0.91100549  1.0
  O  O18  1  0.26487765  0.87013057  0.15417778  1.0
  O  O19  1  0.87013057  0.26487765  0.84582222  1.0
  O  O20  1  0.60525291  0.73512235  0.82084445  1.0
  O  O21  1  0.12986943  0.39474709  0.48751112  1.0
  O  O22  1  0.73512235  0.60525291  0.17915555  1.0
  O  O23  1  0.39474709  0.12986943  0.51248888  1.0
  O  O24  1  0.13427786  0.64168309  0.83924282  1.0
  O  O25  1  0.64168309  0.13427786  0.16075718  1.0
  O  O26  1  0.50740523  0.86572214  0.50590949  1.0
  O  O27  1  0.35831691  0.49259477  0.17257616  1.0
  O  O28  1  0.86572214  0.50740523  0.49409051  1.0
  O  O29  1  0.49259477  0.35831691  0.82742384  1.0
  O  O30  1  0.75288227  0.59063140  0.69588341  1.0
  O  O31  1  0.59063140  0.75288227  0.30411659  1.0
  O  O32  1  0.83774913  0.24711773  0.36255007  1.0
  O  O33  1  0.40936860  0.16225087  0.02921674  1.0
  O  O34  1  0.24711773  0.83774913  0.63744993  1.0
  O  O35  1  0.16225087  0.40936860  0.97078326  1.0
  O  O36  1  0.88286973  0.50244603  0.98507442  1.0
  O  O37  1  0.50244603  0.88286973  0.01492558  1.0
  O  O38  1  0.61957630  0.11713027  0.65174108  1.0
  O  O39  1  0.49755397  0.38042370  0.31840775  1.0
  O  O40  1  0.11713027  0.61957630  0.34825892  1.0
  O  O41  1  0.38042370  0.49755397  0.68159225  1.0
  O  O42  1  0.92352696  0.92352696  0.00000000  1.0
  O  O43  1  0.00000000  0.07647304  0.66666667  1.0
  O  O44  1  0.07647304  0.00000000  0.33333333  1.0
