# generated using pymatgen
data_SrMgP3N5O2
_symmetry_space_group_name_H-M   'P 1'
_cell_length_a   7.06501086
_cell_length_b   6.63400731
_cell_length_c   14.22234003
_cell_angle_alpha   90.00000000
_cell_angle_beta   118.99287382
_cell_angle_gamma   90.00000000
_symmetry_Int_Tables_number   1
_chemical_formula_structural   SrMgP3N5O2
_chemical_formula_sum   'Sr4 Mg4 P12 N20 O8'
_cell_volume   583.05434015
_cell_formula_units_Z   4
loop_
 _symmetry_equiv_pos_site_id
 _symmetry_equiv_pos_as_xyz
  1  'x, y, z'
loop_
 _atom_site_type_symbol
 _atom_site_label
 _atom_site_symmetry_multiplicity
 _atom_site_fract_x
 _atom_site_fract_y
 _atom_site_fract_z
 _atom_site_occupancy
  Sr  Sr0  1  0.51197460  0.25429192  0.38677091  1.0
  Sr  Sr1  1  0.51197460  0.24570808  0.88677091  1.0
  Sr  Sr2  1  0.48802540  0.75429192  0.11322909  1.0
  Sr  Sr3  1  0.48802540  0.74570808  0.61322909  1.0
  Mg  Mg4  1  0.97766691  0.49469198  0.11480569  1.0
  Mg  Mg5  1  0.97766691  0.00530802  0.61480569  1.0
  Mg  Mg6  1  0.02233309  0.99469198  0.38519431  1.0
  Mg  Mg7  1  0.02233309  0.50530802  0.88519431  1.0
  P  P8  1  0.93822900  0.98607678  0.11907049  1.0
  P  P9  1  0.93822900  0.51392322  0.61907049  1.0
  P  P10  1  0.06177100  0.48607678  0.38092951  1.0
  P  P11  1  0.06177100  0.01392322  0.88092951  1.0
  P  P12  1  0.73942795  0.72391438  0.41087943  1.0
  P  P13  1  0.73942795  0.77608562  0.91087943  1.0
  P  P14  1  0.26057205  0.22391438  0.08912057  1.0
  P  P15  1  0.26057205  0.27608562  0.58912057  1.0
  P  P16  1  0.72682633  0.24305179  0.20926502  1.0
  P  P17  1  0.72682633  0.25694821  0.70926502  1.0
  P  P18  1  0.27317367  0.74305179  0.29073498  1.0
  P  P19  1  0.27317367  0.75694821  0.79073498  1.0
  N  N20  1  0.93756274  0.69270363  0.38327813  1.0
  N  N21  1  0.93756274  0.80729637  0.88327813  1.0
  N  N22  1  0.06243726  0.19270363  0.11672187  1.0
  N  N23  1  0.06243726  0.30729637  0.61672187  1.0
  N  N24  1  0.89552320  0.29287200  0.33757920  1.0
  N  N25  1  0.89552320  0.20712800  0.83757920  1.0
  N  N26  1  0.10447680  0.79287200  0.16242080  1.0
  N  N27  1  0.10447680  0.70712800  0.66242080  1.0
  N  N28  1  0.82085133  0.02567113  0.19287021  1.0
  N  N29  1  0.82085133  0.47432887  0.69287021  1.0
  N  N30  1  0.17914867  0.52567113  0.30712979  1.0
  N  N31  1  0.17914867  0.97432887  0.80712979  1.0
  N  N32  1  0.49034982  0.20200143  0.20035465  1.0
  N  N33  1  0.49034982  0.29799857  0.70035465  1.0
  N  N34  1  0.50965018  0.70200143  0.29964535  1.0
  N  N35  1  0.50965018  0.79799857  0.79964535  1.0
  N  N36  1  0.26473128  0.42757109  0.49993451  1.0
  N  N37  1  0.26473128  0.07242891  0.99993451  1.0
  N  N38  1  0.73526872  0.92757109  0.00006549  1.0
  N  N39  1  0.73526872  0.57242891  0.50006549  1.0
  O  O40  1  0.77781519  0.95006994  0.45155590  1.0
  O  O41  1  0.77781519  0.54993006  0.95155590  1.0
  O  O42  1  0.22218481  0.45006994  0.04844410  1.0
  O  O43  1  0.22218481  0.04993006  0.54844410  1.0
  O  O44  1  0.71527579  0.41627054  0.13151511  1.0
  O  O45  1  0.71527579  0.08372946  0.63151511  1.0
  O  O46  1  0.28472421  0.91627054  0.36848489  1.0
  O  O47  1  0.28472421  0.58372946  0.86848489  1.0
