# generated using pymatgen
data_YH2NO5
_symmetry_space_group_name_H-M   'P 1'
_cell_length_a   6.37695508
_cell_length_b   3.68035025
_cell_length_c   7.89882112
_cell_angle_alpha   90.00000000
_cell_angle_beta   95.35094844
_cell_angle_gamma   90.00000000
_symmetry_Int_Tables_number   1
_chemical_formula_structural   YH2NO5
_chemical_formula_sum   'Y2 H4 N2 O10'
_cell_volume   184.57295680
_cell_formula_units_Z   2
loop_
 _symmetry_equiv_pos_site_id
 _symmetry_equiv_pos_as_xyz
  1  'x, y, z'
loop_
 _atom_site_type_symbol
 _atom_site_label
 _atom_site_symmetry_multiplicity
 _atom_site_fract_x
 _atom_site_fract_y
 _atom_site_fract_z
 _atom_site_occupancy
  Y  Y0  1  0.23992357  0.90229997  0.41546504  1.0
  Y  Y1  1  0.76007643  0.40229997  0.58453496  1.0
  H  H2  1  0.33764551  0.38683391  0.69036289  1.0
  H  H3  1  0.66235449  0.88683391  0.30963711  1.0
  H  H4  1  0.08042405  0.91413413  0.74911125  1.0
  H  H5  1  0.91957595  0.41413413  0.25088875  1.0
  N  N6  1  0.27625599  0.23807875  0.08368239  1.0
  N  N7  1  0.72374401  0.73807875  0.91631761  1.0
  O  O8  1  0.01255069  0.91486731  0.63329821  1.0
  O  O9  1  0.98744931  0.41486731  0.36670179  1.0
  O  O10  1  0.37613649  0.37189543  0.21954797  1.0
  O  O11  1  0.62386351  0.87189543  0.78045203  1.0
  O  O12  1  0.37772839  0.39377248  0.57435953  1.0
  O  O13  1  0.62227161  0.89377248  0.42564047  1.0
  O  O14  1  0.30564869  0.34971058  0.94202453  1.0
  O  O15  1  0.69435131  0.84971058  0.05797547  1.0
  O  O16  1  0.14822351  0.98270743  0.10756664  1.0
  O  O17  1  0.85177649  0.48270743  0.89243336  1.0
