# generated using pymatgen
data_ZrCrSi
_symmetry_space_group_name_H-M   'P 1'
_cell_length_a   6.75625074
_cell_length_b   3.49730181
_cell_length_c   7.91134561
_cell_angle_alpha   90.00000000
_cell_angle_beta   90.00000000
_cell_angle_gamma   90.00000000
_symmetry_Int_Tables_number   1
_chemical_formula_structural   ZrCrSi
_chemical_formula_sum   'Zr4 Cr4 Si4'
_cell_volume   186.93440004
_cell_formula_units_Z   4
loop_
 _symmetry_equiv_pos_site_id
 _symmetry_equiv_pos_as_xyz
  1  'x, y, z'
loop_
 _atom_site_type_symbol
 _atom_site_label
 _atom_site_symmetry_multiplicity
 _atom_site_fract_x
 _atom_site_fract_y
 _atom_site_fract_z
 _atom_site_occupancy
  Zr  Zr0  1  0.95790574  0.75000000  0.66910246  1.0
  Zr  Zr1  1  0.45790574  0.75000000  0.83089754  1.0
  Zr  Zr2  1  0.04209426  0.25000000  0.33089754  1.0
  Zr  Zr3  1  0.54209426  0.25000000  0.16910246  1.0
  Cr  Cr4  1  0.87975942  0.75000000  0.05629541  1.0
  Cr  Cr5  1  0.37975942  0.75000000  0.44370459  1.0
  Cr  Cr6  1  0.12024058  0.25000000  0.94370459  1.0
  Cr  Cr7  1  0.62024058  0.25000000  0.55629541  1.0
  Si  Si8  1  0.74039934  0.75000000  0.36570382  1.0
  Si  Si9  1  0.24039934  0.75000000  0.13429618  1.0
  Si  Si10  1  0.25960066  0.25000000  0.63429618  1.0
  Si  Si11  1  0.75960066  0.25000000  0.86570382  1.0
