# generated using pymatgen
data_Mg2Ta4O9
_symmetry_space_group_name_H-M   'P 1'
_cell_length_a   5.25000706
_cell_length_b   5.25000706
_cell_length_c   14.18301280
_cell_angle_alpha   90.00000000
_cell_angle_beta   90.00000000
_cell_angle_gamma   120.00000000
_symmetry_Int_Tables_number   1
_chemical_formula_structural   Mg2Ta4O9
_chemical_formula_sum   'Mg4 Ta8 O18'
_cell_volume   338.54694624
_cell_formula_units_Z   2
loop_
 _symmetry_equiv_pos_site_id
 _symmetry_equiv_pos_as_xyz
  1  'x, y, z'
loop_
 _atom_site_type_symbol
 _atom_site_label
 _atom_site_symmetry_multiplicity
 _atom_site_fract_x
 _atom_site_fract_y
 _atom_site_fract_z
 _atom_site_occupancy
  Mg  Mg0  1  -0.00000000  0.00000000  0.15238123  1.0
  Mg  Mg1  1  0.00000000  -0.00000000  0.65238123  1.0
  Mg  Mg2  1  -0.00000000  0.00000000  0.34761877  1.0
  Mg  Mg3  1  0.00000000  0.00000000  0.84761877  1.0
  Ta  Ta4  1  0.33333333  0.66666667  0.00901913  1.0
  Ta  Ta5  1  0.33333333  0.66666667  0.50901913  1.0
  Ta  Ta6  1  0.66666667  0.33333333  0.49098087  1.0
  Ta  Ta7  1  0.66666667  0.33333333  0.99098087  1.0
  Ta  Ta8  1  0.33333333  0.66666667  0.32128386  1.0
  Ta  Ta9  1  0.33333333  0.66666667  0.82128386  1.0
  Ta  Ta10  1  0.66666667  0.33333333  0.17871614  1.0
  Ta  Ta11  1  0.66666667  0.33333333  0.67871614  1.0
  O  O12  1  0.98828170  0.65854101  0.08873140  1.0
  O  O13  1  0.98828170  0.32974069  0.58873140  1.0
  O  O14  1  0.65854101  0.98828170  0.41126860  1.0
  O  O15  1  0.65854101  0.67025931  0.91126860  1.0
  O  O16  1  0.67025931  0.65854101  0.58873140  1.0
  O  O17  1  0.67025931  0.01171830  0.08873140  1.0
  O  O18  1  0.34145899  0.01171830  0.58873140  1.0
  O  O19  1  0.34145899  0.32974069  0.08873140  1.0
  O  O20  1  0.01171830  0.67025931  0.41126860  1.0
  O  O21  1  0.01171830  0.34145899  0.91126860  1.0
  O  O22  1  0.32974069  0.98828170  0.91126860  1.0
  O  O23  1  0.32974069  0.34145899  0.41126860  1.0
  O  O24  1  0.68444501  0.68444501  0.25000000  1.0
  O  O25  1  0.68444501  0.00000000  0.75000000  1.0
  O  O26  1  -0.00000000  0.68444501  0.75000000  1.0
  O  O27  1  -0.00000000  0.31555499  0.25000000  1.0
  O  O28  1  0.31555499  0.31555499  0.75000000  1.0
  O  O29  1  0.31555499  -0.00000000  0.25000000  1.0
