# generated using pymatgen
data_La2Co17
_symmetry_space_group_name_H-M   'P 1'
_cell_length_a   6.34540260
_cell_length_b   6.34540260
_cell_length_c   6.34540260
_cell_angle_alpha   83.09364537
_cell_angle_beta   83.09364537
_cell_angle_gamma   83.09364537
_symmetry_Int_Tables_number   1
_chemical_formula_structural   La2Co17
_chemical_formula_sum   'La2 Co17'
_cell_volume   250.34311140
_cell_formula_units_Z   1
loop_
 _symmetry_equiv_pos_site_id
 _symmetry_equiv_pos_as_xyz
  1  'x, y, z'
loop_
 _atom_site_type_symbol
 _atom_site_label
 _atom_site_symmetry_multiplicity
 _atom_site_fract_x
 _atom_site_fract_y
 _atom_site_fract_z
 _atom_site_occupancy
  La  La0  1  0.65495785  0.65495785  -0.34504215  1.0
  La  La1  1  1.34504215  1.34504215  0.34504215  1.0
  Co  Co2  1  0.90468062  0.90468062  -0.09531938  1.0
  Co  Co3  1  1.09531938  1.09531938  0.09531938  1.0
  Co  Co4  1  1.00000000  1.50000000  -0.00000000  1.0
  Co  Co5  1  1.00000000  -0.00000000  -0.50000000  1.0
  Co  Co6  1  0.50000000  -0.00000000  -0.00000000  1.0
  Co  Co7  1  0.71703197  -0.00000000  0.28296803  1.0
  Co  Co8  1  0.71703197  -0.71703197  0.00000000  1.0
  Co  Co9  1  -0.00000000  0.71703197  -0.71703197  1.0
  Co  Co10  1  0.00000000  0.28296803  -0.28296803  1.0
  Co  Co11  1  1.28296803  -0.00000000  -0.28296803  1.0
  Co  Co12  1  0.28296803  -0.28296803  0.00000000  1.0
  Co  Co13  1  0.34133985  0.34133985  -0.14811039  1.0
  Co  Co14  1  0.34133985  0.85188961  -0.65866015  1.0
  Co  Co15  1  0.14811039  0.65866015  -0.34133985  1.0
  Co  Co16  1  0.65866015  0.14811039  -0.34133985  1.0
  Co  Co17  1  0.65866015  -0.34133985  0.14811039  1.0
  Co  Co18  1  0.85188961  0.34133985  -0.65866015  1.0
