# generated using pymatgen
data_Zr5TePb3
_symmetry_space_group_name_H-M   'P 1'
_cell_length_a   8.87900025
_cell_length_b   8.87900025
_cell_length_c   6.19705649
_cell_angle_alpha   90.00000000
_cell_angle_beta   90.00000000
_cell_angle_gamma   120.00000000
_symmetry_Int_Tables_number   1
_chemical_formula_structural   Zr5TePb3
_chemical_formula_sum   'Zr10 Te2 Pb6'
_cell_volume   423.10116770
_cell_formula_units_Z   2
loop_
 _symmetry_equiv_pos_site_id
 _symmetry_equiv_pos_as_xyz
  1  'x, y, z'
loop_
 _atom_site_type_symbol
 _atom_site_label
 _atom_site_symmetry_multiplicity
 _atom_site_fract_x
 _atom_site_fract_y
 _atom_site_fract_z
 _atom_site_occupancy
  Zr  Zr0  1  0.66666667  0.33333333  0.50000000  1.0
  Zr  Zr1  1  0.33333333  0.66666667  0.50000000  1.0
  Zr  Zr2  1  0.33333333  0.66666667  0.00000000  1.0
  Zr  Zr3  1  0.66666667  0.33333333  -0.00000000  1.0
  Zr  Zr4  1  0.72313138  0.72313138  0.25000000  1.0
  Zr  Zr5  1  0.27686862  -0.00000000  0.25000000  1.0
  Zr  Zr6  1  0.00000000  0.27686862  0.25000000  1.0
  Zr  Zr7  1  0.27686862  0.27686862  0.75000000  1.0
  Zr  Zr8  1  0.72313138  0.00000000  0.75000000  1.0
  Zr  Zr9  1  -0.00000000  0.72313138  0.75000000  1.0
  Te  Te10  1  0.00000000  0.00000000  0.50000000  1.0
  Te  Te11  1  -0.00000000  -0.00000000  0.00000000  1.0
  Pb  Pb12  1  0.38883335  0.38883335  0.25000000  1.0
  Pb  Pb13  1  0.61116665  0.00000000  0.25000000  1.0
  Pb  Pb14  1  -0.00000000  0.61116665  0.25000000  1.0
  Pb  Pb15  1  0.61116665  0.61116665  0.75000000  1.0
  Pb  Pb16  1  0.38883335  -0.00000000  0.75000000  1.0
  Pb  Pb17  1  -0.00000000  0.38883335  0.75000000  1.0
