# generated using pymatgen
data_Na2MoO4
_symmetry_space_group_name_H-M   'P 1'
_cell_length_a   8.34224759
_cell_length_b   7.21196868
_cell_length_c   6.22784249
_cell_angle_alpha   76.34578895
_cell_angle_beta   57.14843248
_cell_angle_gamma   46.50577857
_symmetry_Int_Tables_number   1
_chemical_formula_structural   Na2MoO4
_chemical_formula_sum   'Na4 Mo2 O8'
_cell_volume   222.47741170
_cell_formula_units_Z   2
loop_
 _symmetry_equiv_pos_site_id
 _symmetry_equiv_pos_as_xyz
  1  'x, y, z'
loop_
 _atom_site_type_symbol
 _atom_site_label
 _atom_site_symmetry_multiplicity
 _atom_site_fract_x
 _atom_site_fract_y
 _atom_site_fract_z
 _atom_site_occupancy
  Na  Na0  1  0.56886961  0.93113039  -0.43113039  1.0
  Na  Na1  1  0.93113039  0.56886961  0.93113039  1.0
  Na  Na2  1  0.68113039  0.31886961  -0.31886961  1.0
  Na  Na3  1  0.31886961  0.68113039  0.31886961  1.0
  Mo  Mo4  1  0.25000000  1.25000000  0.25000000  1.0
  Mo  Mo5  1  0.00000000  1.00000000  -0.00000000  1.0
  O  O6  1  0.43080183  0.91538643  0.27193357  1.0
  O  O7  1  0.38187817  1.27193357  -0.08461357  1.0
  O  O8  1  -0.08461357  1.43080183  0.38187817  1.0
  O  O9  1  1.27193357  0.38187817  0.43080183  1.0
  O  O10  1  0.81919817  0.33461357  0.97806643  1.0
  O  O11  1  -0.13187817  0.97806643  0.33461357  1.0
  O  O12  1  0.33461357  0.81919817  -0.13187817  1.0
  O  O13  1  -0.02193357  0.86812183  0.81919817  1.0
