# generated using pymatgen
data_MnMoO5
_symmetry_space_group_name_H-M   'P 1'
_cell_length_a   5.45220706
_cell_length_b   8.15709678
_cell_length_c   5.45799573
_cell_angle_alpha   113.37884663
_cell_angle_beta   75.29522940
_cell_angle_gamma   115.79719619
_symmetry_Int_Tables_number   1
_chemical_formula_structural   MnMoO5
_chemical_formula_sum   'Mn2 Mo2 O10'
_cell_volume   199.63634944
_cell_formula_units_Z   2
loop_
 _symmetry_equiv_pos_site_id
 _symmetry_equiv_pos_as_xyz
  1  'x, y, z'
loop_
 _atom_site_type_symbol
 _atom_site_label
 _atom_site_symmetry_multiplicity
 _atom_site_fract_x
 _atom_site_fract_y
 _atom_site_fract_z
 _atom_site_occupancy
  Mo  Mo0  1  -0.61853535  -0.80247325  -0.64449352  1.0
  Mo  Mo1  1  -0.38146465  -0.19752675  -0.35550648  1.0
  O  O2  1  -0.82843970  -0.66922882  -0.44114145  1.0
  O  O3  1  -0.17156030  -0.33077118  -0.55885855  1.0
  O  O4  1  -0.82067811  -1.05236868  -0.76487166  1.0
  O  O5  1  -0.17932189  0.05236868  -0.23512834  1.0
  O  O6  1  -0.91717790  -0.57137812  -0.90206438  1.0
  O  O7  1  -0.08282210  -0.42862188  -0.09793562  1.0
  O  O8  1  -0.37227926  -0.77155499  -0.45878475  1.0
  O  O9  1  -0.62772074  -0.22844501  -0.54121525  1.0
  O  O10  1  -0.54170492  -0.27691882  -1.07204313  1.0
  O  O11  1  -0.45829508  -0.72308118  0.07204313  1.0
  Mn  Mn12  1  -0.86767056  -0.32385879  -0.83139312  1.0
  Mn  Mn13  1  -0.13232944  -0.67614121  -0.16860688  1.0
