# generated using pymatgen
data_C3N4
_symmetry_space_group_name_H-M   'P 1'
_cell_length_a   7.12730519
_cell_length_b   7.12730519
_cell_length_c   7.29744967
_cell_angle_alpha   90.00000000
_cell_angle_beta   90.00000000
_cell_angle_gamma   120.00000000
_symmetry_Int_Tables_number   1
_chemical_formula_structural   C3N4
_chemical_formula_sum   'C12 N16'
_cell_volume   321.03505070
_cell_formula_units_Z   4
loop_
 _symmetry_equiv_pos_site_id
 _symmetry_equiv_pos_as_xyz
  1  'x, y, z'
loop_
 _atom_site_type_symbol
 _atom_site_label
 _atom_site_symmetry_multiplicity
 _atom_site_fract_x
 _atom_site_fract_y
 _atom_site_fract_z
 _atom_site_occupancy
  C  C0  1  0.88084609  0.76169218  0.00000000  1.0
  C  C1  1  0.88084609  0.11915391  0.00000000  1.0
  C  C2  1  0.23830782  0.11915391  0.00000000  1.0
  C  C3  1  0.55406345  0.44593655  0.00000000  1.0
  C  C4  1  0.89187309  0.44593655  0.00000000  1.0
  C  C5  1  0.55406345  0.10812691  0.00000000  1.0
  C  C6  1  0.22093689  0.77906311  0.50000000  1.0
  C  C7  1  0.55812622  0.77906311  0.50000000  1.0
  C  C8  1  0.22093689  0.44187378  0.50000000  1.0
  C  C9  1  0.90620002  0.45310001  0.50000000  1.0
  C  C10  1  0.54689999  0.09379998  0.50000000  1.0
  C  C11  1  0.54689999  0.45310001  0.50000000  1.0
  N  N12  1  0.00000000  0.00000000  0.00000000  1.0
  N  N13  1  -0.00376056  0.33500619  0.00000000  1.0
  N  N14  1  0.33876675  0.00376056  0.00000000  1.0
  N  N15  1  0.66499381  0.66123325  0.00000000  1.0
  N  N16  1  0.66666667  0.33333333  0.00000000  1.0
  N  N17  1  0.00564548  0.66848535  0.50000000  1.0
  N  N18  1  0.66283987  -0.00564548  0.50000000  1.0
  N  N19  1  0.33151465  0.33716013  0.50000000  1.0
  N  N20  1  0.33333333  0.66666667  0.50000000  1.0
  N  N21  1  0.66666667  0.33333333  0.50000000  1.0
  N  N22  1  -0.00376056  0.66123325  0.00000000  1.0
  N  N23  1  0.66499381  0.00376056  0.00000000  1.0
  N  N24  1  0.33876675  0.33500619  0.00000000  1.0
  N  N25  1  0.00564548  0.33716013  0.50000000  1.0
  N  N26  1  0.33151465  -0.00564548  0.50000000  1.0
  N  N27  1  0.66283987  0.66848535  0.50000000  1.0
