# generated using pymatgen
data_Ta2Au
_symmetry_space_group_name_H-M   'P 1'
_cell_length_a   10.08668475
_cell_length_b   10.08668475
_cell_length_c   5.22784443
_cell_angle_alpha   90.00000000
_cell_angle_beta   90.00000000
_cell_angle_gamma   90.00000000
_symmetry_Int_Tables_number   1
_chemical_formula_structural   Ta2Au
_chemical_formula_sum   'Ta20 Au10'
_cell_volume   531.88721414
_cell_formula_units_Z   10
loop_
 _symmetry_equiv_pos_site_id
 _symmetry_equiv_pos_as_xyz
  1  'x, y, z'
loop_
 _atom_site_type_symbol
 _atom_site_label
 _atom_site_symmetry_multiplicity
 _atom_site_fract_x
 _atom_site_fract_y
 _atom_site_fract_z
 _atom_site_occupancy
  Ta  Ta0  1  0.10380060  0.89619940  0.50000000  1.0
  Ta  Ta1  1  0.89619940  0.10380060  0.50000000  1.0
  Ta  Ta2  1  0.39619940  0.39619940  0.00000000  1.0
  Ta  Ta3  1  0.60380060  0.60380060  0.00000000  1.0
  Ta  Ta4  1  0.37073342  0.96444262  0.50000000  1.0
  Ta  Ta5  1  0.62926658  0.03555738  0.50000000  1.0
  Ta  Ta6  1  0.12926658  0.46444262  0.00000000  1.0
  Ta  Ta7  1  0.87073342  0.53555738  0.00000000  1.0
  Ta  Ta8  1  0.96444262  0.37073342  0.50000000  1.0
  Ta  Ta9  1  0.03555738  0.62926658  0.50000000  1.0
  Ta  Ta10  1  0.46444262  0.12926658  0.00000000  1.0
  Ta  Ta11  1  0.53555738  0.87073342  0.00000000  1.0
  Ta  Ta12  1  0.31708224  0.68291776  0.24989676  1.0
  Ta  Ta13  1  0.68291776  0.31708224  0.24989676  1.0
  Ta  Ta14  1  0.18291776  0.18291776  0.74989676  1.0
  Ta  Ta15  1  0.81708224  0.81708224  0.74989676  1.0
  Ta  Ta16  1  0.68291776  0.31708224  0.75010324  1.0
  Ta  Ta17  1  0.31708224  0.68291776  0.75010324  1.0
  Ta  Ta18  1  0.81708224  0.81708224  0.25010324  1.0
  Ta  Ta19  1  0.18291776  0.18291776  0.25010324  1.0
  Au  Au20  1  0.50000000  0.50000000  0.50000000  1.0
  Au  Au21  1  0.00000000  0.00000000  0.00000000  1.0
  Au  Au22  1  0.43616933  0.23265032  0.50000000  1.0
  Au  Au23  1  0.56383067  0.76734968  0.50000000  1.0
  Au  Au24  1  0.06383067  0.73265032  0.00000000  1.0
  Au  Au25  1  0.93616933  0.26734968  0.00000000  1.0
  Au  Au26  1  0.23265032  0.43616933  0.50000000  1.0
  Au  Au27  1  0.76734968  0.56383067  0.50000000  1.0
  Au  Au28  1  0.73265032  0.06383067  0.00000000  1.0
  Au  Au29  1  0.26734968  0.93616933  0.00000000  1.0
