# generated using pymatgen
data_LaSbAu
_symmetry_space_group_name_H-M   'P 1'
_cell_length_a   4.70734542
_cell_length_b   4.70734542
_cell_length_c   17.02143022
_cell_angle_alpha   90.00000000
_cell_angle_beta   90.00000000
_cell_angle_gamma   120.00000000
_symmetry_Int_Tables_number   1
_chemical_formula_structural   LaSbAu
_chemical_formula_sum   'La4 Sb4 Au4'
_cell_volume   326.64710596
_cell_formula_units_Z   4
loop_
 _symmetry_equiv_pos_site_id
 _symmetry_equiv_pos_as_xyz
  1  'x, y, z'
loop_
 _atom_site_type_symbol
 _atom_site_label
 _atom_site_symmetry_multiplicity
 _atom_site_fract_x
 _atom_site_fract_y
 _atom_site_fract_z
 _atom_site_occupancy
  La  La0  1  -0.00000000  -0.00000000  0.25000000  1.0
  La  La1  1  -0.00000000  -0.00000000  0.75000000  1.0
  La  La2  1  0.00000000  0.00000000  0.50000000  1.0
  La  La3  1  0.00000000  0.00000000  0.00000000  1.0
  Sb  Sb4  1  0.33333333  0.66666667  0.88931433  1.0
  Sb  Sb5  1  0.33333333  0.66666667  0.61068567  1.0
  Sb  Sb6  1  0.66666667  0.33333333  0.38931433  1.0
  Sb  Sb7  1  0.66666667  0.33333333  0.11068567  1.0
  Au  Au8  1  0.33333333  0.66666667  0.33896252  1.0
  Au  Au9  1  0.33333333  0.66666667  0.16103748  1.0
  Au  Au10  1  0.66666667  0.33333333  0.83896252  1.0
  Au  Au11  1  0.66666667  0.33333333  0.66103748  1.0
