# generated using pymatgen
data_Cu3(AsO4)2
_symmetry_space_group_name_H-M   'P 1'
_cell_length_a   5.52708196
_cell_length_b   11.89603155
_cell_length_c   5.16929087
_cell_angle_alpha   90.00000000
_cell_angle_beta   111.92983901
_cell_angle_gamma   90.00000000
_symmetry_Int_Tables_number   1
_chemical_formula_structural   Cu3(AsO4)2
_chemical_formula_sum   'Cu6 As4 O16'
_cell_volume   315.28937087
_cell_formula_units_Z   2
loop_
 _symmetry_equiv_pos_site_id
 _symmetry_equiv_pos_as_xyz
  1  'x, y, z'
loop_
 _atom_site_type_symbol
 _atom_site_label
 _atom_site_symmetry_multiplicity
 _atom_site_fract_x
 _atom_site_fract_y
 _atom_site_fract_z
 _atom_site_occupancy
  Cu  Cu0  1  0.63509989  0.66338846  0.74734613  1.0
  Cu  Cu1  1  0.63509989  0.83661154  0.24734613  1.0
  Cu  Cu2  1  0.36490011  0.16338846  0.75265387  1.0
  Cu  Cu3  1  0.36490011  0.33661154  0.25265387  1.0
  Cu  Cu4  1  0.00000000  0.00000000  0.00000000  1.0
  Cu  Cu5  1  0.00000000  0.50000000  0.50000000  1.0
  O  O6  1  0.94655569  0.81618616  0.58711127  1.0
  O  O7  1  0.94655569  0.68381384  0.08711127  1.0
  O  O8  1  0.05344431  0.31618616  0.91288873  1.0
  O  O9  1  0.05344431  0.18381384  0.41288873  1.0
  O  O10  1  0.27673087  0.58078369  0.79818558  1.0
  O  O11  1  0.27673087  0.91921631  0.29818558  1.0
  O  O12  1  0.72326913  0.08078369  0.70181442  1.0
  O  O13  1  0.72326913  0.41921631  0.20181442  1.0
  O  O14  1  0.77421993  0.51236577  0.70662113  1.0
  O  O15  1  0.77421993  0.98763423  0.20662113  1.0
  O  O16  1  0.22578007  0.01236577  0.79337887  1.0
  O  O17  1  0.22578007  0.48763423  0.29337887  1.0
  O  O18  1  0.49981442  0.81084675  0.82891966  1.0
  O  O19  1  0.49981442  0.68915325  0.32891966  1.0
  O  O20  1  0.50018558  0.31084675  0.67108034  1.0
  O  O21  1  0.50018558  0.18915325  0.17108034  1.0
  As  As22  1  0.77308783  0.38562049  0.89466928  1.0
  As  As23  1  0.77308783  0.11437951  0.39466928  1.0
  As  As24  1  0.22691217  0.88562049  0.60533072  1.0
  As  As25  1  0.22691217  0.61437951  0.10533072  1.0
