# generated using pymatgen
data_Na2PdCl4
_symmetry_space_group_name_H-M   'P 1'
_cell_length_a   9.69354938
_cell_length_b   9.69354938
_cell_length_c   7.67305890
_cell_angle_alpha   90.00000000
_cell_angle_beta   90.00000000
_cell_angle_gamma   90.00000000
_symmetry_Int_Tables_number   1
_chemical_formula_structural   Na2PdCl4
_chemical_formula_sum   'Na8 Pd4 Cl16'
_cell_volume   720.99820899
_cell_formula_units_Z   4
loop_
 _symmetry_equiv_pos_site_id
 _symmetry_equiv_pos_as_xyz
  1  'x, y, z'
loop_
 _atom_site_type_symbol
 _atom_site_label
 _atom_site_symmetry_multiplicity
 _atom_site_fract_x
 _atom_site_fract_y
 _atom_site_fract_z
 _atom_site_occupancy
  Na  Na0  1  0.80450398  0.19549602  0.25000000  1.0
  Na  Na1  1  0.19549602  0.19549602  0.75000000  1.0
  Na  Na2  1  0.80450398  0.80450398  0.75000000  1.0
  Na  Na3  1  0.19549602  0.80450398  0.25000000  1.0
  Na  Na4  1  0.69549602  0.30450398  0.75000000  1.0
  Na  Na5  1  0.30450398  0.30450398  0.25000000  1.0
  Na  Na6  1  0.69549602  0.69549602  0.25000000  1.0
  Na  Na7  1  0.30450398  0.69549602  0.75000000  1.0
  Pd  Pd8  1  0.00000000  0.50000000  0.43601859  1.0
  Pd  Pd9  1  0.00000000  0.50000000  0.93601859  1.0
  Pd  Pd10  1  0.50000000  0.00000000  0.56398141  1.0
  Pd  Pd11  1  0.50000000  0.00000000  0.06398141  1.0
  Cl  Cl12  1  0.05343848  0.26536409  0.43217581  1.0
  Cl  Cl13  1  0.94656152  0.26536409  0.93217581  1.0
  Cl  Cl14  1  0.05343848  0.73463591  0.93217581  1.0
  Cl  Cl15  1  0.94656152  0.73463591  0.43217581  1.0
  Cl  Cl16  1  0.76536409  0.55343848  0.93217581  1.0
  Cl  Cl17  1  0.23463591  0.55343848  0.43217581  1.0
  Cl  Cl18  1  0.76536409  0.44656152  0.43217581  1.0
  Cl  Cl19  1  0.23463591  0.44656152  0.93217581  1.0
  Cl  Cl20  1  0.44656152  0.23463591  0.56782419  1.0
  Cl  Cl21  1  0.55343848  0.23463591  0.06782419  1.0
  Cl  Cl22  1  0.44656152  0.76536409  0.06782419  1.0
  Cl  Cl23  1  0.55343848  0.76536409  0.56782419  1.0
  Cl  Cl24  1  0.73463591  0.94656152  0.06782419  1.0
  Cl  Cl25  1  0.26536409  0.94656152  0.56782419  1.0
  Cl  Cl26  1  0.73463591  0.05343848  0.56782419  1.0
  Cl  Cl27  1  0.26536409  0.05343848  0.06782419  1.0
