# generated using pymatgen
data_Cs3InP2
_symmetry_space_group_name_H-M   'P 1'
_cell_length_a   16.09993525
_cell_length_b   13.02611467
_cell_length_c   9.86430701
_cell_angle_alpha   71.24963749
_cell_angle_beta   81.82640489
_cell_angle_gamma   80.85044952
_symmetry_Int_Tables_number   1
_chemical_formula_structural   Cs3InP2
_chemical_formula_sum   'Cs24 In8 P16'
_cell_volume   1924.82627973
_cell_formula_units_Z   8
loop_
 _symmetry_equiv_pos_site_id
 _symmetry_equiv_pos_as_xyz
  1  'x, y, z'
loop_
 _atom_site_type_symbol
 _atom_site_label
 _atom_site_symmetry_multiplicity
 _atom_site_fract_x
 _atom_site_fract_y
 _atom_site_fract_z
 _atom_site_occupancy
  Cs  Cs0  1  -0.54971858  -0.36821565  -0.96880942  1.0
  Cs  Cs1  1  -0.45028142  -0.63178435  -0.03119058  1.0
  Cs  Cs2  1  -0.81213126  -0.98522208  -0.90707039  1.0
  Cs  Cs3  1  -0.18786874  -0.01477792  -0.09292961  1.0
  Cs  Cs4  1  -0.82654037  -0.33691704  -0.90501503  1.0
  Cs  Cs5  1  -0.17345963  -0.66308296  -0.09498497  1.0
  Cs  Cs6  1  -0.72323776  -0.66875549  -0.76421505  1.0
  Cs  Cs7  1  -0.27676224  -0.33124451  -0.23578495  1.0
  Cs  Cs8  1  -0.12202022  -0.69324536  -0.71101102  1.0
  Cs  Cs9  1  -0.87797978  -0.30675464  -0.28898898  1.0
  Cs  Cs10  1  -0.24707142  -0.96838664  -0.71106547  1.0
  Cs  Cs11  1  -0.75292858  -0.03161336  -0.28893453  1.0
  Cs  Cs12  1  -0.67407707  -0.23297478  -0.64921131  1.0
  Cs  Cs13  1  -0.32592293  -0.76702522  -0.35078869  1.0
  Cs  Cs14  1  -0.48436249  -0.83499694  -0.61486335  1.0
  Cs  Cs15  1  -0.51563751  -0.16500306  -0.38513665  1.0
  Cs  Cs16  1  -0.91835862  -0.88688160  -0.56264584  1.0
  Cs  Cs17  1  -0.08164138  -0.11311840  -0.43735416  1.0
  Cs  Cs18  1  -0.79754543  -0.52313933  -0.46129692  1.0
  Cs  Cs19  1  -0.20245457  -0.47686067  -0.53870308  1.0
  Cs  Cs20  1  -0.64526863  -0.77206464  -0.22912972  1.0
  Cs  Cs21  1  -0.35473137  -0.22793536  -0.77087028  1.0
  Cs  Cs22  1  -0.91714071  -0.64559352  -0.04067060  1.0
  Cs  Cs23  1  -0.08285929  -0.35440648  -0.95932940  1.0
  In  In24  1  -0.56157178  -0.97823524  -0.85983572  1.0
  In  In25  1  -0.43842822  -0.02176476  -0.14016428  1.0
  In  In26  1  -0.42749322  -0.51107759  -0.63729258  1.0
  In  In27  1  -0.57250678  -0.48892241  -0.36270742  1.0
  In  In28  1  -0.99313345  -0.64237215  -0.41350847  1.0
  In  In29  1  -0.00686655  -0.35762785  -0.58649153  1.0
  In  In30  1  -0.98804297  -0.89431291  -0.16173091  1.0
  In  In31  1  -0.01195703  -0.10568709  -0.83826909  1.0
  P  P32  1  -0.41369372  -0.92033934  -0.96297603  1.0
  P  P33  1  -0.58630628  -0.07966066  -0.03702397  1.0
  P  P34  1  -0.04008333  -0.89025891  -0.89213196  1.0
  P  P35  1  -0.95991667  -0.10974109  -0.10786804  1.0
  P  P36  1  -0.32230315  -0.50674462  -0.84694471  1.0
  P  P37  1  -0.67769685  -0.49325538  -0.15305529  1.0
  P  P38  1  -0.96131492  -0.53104308  -0.68852621  1.0
  P  P39  1  -0.03868508  -0.46895692  -0.31147379  1.0
  P  P40  1  -0.65747025  -0.95970768  -0.64884842  1.0
  P  P41  1  -0.34252975  -0.04029232  -0.35115158  1.0
  P  P42  1  -0.89952071  -0.20925179  -0.64754065  1.0
  P  P43  1  -0.10047929  -0.79074821  -0.35245935  1.0
  P  P44  1  -0.58214728  -0.55108452  -0.58875151  1.0
  P  P45  1  -0.41785272  -0.44891548  -0.41124849  1.0
  P  P46  1  -0.86156696  -0.78112731  -0.29562358  1.0
  P  P47  1  -0.13843304  -0.21887269  -0.70437642  1.0
