# generated using pymatgen
data_Ag2BF4
_symmetry_space_group_name_H-M   'P 1'
_cell_length_a   9.73673595
_cell_length_b   9.73673595
_cell_length_c   5.22605741
_cell_angle_alpha   90.00000000
_cell_angle_beta   90.00000000
_cell_angle_gamma   90.00000000
_symmetry_Int_Tables_number   1
_chemical_formula_structural   Ag2BF4
_chemical_formula_sum   'Ag8 B4 F16'
_cell_volume   495.45128804
_cell_formula_units_Z   4
loop_
 _symmetry_equiv_pos_site_id
 _symmetry_equiv_pos_as_xyz
  1  'x, y, z'
loop_
 _atom_site_type_symbol
 _atom_site_label
 _atom_site_symmetry_multiplicity
 _atom_site_fract_x
 _atom_site_fract_y
 _atom_site_fract_z
 _atom_site_occupancy
  Ag  Ag0  1  0.00010202  0.30732345  0.50033015  1.0
  Ag  Ag1  1  0.50010202  0.80732345  0.49966985  1.0
  Ag  Ag2  1  0.30732345  0.99989798  0.49966985  1.0
  Ag  Ag3  1  0.80732345  0.49989798  0.50033015  1.0
  Ag  Ag4  1  0.99989798  0.69267655  0.50033015  1.0
  Ag  Ag5  1  0.49989798  0.19267655  0.49966985  1.0
  Ag  Ag6  1  0.69267655  0.00010202  0.49966985  1.0
  Ag  Ag7  1  0.19267655  0.50010202  0.50033015  1.0
  B  B8  1  0.25000000  0.75000000  0.00000000  1.0
  B  B9  1  0.75000000  0.25000000  0.00000000  1.0
  B  B10  1  0.75000000  0.75000000  0.00000000  1.0
  B  B11  1  0.25000000  0.25000000  0.00000000  1.0
  F  F12  1  0.16692477  1.16719230  0.83823233  1.0
  F  F13  1  0.66692477  0.66719230  0.16176767  1.0
  F  F14  1  1.16719230  0.83307523  0.16176767  1.0
  F  F15  1  0.66719230  0.33307523  0.83823233  1.0
  F  F16  1  0.83307523  -0.16719230  0.83823233  1.0
  F  F17  1  0.33307523  0.33280770  0.16176767  1.0
  F  F18  1  -0.16719230  0.16692477  0.16176767  1.0
  F  F19  1  0.33280770  0.66692477  0.83823233  1.0
  F  F20  1  0.18067431  0.18057250  0.24331628  1.0
  F  F21  1  0.68067431  0.68057250  0.75668372  1.0
  F  F22  1  0.18057250  0.81932569  0.75668372  1.0
  F  F23  1  0.68057250  0.31932569  0.24331628  1.0
  F  F24  1  0.81932569  0.81942750  0.24331628  1.0
  F  F25  1  0.31932569  0.31942750  0.75668372  1.0
  F  F26  1  0.81942750  0.18067431  0.75668372  1.0
  F  F27  1  0.31942750  0.68067431  0.24331628  1.0
