# generated using pymatgen
data_TlCoCl3
_symmetry_space_group_name_H-M   'P 1'
_cell_length_a   7.01024011
_cell_length_b   7.01024011
_cell_length_c   5.87931500
_cell_angle_alpha   90.00000000
_cell_angle_beta   90.00000000
_cell_angle_gamma   120.00000000
_symmetry_Int_Tables_number   1
_chemical_formula_structural   TlCoCl3
_chemical_formula_sum   'Tl2 Co2 Cl6'
_cell_volume   250.22064990
_cell_formula_units_Z   2
loop_
 _symmetry_equiv_pos_site_id
 _symmetry_equiv_pos_as_xyz
  1  'x, y, z'
loop_
 _atom_site_type_symbol
 _atom_site_label
 _atom_site_symmetry_multiplicity
 _atom_site_fract_x
 _atom_site_fract_y
 _atom_site_fract_z
 _atom_site_occupancy
  Tl  Tl0  1  0.33333333  0.66666667  0.75000000  1.0
  Tl  Tl1  1  0.66666667  0.33333333  0.25000000  1.0
  Co  Co2  1  0.00000000  0.00000000  0.50000000  1.0
  Co  Co3  1  0.00000000  0.00000000  0.00000000  1.0
  Cl  Cl4  1  0.15844766  0.84155234  0.25000000  1.0
  Cl  Cl5  1  0.15844766  0.31689532  0.25000000  1.0
  Cl  Cl6  1  0.84155234  0.15844766  0.75000000  1.0
  Cl  Cl7  1  0.84155234  0.68310468  0.75000000  1.0
  Cl  Cl8  1  0.68310468  0.84155234  0.25000000  1.0
  Cl  Cl9  1  0.31689532  0.15844766  0.75000000  1.0
