# generated using pymatgen
data_CrHgO4
_symmetry_space_group_name_H-M   'P 1'
_cell_length_a   5.40318440
_cell_length_b   5.40318440
_cell_length_c   7.20288535
_cell_angle_alpha   90.00000000
_cell_angle_beta   90.00000000
_cell_angle_gamma   115.60494471
_symmetry_Int_Tables_number   1
_chemical_formula_structural   CrHgO4
_chemical_formula_sum   'Cr2 Hg2 O8'
_cell_volume   189.63304375
_cell_formula_units_Z   2
loop_
 _symmetry_equiv_pos_site_id
 _symmetry_equiv_pos_as_xyz
  1  'x, y, z'
loop_
 _atom_site_type_symbol
 _atom_site_label
 _atom_site_symmetry_multiplicity
 _atom_site_fract_x
 _atom_site_fract_y
 _atom_site_fract_z
 _atom_site_occupancy
  Cr  Cr0  1  0.35800843  0.64199157  0.25000000  1.0
  Cr  Cr1  1  -0.35800843  1.35800843  0.75000000  1.0
  Hg  Hg2  1  0.00000000  0.00000000  0.50000000  1.0
  Hg  Hg3  1  0.00000000  0.00000000  0.00000000  1.0
  O  O4  1  0.22221750  0.29301210  0.25000000  1.0
  O  O5  1  -0.70698790  1.22221750  0.75000000  1.0
  O  O6  1  0.70698790  0.77778250  0.25000000  1.0
  O  O7  1  -0.22221750  1.70698790  0.75000000  1.0
  O  O8  1  0.25638382  0.74361618  0.43461414  1.0
  O  O9  1  0.25638382  0.74361618  0.06538586  1.0
  O  O10  1  -0.25638382  1.25638382  0.93461414  1.0
  O  O11  1  -0.25638382  1.25638382  0.56538586  1.0
