# generated using pymatgen
data_Y2C3O11
_symmetry_space_group_name_H-M   'P 1'
_cell_length_a   8.16321869
_cell_length_b   8.16321869
_cell_length_c   9.43892727
_cell_angle_alpha   90.00000000
_cell_angle_beta   90.00000000
_cell_angle_gamma   41.18925232
_symmetry_Int_Tables_number   1
_chemical_formula_structural   Y2C3O11
_chemical_formula_sum   'Y4 C6 O22'
_cell_volume   414.22198052
_cell_formula_units_Z   2
loop_
 _symmetry_equiv_pos_site_id
 _symmetry_equiv_pos_as_xyz
  1  'x, y, z'
loop_
 _atom_site_type_symbol
 _atom_site_label
 _atom_site_symmetry_multiplicity
 _atom_site_fract_x
 _atom_site_fract_y
 _atom_site_fract_z
 _atom_site_occupancy
  Y  Y0  1  -0.15848228  0.84466088  0.44861481  1.0
  Y  Y1  1  -0.15533912  0.84151772  0.94861481  1.0
  Y  Y2  1  0.15533912  0.15848228  0.44861481  1.0
  Y  Y3  1  -0.84151772  1.15533912  0.94861481  1.0
  C  C4  1  -0.44225308  1.04568369  0.19733398  1.0
  C  C5  1  0.04568369  0.55774692  0.69733398  1.0
  C  C6  1  -0.04568369  0.44225308  0.19733398  1.0
  C  C7  1  -0.55774692  0.95431631  0.69733398  1.0
  C  C8  1  -0.25763616  0.25763616  0.48230067  1.0
  C  C9  1  -0.74236384  0.74236384  -0.01769933  1.0
  O  O10  1  -0.23098060  0.96391167  0.19809462  1.0
  O  O11  1  -0.03608833  0.76901940  0.69809462  1.0
  O  O12  1  0.03608833  0.23098060  0.19809462  1.0
  O  O13  1  -0.76901940  1.03608833  0.69809462  1.0
  O  O14  1  -0.53644438  1.07813382  0.07653537  1.0
  O  O15  1  0.07813382  0.46355562  0.57653537  1.0
  O  O16  1  -0.07813382  0.53644438  0.07653537  1.0
  O  O17  1  -0.46355562  0.92186618  0.57653537  1.0
  O  O18  1  -0.53687050  1.07640411  0.31808477  1.0
  O  O19  1  0.07640411  0.46312950  0.81808477  1.0
  O  O20  1  -0.07640411  0.53687050  0.31808477  1.0
  O  O21  1  -0.46312950  0.92359589  0.81808477  1.0
  O  O22  1  -0.56909858  0.75240488  0.34625062  1.0
  O  O23  1  -0.24759512  0.43090142  0.84625062  1.0
  O  O24  1  0.24759512  0.56909858  0.34625062  1.0
  O  O25  1  -0.43090142  1.24759512  0.84625062  1.0
  O  O26  1  -0.56943918  0.71977416  -0.00670024  1.0
  O  O27  1  -0.28022584  0.43056082  0.49329976  1.0
  O  O28  1  0.28022584  0.56943918  -0.00670024  1.0
  O  O29  1  -0.43056082  1.28022584  0.49329976  1.0
  O  O30  1  -0.02887713  0.02887713  0.46327148  1.0
  O  O31  1  -0.97112287  0.97112287  0.96327148  1.0
