# generated using pymatgen
data_LiPN2
_symmetry_space_group_name_H-M   'P 1'
_cell_length_a   4.87722425
_cell_length_b   4.87722425
_cell_length_c   4.87722425
_cell_angle_alpha   124.29901185
_cell_angle_beta   124.29901185
_cell_angle_gamma   82.70236862
_symmetry_Int_Tables_number   1
_chemical_formula_structural   LiPN2
_chemical_formula_sum   'Li2 P2 N4'
_cell_volume   76.02775806
_cell_formula_units_Z   2
loop_
 _symmetry_equiv_pos_site_id
 _symmetry_equiv_pos_as_xyz
  1  'x, y, z'
loop_
 _atom_site_type_symbol
 _atom_site_label
 _atom_site_symmetry_multiplicity
 _atom_site_fract_x
 _atom_site_fract_y
 _atom_site_fract_z
 _atom_site_occupancy
  Li  Li0  1  0.25000000  0.75000000  0.50000000  1.0
  Li  Li1  1  0.50000000  0.50000000  -0.00000000  1.0
  P  P2  1  0.75000000  0.25000000  0.50000000  1.0
  P  P3  1  1.00000000  1.00000000  1.00000000  1.0
  N  N4  1  1.04473028  1.12500000  1.41973028  1.0
  N  N5  1  1.37500000  0.95526972  1.08026972  1.0
  N  N6  1  0.87500000  1.29473028  0.91973028  1.0
  N  N7  1  0.70526972  0.62500000  0.58026972  1.0
