# generated using pymatgen
data_Lu2FeC4
_symmetry_space_group_name_H-M   'P 1'
_cell_length_a   6.44784826
_cell_length_b   6.44784826
_cell_length_c   6.44784826
_cell_angle_alpha   109.56457178
_cell_angle_beta   87.67256622
_cell_angle_gamma   134.88945701
_symmetry_Int_Tables_number   1
_chemical_formula_structural   Lu2FeC4
_chemical_formula_sum   'Lu4 Fe2 C8'
_cell_volume   171.08887806
_cell_formula_units_Z   2
loop_
 _symmetry_equiv_pos_site_id
 _symmetry_equiv_pos_as_xyz
  1  'x, y, z'
loop_
 _atom_site_type_symbol
 _atom_site_label
 _atom_site_symmetry_multiplicity
 _atom_site_fract_x
 _atom_site_fract_y
 _atom_site_fract_z
 _atom_site_occupancy
  Lu  Lu0  1  0.64537357  0.84766109  0.49303466  1.0
  Lu  Lu1  1  0.85462643  0.34766109  1.20228753  1.0
  Lu  Lu2  1  0.14537357  0.65233891  0.79771247  1.0
  Lu  Lu3  1  1.35462643  1.15233891  1.50696534  1.0
  Fe  Fe4  1  0.75000000  0.75000000  -0.00000000  1.0
  Fe  Fe5  1  0.25000000  0.25000000  0.00000000  1.0
  C  C6  1  0.92196285  0.83237453  1.75433738  1.0
  C  C7  1  0.57803715  1.33237453  0.91041168  1.0
  C  C8  1  1.42196285  0.66762547  1.08958832  1.0
  C  C9  1  0.07803715  0.16762547  0.24566262  1.0
  C  C10  1  0.86951903  0.65919302  1.52871204  1.0
  C  C11  1  0.63048097  1.15919302  0.78967399  1.0
  C  C12  1  1.36951903  0.84080698  1.21032601  1.0
  C  C13  1  0.13048097  0.34080698  0.47128796  1.0
