# generated using pymatgen
data_Zr2Nb3Ge4
_symmetry_space_group_name_H-M   'P 1'
_cell_length_a   6.88207007
_cell_length_b   13.47804433
_cell_length_c   6.96733716
_cell_angle_alpha   90.00000000
_cell_angle_beta   90.00000000
_cell_angle_gamma   90.00000000
_symmetry_Int_Tables_number   1
_chemical_formula_structural   Zr2Nb3Ge4
_chemical_formula_sum   'Zr8 Nb12 Ge16'
_cell_volume   646.26821653
_cell_formula_units_Z   4
loop_
 _symmetry_equiv_pos_site_id
 _symmetry_equiv_pos_as_xyz
  1  'x, y, z'
loop_
 _atom_site_type_symbol
 _atom_site_label
 _atom_site_symmetry_multiplicity
 _atom_site_fract_x
 _atom_site_fract_y
 _atom_site_fract_z
 _atom_site_occupancy
  Zr  Zr0  1  0.14446744  0.37688931  0.83387361  1.0
  Zr  Zr1  1  0.14446744  0.12311069  0.83387361  1.0
  Zr  Zr2  1  0.64446744  0.37688931  0.66612639  1.0
  Zr  Zr3  1  0.64446744  0.12311069  0.66612639  1.0
  Zr  Zr4  1  0.85553256  0.87688931  0.16612639  1.0
  Zr  Zr5  1  0.85553256  0.62311069  0.16612639  1.0
  Zr  Zr6  1  0.35553256  0.87688931  0.33387361  1.0
  Zr  Zr7  1  0.35553256  0.62311069  0.33387361  1.0
  Nb  Nb8  1  0.47264838  0.40728620  0.17704020  1.0
  Nb  Nb9  1  0.47264838  0.09271380  0.17704020  1.0
  Nb  Nb10  1  0.97264838  0.40728620  0.32295980  1.0
  Nb  Nb11  1  0.97264838  0.09271380  0.32295980  1.0
  Nb  Nb12  1  0.52735162  0.90728620  0.82295980  1.0
  Nb  Nb13  1  0.52735162  0.59271380  0.82295980  1.0
  Nb  Nb14  1  0.02735162  0.90728620  0.67704020  1.0
  Nb  Nb15  1  0.02735162  0.59271380  0.67704020  1.0
  Nb  Nb16  1  0.31730751  0.25000000  0.50290906  1.0
  Nb  Nb17  1  0.81730751  0.25000000  0.99709094  1.0
  Nb  Nb18  1  0.68269249  0.75000000  0.49709094  1.0
  Nb  Nb19  1  0.18269249  0.75000000  0.00290906  1.0
  Ge  Ge20  1  0.29713455  0.45667991  0.52352445  1.0
  Ge  Ge21  1  0.29713455  0.04332009  0.52352445  1.0
  Ge  Ge22  1  0.79713455  0.45667991  0.97647555  1.0
  Ge  Ge23  1  0.79713455  0.04332009  0.97647555  1.0
  Ge  Ge24  1  0.70286545  0.95667991  0.47647555  1.0
  Ge  Ge25  1  0.70286545  0.54332009  0.47647555  1.0
  Ge  Ge26  1  0.20286545  0.95667991  0.02352445  1.0
  Ge  Ge27  1  0.20286545  0.54332009  0.02352445  1.0
  Ge  Ge28  1  0.44764138  0.25000000  0.90036819  1.0
  Ge  Ge29  1  0.94764138  0.25000000  0.59963181  1.0
  Ge  Ge30  1  0.55235862  0.75000000  0.09963181  1.0
  Ge  Ge31  1  0.05235862  0.75000000  0.40036819  1.0
  Ge  Ge32  1  0.17361594  0.25000000  0.15678709  1.0
  Ge  Ge33  1  0.67361594  0.25000000  0.34321291  1.0
  Ge  Ge34  1  0.82638406  0.75000000  0.84321291  1.0
  Ge  Ge35  1  0.32638406  0.75000000  0.65678709  1.0
