# generated using pymatgen
data_LaNi5P3
_symmetry_space_group_name_H-M   'P 1'
_cell_length_a   6.13713292
_cell_length_b   6.13713292
_cell_length_c   11.53957593
_cell_angle_alpha   90.00000000
_cell_angle_beta   90.00000000
_cell_angle_gamma   145.46647823
_symmetry_Int_Tables_number   1
_chemical_formula_structural   LaNi5P3
_chemical_formula_sum   'La2 Ni10 P6'
_cell_volume   246.38735027
_cell_formula_units_Z   2
loop_
 _symmetry_equiv_pos_site_id
 _symmetry_equiv_pos_as_xyz
  1  'x, y, z'
loop_
 _atom_site_type_symbol
 _atom_site_label
 _atom_site_symmetry_multiplicity
 _atom_site_fract_x
 _atom_site_fract_y
 _atom_site_fract_z
 _atom_site_occupancy
  La  La0  1  -0.16164480  0.16164480  0.75000000  1.0
  La  La1  1  0.16164480  0.83835520  0.25000000  1.0
  Ni  Ni2  1  0.00000000  0.00000000  0.00000000  1.0
  Ni  Ni3  1  0.00000000  0.00000000  0.50000000  1.0
  Ni  Ni4  1  0.19865212  0.80134788  0.93157517  1.0
  Ni  Ni5  1  0.19865212  0.80134788  0.56842483  1.0
  Ni  Ni6  1  -0.19865212  0.19865212  0.43157517  1.0
  Ni  Ni7  1  -0.19865212  0.19865212  0.06842483  1.0
  Ni  Ni8  1  -0.44860566  0.44860566  0.85459687  1.0
  Ni  Ni9  1  -0.44860566  0.44860566  0.64540313  1.0
  Ni  Ni10  1  0.44860566  0.55139434  0.35459687  1.0
  Ni  Ni11  1  0.44860566  0.55139434  0.14540313  1.0
  P  P12  1  0.38209563  0.61790437  0.96136938  1.0
  P  P13  1  0.38209563  0.61790437  0.53863062  1.0
  P  P14  1  -0.38209563  0.38209563  0.46136938  1.0
  P  P15  1  -0.38209563  0.38209563  0.03863062  1.0
  P  P16  1  0.11666552  0.88333448  0.75000000  1.0
  P  P17  1  -0.11666552  0.11666552  0.25000000  1.0
