# generated using pymatgen
data_ZrGe2Rh
_symmetry_space_group_name_H-M   'P 1'
_cell_length_a   9.38120612
_cell_length_b   10.58599938
_cell_length_c   8.07974424
_cell_angle_alpha   90.00000000
_cell_angle_beta   90.00000000
_cell_angle_gamma   90.00000000
_symmetry_Int_Tables_number   1
_chemical_formula_structural   ZrGe2Rh
_chemical_formula_sum   'Zr12 Ge24 Rh12'
_cell_volume   802.39489383
_cell_formula_units_Z   12
loop_
 _symmetry_equiv_pos_site_id
 _symmetry_equiv_pos_as_xyz
  1  'x, y, z'
loop_
 _atom_site_type_symbol
 _atom_site_label
 _atom_site_symmetry_multiplicity
 _atom_site_fract_x
 _atom_site_fract_y
 _atom_site_fract_z
 _atom_site_occupancy
  Zr  Zr0  1  0.17033529  0.54762782  0.75518411  1.0
  Zr  Zr1  1  0.17033529  0.54762782  0.24481589  1.0
  Zr  Zr2  1  0.67033529  0.95237218  0.75518411  1.0
  Zr  Zr3  1  0.67033529  0.95237218  0.24481589  1.0
  Zr  Zr4  1  0.82966471  0.45237218  0.75518411  1.0
  Zr  Zr5  1  0.82966471  0.45237218  0.24481589  1.0
  Zr  Zr6  1  0.32966471  0.04762782  0.75518411  1.0
  Zr  Zr7  1  0.32966471  0.04762782  0.24481589  1.0
  Zr  Zr8  1  0.16295289  0.81795405  0.00000000  1.0
  Zr  Zr9  1  0.66295289  0.68204595  -0.00000000  1.0
  Zr  Zr10  1  0.83704711  0.18204595  0.00000000  1.0
  Zr  Zr11  1  0.33704711  0.31795405  0.00000000  1.0
  Ge  Ge12  1  0.15679919  0.81754854  0.65213034  1.0
  Ge  Ge13  1  0.15679919  0.81754854  0.34786966  1.0
  Ge  Ge14  1  0.65679919  0.68245146  0.65213034  1.0
  Ge  Ge15  1  0.65679919  0.68245146  0.34786966  1.0
  Ge  Ge16  1  0.84320081  0.18245146  0.65213034  1.0
  Ge  Ge17  1  0.84320081  0.18245146  0.34786966  1.0
  Ge  Ge18  1  0.34320081  0.31754854  0.65213034  1.0
  Ge  Ge19  1  0.34320081  0.31754854  0.34786966  1.0
  Ge  Ge20  1  0.45679858  0.88690224  0.50000000  1.0
  Ge  Ge21  1  0.95679858  0.61309776  0.50000000  1.0
  Ge  Ge22  1  0.54320142  0.11309776  0.50000000  1.0
  Ge  Ge23  1  0.04320142  0.38690224  0.50000000  1.0
  Ge  Ge24  1  0.36410834  0.59520927  0.50000000  1.0
  Ge  Ge25  1  0.86410834  0.90479073  0.50000000  1.0
  Ge  Ge26  1  0.63589166  0.40479073  0.50000000  1.0
  Ge  Ge27  1  0.13589166  0.09520927  0.50000000  1.0
  Ge  Ge28  1  0.45899944  0.88546377  -0.00000000  1.0
  Ge  Ge29  1  0.95899944  0.61453623  -0.00000000  1.0
  Ge  Ge30  1  0.54100056  0.11453623  0.00000000  1.0
  Ge  Ge31  1  0.04100056  0.38546377  -0.00000000  1.0
  Ge  Ge32  1  0.36723310  0.60107213  0.00000000  1.0
  Ge  Ge33  1  0.86723310  0.89892787  0.00000000  1.0
  Ge  Ge34  1  0.63276690  0.39892787  0.00000000  1.0
  Ge  Ge35  1  0.13276690  0.10107213  0.00000000  1.0
  Rh  Rh36  1  0.40373808  0.75393464  0.74863575  1.0
  Rh  Rh37  1  0.40373808  0.75393464  0.25136425  1.0
  Rh  Rh38  1  0.90373808  0.74606536  0.74863575  1.0
  Rh  Rh39  1  0.90373808  0.74606536  0.25136425  1.0
  Rh  Rh40  1  0.59626192  0.24606536  0.74863575  1.0
  Rh  Rh41  1  0.59626192  0.24606536  0.25136425  1.0
  Rh  Rh42  1  0.09626192  0.25393464  0.74863575  1.0
  Rh  Rh43  1  0.09626192  0.25393464  0.25136425  1.0
  Rh  Rh44  1  0.50000000  0.50000000  0.75250228  1.0
  Rh  Rh45  1  0.50000000  0.50000000  0.24749772  1.0
  Rh  Rh46  1  0.00000000  0.00000000  0.75250228  1.0
  Rh  Rh47  1  0.00000000  0.00000000  0.24749772  1.0
