# generated using pymatgen
data_Na4CoAuO5
_symmetry_space_group_name_H-M   'P 1'
_cell_length_a   5.61953187
_cell_length_b   10.60160907
_cell_length_c   5.61925250
_cell_angle_alpha   90.00000000
_cell_angle_beta   116.94853182
_cell_angle_gamma   90.00000000
_symmetry_Int_Tables_number   1
_chemical_formula_structural   Na4CoAuO5
_chemical_formula_sum   'Na8 Co2 Au2 O10'
_cell_volume   298.42136474
_cell_formula_units_Z   2
loop_
 _symmetry_equiv_pos_site_id
 _symmetry_equiv_pos_as_xyz
  1  'x, y, z'
loop_
 _atom_site_type_symbol
 _atom_site_label
 _atom_site_symmetry_multiplicity
 _atom_site_fract_x
 _atom_site_fract_y
 _atom_site_fract_z
 _atom_site_occupancy
  Na  Na0  1  0.32988458  -0.00017603  0.66996343  1.0
  Na  Na1  1  0.32988458  0.50017603  0.66996343  1.0
  Na  Na2  1  0.67011542  0.49982397  0.33003657  1.0
  Na  Na3  1  0.67011542  1.00017603  0.33003657  1.0
  Na  Na4  1  0.64227820  0.25000000  0.01017983  1.0
  Na  Na5  1  0.35772180  0.75000000  0.98982017  1.0
  Na  Na6  1  0.01069152  0.25000000  0.64217170  1.0
  Na  Na7  1  0.98930848  0.75000000  0.35782830  1.0
  Co  Co8  1  0.27164107  0.25000000  0.27147161  1.0
  Co  Co9  1  0.72835893  0.75000000  0.72852839  1.0
  Au  Au10  1  0.00000000  0.00000000  0.00000000  1.0
  Au  Au11  1  0.00000000  0.50000000  0.00000000  1.0
  O  O12  1  0.29069344  0.11667267  0.01386323  1.0
  O  O13  1  0.29069344  0.38332733  0.01386323  1.0
  O  O14  1  0.70930656  0.61667267  0.98613677  1.0
  O  O15  1  0.70930656  0.88332733  0.98613677  1.0
  O  O16  1  0.01419694  0.11671127  0.29078645  1.0
  O  O17  1  0.01419694  0.38328873  0.29078645  1.0
  O  O18  1  0.98580306  0.61671127  0.70921355  1.0
  O  O19  1  0.98580306  0.88328873  0.70921355  1.0
  O  O20  1  0.57091671  0.25000000  0.57047166  1.0
  O  O21  1  0.42908329  0.75000000  0.42952834  1.0
