# generated using pymatgen
data_Dy(HO)3
_symmetry_space_group_name_H-M   'P 1'
_cell_length_a   6.38872862
_cell_length_b   6.38872862
_cell_length_c   3.55766385
_cell_angle_alpha   90.00000000
_cell_angle_beta   90.00000000
_cell_angle_gamma   120.00000000
_symmetry_Int_Tables_number   1
_chemical_formula_structural   Dy(HO)3
_chemical_formula_sum   'Dy2 H6 O6'
_cell_volume   125.75475706
_cell_formula_units_Z   2
loop_
 _symmetry_equiv_pos_site_id
 _symmetry_equiv_pos_as_xyz
  1  'x, y, z'
loop_
 _atom_site_type_symbol
 _atom_site_label
 _atom_site_symmetry_multiplicity
 _atom_site_fract_x
 _atom_site_fract_y
 _atom_site_fract_z
 _atom_site_occupancy
  Dy  Dy0  1  0.33333333  0.66666667  0.25000000  1.0
  Dy  Dy1  1  0.66666667  0.33333333  0.75000000  1.0
  H  H2  1  0.86096336  0.72031725  0.25000000  1.0
  H  H3  1  0.72031725  0.85935390  0.75000000  1.0
  H  H4  1  0.85935390  0.13903664  0.25000000  1.0
  H  H5  1  0.27968275  0.14064610  0.25000000  1.0
  H  H6  1  0.13903664  0.27968275  0.75000000  1.0
  H  H7  1  0.14064610  0.86096336  0.75000000  1.0
  O  O8  1  0.68907452  0.60289312  0.25000000  1.0
  O  O9  1  0.60289312  0.91381860  0.75000000  1.0
  O  O10  1  0.91381860  0.31092548  0.25000000  1.0
  O  O11  1  0.39710688  0.08618140  0.25000000  1.0
  O  O12  1  0.31092548  0.39710688  0.75000000  1.0
  O  O13  1  0.08618140  0.68907452  0.75000000  1.0
