# generated using pymatgen
data_Ba4I6O
_symmetry_space_group_name_H-M   'P 1'
_cell_length_a   11.03917710
_cell_length_b   11.03917710
_cell_length_c   8.60012825
_cell_angle_alpha   90.00000000
_cell_angle_beta   90.00000000
_cell_angle_gamma   120.00000000
_symmetry_Int_Tables_number   1
_chemical_formula_structural   Ba4I6O
_chemical_formula_sum   'Ba8 I12 O2'
_cell_volume   907.63024814
_cell_formula_units_Z   2
loop_
 _symmetry_equiv_pos_site_id
 _symmetry_equiv_pos_as_xyz
  1  'x, y, z'
loop_
 _atom_site_type_symbol
 _atom_site_label
 _atom_site_symmetry_multiplicity
 _atom_site_fract_x
 _atom_site_fract_y
 _atom_site_fract_z
 _atom_site_occupancy
  Ba  Ba0  1  0.59052996  0.79526498  0.39330029  1.0
  Ba  Ba1  1  0.79526498  0.59052996  0.89330029  1.0
  Ba  Ba2  1  0.79526498  0.20473502  0.89330029  1.0
  Ba  Ba3  1  0.20473502  0.79526498  0.39330029  1.0
  Ba  Ba4  1  0.20473502  0.40947004  0.39330029  1.0
  Ba  Ba5  1  0.40947004  0.20473502  0.89330029  1.0
  Ba  Ba6  1  0.33333333  0.66666667  0.00086862  1.0
  Ba  Ba7  1  0.66666667  0.33333333  0.50086862  1.0
  I  I8  1  0.72094853  0.86047426  0.01224795  1.0
  I  I9  1  0.86047426  0.72094853  0.51224795  1.0
  I  I10  1  0.86047426  0.13952574  0.51224795  1.0
  I  I11  1  0.13952574  0.86047426  0.01224795  1.0
  I  I12  1  0.13952574  0.27905147  0.01224795  1.0
  I  I13  1  0.27905147  0.13952574  0.51224795  1.0
  I  I14  1  0.93301824  0.46650912  0.19631290  1.0
  I  I15  1  0.46650912  0.93301824  0.69631290  1.0
  I  I16  1  0.46650912  0.53349088  0.69631290  1.0
  I  I17  1  0.53349088  0.46650912  0.19631290  1.0
  I  I18  1  0.53349088  0.06698176  0.19631290  1.0
  I  I19  1  0.06698176  0.53349088  0.69631290  1.0
  O  O20  1  0.33333333  0.66666667  0.29934797  1.0
  O  O21  1  0.66666667  0.33333333  0.79934797  1.0
