# generated using pymatgen
data_YbVO4
_symmetry_space_group_name_H-M   'P 1'
_cell_length_a   6.63792649
_cell_length_b   6.63792649
_cell_length_c   5.05204656
_cell_angle_alpha   67.63599079
_cell_angle_beta   112.36400921
_cell_angle_gamma   65.11556551
_symmetry_Int_Tables_number   1
_chemical_formula_structural   YbVO4
_chemical_formula_sum   'Yb2 V2 O8'
_cell_volume   142.80580530
_cell_formula_units_Z   2
loop_
 _symmetry_equiv_pos_site_id
 _symmetry_equiv_pos_as_xyz
  1  'x, y, z'
loop_
 _atom_site_type_symbol
 _atom_site_label
 _atom_site_symmetry_multiplicity
 _atom_site_fract_x
 _atom_site_fract_y
 _atom_site_fract_z
 _atom_site_occupancy
  Yb  Yb0  1  1.12499561  0.12499561  0.75000000  1.0
  Yb  Yb1  1  0.87500439  -0.12499561  0.25000000  1.0
  V  V2  1  0.62495382  0.62495382  0.75000000  1.0
  V  V3  1  0.37504618  0.37504618  0.25000000  1.0
  O  O4  1  0.44044704  0.14711306  0.14344430  1.0
  O  O5  1  0.85288694  0.55955296  0.64344430  1.0
  O  O6  1  1.14711306  -0.55955296  0.35655570  1.0
  O  O7  1  1.55955296  -0.14711306  0.85655570  1.0
  O  O8  1  0.79698701  0.29047564  0.14997584  1.0
  O  O9  1  0.70952436  0.20301299  0.64997584  1.0
  O  O10  1  1.29047564  -0.20301299  0.35002416  1.0
  O  O11  1  1.20301299  -0.29047564  0.85002416  1.0
