# generated using pymatgen
data_Na2MnF5
_symmetry_space_group_name_H-M   'P 1'
_cell_length_a   7.92640119
_cell_length_b   5.33563641
_cell_length_c   11.00852778
_cell_angle_alpha   90.00000000
_cell_angle_beta   108.65282516
_cell_angle_gamma   90.00000000
_symmetry_Int_Tables_number   1
_chemical_formula_structural   Na2MnF5
_chemical_formula_sum   'Na8 Mn4 F20'
_cell_volume   441.12207510
_cell_formula_units_Z   4
loop_
 _symmetry_equiv_pos_site_id
 _symmetry_equiv_pos_as_xyz
  1  'x, y, z'
loop_
 _atom_site_type_symbol
 _atom_site_label
 _atom_site_symmetry_multiplicity
 _atom_site_fract_x
 _atom_site_fract_y
 _atom_site_fract_z
 _atom_site_occupancy
  Na  Na0  1  0.84606344  0.44851963  0.17913842  1.0
  Na  Na1  1  0.84606344  0.05148037  0.67913842  1.0
  Na  Na2  1  0.15393656  0.94851963  0.32086158  1.0
  Na  Na3  1  0.15393656  0.55148037  0.82086158  1.0
  Na  Na4  1  0.64800569  0.98869756  0.36853640  1.0
  Na  Na5  1  0.64800569  0.51130244  0.86853640  1.0
  Na  Na6  1  0.35199431  0.48869756  0.13146360  1.0
  Na  Na7  1  0.35199431  0.01130244  0.63146360  1.0
  Mn  Mn8  1  0.50000000  0.50000000  0.50000000  1.0
  Mn  Mn9  1  0.50000000  -0.00000000  0.00000000  1.0
  Mn  Mn10  1  -0.00000000  0.50000000  0.50000000  1.0
  Mn  Mn11  1  0.00000000  -0.00000000  0.00000000  1.0
  F  F12  1  -0.00695938  0.26326502  0.37329417  1.0
  F  F13  1  -0.00695938  0.23673498  0.87329417  1.0
  F  F14  1  0.00695938  0.76326502  0.12670583  1.0
  F  F15  1  0.00695938  0.73673498  0.62670583  1.0
  F  F16  1  0.88033764  0.71979749  0.36841366  1.0
  F  F17  1  0.88033764  0.78020251  0.86841366  1.0
  F  F18  1  0.11966236  0.21979749  0.13158634  1.0
  F  F19  1  0.11966236  0.28020251  0.63158634  1.0
  F  F20  1  0.75148131  0.32584864  0.50461908  1.0
  F  F21  1  0.75148131  0.17415136  0.00461908  1.0
  F  F22  1  0.24851869  0.82584864  0.99538092  1.0
  F  F23  1  0.24851869  0.67415136  0.49538092  1.0
  F  F24  1  0.54274155  0.14438335  0.16389272  1.0
  F  F25  1  0.54274155  0.35561665  0.66389272  1.0
  F  F26  1  0.45725845  0.64438335  0.33610728  1.0
  F  F27  1  0.45725845  0.85561665  0.83610728  1.0
  F  F28  1  0.39266747  0.20272058  0.42663967  1.0
  F  F29  1  0.39266747  0.29727942  0.92663967  1.0
  F  F30  1  0.60733253  0.70272058  0.07336033  1.0
  F  F31  1  0.60733253  0.79727942  0.57336033  1.0
