# generated using pymatgen
data_Na2Sn3Au
_symmetry_space_group_name_H-M   'P 1'
_cell_length_a   9.80006310
_cell_length_b   9.80006310
_cell_length_c   7.66916269
_cell_angle_alpha   90.00000000
_cell_angle_beta   90.00000000
_cell_angle_gamma   120.00000000
_symmetry_Int_Tables_number   1
_chemical_formula_structural   Na2Sn3Au
_chemical_formula_sum   'Na8 Sn12 Au4'
_cell_volume   637.87609381
_cell_formula_units_Z   4
loop_
 _symmetry_equiv_pos_site_id
 _symmetry_equiv_pos_as_xyz
  1  'x, y, z'
loop_
 _atom_site_type_symbol
 _atom_site_label
 _atom_site_symmetry_multiplicity
 _atom_site_fract_x
 _atom_site_fract_y
 _atom_site_fract_z
 _atom_site_occupancy
  Na  Na0  1  0.53361377  0.46638623  0.25000000  1.0
  Na  Na1  1  0.53361377  0.06722755  0.25000000  1.0
  Na  Na2  1  0.46638623  0.53361377  0.75000000  1.0
  Na  Na3  1  0.46638623  0.93277245  0.75000000  1.0
  Na  Na4  1  0.93277245  0.46638623  0.25000000  1.0
  Na  Na5  1  0.06722755  0.53361377  0.75000000  1.0
  Na  Na6  1  -0.00000000  -0.00000000  0.25000000  1.0
  Na  Na7  1  -0.00000000  0.00000000  0.75000000  1.0
  Sn  Sn8  1  0.17133487  0.82866513  0.44586135  1.0
  Sn  Sn9  1  0.17133487  0.82866513  0.05413865  1.0
  Sn  Sn10  1  0.17133487  0.34266973  0.44586135  1.0
  Sn  Sn11  1  0.17133487  0.34266973  0.05413865  1.0
  Sn  Sn12  1  0.82866513  0.17133487  0.94586135  1.0
  Sn  Sn13  1  0.82866513  0.17133487  0.55413865  1.0
  Sn  Sn14  1  0.82866513  0.65733027  0.94586135  1.0
  Sn  Sn15  1  0.82866513  0.65733027  0.55413865  1.0
  Sn  Sn16  1  0.65733027  0.82866513  0.44586135  1.0
  Sn  Sn17  1  0.65733027  0.82866513  0.05413865  1.0
  Sn  Sn18  1  0.34266973  0.17133487  0.94586135  1.0
  Sn  Sn19  1  0.34266973  0.17133487  0.55413865  1.0
  Au  Au20  1  0.33333333  0.66666667  0.45805027  1.0
  Au  Au21  1  0.33333333  0.66666667  0.04194973  1.0
  Au  Au22  1  0.66666667  0.33333333  0.95805027  1.0
  Au  Au23  1  0.66666667  0.33333333  0.54194973  1.0
