# generated using pymatgen
data_Cr2(SO4)3
_symmetry_space_group_name_H-M   'P 1'
_cell_length_a   8.81969419
_cell_length_b   8.81969419
_cell_length_c   8.81969419
_cell_angle_alpha   55.70398295
_cell_angle_beta   55.70398295
_cell_angle_gamma   55.70398295
_symmetry_Int_Tables_number   1
_chemical_formula_structural   Cr2(SO4)3
_chemical_formula_sum   'Cr4 S6 O24'
_cell_volume   436.77058782
_cell_formula_units_Z   2
loop_
 _symmetry_equiv_pos_site_id
 _symmetry_equiv_pos_as_xyz
  1  'x, y, z'
loop_
 _atom_site_type_symbol
 _atom_site_label
 _atom_site_symmetry_multiplicity
 _atom_site_fract_x
 _atom_site_fract_y
 _atom_site_fract_z
 _atom_site_occupancy
  Cr  Cr0  1  0.14438246  0.14438246  0.14438246  1.0
  Cr  Cr1  1  0.85561754  -0.14438246  -0.14438246  1.0
  Cr  Cr2  1  0.34832354  0.34832354  -0.65167646  1.0
  Cr  Cr3  1  0.65167646  0.65167646  -0.34832354  1.0
  S  S4  1  0.54077159  0.24858897  -0.03782145  1.0
  S  S5  1  1.03782145  -0.54077159  -0.24858897  1.0
  S  S6  1  0.75141103  0.03782145  -0.54077159  1.0
  S  S7  1  0.45922841  -0.24858897  0.03782145  1.0
  S  S8  1  0.96217855  -0.45922841  0.24858897  1.0
  S  S9  1  1.24858897  -0.03782145  -0.45922841  1.0
  O  O10  1  0.20336385  0.98557535  -0.61166931  1.0
  O  O11  1  0.61166931  -0.20336385  0.01442465  1.0
  O  O12  1  1.01442465  -0.38833069  -0.20336385  1.0
  O  O13  1  0.79663615  0.01442465  -0.38833069  1.0
  O  O14  1  0.38833069  0.20336385  -0.01442465  1.0
  O  O15  1  0.98557535  0.38833069  -0.79663615  1.0
  O  O16  1  0.54382900  0.17407588  -0.51633771  1.0
  O  O17  1  0.51633771  0.45617100  -0.17407588  1.0
  O  O18  1  0.82592412  0.51633771  -0.54382900  1.0
  O  O19  1  0.45617100  0.82592412  -0.48366229  1.0
  O  O20  1  0.48366229  0.54382900  -0.82592412  1.0
  O  O21  1  0.17407588  0.48366229  -0.45617100  1.0
  O  O22  1  0.26027978  0.88505995  -0.87762195  1.0
  O  O23  1  0.87762195  -0.26027978  0.11494005  1.0
  O  O24  1  1.11494005  -0.12237805  -0.26027978  1.0
  O  O25  1  0.73972022  0.11494005  -0.12237805  1.0
  O  O26  1  0.12237805  0.26027978  -0.11494005  1.0
  O  O27  1  0.88505995  0.12237805  -0.73972022  1.0
  O  O28  1  0.52400775  0.21490934  0.15702076  1.0
  O  O29  1  0.84297924  -0.52400775  -0.21490934  1.0
  O  O30  1  0.78509066  -0.15702076  -0.52400775  1.0
  O  O31  1  0.47599225  -0.21490934  -0.15702076  1.0
  O  O32  1  1.15702076  -0.47599225  0.21490934  1.0
  O  O33  1  1.21490934  0.15702076  -0.47599225  1.0
