# generated using pymatgen
data_AlPb3SO11
_symmetry_space_group_name_H-M   'P 1'
_cell_length_a   10.33248745
_cell_length_b   10.33248745
_cell_length_c   10.33248745
_cell_angle_alpha   42.13466774
_cell_angle_beta   42.13466774
_cell_angle_gamma   42.13466774
_symmetry_Int_Tables_number   1
_chemical_formula_structural   AlPb3SO11
_chemical_formula_sum   'Al2 Pb6 S2 O22'
_cell_volume   449.21899314
_cell_formula_units_Z   2
loop_
 _symmetry_equiv_pos_site_id
 _symmetry_equiv_pos_as_xyz
  1  'x, y, z'
loop_
 _atom_site_type_symbol
 _atom_site_label
 _atom_site_symmetry_multiplicity
 _atom_site_fract_x
 _atom_site_fract_y
 _atom_site_fract_z
 _atom_site_occupancy
  O  O0  1  0.76184539  -0.23815461  -0.23815461  1.0
  O  O1  1  0.26184539  0.26184539  0.26184539  1.0
  O  O2  1  0.01824795  0.01824795  0.01824795  1.0
  O  O3  1  0.51824795  0.51824795  -0.48175205  1.0
  O  O4  1  0.92761290  -0.37471288  -0.01112075  1.0
  O  O5  1  0.42761290  0.48887925  -0.87471288  1.0
  O  O6  1  0.48887925  0.12528712  -0.57238710  1.0
  O  O7  1  0.98887925  -0.07238710  -0.37471288  1.0
  O  O8  1  0.12528712  0.42761290  -0.51112075  1.0
  O  O9  1  0.62528712  -0.01112075  -0.07238710  1.0
  O  O10  1  1.17714728  -0.20978821  -0.17235769  1.0
  O  O11  1  0.67714728  0.32764231  -0.70978821  1.0
  O  O12  1  0.32764231  0.29021179  -0.32285272  1.0
  O  O13  1  0.82764231  0.17714728  -0.20978821  1.0
  O  O14  1  0.29021179  0.67714728  -0.67235769  1.0
  O  O15  1  0.79021179  -0.17235769  0.17714728  1.0
  O  O16  1  0.79042732  -0.52864596  -0.18598752  1.0
  O  O17  1  0.29042732  0.31401248  -0.02864596  1.0
  O  O18  1  0.31401248  0.97135404  -0.70957268  1.0
  O  O19  1  0.81401248  -0.20957268  -0.52864596  1.0
  O  O20  1  0.97135404  0.29042732  -0.68598752  1.0
  O  O21  1  0.47135404  -0.18598752  -0.20957268  1.0
  Al  Al22  1  0.89342740  -0.10657260  -0.10657260  1.0
  Al  Al23  1  0.39342740  0.39342740  -0.60657260  1.0
  S  S24  1  0.70745549  -0.29254451  -0.29254451  1.0
  S  S25  1  0.20745549  0.20745549  0.20745549  1.0
  Pb  Pb26  1  0.59247713  0.67289503  -0.82462286  1.0
  Pb  Pb27  1  1.09247713  -0.32462286  0.17289503  1.0
  Pb  Pb28  1  0.67537714  0.17289503  0.09247713  1.0
  Pb  Pb29  1  0.17537714  0.59247713  -0.32710497  1.0
  Pb  Pb30  1  1.17289503  0.09247713  -0.32462286  1.0
  Pb  Pb31  1  0.67289503  0.17537714  -0.40752287  1.0
