# generated using pymatgen
data_SiO2
_symmetry_space_group_name_H-M   'P 1'
_cell_length_a   7.11653787
_cell_length_b   7.11653787
_cell_length_c   9.07977341
_cell_angle_alpha   90.00000000
_cell_angle_beta   90.00000000
_cell_angle_gamma   93.85381863
_symmetry_Int_Tables_number   1
_chemical_formula_structural   SiO2
_chemical_formula_sum   'Si8 O16'
_cell_volume   458.80631980
_cell_formula_units_Z   8
loop_
 _symmetry_equiv_pos_site_id
 _symmetry_equiv_pos_as_xyz
  1  'x, y, z'
loop_
 _atom_site_type_symbol
 _atom_site_label
 _atom_site_symmetry_multiplicity
 _atom_site_fract_x
 _atom_site_fract_y
 _atom_site_fract_z
 _atom_site_occupancy
  Si  Si0  1  0.70129068  0.97260110  0.57560875  1.0
  Si  Si1  1  -0.02739890  1.70129068  0.42439125  1.0
  Si  Si2  1  0.70129068  0.97260110  0.92439125  1.0
  Si  Si3  1  -0.02739890  1.70129068  0.07560875  1.0
  Si  Si4  1  -0.70129068  1.02739890  0.42439125  1.0
  Si  Si5  1  0.02739890  0.29870932  0.57560875  1.0
  Si  Si6  1  -0.70129068  1.02739890  0.07560875  1.0
  Si  Si7  1  0.02739890  0.29870932  0.92439125  1.0
  O  O8  1  -0.67147426  1.06983466  0.25000000  1.0
  O  O9  1  0.06983466  0.32852574  0.75000000  1.0
  O  O10  1  0.67147426  0.93016534  0.75000000  1.0
  O  O11  1  -0.06983466  1.67147426  0.25000000  1.0
  O  O12  1  0.16366493  0.83633507  0.44961165  1.0
  O  O13  1  -0.16366493  1.16366493  0.55038835  1.0
  O  O14  1  0.16366493  0.83633507  0.05038835  1.0
  O  O15  1  -0.16366493  1.16366493  0.94961165  1.0
  O  O16  1  0.50000000  1.00000000  0.50000000  1.0
  O  O17  1  0.00000000  1.50000000  0.50000000  1.0
  O  O18  1  0.50000000  1.00000000  0.00000000  1.0
  O  O19  1  0.00000000  1.50000000  0.00000000  1.0
  O  O20  1  0.79329395  0.79329395  0.50000000  1.0
  O  O21  1  0.79329395  0.79329395  0.00000000  1.0
  O  O22  1  0.20670605  0.20670605  0.50000000  1.0
  O  O23  1  0.20670605  0.20670605  0.00000000  1.0
