# generated using pymatgen
data_CsGdMnSe3
_symmetry_space_group_name_H-M   'P 1'
_cell_length_a   8.39559183
_cell_length_b   8.39559183
_cell_length_c   11.21677192
_cell_angle_alpha   90.00000000
_cell_angle_beta   90.00000000
_cell_angle_gamma   150.53591329
_symmetry_Int_Tables_number   1
_chemical_formula_structural   CsGdMnSe3
_chemical_formula_sum   'Cs2 Gd2 Mn2 Se6'
_cell_volume   388.89096185
_cell_formula_units_Z   2
loop_
 _symmetry_equiv_pos_site_id
 _symmetry_equiv_pos_as_xyz
  1  'x, y, z'
loop_
 _atom_site_type_symbol
 _atom_site_label
 _atom_site_symmetry_multiplicity
 _atom_site_fract_x
 _atom_site_fract_y
 _atom_site_fract_z
 _atom_site_occupancy
  Cs  Cs0  1  -0.25734820  0.25734820  0.75000000  1.0
  Cs  Cs1  1  0.25734820  0.74265180  0.25000000  1.0
  Gd  Gd2  1  0.00000000  0.00000000  0.00000000  1.0
  Gd  Gd3  1  0.00000000  0.00000000  0.50000000  1.0
  Mn  Mn4  1  0.46459685  0.53540315  0.75000000  1.0
  Mn  Mn5  1  -0.46459685  0.46459685  0.25000000  1.0
  Se  Se6  1  0.38441001  0.61558999  0.93894820  1.0
  Se  Se7  1  0.38441001  0.61558999  0.56105180  1.0
  Se  Se8  1  -0.38441001  0.38441001  0.43894820  1.0
  Se  Se9  1  -0.38441001  0.38441001  0.06105180  1.0
  Se  Se10  1  0.05534678  0.94465322  0.75000000  1.0
  Se  Se11  1  -0.05534678  0.05534678  0.25000000  1.0
