# generated using pymatgen
data_NaCdCl3
_symmetry_space_group_name_H-M   'P 1'
_cell_length_a   7.46839990
_cell_length_b   7.46839990
_cell_length_c   7.46839990
_cell_angle_alpha   54.77728743
_cell_angle_beta   54.77728743
_cell_angle_gamma   54.77728743
_symmetry_Int_Tables_number   1
_chemical_formula_structural   NaCdCl3
_chemical_formula_sum   'Na2 Cd2 Cl6'
_cell_volume   258.73012105
_cell_formula_units_Z   2
loop_
 _symmetry_equiv_pos_site_id
 _symmetry_equiv_pos_as_xyz
  1  'x, y, z'
loop_
 _atom_site_type_symbol
 _atom_site_label
 _atom_site_symmetry_multiplicity
 _atom_site_fract_x
 _atom_site_fract_y
 _atom_site_fract_z
 _atom_site_occupancy
  Na  Na0  1  0.14539554  0.14539554  0.14539554  1.0
  Na  Na1  1  0.85460446  -0.14539554  -0.14539554  1.0
  Cd  Cd2  1  0.34374206  0.34374206  -0.65625794  1.0
  Cd  Cd3  1  0.65625794  0.65625794  -0.34374206  1.0
  Cl  Cl4  1  0.45098989  0.06371482  -0.27552733  1.0
  Cl  Cl5  1  1.27552733  -0.45098989  -0.06371482  1.0
  Cl  Cl6  1  0.93628518  0.27552733  -0.45098989  1.0
  Cl  Cl7  1  0.54901011  -0.06371482  0.27552733  1.0
  Cl  Cl8  1  0.72447267  -0.54901011  0.06371482  1.0
  Cl  Cl9  1  1.06371482  -0.27552733  -0.54901011  1.0
