# generated using pymatgen
data_Ba2LaBiO6
_symmetry_space_group_name_H-M   'P 1'
_cell_length_a   6.30910073
_cell_length_b   6.30910073
_cell_length_c   6.31460195
_cell_angle_alpha   59.29716406
_cell_angle_beta   120.70283594
_cell_angle_gamma   120.46846922
_symmetry_Int_Tables_number   1
_chemical_formula_structural   Ba2LaBiO6
_chemical_formula_sum   'Ba2 La1 Bi1 O6'
_cell_volume   175.20305720
_cell_formula_units_Z   1
loop_
 _symmetry_equiv_pos_site_id
 _symmetry_equiv_pos_as_xyz
  1  'x, y, z'
loop_
 _atom_site_type_symbol
 _atom_site_label
 _atom_site_symmetry_multiplicity
 _atom_site_fract_x
 _atom_site_fract_y
 _atom_site_fract_z
 _atom_site_occupancy
  Ba  Ba0  1  0.74744107  0.25255893  0.25802497  1.0
  Ba  Ba1  1  0.25255893  -0.25255893  0.74197503  1.0
  La  La2  1  0.50000000  -0.50000000  0.50000000  1.0
  Bi  Bi3  1  0.00000000  0.00000000  0.00000000  1.0
  O  O4  1  1.71495570  -0.19481991  0.72030530  1.0
  O  O5  1  1.19481991  0.28504430  0.72030530  1.0
  O  O6  1  0.80518009  0.71495570  0.27969470  1.0
  O  O7  1  1.28504430  0.19481991  0.27969470  1.0
  O  O8  1  0.76495514  -0.76495514  0.84447098  1.0
  O  O9  1  1.23504486  -0.23504486  0.15552902  1.0
