# generated using pymatgen
data_K4MnCl6
_symmetry_space_group_name_H-M   'P 1'
_cell_length_a   8.41370695
_cell_length_b   8.41370695
_cell_length_c   6.58437525
_cell_angle_alpha   90.00000000
_cell_angle_beta   90.00000000
_cell_angle_gamma   120.00000000
_symmetry_Int_Tables_number   1
_chemical_formula_structural   K4MnCl6
_chemical_formula_sum   'K4 Mn1 Cl6'
_cell_volume   403.66395292
_cell_formula_units_Z   1
loop_
 _symmetry_equiv_pos_site_id
 _symmetry_equiv_pos_as_xyz
  1  'x, y, z'
loop_
 _atom_site_type_symbol
 _atom_site_label
 _atom_site_symmetry_multiplicity
 _atom_site_fract_x
 _atom_site_fract_y
 _atom_site_fract_z
 _atom_site_occupancy
  K  K0  1  0.50000000  0.50000000  0.00000000  1.0
  K  K1  1  0.50000000  0.00000000  0.00000000  1.0
  K  K2  1  0.00000000  0.50000000  0.00000000  1.0
  K  K3  1  0.00000000  0.00000000  0.00000000  1.0
  Mn  Mn4  1  0.00000000  0.00000000  0.50000000  1.0
  Cl  Cl5  1  0.15357767  0.84642233  0.28612135  1.0
  Cl  Cl6  1  0.15357767  0.30715534  0.28612135  1.0
  Cl  Cl7  1  0.84642233  0.15357767  0.71387865  1.0
  Cl  Cl8  1  0.84642233  0.69284466  0.71387865  1.0
  Cl  Cl9  1  0.69284466  0.84642233  0.28612135  1.0
  Cl  Cl10  1  0.30715534  0.15357767  0.71387865  1.0
