# generated using pymatgen
data_KZrF5
_symmetry_space_group_name_H-M   'P 1'
_cell_length_a   10.85705248
_cell_length_b   8.60575143
_cell_length_c   7.51634591
_cell_angle_alpha   66.14300580
_cell_angle_beta   71.86399763
_cell_angle_gamma   75.22216722
_symmetry_Int_Tables_number   1
_chemical_formula_structural   KZrF5
_chemical_formula_sum   'K6 Zr6 F30'
_cell_volume   603.58451740
_cell_formula_units_Z   6
loop_
 _symmetry_equiv_pos_site_id
 _symmetry_equiv_pos_as_xyz
  1  'x, y, z'
loop_
 _atom_site_type_symbol
 _atom_site_label
 _atom_site_symmetry_multiplicity
 _atom_site_fract_x
 _atom_site_fract_y
 _atom_site_fract_z
 _atom_site_occupancy
  K  K0  1  -0.73321431  -0.99430051  -0.77601569  1.0
  K  K1  1  -0.26678569  -0.00569949  -0.22398431  1.0
  K  K2  1  -0.42625782  -0.34629225  -0.75078188  1.0
  K  K3  1  -0.57374218  -0.65370775  -0.24921812  1.0
  K  K4  1  -0.92790799  -0.31785181  -0.27404239  1.0
  K  K5  1  -0.07209201  -0.68214819  -0.72595761  1.0
  Zr  Zr6  1  -0.75390267  -0.46883015  -0.78448001  1.0
  Zr  Zr7  1  -0.24609733  -0.53116985  -0.21551999  1.0
  Zr  Zr8  1  -0.42046654  -0.84230362  -0.73343283  1.0
  Zr  Zr9  1  -0.57953346  -0.15769638  -0.26656717  1.0
  Zr  Zr10  1  -0.93158858  -0.83482982  -0.23992959  1.0
  Zr  Zr11  1  -0.06841142  -0.16517018  -0.76007041  1.0
  F  F12  1  -0.63848825  -0.26200264  -0.92261996  1.0
  F  F13  1  -0.36151175  -0.73799736  -0.07738004  1.0
  F  F14  1  -0.96239517  -0.94458351  -0.90868545  1.0
  F  F15  1  -0.03760483  -0.05541649  -0.09131455  1.0
  F  F16  1  -0.30198948  -0.61332585  -0.89171651  1.0
  F  F17  1  -0.69801052  -0.38667415  -0.10828349  1.0
  F  F18  1  -0.94420069  -0.36912308  -0.87046068  1.0
  F  F19  1  -0.05579931  -0.63087692  -0.12953932  1.0
  F  F20  1  -0.78794315  -0.66080187  -0.84315781  1.0
  F  F21  1  -0.21205685  -0.33919813  -0.15684219  1.0
  F  F22  1  -0.47406008  -0.99363139  -0.83280147  1.0
  F  F23  1  -0.52593992  -0.00636861  -0.16719853  1.0
  F  F24  1  -0.56193542  -0.63132884  -0.82687203  1.0
  F  F25  1  -0.43806458  -0.36867116  -0.17312797  1.0
  F  F26  1  -0.22437514  -0.94767509  -0.80981361  1.0
  F  F27  1  -0.77562486  -0.05232491  -0.19018639  1.0
  F  F28  1  -0.87736450  -0.26075488  -0.67866289  1.0
  F  F29  1  -0.12263550  -0.73924512  -0.32133711  1.0
  F  F30  1  -0.67567058  -0.48956671  -0.56652480  1.0
  F  F31  1  -0.32432942  -0.51043329  -0.43347520  1.0
  F  F32  1  -0.38999580  -0.77655331  -0.52485817  1.0
  F  F33  1  -0.61000420  -0.22344669  -0.47514183  1.0
  F  F34  1  -0.88282947  -0.61427440  -0.50972439  1.0
  F  F35  1  -0.11717053  -0.38572560  -0.49027561  1.0
  F  F36  1  -0.60259814  -0.90429766  -0.51144429  1.0
  F  F37  1  -0.39740186  -0.09570234  -0.48855571  1.0
  F  F38  1  -0.90576675  -0.92039526  -0.46183171  1.0
  F  F39  1  -0.09423325  -0.07960474  -0.53816829  1.0
  F  F40  1  -0.80003135  -0.74659798  -0.18667953  1.0
  F  F41  1  -0.19996865  -0.25340202  -0.81332047  1.0
