# generated using pymatgen
data_Bi4Pb7Se13
_symmetry_space_group_name_H-M   'P 1'
_cell_length_a   7.46018729
_cell_length_b   7.46018729
_cell_length_c   23.98976640
_cell_angle_alpha   83.59602333
_cell_angle_beta   96.40397667
_cell_angle_gamma   146.67607726
_symmetry_Int_Tables_number   1
_chemical_formula_structural   Bi4Pb7Se13
_chemical_formula_sum   'Bi4 Pb7 Se13'
_cell_volume   728.49775839
_cell_formula_units_Z   1
loop_
 _symmetry_equiv_pos_site_id
 _symmetry_equiv_pos_as_xyz
  1  'x, y, z'
loop_
 _atom_site_type_symbol
 _atom_site_label
 _atom_site_symmetry_multiplicity
 _atom_site_fract_x
 _atom_site_fract_y
 _atom_site_fract_z
 _atom_site_occupancy
  Bi  Bi0  1  0.74262739  0.25737261  0.58586591  1.0
  Bi  Bi1  1  0.25737261  -0.25737261  0.41413409  1.0
  Bi  Bi2  1  0.56051001  0.43948999  0.87684090  1.0
  Bi  Bi3  1  0.43948999  -0.43948999  0.12315910  1.0
  Pb  Pb4  1  0.85464818  0.14535182  0.95799898  1.0
  Pb  Pb5  1  0.14535182  -0.14535182  0.04200102  1.0
  Pb  Pb6  1  0.47831778  -0.47831778  0.66248329  1.0
  Pb  Pb7  1  0.52168222  0.47831778  0.33751671  1.0
  Pb  Pb8  1  0.25982159  -0.25982159  0.78662063  1.0
  Pb  Pb9  1  0.74017841  0.25982159  0.21337937  1.0
  Pb  Pb10  1  -0.00000000  0.00000000  0.50000000  1.0
  Se  Se11  1  0.92437235  0.07562765  0.84855880  1.0
  Se  Se12  1  0.07562765  -0.07562765  0.15144120  1.0
  Se  Se13  1  0.87949622  0.12050378  0.38363772  1.0
  Se  Se14  1  0.12050378  -0.12050378  0.61636228  1.0
  Se  Se15  1  0.84790657  0.15209343  0.69200373  1.0
  Se  Se16  1  0.15209343  -0.15209343  0.30799627  1.0
  Se  Se17  1  0.63295351  0.36704649  0.45938325  1.0
  Se  Se18  1  0.36704649  -0.36704649  0.54061675  1.0
  Se  Se19  1  0.61769949  0.38230051  0.76910159  1.0
  Se  Se20  1  0.38230051  -0.38230051  0.23089841  1.0
  Se  Se21  1  0.20872084  -0.20872084  0.90898418  1.0
  Se  Se22  1  0.79127916  0.20872084  0.09101582  1.0
  Se  Se23  1  0.50000000  0.50000000  -0.00000000  1.0
