# generated using pymatgen
data_SiO2
_symmetry_space_group_name_H-M   'P 1'
_cell_length_a   6.58587714
_cell_length_b   6.58587714
_cell_length_c   8.22219952
_cell_angle_alpha   90.00000000
_cell_angle_beta   90.00000000
_cell_angle_gamma   90.00000000
_symmetry_Int_Tables_number   1
_chemical_formula_structural   SiO2
_chemical_formula_sum   'Si8 O16'
_cell_volume   356.62785380
_cell_formula_units_Z   8
loop_
 _symmetry_equiv_pos_site_id
 _symmetry_equiv_pos_as_xyz
  1  'x, y, z'
loop_
 _atom_site_type_symbol
 _atom_site_label
 _atom_site_symmetry_multiplicity
 _atom_site_fract_x
 _atom_site_fract_y
 _atom_site_fract_z
 _atom_site_occupancy
  Si  Si0  1  0.46323901  0.24059645  0.09735450  1.0
  Si  Si1  1  0.53676099  0.75940355  0.09735450  1.0
  Si  Si2  1  0.53676099  0.24059645  0.59735450  1.0
  Si  Si3  1  0.46323901  0.75940355  0.59735450  1.0
  Si  Si4  1  0.24059645  0.53676099  0.90264550  1.0
  Si  Si5  1  0.75940355  0.46323901  0.90264550  1.0
  Si  Si6  1  0.24059645  0.46323901  0.40264550  1.0
  Si  Si7  1  0.75940355  0.53676099  0.40264550  1.0
  O  O8  1  0.69432049  0.33115928  0.06564774  1.0
  O  O9  1  0.30567951  0.66884072  0.06564774  1.0
  O  O10  1  0.30567951  0.33115928  0.56564774  1.0
  O  O11  1  0.69432049  0.66884072  0.56564774  1.0
  O  O12  1  0.33115928  0.30567951  0.93435226  1.0
  O  O13  1  0.66884072  0.69432049  0.93435226  1.0
  O  O14  1  0.33115928  0.69432049  0.43435226  1.0
  O  O15  1  0.66884072  0.30567951  0.43435226  1.0
  O  O16  1  0.50000000  -0.00000000  0.12005474  1.0
  O  O17  1  0.50000000  -0.00000000  0.62005474  1.0
  O  O18  1  0.00000000  0.50000000  0.87994526  1.0
  O  O19  1  0.00000000  0.50000000  0.37994526  1.0
  O  O20  1  0.33202275  0.33202275  0.25000000  1.0
  O  O21  1  0.66797725  0.66797725  0.25000000  1.0
  O  O22  1  0.66797725  0.33202275  0.75000000  1.0
  O  O23  1  0.33202275  0.66797725  0.75000000  1.0
