# generated using pymatgen
data_TePCl9
_symmetry_space_group_name_H-M   'P 1'
_cell_length_a   12.62072685
_cell_length_b   12.62072685
_cell_length_c   12.62072685
_cell_angle_alpha   93.04468249
_cell_angle_beta   118.02172610
_cell_angle_gamma   118.49479588
_symmetry_Int_Tables_number   1
_chemical_formula_structural   TePCl9
_chemical_formula_sum   'Te4 P4 Cl36'
_cell_volume   1456.63961084
_cell_formula_units_Z   4
loop_
 _symmetry_equiv_pos_site_id
 _symmetry_equiv_pos_as_xyz
  1  'x, y, z'
loop_
 _atom_site_type_symbol
 _atom_site_label
 _atom_site_symmetry_multiplicity
 _atom_site_fract_x
 _atom_site_fract_y
 _atom_site_fract_z
 _atom_site_occupancy
  Te  Te0  1  0.88780698  1.13353727  1.25426971  1.0
  Te  Te1  1  0.87926755  0.63353727  0.74573029  1.0
  Te  Te2  1  1.20450736  1.04799540  1.65651196  1.0
  Te  Te3  1  1.39148344  1.54799540  1.34348804  1.0
  P  P4  1  0.37413152  0.62318603  0.79827334  1.0
  P  P5  1  0.82491269  0.12318603  0.74905451  1.0
  P  P6  1  0.37413152  1.07585818  1.25094549  1.0
  P  P7  1  0.82491269  1.57585818  1.20172666  1.0
  Cl  Cl8  1  0.63343420  1.07983047  0.70643855  1.0
  Cl  Cl9  1  1.37339193  1.57983047  0.94639628  1.0
  Cl  Cl10  1  0.63343420  1.42699565  1.05360372  1.0
  Cl  Cl11  1  1.37339193  1.92699565  1.29356145  1.0
  Cl  Cl12  1  0.37516794  0.77976604  0.79853746  1.0
  Cl  Cl13  1  0.98122859  0.27976604  0.90459810  1.0
  Cl  Cl14  1  0.37516794  1.07663048  1.09540190  1.0
  Cl  Cl15  1  0.98122859  1.57663048  1.20146254  1.0
  Cl  Cl16  1  1.21581220  0.90556625  1.51658614  1.0
  Cl  Cl17  1  1.38898011  1.40556625  1.18975405  1.0
  Cl  Cl18  1  1.21581220  1.19922607  1.81024595  1.0
  Cl  Cl19  1  0.38898011  0.69922607  0.48341386  1.0
  Cl  Cl20  1  0.88176271  0.98257053  1.10355054  1.0
  Cl  Cl21  1  0.87901999  0.48257053  0.60080782  1.0
  Cl  Cl22  1  0.88176271  1.27821217  1.39919218  1.0
  Cl  Cl23  1  0.87901999  1.77821217  0.89644946  1.0
  Cl  Cl24  1  0.55195711  0.23625074  0.39577846  1.0
  Cl  Cl25  1  0.84047227  0.73625074  0.18429362  1.0
  Cl  Cl26  1  0.55195711  0.65617865  0.81570638  1.0
  Cl  Cl27  1  0.84047227  1.15617865  1.60422154  1.0
  Cl  Cl28  1  1.19798077  1.05989634  1.21897488  1.0
  Cl  Cl29  1  0.84092146  0.55989634  0.36191557  1.0
  Cl  Cl30  1  0.19798077  0.47900588  0.63808443  1.0
  Cl  Cl31  1  0.84092146  0.97900588  1.78102512  1.0
  Cl  Cl32  1  0.63537202  0.95837029  1.17700173  1.0
  Cl  Cl33  1  0.78136855  1.45837029  0.82299827  1.0
  Cl  Cl34  1  0.79688100  1.21296273  1.08391828  1.0
  Cl  Cl35  1  1.12904445  1.71296273  0.91608172  1.0
  Cl  Cl36  1  0.40295837  1.05433681  0.84862156  1.0
  Cl  Cl37  1  1.20571524  1.55433681  1.15137844  1.0
  Cl  Cl38  1  0.98194177  0.82285454  1.65908723  1.0
  Cl  Cl39  1  0.16376731  0.32285454  0.34091277  1.0
  Cl  Cl40  1  1.38031818  1.23442826  1.64588992  1.0
  Cl  Cl41  1  0.58853835  0.73442826  1.35411008  1.0
  Cl  Cl42  1  0.97912368  1.03174123  1.44738245  1.0
  Cl  Cl43  1  0.58435879  0.53174123  0.55261755  1.0
