# generated using pymatgen
data_K2Pt(I2O)2
_symmetry_space_group_name_H-M   'P 1'
_cell_length_a   7.15435522
_cell_length_b   14.42319358
_cell_length_c   12.26939905
_cell_angle_alpha   90.00000000
_cell_angle_beta   90.00000000
_cell_angle_gamma   90.00000000
_symmetry_Int_Tables_number   1
_chemical_formula_structural   K2Pt(I2O)2
_chemical_formula_sum   'K8 Pt4 I16 O8'
_cell_volume   1266.06272803
_cell_formula_units_Z   4
loop_
 _symmetry_equiv_pos_site_id
 _symmetry_equiv_pos_as_xyz
  1  'x, y, z'
loop_
 _atom_site_type_symbol
 _atom_site_label
 _atom_site_symmetry_multiplicity
 _atom_site_fract_x
 _atom_site_fract_y
 _atom_site_fract_z
 _atom_site_occupancy
  K  K0  1  0.21613836  0.20225407  0.14834518  1.0
  K  K1  1  0.21613836  0.29774593  0.64834518  1.0
  K  K2  1  0.71613836  0.20225407  0.35165482  1.0
  K  K3  1  0.71613836  0.29774593  0.85165482  1.0
  K  K4  1  0.78386164  0.70225407  0.35165482  1.0
  K  K5  1  0.78386164  0.79774593  0.85165482  1.0
  K  K6  1  0.28386164  0.70225407  0.14834518  1.0
  K  K7  1  0.28386164  0.79774593  0.64834518  1.0
  Pt  Pt8  1  0.50000000  0.50000000  0.00000000  1.0
  Pt  Pt9  1  0.50000000  0.00000000  0.50000000  1.0
  Pt  Pt10  1  0.00000000  0.50000000  0.50000000  1.0
  Pt  Pt11  1  0.00000000  0.00000000  0.00000000  1.0
  I  I12  1  0.25027132  0.37605052  -0.06549168  1.0
  I  I13  1  0.25027132  0.12394948  0.43450832  1.0
  I  I14  1  0.75027132  0.37605052  0.56549168  1.0
  I  I15  1  0.75027132  0.12394948  1.06549168  1.0
  I  I16  1  0.74972868  0.87605052  0.56549168  1.0
  I  I17  1  0.74972868  0.62394948  1.06549168  1.0
  I  I18  1  0.24972868  0.87605052  -0.06549168  1.0
  I  I19  1  0.24972868  0.62394948  0.43450832  1.0
  I  I20  1  0.15621432  0.40348586  0.34407551  1.0
  I  I21  1  0.15621432  0.09651414  0.84407551  1.0
  I  I22  1  0.65621432  0.40348586  0.15592449  1.0
  I  I23  1  0.65621432  0.09651414  0.65592449  1.0
  I  I24  1  0.84378568  0.90348586  0.15592449  1.0
  I  I25  1  0.84378568  0.59651414  0.65592449  1.0
  I  I26  1  0.34378568  0.90348586  0.34407551  1.0
  I  I27  1  0.34378568  0.59651414  0.84407551  1.0
  O  O28  1  0.02523043  0.28866821  0.30872857  1.0
  O  O29  1  0.02523043  0.21133179  0.80872857  1.0
  O  O30  1  0.52523043  0.28866821  0.19127143  1.0
  O  O31  1  0.52523043  0.21133179  0.69127143  1.0
  O  O32  1  0.97476957  0.78866821  0.19127143  1.0
  O  O33  1  0.97476957  0.71133179  0.69127143  1.0
  O  O34  1  0.47476957  0.78866821  0.30872857  1.0
  O  O35  1  0.47476957  0.71133179  0.80872857  1.0
