# generated using pymatgen
data_Sr11InSb9
_symmetry_space_group_name_H-M   'P 1'
_cell_length_a   12.69955383
_cell_length_b   12.69955383
_cell_length_c   12.69955383
_cell_angle_alpha   120.95759992
_cell_angle_beta   117.19762123
_cell_angle_gamma   91.63517923
_symmetry_Int_Tables_number   1
_chemical_formula_structural   Sr11InSb9
_chemical_formula_sum   'Sr22 In2 Sb18'
_cell_volume   1465.90937791
_cell_formula_units_Z   2
loop_
 _symmetry_equiv_pos_site_id
 _symmetry_equiv_pos_as_xyz
  1  'x, y, z'
loop_
 _atom_site_type_symbol
 _atom_site_label
 _atom_site_symmetry_multiplicity
 _atom_site_fract_x
 _atom_site_fract_y
 _atom_site_fract_z
 _atom_site_occupancy
  Sr  Sr0  1  0.74245727  0.94682728  1.64791230  1.0
  Sr  Sr1  1  0.79891498  0.44682728  1.20437001  1.0
  Sr  Sr2  1  0.24245727  0.59454497  0.79562999  1.0
  Sr  Sr3  1  0.29891498  0.09454497  0.35208770  1.0
  Sr  Sr4  1  1.06453752  1.24733989  0.63890847  1.0
  Sr  Sr5  1  1.10843142  1.74733989  1.18280238  1.0
  Sr  Sr6  1  1.56453752  0.92562905  0.81719762  1.0
  Sr  Sr7  1  1.60843142  1.42562905  1.36109153  1.0
  Sr  Sr8  1  1.25072560  0.99227732  0.62775710  1.0
  Sr  Sr9  1  0.86452022  0.49227732  0.74155172  1.0
  Sr  Sr10  1  0.75072560  1.12296850  1.25844828  1.0
  Sr  Sr11  1  1.36452022  1.62296850  1.37224290  1.0
  Sr  Sr12  1  0.99621902  0.73320110  1.62896660  1.0
  Sr  Sr13  1  0.60423450  0.23320110  0.73698208  1.0
  Sr  Sr14  1  0.49621902  0.86725242  1.26301792  1.0
  Sr  Sr15  1  0.10423450  0.36725242  0.37103340  1.0
  Sr  Sr16  1  0.85181621  0.83702889  1.33195059  1.0
  Sr  Sr17  1  1.00507831  1.33702889  0.98521269  1.0
  Sr  Sr18  1  1.35181621  1.01986562  1.01478731  1.0
  Sr  Sr19  1  0.50507831  0.51986562  0.66804941  1.0
  Sr  Sr20  1  -0.00150928  -0.00150928  -0.00000000  1.0
  Sr  Sr21  1  0.49849072  0.49849072  1.00000000  1.0
  In  In22  1  1.28601489  1.28601489  1.00000000  1.0
  In  In23  1  0.78601489  0.78601489  1.00000000  1.0
  Sb  Sb24  1  0.78610275  1.14722859  1.57058513  1.0
  Sb  Sb25  1  1.07664346  1.64722859  1.36112584  1.0
  Sb  Sb26  1  1.28610275  0.71551762  0.63887416  1.0
  Sb  Sb27  1  0.57664346  0.21551762  0.42941487  1.0
  Sb  Sb28  1  1.05807383  1.04586933  0.75370401  1.0
  Sb  Sb29  1  0.79216532  0.54586933  0.98779550  1.0
  Sb  Sb30  1  0.55807383  0.80436982  1.01220450  1.0
  Sb  Sb31  1  1.29216532  1.30436982  1.24629599  1.0
  Sb  Sb32  1  1.31708971  1.31988551  0.64503747  1.0
  Sb  Sb33  1  1.17484805  1.81988551  1.00279581  1.0
  Sb  Sb34  1  1.81708971  1.17205224  0.99720419  1.0
  Sb  Sb35  1  1.67484805  1.67205224  1.35496253  1.0
  Sb  Sb36  1  1.00770673  1.01614017  0.28797247  1.0
  Sb  Sb37  1  1.22816770  1.51614017  1.00843344  1.0
  Sb  Sb38  1  1.50770673  1.21973426  0.99156656  1.0
  Sb  Sb39  1  1.72816770  1.71973426  1.71202753  1.0
  Sb  Sb40  1  0.92726181  0.42726181  0.50000000  1.0
  Sb  Sb41  1  1.42726181  0.92726181  0.50000000  1.0
