# generated using pymatgen
data_Ba2ReO5
_symmetry_space_group_name_H-M   'P 1'
_cell_length_a   7.41432639
_cell_length_b   5.76289226
_cell_length_c   11.66273523
_cell_angle_alpha   90.00000000
_cell_angle_beta   90.00000000
_cell_angle_gamma   90.00000000
_symmetry_Int_Tables_number   1
_chemical_formula_structural   Ba2ReO5
_chemical_formula_sum   'Ba8 Re4 O20'
_cell_volume   498.32493348
_cell_formula_units_Z   4
loop_
 _symmetry_equiv_pos_site_id
 _symmetry_equiv_pos_as_xyz
  1  'x, y, z'
loop_
 _atom_site_type_symbol
 _atom_site_label
 _atom_site_symmetry_multiplicity
 _atom_site_fract_x
 _atom_site_fract_y
 _atom_site_fract_z
 _atom_site_occupancy
  Ba  Ba0  1  0.83660343  0.75000000  0.42016961  1.0
  Ba  Ba1  1  0.33660343  0.75000000  0.07983039  1.0
  Ba  Ba2  1  0.16339657  0.25000000  0.57983039  1.0
  Ba  Ba3  1  0.66339657  0.25000000  0.92016961  1.0
  Ba  Ba4  1  0.52659911  0.75000000  0.71394155  1.0
  Ba  Ba5  1  0.02659911  0.75000000  0.78605845  1.0
  Ba  Ba6  1  0.47340089  0.25000000  0.28605845  1.0
  Ba  Ba7  1  0.97340089  0.25000000  0.21394155  1.0
  Re  Re8  1  0.83148186  0.75000000  0.06160267  1.0
  Re  Re9  1  0.33148186  0.75000000  0.43839733  1.0
  Re  Re10  1  0.16851814  0.25000000  0.93839733  1.0
  Re  Re11  1  0.66851814  0.25000000  0.56160267  1.0
  O  O12  1  0.67585540  0.51370750  0.11349637  1.0
  O  O13  1  0.67585540  0.98629250  0.11349637  1.0
  O  O14  1  0.17585540  0.51370750  0.38650363  1.0
  O  O15  1  0.17585540  0.98629250  0.38650363  1.0
  O  O16  1  0.32414460  0.01370750  0.88650363  1.0
  O  O17  1  0.32414460  0.48629250  0.88650363  1.0
  O  O18  1  0.82414460  0.01370750  0.61349637  1.0
  O  O19  1  0.82414460  0.48629250  0.61349637  1.0
  O  O20  1  0.97682670  0.75000000  0.19130597  1.0
  O  O21  1  0.47682670  0.75000000  0.30869403  1.0
  O  O22  1  0.02317330  0.25000000  0.80869403  1.0
  O  O23  1  0.52317330  0.25000000  0.69130597  1.0
  O  O24  1  0.72548165  0.75000000  0.90904621  1.0
  O  O25  1  0.22548165  0.75000000  0.59095379  1.0
  O  O26  1  0.27451835  0.25000000  0.09095379  1.0
  O  O27  1  0.77451835  0.25000000  0.40904621  1.0
  O  O28  1  0.00000000  0.00000000  0.00000000  1.0
  O  O29  1  0.00000000  0.50000000  0.00000000  1.0
  O  O30  1  0.50000000  0.00000000  0.50000000  1.0
  O  O31  1  0.50000000  0.50000000  0.50000000  1.0
