# generated using pymatgen
data_Lu(AsO)2
_symmetry_space_group_name_H-M   'P 1'
_cell_length_a   8.23246456
_cell_length_b   8.23246456
_cell_length_c   8.23246456
_cell_angle_alpha   104.77771718
_cell_angle_beta   104.77771718
_cell_angle_gamma   119.33141533
_symmetry_Int_Tables_number   1
_chemical_formula_structural   Lu(AsO)2
_chemical_formula_sum   'Lu4 As8 O8'
_cell_volume   419.82151250
_cell_formula_units_Z   4
loop_
 _symmetry_equiv_pos_site_id
 _symmetry_equiv_pos_as_xyz
  1  'x, y, z'
loop_
 _atom_site_type_symbol
 _atom_site_label
 _atom_site_symmetry_multiplicity
 _atom_site_fract_x
 _atom_site_fract_y
 _atom_site_fract_z
 _atom_site_occupancy
  Lu  Lu0  1  1.37500000  1.12500000  1.25000000  1.0
  Lu  Lu1  1  0.87500000  1.12500000  0.75000000  1.0
  Lu  Lu2  1  0.87500000  1.12500000  0.25000000  1.0
  Lu  Lu3  1  0.87500000  1.62500000  0.75000000  1.0
  As  As4  1  1.17415086  1.48505227  0.68909860  1.0
  As  As5  1  0.95404633  0.76494773  0.18909860  1.0
  As  As6  1  0.79595367  0.48505227  0.31090140  1.0
  As  As7  1  1.57584914  0.76494773  0.81090140  1.0
  As  As8  1  0.51494773  0.20404633  0.68909860  1.0
  As  As9  1  1.23505227  1.42415086  1.18909860  1.0
  As  As10  1  0.51494773  0.82584914  0.31090140  1.0
  As  As11  1  1.23505227  1.04595367  0.81090140  1.0
  O  O12  1  1.19633039  1.35937776  0.83695263  1.0
  O  O13  1  1.22757487  0.89062224  1.33695263  1.0
  O  O14  1  0.52242513  0.35937776  0.16304737  1.0
  O  O15  1  0.55366961  0.89062224  0.66304737  1.0
  O  O16  1  0.64062224  0.47757487  0.83695263  1.0
  O  O17  1  1.10937776  1.44633039  0.33695263  1.0
  O  O18  1  0.64062224  0.80366961  0.16304737  1.0
  O  O19  1  1.10937776  1.77242513  0.66304737  1.0
