# generated using pymatgen
data_Na5Mn3S4(O4F)4
_symmetry_space_group_name_H-M   'P 1'
_cell_length_a   6.80212459
_cell_length_b   6.69467371
_cell_length_c   9.13278463
_cell_angle_alpha   96.64350680
_cell_angle_beta   94.90522309
_cell_angle_gamma   92.35131919
_symmetry_Int_Tables_number   1
_chemical_formula_structural   Na5Mn3S4(O4F)4
_chemical_formula_sum   'Na5 Mn3 S4 O16 F4'
_cell_volume   411.03806436
_cell_formula_units_Z   1
loop_
 _symmetry_equiv_pos_site_id
 _symmetry_equiv_pos_as_xyz
  1  'x, y, z'
loop_
 _atom_site_type_symbol
 _atom_site_label
 _atom_site_symmetry_multiplicity
 _atom_site_fract_x
 _atom_site_fract_y
 _atom_site_fract_z
 _atom_site_occupancy
  Na  Na0  1  -0.49149977  -0.76208230  -0.34169548  1.0
  Na  Na1  1  -0.50850023  -0.23791770  -0.65830452  1.0
  Na  Na2  1  -0.26055517  -0.53404255  -0.98273696  1.0
  Na  Na3  1  -0.73944483  -0.46595745  -0.01726304  1.0
  Na  Na4  1  0.00000000  0.00000000  0.00000000  1.0
  Mn  Mn5  1  -0.15810913  -0.77467998  -0.64398440  1.0
  Mn  Mn6  1  -0.84189087  -0.22532002  -0.35601560  1.0
  Mn  Mn7  1  -0.50000000  0.00000000  0.00000000  1.0
  S  S8  1  -0.65471390  -0.75491820  -0.72112974  1.0
  S  S9  1  -0.34528610  -0.24508180  -0.27887026  1.0
  S  S10  1  -0.95357610  -0.72138266  -0.30201502  1.0
  S  S11  1  -0.04642390  -0.27861734  -0.69798498  1.0
  O  O12  1  -0.67846432  -0.92933767  -0.84898775  1.0
  O  O13  1  -0.32153568  -0.07066233  -0.15101225  1.0
  O  O14  1  -0.83298269  -0.89974342  -0.33881483  1.0
  O  O15  1  -0.16701731  -0.10025658  -0.66118517  1.0
  O  O16  1  -0.48953081  -0.80292119  -0.61315677  1.0
  O  O17  1  -0.51046919  -0.19707881  -0.38684323  1.0
  O  O18  1  -0.84339010  -0.75834286  -0.65329737  1.0
  O  O19  1  -0.15660990  -0.24165714  -0.34670263  1.0
  O  O20  1  -0.61106396  -0.56586446  -0.78205497  1.0
  O  O21  1  -0.38893604  -0.43413554  -0.21794503  1.0
  O  O22  1  -0.82695672  -0.53856146  -0.32142385  1.0
  O  O23  1  -0.17304328  -0.46143854  -0.67857615  1.0
  O  O24  1  -0.99594868  -0.29307554  -0.85478134  1.0
  O  O25  1  -0.00405132  -0.70692446  -0.14521866  1.0
  O  O26  1  -0.86030727  -0.26236030  -0.59524124  1.0
  O  O27  1  -0.13969273  -0.73763970  -0.40475876  1.0
  F  F28  1  -0.23750169  -0.83443659  -0.87782347  1.0
  F  F29  1  -0.76249831  -0.16556341  -0.12217653  1.0
  F  F30  1  -0.46168460  -0.24138585  -0.92016960  1.0
  F  F31  1  -0.53831540  -0.75861415  -0.07983040  1.0
