# generated using pymatgen
data_Cs2KCr(CN)6
_symmetry_space_group_name_H-M   'P 1'
_cell_length_a   7.89049558
_cell_length_b   8.34016395
_cell_length_c   13.82522953
_cell_angle_alpha   90.00000000
_cell_angle_beta   124.41200231
_cell_angle_gamma   90.00000000
_symmetry_Int_Tables_number   1
_chemical_formula_structural   Cs2KCr(CN)6
_chemical_formula_sum   'Cs4 K2 Cr2 C12 N12'
_cell_volume   750.58970749
_cell_formula_units_Z   2
loop_
 _symmetry_equiv_pos_site_id
 _symmetry_equiv_pos_as_xyz
  1  'x, y, z'
loop_
 _atom_site_type_symbol
 _atom_site_label
 _atom_site_symmetry_multiplicity
 _atom_site_fract_x
 _atom_site_fract_y
 _atom_site_fract_z
 _atom_site_occupancy
  C  C0  1  0.90890358  0.47337110  0.33023366  1.0
  C  C1  1  0.90890358  0.02662890  0.83023366  1.0
  C  C2  1  0.09109642  0.97337110  0.16976634  1.0
  C  C3  1  0.09109642  0.52662890  0.66976634  1.0
  C  C4  1  0.17406261  0.29628356  0.54543729  1.0
  C  C5  1  0.17406261  0.20371644  0.04543729  1.0
  C  C6  1  0.82593739  0.79628356  0.95456271  1.0
  C  C7  1  0.82593739  0.70371644  0.45456271  1.0
  C  C8  1  0.75352548  0.36749956  0.46479541  1.0
  C  C9  1  0.75352548  0.13250044  0.96479541  1.0
  C  C10  1  0.24647452  0.86749956  0.03520459  1.0
  C  C11  1  0.24647452  0.63250044  0.53520459  1.0
  K  K12  1  0.50000000  0.50000000  -0.00000000  1.0
  K  K13  1  0.50000000  0.00000000  0.50000000  1.0
  Cs  Cs14  1  0.72671418  0.06773823  0.24820864  1.0
  Cs  Cs15  1  0.72671418  0.43226177  0.74820864  1.0
  Cs  Cs16  1  0.27328582  0.56773823  0.25179136  1.0
  Cs  Cs17  1  0.27328582  0.93226177  0.75179136  1.0
  N  N18  1  0.72334009  0.81912293  0.42741620  1.0
  N  N19  1  0.72334009  0.68087707  0.92741620  1.0
  N  N20  1  0.27665991  0.31912293  0.07258380  1.0
  N  N21  1  0.27665991  0.18087707  0.57258380  1.0
  N  N22  1  0.85711096  0.45539267  0.23289657  1.0
  N  N23  1  0.85711096  0.04460733  0.73289657  1.0
  N  N24  1  0.14288904  0.95539267  0.26710343  1.0
  N  N25  1  0.14288904  0.54460733  0.76710343  1.0
  N  N26  1  0.60928315  0.29303737  0.44245136  1.0
  N  N27  1  0.60928315  0.20696263  0.94245136  1.0
  N  N28  1  0.39071685  0.79303737  0.05754864  1.0
  N  N29  1  0.39071685  0.70696263  0.55754864  1.0
  Cr  Cr30  1  -0.00000000  0.50000000  0.50000000  1.0
  Cr  Cr31  1  0.00000000  0.00000000  0.00000000  1.0
