# generated using pymatgen
data_ScTl(SO4)2
_symmetry_space_group_name_H-M   'P 1'
_cell_length_a   5.31312411
_cell_length_b   5.31312411
_cell_length_c   8.30317438
_cell_angle_alpha   90.00000000
_cell_angle_beta   90.00000000
_cell_angle_gamma   120.00000000
_symmetry_Int_Tables_number   1
_chemical_formula_structural   ScTl(SO4)2
_chemical_formula_sum   'Sc1 Tl1 S2 O8'
_cell_volume   202.99003193
_cell_formula_units_Z   1
loop_
 _symmetry_equiv_pos_site_id
 _symmetry_equiv_pos_as_xyz
  1  'x, y, z'
loop_
 _atom_site_type_symbol
 _atom_site_label
 _atom_site_symmetry_multiplicity
 _atom_site_fract_x
 _atom_site_fract_y
 _atom_site_fract_z
 _atom_site_occupancy
  Sc  Sc0  1  -0.00000000  0.00000000  0.00000000  1.0
  Tl  Tl1  1  0.00000000  -0.00000000  0.50000000  1.0
  S  S2  1  0.33333333  0.66666667  0.21471163  1.0
  S  S3  1  0.66666667  0.33333333  0.78528837  1.0
  O  O4  1  0.18081057  0.81928253  0.15177425  1.0
  O  O5  1  0.81928253  0.18081057  0.84822575  1.0
  O  O6  1  0.63847196  0.81918943  0.15177425  1.0
  O  O7  1  0.18071747  0.36152804  0.15177425  1.0
  O  O8  1  0.81918943  0.63847196  0.84822575  1.0
  O  O9  1  0.36152804  0.18071747  0.84822575  1.0
  O  O10  1  0.33333333  0.66666667  0.39119054  1.0
  O  O11  1  0.66666667  0.33333333  0.60880946  1.0
