# generated using pymatgen
data_RbSe
_symmetry_space_group_name_H-M   'P 1'
_cell_length_a   4.15434514
_cell_length_b   4.15434514
_cell_length_c   4.15434514
_cell_angle_alpha   89.97356160
_cell_angle_beta   89.97356160
_cell_angle_gamma   89.97356160
_symmetry_Int_Tables_number   1
_chemical_formula_structural   RbSe
_chemical_formula_sum   'Rb1 Se1'
_cell_volume   71.69808997
_cell_formula_units_Z   1
loop_
 _symmetry_equiv_pos_site_id
 _symmetry_equiv_pos_as_xyz
  1  'x, y, z'
loop_
 _atom_site_type_symbol
 _atom_site_label
 _atom_site_symmetry_multiplicity
 _atom_site_fract_x
 _atom_site_fract_y
 _atom_site_fract_z
 _atom_site_occupancy
  Rb  Rb0  1  0.00000000  0.00000000  0.00000000  1.0
  Se  Se1  1  0.50000000  0.50000000  -0.50000000  1.0
