# generated using pymatgen
data_Hf2Nb3Ge4
_symmetry_space_group_name_H-M   'P 1'
_cell_length_a   6.83039584
_cell_length_b   13.24210931
_cell_length_c   6.96985365
_cell_angle_alpha   90.00000000
_cell_angle_beta   90.00000000
_cell_angle_gamma   90.00000000
_symmetry_Int_Tables_number   1
_chemical_formula_structural   Hf2Nb3Ge4
_chemical_formula_sum   'Hf8 Nb12 Ge16'
_cell_volume   630.41523529
_cell_formula_units_Z   4
loop_
 _symmetry_equiv_pos_site_id
 _symmetry_equiv_pos_as_xyz
  1  'x, y, z'
loop_
 _atom_site_type_symbol
 _atom_site_label
 _atom_site_symmetry_multiplicity
 _atom_site_fract_x
 _atom_site_fract_y
 _atom_site_fract_z
 _atom_site_occupancy
  Hf  Hf0  1  0.48773364  0.40937995  0.17485226  1.0
  Hf  Hf1  1  0.48773364  0.09062005  0.17485226  1.0
  Hf  Hf2  1  0.98773364  0.40937995  0.32514774  1.0
  Hf  Hf3  1  0.98773364  0.09062005  0.32514774  1.0
  Hf  Hf4  1  0.51226636  0.90937995  0.82514774  1.0
  Hf  Hf5  1  0.51226636  0.59062005  0.82514774  1.0
  Hf  Hf6  1  0.01226636  0.90937995  0.67485226  1.0
  Hf  Hf7  1  0.01226636  0.59062005  0.67485226  1.0
  Nb  Nb8  1  0.15902877  0.37550276  0.83527351  1.0
  Nb  Nb9  1  0.15902877  0.12449724  0.83527351  1.0
  Nb  Nb10  1  0.65902877  0.37550276  0.66472649  1.0
  Nb  Nb11  1  0.65902877  0.12449724  0.66472649  1.0
  Nb  Nb12  1  0.84097123  0.87550276  0.16472649  1.0
  Nb  Nb13  1  0.84097123  0.62449724  0.16472649  1.0
  Nb  Nb14  1  0.34097123  0.87550276  0.33527351  1.0
  Nb  Nb15  1  0.34097123  0.62449724  0.33527351  1.0
  Nb  Nb16  1  0.33496007  0.25000000  0.50719354  1.0
  Nb  Nb17  1  0.83496007  0.25000000  0.99280646  1.0
  Nb  Nb18  1  0.66503993  0.75000000  0.49280646  1.0
  Nb  Nb19  1  0.16503993  0.75000000  0.00719354  1.0
  Ge  Ge20  1  0.31639812  0.45942604  0.53889869  1.0
  Ge  Ge21  1  0.31639812  0.04057396  0.53889869  1.0
  Ge  Ge22  1  0.81639812  0.45942604  0.96110131  1.0
  Ge  Ge23  1  0.81639812  0.04057396  0.96110131  1.0
  Ge  Ge24  1  0.68360188  0.95942604  0.46110131  1.0
  Ge  Ge25  1  0.68360188  0.54057396  0.46110131  1.0
  Ge  Ge26  1  0.18360188  0.95942604  0.03889869  1.0
  Ge  Ge27  1  0.18360188  0.54057396  0.03889869  1.0
  Ge  Ge28  1  0.46137125  0.25000000  0.88786163  1.0
  Ge  Ge29  1  0.96137125  0.25000000  0.61213837  1.0
  Ge  Ge30  1  0.53862875  0.75000000  0.11213837  1.0
  Ge  Ge31  1  0.03862875  0.75000000  0.38786163  1.0
  Ge  Ge32  1  0.19224082  0.25000000  0.15188439  1.0
  Ge  Ge33  1  0.69224082  0.25000000  0.34811561  1.0
  Ge  Ge34  1  0.80775918  0.75000000  0.84811561  1.0
  Ge  Ge35  1  0.30775918  0.75000000  0.65188439  1.0
