# generated using pymatgen
data_TiTlCuTe3
_symmetry_space_group_name_H-M   'P 1'
_cell_length_a   8.70755420
_cell_length_b   3.98928289
_cell_length_c   10.58398593
_cell_angle_alpha   90.00000000
_cell_angle_beta   113.42378219
_cell_angle_gamma   90.00000000
_symmetry_Int_Tables_number   1
_chemical_formula_structural   TiTlCuTe3
_chemical_formula_sum   'Ti2 Tl2 Cu2 Te6'
_cell_volume   337.35628388
_cell_formula_units_Z   2
loop_
 _symmetry_equiv_pos_site_id
 _symmetry_equiv_pos_as_xyz
  1  'x, y, z'
loop_
 _atom_site_type_symbol
 _atom_site_label
 _atom_site_symmetry_multiplicity
 _atom_site_fract_x
 _atom_site_fract_y
 _atom_site_fract_z
 _atom_site_occupancy
  Ti  Ti0  1  0.28937906  0.25000000  0.32237448  1.0
  Ti  Ti1  1  0.71062094  0.75000000  0.67762552  1.0
  Tl  Tl2  1  0.71705397  0.25000000  0.21651917  1.0
  Tl  Tl3  1  0.28294603  0.75000000  0.78348083  1.0
  Cu  Cu4  1  0.92048078  0.25000000  0.90001164  1.0
  Cu  Cu5  1  0.07951922  0.75000000  0.09998836  1.0
  Te  Te6  1  0.92130132  0.25000000  0.65368815  1.0
  Te  Te7  1  0.07869868  0.75000000  0.34631185  1.0
  Te  Te8  1  0.45588822  0.25000000  0.61835221  1.0
  Te  Te9  1  0.54411178  0.75000000  0.38164779  1.0
  Te  Te10  1  0.25201394  0.25000000  0.05631142  1.0
  Te  Te11  1  0.74798606  0.75000000  0.94368858  1.0
