# generated using pymatgen
data_LiBeN
_symmetry_space_group_name_H-M   'P 1'
_cell_length_a   4.54580630
_cell_length_b   4.74732409
_cell_length_c   5.80838289
_cell_angle_alpha   90.00000000
_cell_angle_beta   125.07526446
_cell_angle_gamma   90.00000000
_symmetry_Int_Tables_number   1
_chemical_formula_structural   LiBeN
_chemical_formula_sum   'Li4 Be4 N4'
_cell_volume   102.58397905
_cell_formula_units_Z   4
loop_
 _symmetry_equiv_pos_site_id
 _symmetry_equiv_pos_as_xyz
  1  'x, y, z'
loop_
 _atom_site_type_symbol
 _atom_site_label
 _atom_site_symmetry_multiplicity
 _atom_site_fract_x
 _atom_site_fract_y
 _atom_site_fract_z
 _atom_site_occupancy
  Li  Li0  1  0.67530199  0.95753424  0.41025969  1.0
  Li  Li1  1  0.67530199  0.54246576  0.91025969  1.0
  Li  Li2  1  0.32469801  0.45753424  0.08974031  1.0
  Li  Li3  1  0.32469801  0.04246576  0.58974031  1.0
  Be  Be4  1  0.91920329  0.10750884  0.10744787  1.0
  Be  Be5  1  0.91920329  0.39249116  0.60744787  1.0
  Be  Be6  1  0.08079671  0.60750884  0.39255213  1.0
  Be  Be7  1  0.08079671  0.89249116  0.89255213  1.0
  N  N8  1  0.84841821  0.30410311  0.30050240  1.0
  N  N9  1  0.84841821  0.19589689  0.80050240  1.0
  N  N10  1  0.15158179  0.80410311  0.19949760  1.0
  N  N11  1  0.15158179  0.69589689  0.69949760  1.0
