# generated using pymatgen
data_HfGePd
_symmetry_space_group_name_H-M   'P 1'
_cell_length_a   6.71260670
_cell_length_b   3.96688811
_cell_length_c   11.53686349
_cell_angle_alpha   90.00000000
_cell_angle_beta   90.10322734
_cell_angle_gamma   90.00000000
_symmetry_Int_Tables_number   1
_chemical_formula_structural   HfGePd
_chemical_formula_sum   'Hf6 Ge6 Pd6'
_cell_volume   307.20494516
_cell_formula_units_Z   6
loop_
 _symmetry_equiv_pos_site_id
 _symmetry_equiv_pos_as_xyz
  1  'x, y, z'
loop_
 _atom_site_type_symbol
 _atom_site_label
 _atom_site_symmetry_multiplicity
 _atom_site_fract_x
 _atom_site_fract_y
 _atom_site_fract_z
 _atom_site_occupancy
  Hf  Hf0  1  0.96995650  0.25000000  0.29216323  1.0
  Hf  Hf1  1  0.03004350  0.75000000  0.70783677  1.0
  Hf  Hf2  1  0.46663215  0.25000000  0.37817807  1.0
  Hf  Hf3  1  0.53336785  0.75000000  0.62182193  1.0
  Hf  Hf4  1  0.33869385  0.25000000  0.07942758  1.0
  Hf  Hf5  1  0.66130615  0.75000000  0.92057242  1.0
  Ge  Ge6  1  0.74932556  0.25000000  0.08405245  1.0
  Ge  Ge7  1  0.25067444  0.75000000  0.91594755  1.0
  Ge  Ge8  1  0.73832365  0.25000000  0.74986099  1.0
  Ge  Ge9  1  0.26167635  0.75000000  0.25013901  1.0
  Ge  Ge10  1  0.25049424  0.25000000  0.58487101  1.0
  Ge  Ge11  1  0.74950576  0.75000000  0.41512899  1.0
  Pd  Pd12  1  0.99698349  0.25000000  0.90895693  1.0
  Pd  Pd13  1  0.00301651  0.75000000  0.09104307  1.0
  Pd  Pd14  1  0.85705541  0.25000000  0.54087858  1.0
  Pd  Pd15  1  0.14294459  0.75000000  0.45912142  1.0
  Pd  Pd16  1  0.37241358  0.25000000  0.79475561  1.0
  Pd  Pd17  1  0.62758642  0.75000000  0.20524440  1.0
