# generated using pymatgen
data_RbGd(WO4)2
_symmetry_space_group_name_H-M   'P 1'
_cell_length_a   7.63192315
_cell_length_b   7.63192315
_cell_length_c   7.69663211
_cell_angle_alpha   62.06423973
_cell_angle_beta   117.93576027
_cell_angle_gamma   91.45953985
_symmetry_Int_Tables_number   1
_chemical_formula_structural   RbGd(WO4)2
_chemical_formula_sum   'Rb2 Gd2 W4 O16'
_cell_volume   338.92848351
_cell_formula_units_Z   2
loop_
 _symmetry_equiv_pos_site_id
 _symmetry_equiv_pos_as_xyz
  1  'x, y, z'
loop_
 _atom_site_type_symbol
 _atom_site_label
 _atom_site_symmetry_multiplicity
 _atom_site_fract_x
 _atom_site_fract_y
 _atom_site_fract_z
 _atom_site_occupancy
  Rb  Rb0  1  0.19910855  0.19910855  0.25000000  1.0
  Rb  Rb1  1  0.80089145  0.80089145  0.75000000  1.0
  Gd  Gd2  1  0.77346125  0.77346125  0.25000000  1.0
  Gd  Gd3  1  0.22653875  0.22653875  0.75000000  1.0
  W  W4  1  0.69419879  0.30681527  0.23105033  1.0
  W  W5  1  0.69318473  0.30580121  0.73105033  1.0
  W  W6  1  1.30681527  -0.30580121  0.26894967  1.0
  W  W7  1  1.30580121  -0.30681527  0.76894967  1.0
  O  O8  1  1.58609991  -0.37213557  0.03155493  1.0
  O  O9  1  1.37213557  -0.58609991  0.53155493  1.0
  O  O10  1  0.62786443  0.58609991  0.46844507  1.0
  O  O11  1  0.41390009  0.37213557  0.96844507  1.0
  O  O12  1  0.78222214  0.05112345  0.30270831  1.0
  O  O13  1  0.94887655  0.21777786  0.80270831  1.0
  O  O14  1  1.05112345  -0.21777786  0.19729169  1.0
  O  O15  1  1.21777786  -0.05112345  0.69729169  1.0
  O  O16  1  1.37596671  -0.06763526  0.12831859  1.0
  O  O17  1  1.06763526  -0.37596671  0.62831859  1.0
  O  O18  1  0.93236474  0.37596671  0.37168141  1.0
  O  O19  1  0.62403329  0.06763526  0.87168141  1.0
  O  O20  1  0.61826045  0.24180352  0.43819882  1.0
  O  O21  1  0.75819648  0.38173955  0.93819882  1.0
  O  O22  1  1.24180352  -0.38173955  0.06180118  1.0
  O  O23  1  1.38173955  -0.24180352  0.56180118  1.0
