# generated using pymatgen
data_Mn8Ga5
_symmetry_space_group_name_H-M   'P 1'
_cell_length_a   7.70093863
_cell_length_b   7.70093863
_cell_length_c   7.70093863
_cell_angle_alpha   109.47122063
_cell_angle_beta   109.47122063
_cell_angle_gamma   109.47122063
_symmetry_Int_Tables_number   1
_chemical_formula_structural   Mn8Ga5
_chemical_formula_sum   'Mn16 Ga10'
_cell_volume   351.56780460
_cell_formula_units_Z   2
loop_
 _symmetry_equiv_pos_site_id
 _symmetry_equiv_pos_as_xyz
  1  'x, y, z'
loop_
 _atom_site_type_symbol
 _atom_site_label
 _atom_site_symmetry_multiplicity
 _atom_site_fract_x
 _atom_site_fract_y
 _atom_site_fract_z
 _atom_site_occupancy
  Mn  Mn0  1  0.79540457  0.79540457  0.79540457  1.0
  Mn  Mn1  1  1.00000000  1.00000000  0.20459543  1.0
  Mn  Mn2  1  1.00000000  0.20459543  1.00000000  1.0
  Mn  Mn3  1  0.20459543  1.00000000  1.00000000  1.0
  Mn  Mn4  1  0.65359952  0.65359952  0.37382387  1.0
  Mn  Mn5  1  0.37382387  0.65359952  0.65359952  1.0
  Mn  Mn6  1  0.65359952  0.37382387  0.65359952  1.0
  Mn  Mn7  1  1.27977565  1.27977565  0.62617613  1.0
  Mn  Mn8  1  1.00000000  0.72022435  1.34640048  1.0
  Mn  Mn9  1  0.72022435  1.00000000  1.34640048  1.0
  Mn  Mn10  1  0.72022435  1.34640048  1.00000000  1.0
  Mn  Mn11  1  1.00000000  1.34640048  0.72022435  1.0
  Mn  Mn12  1  1.27977565  0.62617613  1.27977565  1.0
  Mn  Mn13  1  1.34640048  0.72022435  1.00000000  1.0
  Mn  Mn14  1  0.62617613  1.27977565  1.27977565  1.0
  Mn  Mn15  1  1.34640048  1.00000000  0.72022435  1.0
  Ga  Ga16  1  0.35549842  0.35549842  0.35549842  1.0
  Ga  Ga17  1  1.00000000  1.00000000  0.64450158  1.0
  Ga  Ga18  1  1.00000000  0.64450158  1.00000000  1.0
  Ga  Ga19  1  0.64450158  1.00000000  1.00000000  1.0
  Ga  Ga20  1  -0.00000000  0.64487004  0.64487004  1.0
  Ga  Ga21  1  0.64487004  -0.00000000  0.64487004  1.0
  Ga  Ga22  1  0.64487004  0.64487004  0.00000000  1.0
  Ga  Ga23  1  -0.00000000  0.35512996  0.35512996  1.0
  Ga  Ga24  1  0.35512996  -0.00000000  0.35512996  1.0
  Ga  Ga25  1  0.35512996  0.35512996  0.00000000  1.0
