# generated using pymatgen
data_PrSnRu
_symmetry_space_group_name_H-M   'P 1'
_cell_length_a   7.56497108
_cell_length_b   4.96693326
_cell_length_c   7.21412022
_cell_angle_alpha   90.00000000
_cell_angle_beta   90.00000000
_cell_angle_gamma   90.00000000
_symmetry_Int_Tables_number   1
_chemical_formula_structural   PrSnRu
_chemical_formula_sum   'Pr4 Sn4 Ru4'
_cell_volume   271.06844970
_cell_formula_units_Z   4
loop_
 _symmetry_equiv_pos_site_id
 _symmetry_equiv_pos_as_xyz
  1  'x, y, z'
loop_
 _atom_site_type_symbol
 _atom_site_label
 _atom_site_symmetry_multiplicity
 _atom_site_fract_x
 _atom_site_fract_y
 _atom_site_fract_z
 _atom_site_occupancy
  Pr  Pr0  1  0.53246923  0.75000000  0.19329865  1.0
  Pr  Pr1  1  0.03246923  0.75000000  0.30670135  1.0
  Pr  Pr2  1  0.46753077  0.25000000  0.80670135  1.0
  Pr  Pr3  1  0.96753077  0.25000000  0.69329865  1.0
  Sn  Sn4  1  0.19874302  0.75000000  0.87900034  1.0
  Sn  Sn5  1  0.69874302  0.75000000  0.62099966  1.0
  Sn  Sn6  1  0.80125698  0.25000000  0.12099966  1.0
  Sn  Sn7  1  0.30125698  0.25000000  0.37900034  1.0
  Ru  Ru8  1  0.34893692  0.75000000  0.53743983  1.0
  Ru  Ru9  1  0.84893692  0.75000000  0.96256017  1.0
  Ru  Ru10  1  0.65106308  0.25000000  0.46256017  1.0
  Ru  Ru11  1  0.15106308  0.25000000  0.03743983  1.0
