# generated using pymatgen
data_La3(AlI)2
_symmetry_space_group_name_H-M   'P 1'
_cell_length_a   10.20268060
_cell_length_b   10.20268060
_cell_length_c   12.46420244
_cell_angle_alpha   59.06678407
_cell_angle_beta   120.93321593
_cell_angle_gamma   155.35188135
_symmetry_Int_Tables_number   1
_chemical_formula_structural   La3(AlI)2
_chemical_formula_sum   'La6 Al4 I4'
_cell_volume   460.14001016
_cell_formula_units_Z   2
loop_
 _symmetry_equiv_pos_site_id
 _symmetry_equiv_pos_as_xyz
  1  'x, y, z'
loop_
 _atom_site_type_symbol
 _atom_site_label
 _atom_site_symmetry_multiplicity
 _atom_site_fract_x
 _atom_site_fract_y
 _atom_site_fract_z
 _atom_site_occupancy
  La  La0  1  0.96542614  -0.96542614  0.80901129  1.0
  La  La1  1  0.03457386  -0.03457386  0.19098871  1.0
  La  La2  1  0.74563878  -0.74563878  0.30335000  1.0
  La  La3  1  0.25436122  -0.25436122  0.69665000  1.0
  La  La4  1  0.67190655  0.32809345  0.89549708  1.0
  La  La5  1  1.32809345  -0.32809345  0.10450292  1.0
  Al  Al6  1  0.84104636  0.15895364  0.91345691  1.0
  Al  Al7  1  1.15895364  -0.15895364  0.08654309  1.0
  Al  Al8  1  0.42698085  -0.42698085  0.96649825  1.0
  Al  Al9  1  0.57301915  -0.57301915  0.03350175  1.0
  I  I10  1  0.92285309  -0.92285309  0.32712488  1.0
  I  I11  1  0.07714691  -0.07714691  0.67287512  1.0
  I  I12  1  0.64109450  0.35890550  0.44031619  1.0
  I  I13  1  1.35890550  -0.35890550  0.55968381  1.0
