# generated using pymatgen
data_AlPO4
_symmetry_space_group_name_H-M   'P 1'
_cell_length_a   12.83634096
_cell_length_b   5.25901305
_cell_length_c   12.85099647
_cell_angle_alpha   91.53585594
_cell_angle_beta   117.49198752
_cell_angle_gamma   91.61282616
_symmetry_Int_Tables_number   1
_chemical_formula_structural   AlPO4
_chemical_formula_sum   'Al6 P6 O24'
_cell_volume   768.48066941
_cell_formula_units_Z   6
loop_
 _symmetry_equiv_pos_site_id
 _symmetry_equiv_pos_as_xyz
  1  'x, y, z'
loop_
 _atom_site_type_symbol
 _atom_site_label
 _atom_site_symmetry_multiplicity
 _atom_site_fract_x
 _atom_site_fract_y
 _atom_site_fract_z
 _atom_site_occupancy
  Al  Al0  1  -0.62278415  -0.78706171  -0.64159914  1.0
  Al  Al1  1  -0.37721585  -0.21293829  -0.35840086  1.0
  Al  Al2  1  -0.13206343  -0.77644935  -0.98603916  1.0
  Al  Al3  1  -0.86793657  -0.22355065  -0.01396084  1.0
  Al  Al4  1  -0.57884889  -0.78613832  -0.15708269  1.0
  Al  Al5  1  -0.42115111  -0.21386168  -0.84291731  1.0
  P  P6  1  -0.52036764  -0.72747289  -0.36725323  1.0
  P  P7  1  -0.47963236  -0.27252711  -0.63274677  1.0
  P  P8  1  -0.33764865  -0.71484923  -0.92079356  1.0
  P  P9  1  -0.66235135  -0.28515077  -0.07920644  1.0
  P  P10  1  -0.85644498  -0.71126073  -0.87035659  1.0
  P  P11  1  -0.14355502  -0.28873927  -0.12964341  1.0
  O  O12  1  -0.36114761  -0.91301301  -0.84688313  1.0
  O  O13  1  -0.63885239  -0.08698699  -0.15311687  1.0
  O  O14  1  -0.42007616  -0.91620758  -0.32867342  1.0
  O  O15  1  -0.57992384  -0.08379242  -0.67132658  1.0
  O  O16  1  -0.83968113  -0.91340305  -0.95038058  1.0
  O  O17  1  -0.16031887  -0.08659695  -0.04961942  1.0
  O  O18  1  -0.60801120  -0.77529945  -0.49865563  1.0
  O  O19  1  -0.39198880  -0.22470055  -0.50134437  1.0
  O  O20  1  -0.58929238  -0.76231834  -0.29701856  1.0
  O  O21  1  -0.41070762  -0.23768166  -0.70298144  1.0
  O  O22  1  -0.77069318  -0.74988822  -0.74047669  1.0
  O  O23  1  -0.22930682  -0.25011178  -0.25952331  1.0
  O  O24  1  -0.98245431  -0.73314725  -0.88416185  1.0
  O  O25  1  -0.01754569  -0.26685275  -0.11583815  1.0
  O  O26  1  -0.21385043  -0.74312451  -0.90938625  1.0
  O  O27  1  -0.78614957  -0.25687549  -0.09061375  1.0
  O  O28  1  -0.53302293  -0.54744132  -0.65606379  1.0
  O  O29  1  -0.46697707  -0.45255868  -0.34393621  1.0
  O  O30  1  -0.34244895  -0.44605193  -0.87292226  1.0
  O  O31  1  -0.65755105  -0.55394807  -0.12707774  1.0
  O  O32  1  -0.83108258  -0.44465820  -0.90342696  1.0
  O  O33  1  -0.16891742  -0.55534180  -0.09657304  1.0
  O  O34  1  -0.57050288  -0.24692496  -0.94807735  1.0
  O  O35  1  -0.42949712  -0.75307504  -0.05192265  1.0
