# generated using pymatgen
data_AuBr3
_symmetry_space_group_name_H-M   'P 1'
_cell_length_a   7.00771030
_cell_length_b   20.75772116
_cell_length_c   8.93511979
_cell_angle_alpha   90.00000000
_cell_angle_beta   117.13792547
_cell_angle_gamma   90.00000000
_symmetry_Int_Tables_number   1
_chemical_formula_structural   AuBr3
_chemical_formula_sum   'Au8 Br24'
_cell_volume   1156.65224052
_cell_formula_units_Z   8
loop_
 _symmetry_equiv_pos_site_id
 _symmetry_equiv_pos_as_xyz
  1  'x, y, z'
loop_
 _atom_site_type_symbol
 _atom_site_label
 _atom_site_symmetry_multiplicity
 _atom_site_fract_x
 _atom_site_fract_y
 _atom_site_fract_z
 _atom_site_occupancy
  Au  Au0  1  0.72414809  0.46188989  0.25907410  1.0
  Au  Au1  1  0.72414809  0.03811011  0.75907410  1.0
  Au  Au2  1  0.27585191  0.96188989  0.24092590  1.0
  Au  Au3  1  0.27585191  0.53811011  0.74092590  1.0
  Au  Au4  1  0.60583724  0.28999935  0.27974852  1.0
  Au  Au5  1  0.60583724  0.21000065  0.77974852  1.0
  Au  Au6  1  0.39416276  0.78999935  0.22025148  1.0
  Au  Au7  1  0.39416276  0.71000065  0.72025148  1.0
  Br  Br8  1  0.42668344  0.39608914  0.26457615  1.0
  Br  Br9  1  0.42668344  0.10391086  0.76457615  1.0
  Br  Br10  1  0.57331656  0.89608914  0.23542385  1.0
  Br  Br11  1  0.57331656  0.60391086  0.73542385  1.0
  Br  Br12  1  0.97490543  0.01928507  0.24540984  1.0
  Br  Br13  1  0.97490543  0.48071493  0.74540984  1.0
  Br  Br14  1  0.02509457  0.51928507  0.25459016  1.0
  Br  Br15  1  0.02509457  0.98071493  0.75459016  1.0
  Br  Br16  1  0.91096267  0.35498729  0.28562013  1.0
  Br  Br17  1  0.91096267  0.14501271  0.78562013  1.0
  Br  Br18  1  0.08903733  0.85498729  0.21437987  1.0
  Br  Br19  1  0.08903733  0.64501271  0.71437987  1.0
  Br  Br20  1  0.78694866  0.18850100  0.28643205  1.0
  Br  Br21  1  0.78694866  0.31149900  0.78643205  1.0
  Br  Br22  1  0.21305134  0.68850100  0.21356795  1.0
  Br  Br23  1  0.21305134  0.81149900  0.71356795  1.0
  Br  Br24  1  0.47115052  0.06205147  0.26673275  1.0
  Br  Br25  1  0.47115052  0.43794853  0.76673275  1.0
  Br  Br26  1  0.52884948  0.56205147  0.23326725  1.0
  Br  Br27  1  0.52884948  0.93794853  0.73326725  1.0
  Br  Br28  1  0.30169067  0.23488492  0.28405368  1.0
  Br  Br29  1  0.30169067  0.26511508  0.78405368  1.0
  Br  Br30  1  0.69830933  0.73488492  0.21594632  1.0
  Br  Br31  1  0.69830933  0.76511508  0.71594632  1.0
