# generated using pymatgen
data_K2TaCuSe4
_symmetry_space_group_name_H-M   'P 1'
_cell_length_a   14.05506684
_cell_length_b   12.57130253
_cell_length_c   7.49319448
_cell_angle_alpha   84.93262027
_cell_angle_beta   62.99112545
_cell_angle_gamma   32.07625429
_symmetry_Int_Tables_number   1
_chemical_formula_structural   K2TaCuSe4
_chemical_formula_sum   'K4 Ta2 Cu2 Se8'
_cell_volume   488.17575434
_cell_formula_units_Z   2
loop_
 _symmetry_equiv_pos_site_id
 _symmetry_equiv_pos_as_xyz
  1  'x, y, z'
loop_
 _atom_site_type_symbol
 _atom_site_label
 _atom_site_symmetry_multiplicity
 _atom_site_fract_x
 _atom_site_fract_y
 _atom_site_fract_z
 _atom_site_occupancy
  K  K0  1  0.17977878  1.17977878  -0.17977878  1.0
  K  K1  1  0.82022122  0.82022122  -0.82022122  1.0
  K  K2  1  0.07022122  0.07022122  1.42977878  1.0
  K  K3  1  1.42977878  0.42977878  0.07022122  1.0
  Ta  Ta4  1  0.00000000  0.00000000  0.00000000  1.0
  Ta  Ta5  1  1.25000000  0.25000000  0.25000000  1.0
  Cu  Cu6  1  -0.50000000  0.50000000  0.50000000  1.0
  Cu  Cu7  1  0.75000000  0.75000000  0.75000000  1.0
  Se  Se8  1  0.80180757  1.08469330  -0.59814739  1.0
  Se  Se9  1  0.71164652  -0.59814739  1.08469330  1.0
  Se  Se10  1  -0.59814739  0.71164652  0.80180757  1.0
  Se  Se11  1  1.08469330  0.80180757  0.71164652  1.0
  Se  Se12  1  1.44819243  0.16530670  -0.15185261  1.0
  Se  Se13  1  1.53835348  -0.15185261  0.16530670  1.0
  Se  Se14  1  0.84814739  0.53835348  0.44819243  1.0
  Se  Se15  1  1.16530670  0.44819243  0.53835348  1.0
