# generated using pymatgen
data_BaZr(SiO3)3
_symmetry_space_group_name_H-M   'P 1'
_cell_length_a   6.84579442
_cell_length_b   6.84579442
_cell_length_c   10.14320199
_cell_angle_alpha   90.00000000
_cell_angle_beta   90.00000000
_cell_angle_gamma   120.00000000
_symmetry_Int_Tables_number   1
_chemical_formula_structural   BaZr(SiO3)3
_chemical_formula_sum   'Ba2 Zr2 Si6 O18'
_cell_volume   411.67397347
_cell_formula_units_Z   2
loop_
 _symmetry_equiv_pos_site_id
 _symmetry_equiv_pos_as_xyz
  1  'x, y, z'
loop_
 _atom_site_type_symbol
 _atom_site_label
 _atom_site_symmetry_multiplicity
 _atom_site_fract_x
 _atom_site_fract_y
 _atom_site_fract_z
 _atom_site_occupancy
  Ba  Ba0  1  0.00000000  0.00000000  0.50000000  1.0
  Ba  Ba1  1  0.00000000  0.00000000  0.00000000  1.0
  Zr  Zr2  1  0.33333333  0.66666667  0.50000000  1.0
  Zr  Zr3  1  0.33333333  0.66666667  0.00000000  1.0
  Si  Si4  1  0.60935186  0.55564106  0.25000000  1.0
  Si  Si5  1  0.60935186  0.05371080  0.75000000  1.0
  Si  Si6  1  0.94628920  0.55564106  0.75000000  1.0
  Si  Si7  1  0.94628920  0.39064814  0.25000000  1.0
  Si  Si8  1  0.44435894  0.39064814  0.75000000  1.0
  Si  Si9  1  0.44435894  0.05371080  0.25000000  1.0
  O  O10  1  0.08615014  0.40736136  0.38334709  1.0
  O  O11  1  0.08615014  0.40736136  0.11665291  1.0
  O  O12  1  0.08615014  0.67878878  0.88334709  1.0
  O  O13  1  0.08615014  0.67878878  0.61665291  1.0
  O  O14  1  0.32121122  0.40736136  0.88334709  1.0
  O  O15  1  0.32121122  0.40736136  0.61665291  1.0
  O  O16  1  0.32121122  0.91384986  0.38334709  1.0
  O  O17  1  0.32121122  0.91384986  0.11665291  1.0
  O  O18  1  0.59263864  0.91384986  0.88334709  1.0
  O  O19  1  0.59263864  0.91384986  0.61665291  1.0
  O  O20  1  0.59263864  0.67878878  0.38334709  1.0
  O  O21  1  0.59263864  0.67878878  0.11665291  1.0
  O  O22  1  0.86291063  0.57976711  0.25000000  1.0
  O  O23  1  0.86291063  0.28314352  0.75000000  1.0
  O  O24  1  0.71685648  0.57976711  0.75000000  1.0
  O  O25  1  0.71685648  0.13708937  0.25000000  1.0
  O  O26  1  0.42023289  0.13708937  0.75000000  1.0
  O  O27  1  0.42023289  0.28314352  0.25000000  1.0
