# generated using pymatgen
data_LuHCl
_symmetry_space_group_name_H-M   'P 1'
_cell_length_a   10.02209965
_cell_length_b   10.02209965
_cell_length_c   10.02209965
_cell_angle_alpha   20.98211632
_cell_angle_beta   20.98211632
_cell_angle_gamma   20.98211632
_symmetry_Int_Tables_number   1
_chemical_formula_structural   LuHCl
_chemical_formula_sum   'Lu2 H2 Cl2'
_cell_volume   113.02733419
_cell_formula_units_Z   2
loop_
 _symmetry_equiv_pos_site_id
 _symmetry_equiv_pos_as_xyz
  1  'x, y, z'
loop_
 _atom_site_type_symbol
 _atom_site_label
 _atom_site_symmetry_multiplicity
 _atom_site_fract_x
 _atom_site_fract_y
 _atom_site_fract_z
 _atom_site_occupancy
  Lu  Lu0  1  0.87800859  -0.12199141  -0.12199141  1.0
  Lu  Lu1  1  0.12199141  0.12199141  0.12199141  1.0
  H  H2  1  0.80561030  -0.19438970  -0.19438970  1.0
  H  H3  1  0.19438970  0.19438970  0.19438970  1.0
  Cl  Cl4  1  0.60203801  0.60203801  -0.39796199  1.0
  Cl  Cl5  1  0.39796199  0.39796199  -0.60203801  1.0
