# generated using pymatgen
data_BaSi2
_symmetry_space_group_name_H-M   'P 1'
_cell_length_a   9.02792096
_cell_length_b   6.74535270
_cell_length_c   11.56535292
_cell_angle_alpha   90.00000000
_cell_angle_beta   90.00000000
_cell_angle_gamma   90.00000000
_symmetry_Int_Tables_number   1
_chemical_formula_structural   BaSi2
_chemical_formula_sum   'Ba8 Si16'
_cell_volume   704.28964203
_cell_formula_units_Z   8
loop_
 _symmetry_equiv_pos_site_id
 _symmetry_equiv_pos_as_xyz
  1  'x, y, z'
loop_
 _atom_site_type_symbol
 _atom_site_label
 _atom_site_symmetry_multiplicity
 _atom_site_fract_x
 _atom_site_fract_y
 _atom_site_fract_z
 _atom_site_occupancy
  Ba  Ba0  1  0.84266371  0.75000000  0.09443986  1.0
  Ba  Ba1  1  0.34266371  0.75000000  0.40556014  1.0
  Ba  Ba2  1  0.15733629  0.25000000  0.90556014  1.0
  Ba  Ba3  1  0.65733629  0.25000000  0.59443986  1.0
  Ba  Ba4  1  0.51427961  0.75000000  0.80857496  1.0
  Ba  Ba5  1  0.01427961  0.75000000  0.69142504  1.0
  Ba  Ba6  1  0.48572039  0.25000000  0.19142504  1.0
  Ba  Ba7  1  0.98572039  0.25000000  0.30857496  1.0
  Si  Si8  1  0.91496982  0.75000000  0.40942198  1.0
  Si  Si9  1  0.41496982  0.75000000  0.09057802  1.0
  Si  Si10  1  0.08503018  0.25000000  0.59057802  1.0
  Si  Si11  1  0.58503018  0.25000000  0.90942198  1.0
  Si  Si12  1  0.69339605  0.92851186  0.35424927  1.0
  Si  Si13  1  0.69339605  0.57148814  0.35424927  1.0
  Si  Si14  1  0.19339605  0.92851186  0.14575073  1.0
  Si  Si15  1  0.19339605  0.57148814  0.14575073  1.0
  Si  Si16  1  0.30660395  0.42851186  0.64575073  1.0
  Si  Si17  1  0.30660395  0.07148814  0.64575073  1.0
  Si  Si18  1  0.80660395  0.42851186  0.85424927  1.0
  Si  Si19  1  0.80660395  0.07148814  0.85424927  1.0
  Si  Si20  1  0.69715658  0.75000000  0.53444738  1.0
  Si  Si21  1  0.19715658  0.75000000  0.96555262  1.0
  Si  Si22  1  0.30284342  0.25000000  0.46555262  1.0
  Si  Si23  1  0.80284342  0.25000000  0.03444738  1.0
