# generated using pymatgen
data_Cs3FeF6
_symmetry_space_group_name_H-M   'P 1'
_cell_length_a   6.93051501
_cell_length_b   6.93051501
_cell_length_c   6.93051501
_cell_angle_alpha   121.51852546
_cell_angle_beta   121.51852546
_cell_angle_gamma   87.38936320
_symmetry_Int_Tables_number   1
_chemical_formula_structural   Cs3FeF6
_chemical_formula_sum   'Cs3 Fe1 F6'
_cell_volume   229.72459714
_cell_formula_units_Z   1
loop_
 _symmetry_equiv_pos_site_id
 _symmetry_equiv_pos_as_xyz
  1  'x, y, z'
loop_
 _atom_site_type_symbol
 _atom_site_label
 _atom_site_symmetry_multiplicity
 _atom_site_fract_x
 _atom_site_fract_y
 _atom_site_fract_z
 _atom_site_occupancy
  Cs  Cs0  1  0.25000000  0.75000000  0.50000000  1.0
  Cs  Cs1  1  0.75000000  0.25000000  0.50000000  1.0
  Cs  Cs2  1  0.50000000  0.50000000  1.00000000  1.0
  Fe  Fe3  1  -0.00000000  -0.00000000  -0.00000000  1.0
  F  F4  1  -0.00000000  0.71248157  0.71248157  1.0
  F  F5  1  0.71248157  -0.00000000  0.71248157  1.0
  F  F6  1  0.28751843  0.00000000  0.28751843  1.0
  F  F7  1  -0.00000000  0.28751843  0.28751843  1.0
  F  F8  1  0.79429632  0.79429632  1.00000000  1.0
  F  F9  1  0.20570368  0.20570368  0.00000000  1.0
