# generated using pymatgen
data_YbS2
_symmetry_space_group_name_H-M   'P 1'
_cell_length_a   3.77040248
_cell_length_b   3.77040248
_cell_length_c   8.12039011
_cell_angle_alpha   90.00000000
_cell_angle_beta   90.00000000
_cell_angle_gamma   90.00000000
_symmetry_Int_Tables_number   1
_chemical_formula_structural   YbS2
_chemical_formula_sum   'Yb2 S4'
_cell_volume   115.43893688
_cell_formula_units_Z   2
loop_
 _symmetry_equiv_pos_site_id
 _symmetry_equiv_pos_as_xyz
  1  'x, y, z'
loop_
 _atom_site_type_symbol
 _atom_site_label
 _atom_site_symmetry_multiplicity
 _atom_site_fract_x
 _atom_site_fract_y
 _atom_site_fract_z
 _atom_site_occupancy
  Yb  Yb0  1  0.00000000  0.50000000  0.28371373  1.0
  Yb  Yb1  1  0.50000000  0.00000000  0.71628627  1.0
  S  S2  1  0.50000000  0.00000000  0.36619173  1.0
  S  S3  1  0.00000000  0.50000000  0.63380827  1.0
  S  S4  1  0.50000000  0.50000000  0.00000000  1.0
  S  S5  1  0.00000000  0.00000000  0.00000000  1.0
