# generated using pymatgen
data_CrTe
_symmetry_space_group_name_H-M   'P 1'
_cell_length_a   6.30764551
_cell_length_b   4.14211061
_cell_length_c   7.17430282
_cell_angle_alpha   90.00000000
_cell_angle_beta   90.00000000
_cell_angle_gamma   90.00000000
_symmetry_Int_Tables_number   1
_chemical_formula_structural   CrTe
_chemical_formula_sum   'Cr4 Te4'
_cell_volume   187.44276178
_cell_formula_units_Z   4
loop_
 _symmetry_equiv_pos_site_id
 _symmetry_equiv_pos_as_xyz
  1  'x, y, z'
loop_
 _atom_site_type_symbol
 _atom_site_label
 _atom_site_symmetry_multiplicity
 _atom_site_fract_x
 _atom_site_fract_y
 _atom_site_fract_z
 _atom_site_occupancy
  Cr  Cr0  1  -0.00002258  0.75000000  0.24996525  1.0
  Cr  Cr1  1  0.49997742  0.75000000  0.25003475  1.0
  Cr  Cr2  1  1.00002258  0.25000000  0.75003475  1.0
  Cr  Cr3  1  0.50002258  0.25000000  0.74996525  1.0
  Te  Te4  1  0.75003082  0.75000000  0.58339470  1.0
  Te  Te5  1  0.25003082  0.75000000  0.91660530  1.0
  Te  Te6  1  0.24996918  0.25000000  0.41660530  1.0
  Te  Te7  1  0.74996918  0.25000000  0.08339470  1.0
