# generated using pymatgen
data_CuHgO2
_symmetry_space_group_name_H-M   'P 1'
_cell_length_a   3.89173946
_cell_length_b   3.89173946
_cell_length_c   6.32570790
_cell_angle_alpha   63.61009271
_cell_angle_beta   116.38990729
_cell_angle_gamma   134.62689021
_symmetry_Int_Tables_number   1
_chemical_formula_structural   CuHgO2
_chemical_formula_sum   'Cu1 Hg1 O2'
_cell_volume   59.75142269
_cell_formula_units_Z   1
loop_
 _symmetry_equiv_pos_site_id
 _symmetry_equiv_pos_as_xyz
  1  'x, y, z'
loop_
 _atom_site_type_symbol
 _atom_site_label
 _atom_site_symmetry_multiplicity
 _atom_site_fract_x
 _atom_site_fract_y
 _atom_site_fract_z
 _atom_site_occupancy
  Cu  Cu0  1  1.00000000  -0.00000000  0.50000000  1.0
  Hg  Hg1  1  0.50000000  0.50000000  0.00000000  1.0
  O  O2  1  0.43334559  -0.43334559  0.28086079  1.0
  O  O3  1  0.56665441  -0.56665441  0.71913921  1.0
