# generated using pymatgen
data_Mn7(PO4)6
_symmetry_space_group_name_H-M   'P 1'
_cell_length_a   8.22533063
_cell_length_b   6.30929835
_cell_length_c   9.61576344
_cell_angle_alpha   69.63556667
_cell_angle_beta   71.96872083
_cell_angle_gamma   78.41475765
_symmetry_Int_Tables_number   1
_chemical_formula_structural   Mn7(PO4)6
_chemical_formula_sum   'Mn7 P6 O24'
_cell_volume   442.42119970
_cell_formula_units_Z   1
loop_
 _symmetry_equiv_pos_site_id
 _symmetry_equiv_pos_as_xyz
  1  'x, y, z'
loop_
 _atom_site_type_symbol
 _atom_site_label
 _atom_site_symmetry_multiplicity
 _atom_site_fract_x
 _atom_site_fract_y
 _atom_site_fract_z
 _atom_site_occupancy
  Mn  Mn0  1  -0.71028133  0.51070350  0.22706039  1.0
  Mn  Mn1  1  -0.28971867  -0.51070350  0.77293961  1.0
  Mn  Mn2  1  -0.94200198  -0.23806949  0.60628185  1.0
  Mn  Mn3  1  -0.05799802  0.23806949  0.39371815  1.0
  Mn  Mn4  1  -0.50000000  -0.50000000  0.50000000  1.0
  Mn  Mn5  1  -0.75113228  -0.00898801  0.95993434  1.0
  Mn  Mn6  1  -0.24886772  0.00898801  0.04006566  1.0
  P  P7  1  -0.34733943  0.03508475  0.72654079  1.0
  P  P8  1  -0.65266057  -0.03508475  0.27345921  1.0
  P  P9  1  -0.71462486  -0.46880044  0.86691954  1.0
  P  P10  1  -0.28537514  0.46880044  0.13308046  1.0
  P  P11  1  -0.89134505  0.23978395  0.65902277  1.0
  P  P12  1  -0.10865495  -0.23978395  0.34097723  1.0
  O  O13  1  -0.71672920  0.32088936  0.56389960  1.0
  O  O14  1  -0.28327080  -0.32088936  0.43610040  1.0
  O  O15  1  -0.97106876  0.54318325  0.33820766  1.0
  O  O16  1  -0.02893124  -0.54318325  0.66179234  1.0
  O  O17  1  -0.53522578  -0.00249091  0.79220761  1.0
  O  O18  1  -0.46477422  0.00249091  0.20779239  1.0
  O  O19  1  -0.31370159  0.21503768  0.56328437  1.0
  O  O20  1  -0.68629841  -0.21503768  0.43671563  1.0
  O  O21  1  -0.95880027  0.10323128  0.58002475  1.0
  O  O22  1  -0.04119973  -0.10323128  0.41997525  1.0
  O  O23  1  -0.72768212  -0.34569342  0.98900751  1.0
  O  O24  1  -0.27231788  0.34569342  0.01099249  1.0
  O  O25  1  -0.23407082  -0.19351959  0.72243759  1.0
  O  O26  1  -0.76592918  0.19351959  0.27756241  1.0
  O  O27  1  -0.85079177  -0.34736941  0.77925525  1.0
  O  O28  1  -0.14920823  0.34736941  0.22074475  1.0
  O  O29  1  -0.53264644  -0.46330211  0.75012633  1.0
  O  O30  1  -0.46735356  0.46330211  0.24987367  1.0
  O  O31  1  -0.75094426  -0.71488532  0.96640520  1.0
  O  O32  1  -0.24905574  0.71488532  0.03359480  1.0
  O  O33  1  -0.28769558  0.14150675  0.82998482  1.0
  O  O34  1  -0.71230442  -0.14150675  0.17001518  1.0
  O  O35  1  -0.90353352  0.08786523  0.82645194  1.0
  O  O36  1  -0.09646648  -0.08786523  0.17354806  1.0
