# generated using pymatgen
data_Se2NCl3
_symmetry_space_group_name_H-M   'P 1'
_cell_length_a   9.74398726
_cell_length_b   10.58699009
_cell_length_c   7.57373840
_cell_angle_alpha   90.00000000
_cell_angle_beta   96.19503778
_cell_angle_gamma   90.00000000
_symmetry_Int_Tables_number   1
_chemical_formula_structural   Se2NCl3
_chemical_formula_sum   'Se8 N4 Cl12'
_cell_volume   776.74047562
_cell_formula_units_Z   4
loop_
 _symmetry_equiv_pos_site_id
 _symmetry_equiv_pos_as_xyz
  1  'x, y, z'
loop_
 _atom_site_type_symbol
 _atom_site_label
 _atom_site_symmetry_multiplicity
 _atom_site_fract_x
 _atom_site_fract_y
 _atom_site_fract_z
 _atom_site_occupancy
  Se  Se0  1  0.81169753  0.38091733  0.43159538  1.0
  Se  Se1  1  0.81169753  0.11908267  0.93159538  1.0
  Se  Se2  1  0.18830247  0.88091733  0.06840462  1.0
  Se  Se3  1  0.18830247  0.61908267  0.56840462  1.0
  Se  Se4  1  0.21496975  0.03508433  0.40858433  1.0
  Se  Se5  1  0.21496975  0.46491567  0.90858433  1.0
  Se  Se6  1  0.78503025  0.53508433  0.09141567  1.0
  Se  Se7  1  0.78503025  0.96491567  0.59141567  1.0
  N  N8  1  0.72647571  0.49886753  0.29708935  1.0
  N  N9  1  0.72647571  0.00113247  0.79708935  1.0
  N  N10  1  0.27352429  0.99886753  0.20291065  1.0
  N  N11  1  0.27352429  0.50113247  0.70291065  1.0
  Cl  Cl12  1  1.02361338  0.85541381  0.31970944  1.0
  Cl  Cl13  1  1.02361338  0.64458619  0.81970944  1.0
  Cl  Cl14  1  -0.02361338  0.35541381  0.18029056  1.0
  Cl  Cl15  1  -0.02361338  0.14458619  0.68029056  1.0
  Cl  Cl16  1  0.66980048  0.10274461  0.14693952  1.0
  Cl  Cl17  1  0.66980048  0.39725539  0.64693952  1.0
  Cl  Cl18  1  0.33019952  0.60274461  0.35306048  1.0
  Cl  Cl19  1  0.33019952  0.89725539  0.85306048  1.0
  Cl  Cl20  1  0.37282558  0.18194916  0.48475464  1.0
  Cl  Cl21  1  0.37282558  0.31805084  0.98475464  1.0
  Cl  Cl22  1  0.62717442  0.68194916  0.01524536  1.0
  Cl  Cl23  1  0.62717442  0.81805084  0.51524536  1.0
