# generated using pymatgen
data_Al2Te3
_symmetry_space_group_name_H-M   'P 1'
_cell_length_a   7.27221034
_cell_length_b   13.09501489
_cell_length_c   15.58547251
_cell_angle_alpha   90.00000000
_cell_angle_beta   89.92276985
_cell_angle_gamma   90.00000000
_symmetry_Int_Tables_number   1
_chemical_formula_structural   Al2Te3
_chemical_formula_sum   'Al16 Te24'
_cell_volume   1484.19856658
_cell_formula_units_Z   8
loop_
 _symmetry_equiv_pos_site_id
 _symmetry_equiv_pos_as_xyz
  1  'x, y, z'
loop_
 _atom_site_type_symbol
 _atom_site_label
 _atom_site_symmetry_multiplicity
 _atom_site_fract_x
 _atom_site_fract_y
 _atom_site_fract_z
 _atom_site_occupancy
  Al  Al0  1  0.93080825  0.90579168  0.68601758  1.0
  Al  Al1  1  0.93080825  0.59420832  0.18601758  1.0
  Al  Al2  1  0.06919175  0.40579168  0.81398242  1.0
  Al  Al3  1  0.06919175  0.09420832  0.31398242  1.0
  Al  Al4  1  0.92085699  0.58948778  0.69622938  1.0
  Al  Al5  1  0.92085699  0.91051222  0.19622938  1.0
  Al  Al6  1  0.07914301  0.08948778  0.80377062  1.0
  Al  Al7  1  0.07914301  0.41051222  0.30377062  1.0
  Al  Al8  1  0.56874102  0.93288476  0.81289953  1.0
  Al  Al9  1  0.56874102  0.56711524  0.31289953  1.0
  Al  Al10  1  0.43125898  0.43288476  0.68710047  1.0
  Al  Al11  1  0.43125898  0.06711524  0.18710047  1.0
  Al  Al12  1  0.41965001  0.75001619  0.69512108  1.0
  Al  Al13  1  0.41965001  0.74998381  0.19512108  1.0
  Al  Al14  1  0.58034999  0.25001619  0.80487892  1.0
  Al  Al15  1  0.58034999  0.24998381  0.30487892  1.0
  Te  Te16  1  0.92370393  0.91501948  0.85847446  1.0
  Te  Te17  1  0.92370393  0.58498052  0.35847446  1.0
  Te  Te18  1  0.07629607  0.41501948  0.64152554  1.0
  Te  Te19  1  0.07629607  0.08498052  0.14152554  1.0
  Te  Te20  1  0.91546732  0.57539317  0.86087353  1.0
  Te  Te21  1  0.91546732  0.92460683  0.36087353  1.0
  Te  Te22  1  0.08453268  0.07539317  0.63912647  1.0
  Te  Te23  1  0.08453268  0.42460683  0.13912647  1.0
  Te  Te24  1  0.90926693  0.24327276  0.88616151  1.0
  Te  Te25  1  0.90926693  0.25672724  0.38616151  1.0
  Te  Te26  1  0.09073307  0.74327276  0.61383849  1.0
  Te  Te27  1  0.09073307  0.75672724  0.11383849  1.0
  Te  Te28  1  0.59170120  0.59528706  0.61471287  1.0
  Te  Te29  1  0.59170120  0.90471294  0.11471287  1.0
  Te  Te30  1  0.40829880  0.09528706  0.88528713  1.0
  Te  Te31  1  0.40829880  0.40471294  0.38528713  1.0
  Te  Te32  1  0.57589947  0.92419430  0.64049419  1.0
  Te  Te33  1  0.57589947  0.57580570  0.14049419  1.0
  Te  Te34  1  0.42410053  0.42419430  0.85950581  1.0
  Te  Te35  1  0.42410053  0.07580570  0.35950581  1.0
  Te  Te36  1  0.41559765  0.76318448  0.85982104  1.0
  Te  Te37  1  0.41559765  0.73681552  0.35982104  1.0
  Te  Te38  1  0.58440235  0.26318448  0.64017896  1.0
  Te  Te39  1  0.58440235  0.23681552  0.14017896  1.0
