# generated using pymatgen
data_CaZn2O8
_symmetry_space_group_name_H-M   'P 1'
_cell_length_a   6.66885058
_cell_length_b   8.51593822
_cell_length_c   5.24541208
_cell_angle_alpha   90.00000000
_cell_angle_beta   107.11195509
_cell_angle_gamma   90.00000000
_symmetry_Int_Tables_number   1
_chemical_formula_structural   CaZn2O8
_chemical_formula_sum   'Ca2 Zn4 O16'
_cell_volume   284.70760352
_cell_formula_units_Z   2
loop_
 _symmetry_equiv_pos_site_id
 _symmetry_equiv_pos_as_xyz
  1  'x, y, z'
loop_
 _atom_site_type_symbol
 _atom_site_label
 _atom_site_symmetry_multiplicity
 _atom_site_fract_x
 _atom_site_fract_y
 _atom_site_fract_z
 _atom_site_occupancy
  Ca  Ca0  1  0.00000000  0.00000000  0.00000000  1.0
  Ca  Ca1  1  0.00000000  0.50000000  0.50000000  1.0
  Zn  Zn2  1  0.43436736  0.87261258  0.69116524  1.0
  Zn  Zn3  1  0.43436736  0.62738742  0.19116524  1.0
  Zn  Zn4  1  0.56563264  0.37261258  0.80883476  1.0
  Zn  Zn5  1  0.56563264  0.12738742  0.30883476  1.0
  O  O6  1  0.99153159  0.78378178  0.67731341  1.0
  O  O7  1  0.99153159  0.71621822  0.17731341  1.0
  O  O8  1  0.00846841  0.28378178  0.82268659  1.0
  O  O9  1  0.00846841  0.21621822  0.32268659  1.0
  O  O10  1  0.87922538  0.40132472  0.84340327  1.0
  O  O11  1  0.87922538  0.09867528  0.34340327  1.0
  O  O12  1  0.12077462  0.90132472  0.65659673  1.0
  O  O13  1  0.12077462  0.59867528  0.15659673  1.0
  O  O14  1  0.63425294  1.04991505  0.75086536  1.0
  O  O15  1  0.63425294  0.45008495  0.25086536  1.0
  O  O16  1  0.36574706  0.54991505  0.74913464  1.0
  O  O17  1  0.36574706  -0.04991505  0.24913464  1.0
  O  O18  1  0.48070666  0.65524219  0.60870767  1.0
  O  O19  1  0.48070666  0.84475781  0.10870767  1.0
  O  O20  1  0.51929334  0.15524219  0.89129233  1.0
  O  O21  1  0.51929334  0.34475781  0.39129233  1.0
