# generated using pymatgen
data_BaBe2Si2O7
_symmetry_space_group_name_H-M   'P 1'
_cell_length_a   9.91376991
_cell_length_b   11.84177818
_cell_length_c   4.73179626
_cell_angle_alpha   90.00000000
_cell_angle_beta   90.00000000
_cell_angle_gamma   90.00000000
_symmetry_Int_Tables_number   1
_chemical_formula_structural   BaBe2Si2O7
_chemical_formula_sum   'Ba4 Be8 Si8 O28'
_cell_volume   555.49709695
_cell_formula_units_Z   4
loop_
 _symmetry_equiv_pos_site_id
 _symmetry_equiv_pos_as_xyz
  1  'x, y, z'
loop_
 _atom_site_type_symbol
 _atom_site_label
 _atom_site_symmetry_multiplicity
 _atom_site_fract_x
 _atom_site_fract_y
 _atom_site_fract_z
 _atom_site_occupancy
  Ba  Ba0  1  0.15188220  0.75000000  0.24797894  1.0
  Ba  Ba1  1  0.65188220  0.75000000  0.25202106  1.0
  Ba  Ba2  1  0.84811780  0.25000000  0.75202106  1.0
  Ba  Ba3  1  0.34811780  0.25000000  0.74797894  1.0
  Be  Be4  1  0.16295050  0.99948949  0.79511659  1.0
  Be  Be5  1  0.16295050  0.50051051  0.79511659  1.0
  Be  Be6  1  0.66295050  0.99948949  0.70488341  1.0
  Be  Be7  1  0.66295050  0.50051051  0.70488341  1.0
  Be  Be8  1  0.83704950  0.49948949  0.20488341  1.0
  Be  Be9  1  0.83704950  0.00051051  0.20488341  1.0
  Be  Be10  1  0.33704950  0.49948949  0.29511659  1.0
  Be  Be11  1  0.33704950  0.00051051  0.29511659  1.0
  Si  Si12  1  0.41122742  0.87826699  0.79789256  1.0
  Si  Si13  1  0.41122742  0.62173301  0.79789256  1.0
  Si  Si14  1  0.91122742  0.87826699  0.70210744  1.0
  Si  Si15  1  0.91122742  0.62173301  0.70210744  1.0
  Si  Si16  1  0.58877258  0.37826699  0.20210744  1.0
  Si  Si17  1  0.58877258  0.12173301  0.20210744  1.0
  Si  Si18  1  0.08877258  0.37826699  0.29789256  1.0
  Si  Si19  1  0.08877258  0.12173301  0.29789256  1.0
  O  O20  1  0.39000240  0.88754604  0.13869971  1.0
  O  O21  1  0.39000240  0.61245396  0.13869971  1.0
  O  O22  1  0.89000240  0.88754604  0.36130029  1.0
  O  O23  1  0.89000240  0.61245396  0.36130029  1.0
  O  O24  1  0.60999760  0.38754604  0.86130029  1.0
  O  O25  1  0.60999760  0.11245396  0.86130029  1.0
  O  O26  1  0.10999760  0.38754604  0.63869971  1.0
  O  O27  1  0.10999760  0.11245396  0.63869971  1.0
  O  O28  1  0.31107637  0.96924188  0.63738633  1.0
  O  O29  1  0.31107637  0.53075812  0.63738633  1.0
  O  O30  1  0.81107637  0.96924188  0.86261367  1.0
  O  O31  1  0.81107637  0.53075812  0.86261367  1.0
  O  O32  1  0.68892363  0.46924188  0.36261367  1.0
  O  O33  1  0.68892363  0.03075812  0.36261367  1.0
  O  O34  1  0.18892363  0.46924188  0.13738633  1.0
  O  O35  1  0.18892363  0.03075812  0.13738633  1.0
  O  O36  1  0.06984519  0.88664843  0.78445484  1.0
  O  O37  1  0.06984519  0.61335157  0.78445484  1.0
  O  O38  1  0.56984519  0.88664843  0.71554516  1.0
  O  O39  1  0.56984519  0.61335157  0.71554516  1.0
  O  O40  1  0.93015481  0.38664843  0.21554516  1.0
  O  O41  1  0.93015481  0.11335157  0.21554516  1.0
  O  O42  1  0.43015481  0.38664843  0.28445484  1.0
  O  O43  1  0.43015481  0.11335157  0.28445484  1.0
  O  O44  1  0.35572151  0.75000000  0.70252781  1.0
  O  O45  1  0.85572151  0.75000000  0.79747219  1.0
  O  O46  1  0.64427849  0.25000000  0.29747219  1.0
  O  O47  1  0.14427849  0.25000000  0.20252781  1.0
