# generated using pymatgen
data_TiSiOs
_symmetry_space_group_name_H-M   'P 1'
_cell_length_a   7.39797061
_cell_length_b   7.39797061
_cell_length_c   7.39797061
_cell_angle_alpha   122.44613115
_cell_angle_beta   81.36660547
_cell_angle_gamma   127.85064035
_symmetry_Int_Tables_number   1
_chemical_formula_structural   TiSiOs
_chemical_formula_sum   'Ti6 Si6 Os6'
_cell_volume   259.87248610
_cell_formula_units_Z   6
loop_
 _symmetry_equiv_pos_site_id
 _symmetry_equiv_pos_as_xyz
  1  'x, y, z'
loop_
 _atom_site_type_symbol
 _atom_site_label
 _atom_site_symmetry_multiplicity
 _atom_site_fract_x
 _atom_site_fract_y
 _atom_site_fract_z
 _atom_site_occupancy
  Ti  Ti0  1  0.75704184  1.23087955  1.02616229  1.0
  Ti  Ti1  1  1.20471726  1.73087955  0.97383771  1.0
  Ti  Ti2  1  0.33719671  1.08343018  0.75376653  1.0
  Ti  Ti3  1  1.32966366  1.58343018  1.24623347  1.0
  Ti  Ti4  1  1.15186045  1.20596947  0.44589098  1.0
  Ti  Ti5  1  0.76007849  0.70596947  0.55410902  1.0
  Si  Si6  1  0.42204241  0.26182179  0.17434614  1.0
  Si  Si7  1  1.08747565  0.76182179  0.33977937  1.0
  Si  Si8  1  0.42204241  0.74769628  0.66022063  1.0
  Si  Si9  1  1.08747565  1.24769628  0.82565386  1.0
  Si  Si10  1  0.71007375  0.99276277  1.21731098  1.0
  Si  Si11  1  0.77545179  1.49276277  0.78268902  1.0
  Os  Os12  1  0.49944844  0.16240194  0.40932816  1.0
  Os  Os13  1  0.75307378  0.66240194  0.16295350  1.0
  Os  Os14  1  0.49944844  0.59012028  0.83704650  1.0
  Os  Os15  1  0.75307378  1.09012028  0.59067184  1.0
  Os  Os16  1  0.00471773  0.00471773  0.00000000  1.0
  Os  Os17  1  0.00471773  0.50471773  0.50000000  1.0
