# generated using pymatgen
data_NaGe2N3
_symmetry_space_group_name_H-M   'P 1'
_cell_length_a   5.77342400
_cell_length_b   5.77342400
_cell_length_c   5.18617234
_cell_angle_alpha   90.00000000
_cell_angle_beta   90.00000000
_cell_angle_gamma   60.84017715
_symmetry_Int_Tables_number   1
_chemical_formula_structural   NaGe2N3
_chemical_formula_sum   'Na2 Ge4 N6'
_cell_volume   150.95913129
_cell_formula_units_Z   2
loop_
 _symmetry_equiv_pos_site_id
 _symmetry_equiv_pos_as_xyz
  1  'x, y, z'
loop_
 _atom_site_type_symbol
 _atom_site_label
 _atom_site_symmetry_multiplicity
 _atom_site_fract_x
 _atom_site_fract_y
 _atom_site_fract_z
 _atom_site_occupancy
  Na  Na0  1  0.16136020  0.83863980  0.00498029  1.0
  Na  Na1  1  -0.16136020  1.16136020  0.50498029  1.0
  Ge  Ge2  1  -0.17585146  1.51175995  0.97541931  1.0
  Ge  Ge3  1  0.51175995  0.82414854  0.47541931  1.0
  Ge  Ge4  1  -0.51175995  1.17585146  0.97541931  1.0
  Ge  Ge5  1  0.17585146  0.48824005  0.47541931  1.0
  N  N6  1  0.15869456  0.42392568  0.12013007  1.0
  N  N7  1  -0.57607432  1.15869456  0.62013007  1.0
  N  N8  1  0.57607432  0.84130544  0.12013007  1.0
  N  N9  1  -0.15869456  1.57607432  0.62013007  1.0
  N  N10  1  0.24183539  0.75816461  0.54592094  1.0
  N  N11  1  -0.24183539  1.24183539  0.04592094  1.0
