# generated using pymatgen
data_LaCo2AsN
_symmetry_space_group_name_H-M   'P 1'
_cell_length_a   5.84800343
_cell_length_b   5.84800343
_cell_length_c   6.96132502
_cell_angle_alpha   90.00000000
_cell_angle_beta   90.00000000
_cell_angle_gamma   142.06803701
_symmetry_Int_Tables_number   1
_chemical_formula_structural   LaCo2AsN
_chemical_formula_sum   'La2 Co4 As2 N2'
_cell_volume   146.34848715
_cell_formula_units_Z   2
loop_
 _symmetry_equiv_pos_site_id
 _symmetry_equiv_pos_as_xyz
  1  'x, y, z'
loop_
 _atom_site_type_symbol
 _atom_site_label
 _atom_site_symmetry_multiplicity
 _atom_site_fract_x
 _atom_site_fract_y
 _atom_site_fract_z
 _atom_site_occupancy
  La  La0  1  -0.45525580  0.45525580  0.25000000  1.0
  La  La1  1  0.45525580  0.54474420  0.75000000  1.0
  Co  Co2  1  -0.16295995  0.16295995  0.44667034  1.0
  Co  Co3  1  0.16295995  0.83704005  0.55332966  1.0
  Co  Co4  1  -0.16295995  0.16295995  0.05332966  1.0
  Co  Co5  1  0.16295995  0.83704005  0.94667034  1.0
  As  As6  1  0.27067153  0.72932847  0.25000000  1.0
  As  As7  1  -0.27067153  0.27067153  0.75000000  1.0
  N  N8  1  0.00000000  0.00000000  0.50000000  1.0
  N  N9  1  0.00000000  0.00000000  0.00000000  1.0
