# generated using pymatgen
data_Zr3Rh
_symmetry_space_group_name_H-M   'P 1'
_cell_length_a   8.12671412
_cell_length_b   8.12671412
_cell_length_c   8.12671412
_cell_angle_alpha   97.11553772
_cell_angle_beta   97.11553772
_cell_angle_gamma   138.78642675
_symmetry_Int_Tables_number   1
_chemical_formula_structural   Zr3Rh
_chemical_formula_sum   'Zr12 Rh4'
_cell_volume   330.99946326
_cell_formula_units_Z   4
loop_
 _symmetry_equiv_pos_site_id
 _symmetry_equiv_pos_as_xyz
  1  'x, y, z'
loop_
 _atom_site_type_symbol
 _atom_site_label
 _atom_site_symmetry_multiplicity
 _atom_site_fract_x
 _atom_site_fract_y
 _atom_site_fract_z
 _atom_site_occupancy
  Zr  Zr0  1  0.63949086  0.63941124  0.80886078  1.0
  Zr  Zr1  1  1.16936992  0.36050914  0.99992038  1.0
  Zr  Zr2  1  0.83055046  0.83063008  1.19113922  1.0
  Zr  Zr3  1  0.36058876  1.16944954  1.00007962  1.0
  Zr  Zr4  1  0.85514924  0.50001598  0.35514782  1.0
  Zr  Zr5  1  0.49999857  0.14485076  0.64486673  1.0
  Zr  Zr6  1  1.14486816  1.50000143  1.64485218  1.0
  Zr  Zr7  1  0.49998402  0.85513184  1.35513327  1.0
  Zr  Zr8  1  1.45525627  1.45527366  1.40989187  1.0
  Zr  Zr9  1  0.95463561  1.54474373  1.00001740  1.0
  Zr  Zr10  1  1.04538179  1.04536439  0.59010813  1.0
  Zr  Zr11  1  1.54472634  0.95461821  0.99998260  1.0
  Rh  Rh12  1  1.70651421  1.99996054  1.70649434  1.0
  Rh  Rh13  1  0.99998013  1.29348579  1.29344633  1.0
  Rh  Rh14  1  1.29346620  1.00001987  0.29350566  1.0
  Rh  Rh15  1  1.00003946  0.70653380  0.70655367  1.0
