# generated using pymatgen
data_Ta4GaSe8
_symmetry_space_group_name_H-M   'P 1'
_cell_length_a   7.42262495
_cell_length_b   7.42262495
_cell_length_c   7.42262495
_cell_angle_alpha   60.00000000
_cell_angle_beta   60.00000000
_cell_angle_gamma   60.00000000
_symmetry_Int_Tables_number   1
_chemical_formula_structural   Ta4GaSe8
_chemical_formula_sum   'Ta4 Ga1 Se8'
_cell_volume   289.17287488
_cell_formula_units_Z   1
loop_
 _symmetry_equiv_pos_site_id
 _symmetry_equiv_pos_as_xyz
  1  'x, y, z'
loop_
 _atom_site_type_symbol
 _atom_site_label
 _atom_site_symmetry_multiplicity
 _atom_site_fract_x
 _atom_site_fract_y
 _atom_site_fract_z
 _atom_site_occupancy
  Ta  Ta0  1  -0.39780438  0.60219562  0.60219562  1.0
  Ta  Ta1  1  1.19341315  0.60219562  -0.39780438  1.0
  Ta  Ta2  1  -0.39780438  0.60219562  1.19341315  1.0
  Ta  Ta3  1  0.60219562  1.19341315  -0.39780438  1.0
  Ga  Ga4  1  -0.00000000  0.00000000  -0.00000000  1.0
  Se  Se5  1  0.86401038  0.86401038  -0.13598962  1.0
  Se  Se6  1  0.40796886  0.86401038  -0.13598962  1.0
  Se  Se7  1  0.86401038  0.86401038  -0.59203114  1.0
  Se  Se8  1  0.86401038  0.40796886  -0.13598962  1.0
  Se  Se9  1  0.36453496  1.36453496  0.36453496  1.0
  Se  Se10  1  -0.09360487  0.36453496  0.36453496  1.0
  Se  Se11  1  0.36453496  1.36453496  -0.09360487  1.0
  Se  Se12  1  0.36453496  -0.09360487  0.36453496  1.0
