# generated using pymatgen
data_S5N4O3
_symmetry_space_group_name_H-M   'P 1'
_cell_length_a   7.71212701
_cell_length_b   10.99660678
_cell_length_c   12.95999468
_cell_angle_alpha   90.00000000
_cell_angle_beta   121.72203169
_cell_angle_gamma   90.00000000
_symmetry_Int_Tables_number   1
_chemical_formula_structural   S5N4O3
_chemical_formula_sum   'S20 N16 O12'
_cell_volume   934.90538178
_cell_formula_units_Z   4
loop_
 _symmetry_equiv_pos_site_id
 _symmetry_equiv_pos_as_xyz
  1  'x, y, z'
loop_
 _atom_site_type_symbol
 _atom_site_label
 _atom_site_symmetry_multiplicity
 _atom_site_fract_x
 _atom_site_fract_y
 _atom_site_fract_z
 _atom_site_occupancy
  S  S0  1  0.81194736  0.83320480  0.27797234  1.0
  S  S1  1  0.81194736  0.66679520  0.77797234  1.0
  S  S2  1  0.18805264  0.33320480  0.22202766  1.0
  S  S3  1  0.18805264  0.16679520  0.72202766  1.0
  S  S4  1  0.79985002  0.11186599  0.29856986  1.0
  S  S5  1  0.79985002  0.38813401  0.79856986  1.0
  S  S6  1  0.20014998  0.61186599  0.20143014  1.0
  S  S7  1  0.20014998  0.88813401  0.70143014  1.0
  S  S8  1  0.75848957  0.46356376  0.30755847  1.0
  S  S9  1  0.75848957  0.03643624  0.80755847  1.0
  S  S10  1  0.24151043  0.96356376  0.19244153  1.0
  S  S11  1  0.24151043  0.53643624  0.69244153  1.0
  S  S12  1  0.65342887  0.93119795  0.41439932  1.0
  S  S13  1  0.65342887  0.56880205  0.91439932  1.0
  S  S14  1  0.34657113  0.43119795  0.08560068  1.0
  S  S15  1  0.34657113  0.06880205  0.58560068  1.0
  S  S16  1  0.59768196  0.34502225  0.44923269  1.0
  S  S17  1  0.59768196  0.15497775  0.94923269  1.0
  S  S18  1  0.40231804  0.84502225  0.05076731  1.0
  S  S19  1  0.40231804  0.65497775  0.55076731  1.0
  N  N20  1  0.76146486  0.95635288  0.33333575  1.0
  N  N21  1  0.76146486  0.54364712  0.83333575  1.0
  N  N22  1  0.23853514  0.45635288  0.16666425  1.0
  N  N23  1  0.23853514  0.04364712  0.66666425  1.0
  N  N24  1  0.70656365  0.44173139  0.40995857  1.0
  N  N25  1  0.70656365  0.05826861  0.90995857  1.0
  N  N26  1  0.29343635  0.94173139  0.09004143  1.0
  N  N27  1  0.29343635  0.55826861  0.59004143  1.0
  N  N28  1  0.58885715  0.44896032  0.17010981  1.0
  N  N29  1  0.58885715  0.05103968  0.67010981  1.0
  N  N30  1  0.41114285  0.94896032  0.32989019  1.0
  N  N31  1  0.41114285  0.55103968  0.82989019  1.0
  N  N32  1  0.37481118  0.30225213  0.35541246  1.0
  N  N33  1  0.37481118  0.19774787  0.85541246  1.0
  N  N34  1  0.62518882  0.80225213  0.14458754  1.0
  N  N35  1  0.62518882  0.69774787  0.64458754  1.0
  O  O36  1  0.91313869  0.16597668  0.41968947  1.0
  O  O37  1  0.91313869  0.33402332  0.91968947  1.0
  O  O38  1  0.08686131  0.66597668  0.08031053  1.0
  O  O39  1  0.08686131  0.83402332  0.58031053  1.0
  O  O40  1  0.91438551  0.08697744  0.24022177  1.0
  O  O41  1  0.91438551  0.41302256  0.74022177  1.0
  O  O42  1  0.08561449  0.58697744  0.25977823  1.0
  O  O43  1  0.08561449  0.91302256  0.75977823  1.0
  O  O44  1  0.59316442  0.15877576  0.22073984  1.0
  O  O45  1  0.59316442  0.34122424  0.72073984  1.0
  O  O46  1  0.40683558  0.65877576  0.27926016  1.0
  O  O47  1  0.40683558  0.84122424  0.77926016  1.0
