# generated using pymatgen
data_C9S2I3
_symmetry_space_group_name_H-M   'P 1'
_cell_length_a   16.71027255
_cell_length_b   16.71027255
_cell_length_c   16.71027255
_cell_angle_alpha   155.77891118
_cell_angle_beta   33.44934368
_cell_angle_gamma   157.28014441
_symmetry_Int_Tables_number   1
_chemical_formula_structural   C9S2I3
_chemical_formula_sum   'C18 S4 I6'
_cell_volume   738.66189229
_cell_formula_units_Z   2
loop_
 _symmetry_equiv_pos_site_id
 _symmetry_equiv_pos_as_xyz
  1  'x, y, z'
loop_
 _atom_site_type_symbol
 _atom_site_label
 _atom_site_symmetry_multiplicity
 _atom_site_fract_x
 _atom_site_fract_y
 _atom_site_fract_z
 _atom_site_occupancy
  I  I0  1  0.18498372  0.75055409  0.93442963  1.0
  I  I1  1  0.81612446  1.25055409  1.06557037  1.0
  I  I2  1  0.46458876  1.09817464  0.86641412  1.0
  I  I3  1  0.23176052  0.59817464  1.13358588  1.0
  I  I4  1  -0.04086392  0.71338658  0.74574950  1.0
  I  I5  1  0.96763708  1.21338658  1.25425050  1.0
  S  S6  1  0.62042580  0.94055947  0.47496316  1.0
  S  S7  1  0.46559631  0.14546264  0.52503684  1.0
  S  S8  1  0.62042580  0.64546264  0.17986634  1.0
  S  S9  1  0.46559631  0.44055947  0.82013366  1.0
  C  C10  1  0.40461808  0.52387509  0.38074299  1.0
  C  C11  1  1.14313209  1.02387509  0.61925701  1.0
  C  C12  1  0.27314984  0.36033320  0.41281664  1.0
  C  C13  1  0.94751657  0.86033320  0.58718336  1.0
  C  C14  1  1.07983590  0.94495123  0.28397745  1.0
  C  C15  1  0.66097378  0.79585845  0.71602255  1.0
  C  C16  1  1.07983590  1.29585845  0.63488467  1.0
  C  C17  1  0.66097378  0.44495123  0.36511533  1.0
  C  C18  1  1.04165274  1.07291195  0.46874079  1.0
  C  C19  1  0.60417116  0.57291195  0.53125921  1.0
  C  C20  1  1.20282685  1.10306709  0.25986709  1.0
  C  C21  1  0.84320000  0.94295977  0.74013291  1.0
  C  C22  1  1.20282685  1.44295977  0.59975976  1.0
  C  C23  1  0.84320000  0.60306709  0.40024024  1.0
  C  C24  1  0.47424573  0.44359581  0.19663573  1.0
  C  C25  1  1.24696008  1.27761000  0.80336427  1.0
  C  C26  1  0.47424573  0.77761000  0.53064992  1.0
  C  C27  1  1.24696008  0.94359581  0.46935008  1.0
