# generated using pymatgen
data_Na3MoN3
_symmetry_space_group_name_H-M   'P 1'
_cell_length_a   8.84545740
_cell_length_b   8.84545740
_cell_length_c   6.39710117
_cell_angle_alpha   69.22464300
_cell_angle_beta   110.77535700
_cell_angle_gamma   102.83497676
_symmetry_Int_Tables_number   1
_chemical_formula_structural   Na3MoN3
_chemical_formula_sum   'Na12 Mo4 N12'
_cell_volume   434.88466002
_cell_formula_units_Z   4
loop_
 _symmetry_equiv_pos_site_id
 _symmetry_equiv_pos_as_xyz
  1  'x, y, z'
loop_
 _atom_site_type_symbol
 _atom_site_label
 _atom_site_symmetry_multiplicity
 _atom_site_fract_x
 _atom_site_fract_y
 _atom_site_fract_z
 _atom_site_occupancy
  Na  Na0  1  0.71524455  0.71235834  0.48941255  1.0
  Na  Na1  1  0.28764166  0.28475545  -0.01058745  1.0
  Na  Na2  1  0.84249265  0.08549030  0.41275583  1.0
  Na  Na3  1  0.91450970  0.15750735  0.91275583  1.0
  Na  Na4  1  1.34899433  -0.38856183  0.20739197  1.0
  Na  Na5  1  1.38856183  -0.34899433  0.70739197  1.0
  Na  Na6  1  1.52157535  0.00448997  0.97761636  1.0
  Na  Na7  1  0.99551003  -0.52157535  0.47761636  1.0
  Na  Na8  1  1.10969418  -0.14628922  0.38057615  1.0
  Na  Na9  1  1.14628922  -0.10969418  0.88057615  1.0
  Na  Na10  1  0.59517652  0.36873419  0.44746570  1.0
  Na  Na11  1  0.63126581  0.40482348  0.94746570  1.0
  Mo  Mo12  1  1.75386868  -0.23171947  0.00937345  1.0
  Mo  Mo13  1  1.23171947  -0.75386868  0.50937345  1.0
  Mo  Mo14  1  0.48085602  -0.00021752  0.43585125  1.0
  Mo  Mo15  1  1.00021752  0.51914398  0.93585125  1.0
  N  N16  1  1.59674270  -0.38071905  0.11047589  1.0
  N  N17  1  1.38071905  -0.59674270  0.61047589  1.0
  N  N18  1  1.82412114  -0.09046472  0.18222457  1.0
  N  N19  1  1.09046472  -0.82412114  0.68222457  1.0
  N  N20  1  1.35761186  -0.13611422  0.26827158  1.0
  N  N21  1  1.13611422  -0.35761186  0.76827158  1.0
  N  N22  1  0.56721255  0.17400865  0.24237509  1.0
  N  N23  1  0.82599135  0.43278745  0.74237509  1.0
  N  N24  1  0.93821436  0.65891771  0.05859478  1.0
  N  N25  1  0.34108229  0.06178564  0.55859478  1.0
  N  N26  1  1.11294796  -0.65976026  0.18441484  1.0
  N  N27  1  1.65976026  -0.11294796  0.68441484  1.0
