# generated using pymatgen
data_Cs4PbO3
_symmetry_space_group_name_H-M   'P 1'
_cell_length_a   11.84647970
_cell_length_b   7.44289754
_cell_length_c   12.21717966
_cell_angle_alpha   90.00000000
_cell_angle_beta   110.48032006
_cell_angle_gamma   90.00000000
_symmetry_Int_Tables_number   1
_chemical_formula_structural   Cs4PbO3
_chemical_formula_sum   'Cs16 Pb4 O12'
_cell_volume   1009.12667179
_cell_formula_units_Z   4
loop_
 _symmetry_equiv_pos_site_id
 _symmetry_equiv_pos_as_xyz
  1  'x, y, z'
loop_
 _atom_site_type_symbol
 _atom_site_label
 _atom_site_symmetry_multiplicity
 _atom_site_fract_x
 _atom_site_fract_y
 _atom_site_fract_z
 _atom_site_occupancy
  Cs  Cs0  1  0.93767730  0.14985238  0.56659576  1.0
  Cs  Cs1  1  0.06232270  0.64985238  0.43340424  1.0
  Cs  Cs2  1  0.87034493  0.35156698  0.12412641  1.0
  Cs  Cs3  1  0.12965507  0.85156698  0.87587359  1.0
  Cs  Cs4  1  0.83770255  0.63016749  0.65712258  1.0
  Cs  Cs5  1  0.16229745  0.13016749  0.34287742  1.0
  Cs  Cs6  1  0.67483463  0.38411344  0.31602088  1.0
  Cs  Cs7  1  0.32516537  0.88411344  0.68397912  1.0
  Cs  Cs8  1  0.66177321  0.69679436  0.88658110  1.0
  Cs  Cs9  1  0.33822679  0.19679436  0.11341890  1.0
  Cs  Cs10  1  0.54063858  0.23537802  0.93773141  1.0
  Cs  Cs11  1  0.45936142  0.73537802  0.06226859  1.0
  Cs  Cs12  1  0.47968969  0.48656959  0.58276086  1.0
  Cs  Cs13  1  0.52031031  0.98656959  0.41723914  1.0
  Cs  Cs14  1  0.03450566  0.33053594  0.89972094  1.0
  Cs  Cs15  1  0.96549434  0.83053594  0.10027906  1.0
  Pb  Pb16  1  0.72190792  0.15174180  0.72625722  1.0
  Pb  Pb17  1  0.27809208  0.65174180  0.27374278  1.0
  Pb  Pb18  1  0.25128607  0.38528582  0.72649927  1.0
  Pb  Pb19  1  0.74871393  0.88528582  0.27350073  1.0
  O  O20  1  0.91119130  0.03738910  0.27960969  1.0
  O  O21  1  0.08880870  0.53738910  0.72039031  1.0
  O  O22  1  0.89896051  0.02063669  0.76805581  1.0
  O  O23  1  0.10103949  0.52063669  0.23194419  1.0
  O  O24  1  0.76995402  0.40047344  0.83105811  1.0
  O  O25  1  0.23004598  0.90047344  0.16894189  1.0
  O  O26  1  0.69729370  0.27220489  0.55016081  1.0
  O  O27  1  0.30270630  0.77220489  0.44983919  1.0
  O  O28  1  0.40982279  0.56681363  0.81807614  1.0
  O  O29  1  0.59017721  0.06681363  0.18192386  1.0
  O  O30  1  0.27355072  0.17537643  0.86239617  1.0
  O  O31  1  0.72644928  0.67537643  0.13760383  1.0
