# generated using pymatgen
data_Cr2SiO2
_symmetry_space_group_name_H-M   'P 1'
_cell_length_a   7.80427820
_cell_length_b   7.81764093
_cell_length_c   5.93111477
_cell_angle_alpha   67.56762150
_cell_angle_beta   67.80646419
_cell_angle_gamma   44.62591430
_symmetry_Int_Tables_number   1
_chemical_formula_structural   Cr2SiO2
_chemical_formula_sum   'Cr8 Si4 O8'
_cell_volume   231.80365737
_cell_formula_units_Z   4
loop_
 _symmetry_equiv_pos_site_id
 _symmetry_equiv_pos_as_xyz
  1  'x, y, z'
loop_
 _atom_site_type_symbol
 _atom_site_label
 _atom_site_symmetry_multiplicity
 _atom_site_fract_x
 _atom_site_fract_y
 _atom_site_fract_z
 _atom_site_occupancy
  Cr  Cr0  1  -0.21917205  0.70533639  0.02104285  1.0
  Cr  Cr1  1  0.49279281  0.02104285  1.70533639  1.0
  Cr  Cr2  1  -0.45533639  0.46917205  0.75720719  1.0
  Cr  Cr3  1  0.22895715  0.75720719  0.46917205  1.0
  Cr  Cr4  1  0.02104285  0.49279281  -0.21917205  1.0
  Cr  Cr5  1  0.70533639  -0.21917205  1.49279281  1.0
  Cr  Cr6  1  -0.24279281  1.22895715  0.54466361  1.0
  Cr  Cr7  1  -0.53082795  0.54466361  1.22895715  1.0
  Si  Si8  1  0.12500000  0.12500000  1.62500000  1.0
  Si  Si9  1  0.12500000  0.62500000  1.12500000  1.0
  Si  Si10  1  0.12500000  0.12500000  1.12500000  1.0
  Si  Si11  1  0.62500000  0.12500000  1.12500000  1.0
  O  O12  1  0.41352343  -0.20432023  1.56492445  1.0
  O  O13  1  0.22587234  0.56492445  -0.20432023  1.0
  O  O14  1  -0.54567977  0.83647657  1.02412766  1.0
  O  O15  1  -0.31492445  1.02412766  0.83647657  1.0
  O  O16  1  0.56492445  0.22587234  1.41352343  1.0
  O  O17  1  -0.20432023  0.41352343  0.22587234  1.0
  O  O18  1  0.02412766  0.68507555  0.45432023  1.0
  O  O19  1  -0.16352343  0.45432023  0.68507555  1.0
