# generated using pymatgen
data_CrHgF6
_symmetry_space_group_name_H-M   'P 1'
_cell_length_a   5.71961282
_cell_length_b   5.71961282
_cell_length_c   5.71961282
_cell_angle_alpha   55.49822676
_cell_angle_beta   55.49822676
_cell_angle_gamma   55.49822676
_symmetry_Int_Tables_number   1
_chemical_formula_structural   CrHgF6
_chemical_formula_sum   'Cr1 Hg1 F6'
_cell_volume   118.47832368
_cell_formula_units_Z   1
loop_
 _symmetry_equiv_pos_site_id
 _symmetry_equiv_pos_as_xyz
  1  'x, y, z'
loop_
 _atom_site_type_symbol
 _atom_site_label
 _atom_site_symmetry_multiplicity
 _atom_site_fract_x
 _atom_site_fract_y
 _atom_site_fract_z
 _atom_site_occupancy
  Cr  Cr0  1  0.50000000  0.50000000  -0.50000000  1.0
  Hg  Hg1  1  0.00000000  0.00000000  0.00000000  1.0
  F  F2  1  0.14605822  0.71073203  -0.57842875  1.0
  F  F3  1  0.57842875  0.85394178  -0.71073203  1.0
  F  F4  1  0.28926797  0.57842875  -0.14605822  1.0
  F  F5  1  0.85394178  0.28926797  -0.42157125  1.0
  F  F6  1  0.42157125  0.14605822  -0.28926797  1.0
  F  F7  1  0.71073203  0.42157125  -0.85394178  1.0
