# generated using pymatgen
data_Sr7Ag3
_symmetry_space_group_name_H-M   'P 1'
_cell_length_a   11.37099207
_cell_length_b   11.37099207
_cell_length_c   7.28027813
_cell_angle_alpha   90.00000000
_cell_angle_beta   90.00000000
_cell_angle_gamma   120.00000000
_symmetry_Int_Tables_number   1
_chemical_formula_structural   Sr7Ag3
_chemical_formula_sum   'Sr14 Ag6'
_cell_volume   815.22091920
_cell_formula_units_Z   2
loop_
 _symmetry_equiv_pos_site_id
 _symmetry_equiv_pos_as_xyz
  1  'x, y, z'
loop_
 _atom_site_type_symbol
 _atom_site_label
 _atom_site_symmetry_multiplicity
 _atom_site_fract_x
 _atom_site_fract_y
 _atom_site_fract_z
 _atom_site_occupancy
  Sr  Sr0  1  0.91679667  0.45839833  0.01632929  1.0
  Sr  Sr1  1  0.45839833  0.91679667  0.51632929  1.0
  Sr  Sr2  1  0.45839833  0.54160167  0.51632929  1.0
  Sr  Sr3  1  0.54160167  0.45839833  0.01632929  1.0
  Sr  Sr4  1  0.54160167  0.08320333  0.01632929  1.0
  Sr  Sr5  1  0.08320333  0.54160167  0.51632929  1.0
  Sr  Sr6  1  0.25001913  0.12500956  0.32105076  1.0
  Sr  Sr7  1  0.12500956  0.25001913  0.82105076  1.0
  Sr  Sr8  1  0.12500956  0.87499044  0.82105076  1.0
  Sr  Sr9  1  0.87499044  0.12500956  0.32105076  1.0
  Sr  Sr10  1  0.87499044  0.74998087  0.32105076  1.0
  Sr  Sr11  1  0.74998087  0.87499044  0.82105076  1.0
  Sr  Sr12  1  0.33333333  0.66666667  0.02385973  1.0
  Sr  Sr13  1  0.66666667  0.33333333  0.52385973  1.0
  Ag  Ag14  1  0.62264108  0.81132054  0.24466671  1.0
  Ag  Ag15  1  0.81132054  0.62264108  0.74466671  1.0
  Ag  Ag16  1  0.81132054  0.18867946  0.74466671  1.0
  Ag  Ag17  1  0.18867946  0.81132054  0.24466671  1.0
  Ag  Ag18  1  0.18867946  0.37735892  0.24466671  1.0
  Ag  Ag19  1  0.37735892  0.18867946  0.74466671  1.0
