# generated using pymatgen
data_SbH4NCl6
_symmetry_space_group_name_H-M   'P 1'
_cell_length_a   7.18550175
_cell_length_b   7.18550175
_cell_length_c   11.91692035
_cell_angle_alpha   88.48879157
_cell_angle_beta   91.51120843
_cell_angle_gamma   111.90987204
_symmetry_Int_Tables_number   1
_chemical_formula_structural   SbH4NCl6
_chemical_formula_sum   'Sb2 H8 N2 Cl12'
_cell_volume   570.55747627
_cell_formula_units_Z   2
loop_
 _symmetry_equiv_pos_site_id
 _symmetry_equiv_pos_as_xyz
  1  'x, y, z'
loop_
 _atom_site_type_symbol
 _atom_site_label
 _atom_site_symmetry_multiplicity
 _atom_site_fract_x
 _atom_site_fract_y
 _atom_site_fract_z
 _atom_site_occupancy
  Sb  Sb0  1  0.50000000  -0.00000000  -0.00000000  1.0
  Sb  Sb1  1  1.00000000  0.50000000  0.50000000  1.0
  H  H2  1  0.86394605  -0.00933892  0.77932208  1.0
  H  H3  1  1.00933892  0.13605395  0.27932208  1.0
  H  H4  1  0.99066108  0.86394605  0.72067792  1.0
  H  H5  1  0.13605395  0.00933892  0.22067792  1.0
  H  H6  1  1.04716556  0.10929924  0.68589825  1.0
  H  H7  1  0.89070076  -0.04716556  0.18589825  1.0
  H  H8  1  1.10929924  1.04716556  0.81410175  1.0
  H  H9  1  -0.04716556  -0.10929924  0.31410175  1.0
  N  N10  1  1.00258289  1.00258289  0.75000000  1.0
  N  N11  1  -0.00258289  -0.00258289  0.25000000  1.0
  Cl  Cl12  1  0.78580444  0.14983913  0.49258887  1.0
  Cl  Cl13  1  0.85016087  0.21419556  0.99258887  1.0
  Cl  Cl14  1  1.14983913  0.78580444  0.00741113  1.0
  Cl  Cl15  1  0.21419556  -0.14983913  0.50741113  1.0
  Cl  Cl16  1  0.52125119  -0.13828931  0.81900256  1.0
  Cl  Cl17  1  1.13828931  0.47874881  0.31900256  1.0
  Cl  Cl18  1  0.86171069  0.52125119  0.68099744  1.0
  Cl  Cl19  1  0.47874881  0.13828931  0.18099744  1.0
  Cl  Cl20  1  0.40881405  0.25721203  0.90588557  1.0
  Cl  Cl21  1  0.74278797  0.59118595  0.40588557  1.0
  Cl  Cl22  1  1.25721203  0.40881405  0.59411443  1.0
  Cl  Cl23  1  0.59118595  -0.25721203  0.09411443  1.0
