# generated using pymatgen
data_Al2FeS4
_symmetry_space_group_name_H-M   'P 1'
_cell_length_a   12.52985066
_cell_length_b   12.52985066
_cell_length_c   12.52985066
_cell_angle_alpha   16.49882934
_cell_angle_beta   16.49882934
_cell_angle_gamma   16.49882934
_symmetry_Int_Tables_number   1
_chemical_formula_structural   Al2FeS4
_chemical_formula_sum   'Al2 Fe1 S4'
_cell_volume   138.35099843
_cell_formula_units_Z   1
loop_
 _symmetry_equiv_pos_site_id
 _symmetry_equiv_pos_as_xyz
  1  'x, y, z'
loop_
 _atom_site_type_symbol
 _atom_site_label
 _atom_site_symmetry_multiplicity
 _atom_site_fract_x
 _atom_site_fract_y
 _atom_site_fract_z
 _atom_site_occupancy
  Al  Al0  1  0.70192942  -0.29807058  -0.29807058  1.0
  Al  Al1  1  0.46697212  0.46697212  -0.53302788  1.0
  S  S2  1  0.00328415  0.00328415  0.00328415  1.0
  S  S3  1  0.82639607  -0.17360393  -0.17360393  1.0
  S  S4  1  0.40666039  0.40666039  -0.59333961  1.0
  S  S5  1  0.58266852  0.58266852  -0.41733148  1.0
  Fe  Fe6  1  0.93928934  -0.06071066  -0.06071066  1.0
