# generated using pymatgen
data_B5F6
_symmetry_space_group_name_H-M   'P 1'
_cell_length_a   15.36281801
_cell_length_b   15.36281801
_cell_length_c   15.36281801
_cell_angle_alpha   153.35852972
_cell_angle_beta   153.35852972
_cell_angle_gamma   38.03264585
_symmetry_Int_Tables_number   1
_chemical_formula_structural   B5F6
_chemical_formula_sum   'B20 F24'
_cell_volume   727.90088980
_cell_formula_units_Z   4
loop_
 _symmetry_equiv_pos_site_id
 _symmetry_equiv_pos_as_xyz
  1  'x, y, z'
loop_
 _atom_site_type_symbol
 _atom_site_label
 _atom_site_symmetry_multiplicity
 _atom_site_fract_x
 _atom_site_fract_y
 _atom_site_fract_z
 _atom_site_occupancy
  B  B0  1  1.19603704  0.85556546  1.50549520  1.0
  B  B1  1  0.35007025  0.69054184  0.49450480  1.0
  B  B2  1  1.44054184  1.44603704  1.84047158  1.0
  B  B3  1  0.60556546  0.60007025  0.15952842  1.0
  B  B4  1  0.55396296  1.39443454  0.99450480  1.0
  B  B5  1  1.39992975  0.55945816  1.00549520  1.0
  B  B6  1  0.30945816  0.80396296  0.65952842  1.0
  B  B7  1  1.14443454  0.64992975  1.34047158  1.0
  B  B8  1  0.32843310  0.82843310  0.50000000  1.0
  B  B9  1  0.57843310  0.57843310  0.00000000  1.0
  B  B10  1  0.42156690  0.42156690  0.00000000  1.0
  B  B11  1  0.17156690  0.67156690  0.50000000  1.0
  B  B12  1  1.05580909  1.03522246  1.50600463  1.0
  B  B13  1  0.52921784  0.54980446  0.49399537  1.0
  B  B14  1  1.29980446  1.30580909  1.52058662  1.0
  B  B15  1  0.78522246  0.77921784  0.47941338  1.0
  B  B16  1  0.69419091  1.21477754  0.99399537  1.0
  B  B17  1  1.22078216  0.70019554  1.00600463  1.0
  B  B18  1  0.45019554  0.94419091  0.97941338  1.0
  B  B19  1  0.96477754  0.47078216  1.02058662  1.0
  F  F20  1  1.23005964  0.74629996  1.27138845  1.0
  F  F21  1  0.47491151  0.95867119  0.72861155  1.0
  F  F22  1  0.70867119  1.48005964  0.98375968  1.0
  F  F23  1  1.49629996  0.72491151  1.01624032  1.0
  F  F24  1  0.51994036  0.50370004  0.22861155  1.0
  F  F25  1  1.27508849  1.29132881  1.77138845  1.0
  F  F26  1  1.04132881  0.76994036  1.51624032  1.0
  F  F27  1  0.25370004  0.52508849  0.48375968  1.0
  F  F28  1  0.90757777  1.00180454  1.28963568  1.0
  F  F29  1  0.71216886  0.61794209  0.71036432  1.0
  F  F30  1  1.36794209  1.15757777  1.40577323  1.0
  F  F31  1  0.75180454  0.96216886  0.59422677  1.0
  F  F32  1  0.84242223  1.24819546  1.21036432  1.0
  F  F33  1  1.03783114  0.63205791  0.78963568  1.0
  F  F34  1  0.38205791  1.09242223  1.09422677  1.0
  F  F35  1  0.99819546  0.28783114  0.90577323  1.0
  F  F36  1  1.08619687  1.21446587  1.72489264  1.0
  F  F37  1  0.48957323  0.36130423  0.27510736  1.0
  F  F38  1  1.11130423  1.33619687  1.37173100  1.0
  F  F39  1  0.96446587  0.73957323  0.62826900  1.0
  F  F40  1  0.66380313  1.03553413  0.77510736  1.0
  F  F41  1  1.26042677  0.88869577  1.22489264  1.0
  F  F42  1  0.63869577  0.91380313  1.12826900  1.0
  F  F43  1  0.78553413  0.51042677  0.87173100  1.0
