# generated using pymatgen
data_CdP4
_symmetry_space_group_name_H-M   'P 1'
_cell_length_a   5.32386432
_cell_length_b   5.20684452
_cell_length_c   7.71074629
_cell_angle_alpha   90.00000000
_cell_angle_beta   99.22574514
_cell_angle_gamma   90.00000000
_symmetry_Int_Tables_number   1
_chemical_formula_structural   CdP4
_chemical_formula_sum   'Cd2 P8'
_cell_volume   210.98105386
_cell_formula_units_Z   2
loop_
 _symmetry_equiv_pos_site_id
 _symmetry_equiv_pos_as_xyz
  1  'x, y, z'
loop_
 _atom_site_type_symbol
 _atom_site_label
 _atom_site_symmetry_multiplicity
 _atom_site_fract_x
 _atom_site_fract_y
 _atom_site_fract_z
 _atom_site_occupancy
  Cd  Cd0  1  -0.00000000  0.50000000  0.50000000  1.0
  Cd  Cd1  1  0.00000000  0.00000000  0.00000000  1.0
  P  P2  1  0.73825143  0.21272743  0.24819858  1.0
  P  P3  1  0.73825143  0.28727257  0.74819858  1.0
  P  P4  1  0.26174857  0.71272743  0.25180142  1.0
  P  P5  1  0.26174857  0.78727257  0.75180142  1.0
  P  P6  1  0.60114235  0.89828565  0.39967629  1.0
  P  P7  1  0.60114235  0.60171435  0.89967629  1.0
  P  P8  1  0.39885765  0.39828565  0.10032371  1.0
  P  P9  1  0.39885765  0.10171435  0.60032371  1.0
