# generated using pymatgen
data_NdPIr
_symmetry_space_group_name_H-M   'P 1'
_cell_length_a   7.69146359
_cell_length_b   7.69146359
_cell_length_c   7.69146359
_cell_angle_alpha   149.17948879
_cell_angle_beta   149.17948879
_cell_angle_gamma   44.14717460
_symmetry_Int_Tables_number   1
_chemical_formula_structural   NdPIr
_chemical_formula_sum   'Nd2 P2 Ir2'
_cell_volume   119.09784545
_cell_formula_units_Z   2
loop_
 _symmetry_equiv_pos_site_id
 _symmetry_equiv_pos_as_xyz
  1  'x, y, z'
loop_
 _atom_site_type_symbol
 _atom_site_label
 _atom_site_symmetry_multiplicity
 _atom_site_fract_x
 _atom_site_fract_y
 _atom_site_fract_z
 _atom_site_occupancy
  Nd  Nd0  1  0.57890899  0.57890899  1.00000000  1.0
  Nd  Nd1  1  0.32890899  0.82890899  0.50000000  1.0
  P  P2  1  0.00134374  0.00134374  -0.00000000  1.0
  P  P3  1  0.75134374  0.25134374  0.50000000  1.0
  Ir  Ir4  1  0.16764727  0.16764727  -0.00000000  1.0
  Ir  Ir5  1  0.91764727  0.41764727  0.50000000  1.0
