# generated using pymatgen
data_RbLiF2
_symmetry_space_group_name_H-M   'P 1'
_cell_length_a   6.40734248
_cell_length_b   6.40734248
_cell_length_c   7.94124042
_cell_angle_alpha   87.37249964
_cell_angle_beta   92.62750036
_cell_angle_gamma   54.92416032
_symmetry_Int_Tables_number   1
_chemical_formula_structural   RbLiF2
_chemical_formula_sum   'Rb4 Li4 F8'
_cell_volume   265.49063638
_cell_formula_units_Z   4
loop_
 _symmetry_equiv_pos_site_id
 _symmetry_equiv_pos_as_xyz
  1  'x, y, z'
loop_
 _atom_site_type_symbol
 _atom_site_label
 _atom_site_symmetry_multiplicity
 _atom_site_fract_x
 _atom_site_fract_y
 _atom_site_fract_z
 _atom_site_occupancy
  Rb  Rb0  1  0.64468168  0.17524592  0.43103148  1.0
  Rb  Rb1  1  0.82475408  -0.64468168  0.93103148  1.0
  Rb  Rb2  1  1.17524592  -0.35531832  0.06896852  1.0
  Rb  Rb3  1  0.35531832  -0.17524592  0.56896852  1.0
  Li  Li4  1  0.54438471  0.05773221  0.86051559  1.0
  Li  Li5  1  0.94226779  -0.54438471  0.36051559  1.0
  Li  Li6  1  1.05773221  -0.45561529  0.63948441  1.0
  Li  Li7  1  0.45561529  -0.05773221  0.13948441  1.0
  F  F8  1  0.34829330  -0.06961206  0.91738896  1.0
  F  F9  1  1.06961206  -0.34829330  0.41738896  1.0
  F  F10  1  0.93038794  -0.65170670  0.58261104  1.0
  F  F11  1  0.65170670  0.06961206  0.08261104  1.0
  F  F12  1  0.81153984  -0.18846016  0.75000000  1.0
  F  F13  1  0.18846016  0.18846016  0.25000000  1.0
  F  F14  1  0.38325909  0.38325909  0.75000000  1.0
  F  F15  1  0.61674091  -0.38325909  0.25000000  1.0
