# generated using pymatgen
data_SrLi3MnN3
_symmetry_space_group_name_H-M   'P 1'
_cell_length_a   7.20819800
_cell_length_b   7.20819800
_cell_length_c   7.20819800
_cell_angle_alpha   47.87233957
_cell_angle_beta   47.87233957
_cell_angle_gamma   47.87233957
_symmetry_Int_Tables_number   1
_chemical_formula_structural   SrLi3MnN3
_chemical_formula_sum   'Sr2 Li6 Mn2 N6'
_cell_volume   188.67467227
_cell_formula_units_Z   2
loop_
 _symmetry_equiv_pos_site_id
 _symmetry_equiv_pos_as_xyz
  1  'x, y, z'
loop_
 _atom_site_type_symbol
 _atom_site_label
 _atom_site_symmetry_multiplicity
 _atom_site_fract_x
 _atom_site_fract_y
 _atom_site_fract_z
 _atom_site_occupancy
  Sr  Sr0  1  0.33808444  0.33808444  -0.66191556  1.0
  Sr  Sr1  1  0.66191556  0.66191556  -0.33808444  1.0
  Li  Li2  1  0.23723626  0.89619568  -0.52521142  1.0
  Li  Li3  1  0.52521142  -0.23723626  0.10380432  1.0
  Li  Li4  1  1.10380432  -0.47478858  -0.23723626  1.0
  Li  Li5  1  0.76276374  0.10380432  -0.47478858  1.0
  Li  Li6  1  0.47478858  0.23723626  -0.10380432  1.0
  Li  Li7  1  0.89619568  0.47478858  -0.76276374  1.0
  Mn  Mn8  1  0.06740617  0.06740617  0.06740617  1.0
  Mn  Mn9  1  0.93259383  -0.06740617  -0.06740617  1.0
  N  N10  1  0.09515072  0.79545758  -0.62003035  1.0
  N  N11  1  0.62003035  -0.09515072  0.20454242  1.0
  N  N12  1  1.20454242  -0.37996965  -0.09515072  1.0
  N  N13  1  0.90484928  0.20454242  -0.37996965  1.0
  N  N14  1  0.37996965  0.09515072  -0.20454242  1.0
  N  N15  1  0.79545758  0.37996965  -0.90484928  1.0
