# generated using pymatgen
data_TcF6
_symmetry_space_group_name_H-M   'P 1'
_cell_length_a   10.15369812
_cell_length_b   9.27471333
_cell_length_c   5.37624794
_cell_angle_alpha   90.00000000
_cell_angle_beta   90.00000000
_cell_angle_gamma   90.00000000
_symmetry_Int_Tables_number   1
_chemical_formula_structural   TcF6
_chemical_formula_sum   'Tc4 F24'
_cell_volume   506.29545780
_cell_formula_units_Z   4
loop_
 _symmetry_equiv_pos_site_id
 _symmetry_equiv_pos_as_xyz
  1  'x, y, z'
loop_
 _atom_site_type_symbol
 _atom_site_label
 _atom_site_symmetry_multiplicity
 _atom_site_fract_x
 _atom_site_fract_y
 _atom_site_fract_z
 _atom_site_occupancy
  Tc  Tc0  1  0.87037224  0.25000000  0.41899182  1.0
  Tc  Tc1  1  0.37037224  0.25000000  0.08100818  1.0
  Tc  Tc2  1  0.12962776  0.75000000  0.58100818  1.0
  Tc  Tc3  1  0.62962776  0.75000000  0.91899182  1.0
  F  F4  1  0.76390638  0.25000000  0.13994941  1.0
  F  F5  1  0.26390638  0.25000000  0.36005059  1.0
  F  F6  1  0.23609362  0.75000000  0.86005059  1.0
  F  F7  1  0.73609362  0.75000000  0.63994941  1.0
  F  F8  1  0.97465328  0.39083282  0.27701628  1.0
  F  F9  1  0.97465328  0.10916718  0.27701628  1.0
  F  F10  1  0.47465328  0.39083282  0.22298372  1.0
  F  F11  1  0.47465328  0.10916718  0.22298372  1.0
  F  F12  1  0.02534672  0.89083282  0.72298372  1.0
  F  F13  1  0.02534672  0.60916718  0.72298372  1.0
  F  F14  1  0.52534672  0.89083282  0.77701628  1.0
  F  F15  1  0.52534672  0.60916718  0.77701628  1.0
  F  F16  1  0.76622997  0.39100154  0.56046423  1.0
  F  F17  1  0.76622997  0.10899846  0.56046423  1.0
  F  F18  1  0.26622997  0.39100154  0.93953577  1.0
  F  F19  1  0.26622997  0.10899846  0.93953577  1.0
  F  F20  1  0.23377003  0.89100154  0.43953577  1.0
  F  F21  1  0.23377003  0.60899846  0.43953577  1.0
  F  F22  1  0.73377003  0.89100154  0.06046423  1.0
  F  F23  1  0.73377003  0.60899846  0.06046423  1.0
  F  F24  1  0.97678254  0.25000000  0.69772940  1.0
  F  F25  1  0.47678254  0.25000000  0.80227060  1.0
  F  F26  1  0.02321746  0.75000000  0.30227060  1.0
  F  F27  1  0.52321746  0.75000000  0.19772940  1.0
