# generated using pymatgen
data_Gd3(Al3Ru)4
_symmetry_space_group_name_H-M   'P 1'
_cell_length_a   8.82844148
_cell_length_b   8.82844148
_cell_length_c   9.60586842
_cell_angle_alpha   90.00000000
_cell_angle_beta   90.00000000
_cell_angle_gamma   120.00000000
_symmetry_Int_Tables_number   1
_chemical_formula_structural   Gd3(Al3Ru)4
_chemical_formula_sum   'Gd6 Al24 Ru8'
_cell_volume   648.38856995
_cell_formula_units_Z   2
loop_
 _symmetry_equiv_pos_site_id
 _symmetry_equiv_pos_as_xyz
  1  'x, y, z'
loop_
 _atom_site_type_symbol
 _atom_site_label
 _atom_site_symmetry_multiplicity
 _atom_site_fract_x
 _atom_site_fract_y
 _atom_site_fract_z
 _atom_site_occupancy
  Gd  Gd0  1  0.19335082  0.80664918  0.25000000  1.0
  Gd  Gd1  1  0.19335082  0.38670164  0.25000000  1.0
  Gd  Gd2  1  0.80664918  0.19335082  0.75000000  1.0
  Gd  Gd3  1  0.80664918  0.61329836  0.75000000  1.0
  Gd  Gd4  1  0.61329836  0.80664918  0.25000000  1.0
  Gd  Gd5  1  0.38670164  0.19335082  0.75000000  1.0
  Al  Al6  1  0.16216497  0.83783503  0.92352874  1.0
  Al  Al7  1  0.16216497  0.83783503  0.57647126  1.0
  Al  Al8  1  0.16216497  0.32432993  0.92352874  1.0
  Al  Al9  1  0.16216497  0.32432993  0.57647126  1.0
  Al  Al10  1  0.83783503  0.16216497  0.42352874  1.0
  Al  Al11  1  0.83783503  0.16216497  0.07647126  1.0
  Al  Al12  1  0.83783503  0.67567007  0.42352874  1.0
  Al  Al13  1  0.83783503  0.67567007  0.07647126  1.0
  Al  Al14  1  0.67567007  0.83783503  0.92352874  1.0
  Al  Al15  1  0.67567007  0.83783503  0.57647126  1.0
  Al  Al16  1  0.32432993  0.16216497  0.42352874  1.0
  Al  Al17  1  0.32432993  0.16216497  0.07647126  1.0
  Al  Al18  1  0.56133454  0.43866546  0.25000000  1.0
  Al  Al19  1  0.56133454  0.12266907  0.25000000  1.0
  Al  Al20  1  0.43866546  0.56133454  0.75000000  1.0
  Al  Al21  1  0.43866546  0.87733093  0.75000000  1.0
  Al  Al22  1  0.87733093  0.43866546  0.25000000  1.0
  Al  Al23  1  0.12266907  0.56133454  0.75000000  1.0
  Al  Al24  1  0.33333333  0.66666667  0.49022940  1.0
  Al  Al25  1  0.33333333  0.66666667  0.00977060  1.0
  Al  Al26  1  0.66666667  0.33333333  0.99022940  1.0
  Al  Al27  1  0.66666667  0.33333333  0.50977060  1.0
  Al  Al28  1  0.00000000  0.00000000  0.25000000  1.0
  Al  Al29  1  0.00000000  0.00000000  0.75000000  1.0
  Ru  Ru30  1  0.50000000  0.50000000  0.50000000  1.0
  Ru  Ru31  1  0.50000000  0.50000000  0.00000000  1.0
  Ru  Ru32  1  0.50000000  0.00000000  0.50000000  1.0
  Ru  Ru33  1  0.50000000  0.00000000  0.00000000  1.0
  Ru  Ru34  1  0.00000000  0.50000000  0.50000000  1.0
  Ru  Ru35  1  0.00000000  0.50000000  0.00000000  1.0
  Ru  Ru36  1  0.00000000  0.00000000  0.50000000  1.0
  Ru  Ru37  1  0.00000000  0.00000000  0.00000000  1.0
