# generated using pymatgen
data_Zr6Al7Cu16H9
_symmetry_space_group_name_H-M   'P 1'
_cell_length_a   8.56972461
_cell_length_b   8.56972461
_cell_length_c   8.56972461
_cell_angle_alpha   60.00000000
_cell_angle_beta   60.00000000
_cell_angle_gamma   60.00000000
_symmetry_Int_Tables_number   1
_chemical_formula_structural   Zr6Al7Cu16H9
_chemical_formula_sum   'Zr6 Al7 Cu16 H9'
_cell_volume   445.02622022
_cell_formula_units_Z   1
loop_
 _symmetry_equiv_pos_site_id
 _symmetry_equiv_pos_as_xyz
  1  'x, y, z'
loop_
 _atom_site_type_symbol
 _atom_site_label
 _atom_site_symmetry_multiplicity
 _atom_site_fract_x
 _atom_site_fract_y
 _atom_site_fract_z
 _atom_site_occupancy
  Zr  Zr0  1  0.79836528  0.79836528  -0.79836528  1.0
  Zr  Zr1  1  0.20163472  -0.20163472  1.20163472  1.0
  Zr  Zr2  1  -0.20163472  0.20163472  0.20163472  1.0
  Zr  Zr3  1  0.20163472  1.20163472  -0.20163472  1.0
  Zr  Zr4  1  -0.20163472  0.20163472  0.79836528  1.0
  Zr  Zr5  1  -0.79836528  0.79836528  0.79836528  1.0
  Al  Al6  1  -0.00000000  -0.00000000  0.50000000  1.0
  Al  Al7  1  0.50000000  1.00000000  -0.50000000  1.0
  Al  Al8  1  1.00000000  0.50000000  -0.50000000  1.0
  Al  Al9  1  0.50000000  -0.50000000  1.00000000  1.0
  Al  Al10  1  -0.00000000  1.50000000  0.00000000  1.0
  Al  Al11  1  1.50000000  -0.00000000  0.00000000  1.0
  Al  Al12  1  -0.50000000  0.50000000  0.50000000  1.0
  Cu  Cu13  1  0.82487675  0.82487675  -0.47463024  1.0
  Cu  Cu14  1  0.82487675  0.52536976  -0.17512325  1.0
  Cu  Cu15  1  0.52536976  0.82487675  -0.17512325  1.0
  Cu  Cu16  1  0.82487675  0.82487675  -0.17512325  1.0
  Cu  Cu17  1  1.17512325  0.17512325  0.47463024  1.0
  Cu  Cu18  1  1.17512325  0.47463024  0.17512325  1.0
  Cu  Cu19  1  1.47463024  0.17512325  0.17512325  1.0
  Cu  Cu20  1  1.17512325  0.17512325  0.17512325  1.0
  Cu  Cu21  1  0.61949579  0.61949579  1.14151264  1.0
  Cu  Cu22  1  0.61949579  1.14151264  -0.38050421  1.0
  Cu  Cu23  1  1.14151264  0.61949579  0.61949579  1.0
  Cu  Cu24  1  0.61949579  0.61949579  -0.38050421  1.0
  Cu  Cu25  1  0.38050421  1.38050421  -0.14151264  1.0
  Cu  Cu26  1  1.38050421  -0.14151264  0.38050421  1.0
  Cu  Cu27  1  -0.14151264  1.38050421  0.38050421  1.0
  Cu  Cu28  1  1.38050421  0.38050421  0.38050421  1.0
  H  H29  1  -0.00000000  -0.00000000  0.00000000  1.0
  H  H30  1  0.90593850  0.90593850  -0.71781550  1.0
  H  H31  1  0.90593850  0.28218450  -0.09406150  1.0
  H  H32  1  0.28218450  0.90593850  -0.09406150  1.0
  H  H33  1  0.90593850  0.90593850  -0.09406150  1.0
  H  H34  1  1.09406150  0.09406150  0.71781550  1.0
  H  H35  1  1.09406150  0.71781550  0.09406150  1.0
  H  H36  1  1.71781550  0.09406150  0.09406150  1.0
  H  H37  1  1.09406150  0.09406150  0.09406150  1.0
