# generated using pymatgen
data_CeFeO3
_symmetry_space_group_name_H-M   'P 1'
_cell_length_a   5.86141899
_cell_length_b   7.62607793
_cell_length_c   5.38798166
_cell_angle_alpha   90.00000000
_cell_angle_beta   90.00000000
_cell_angle_gamma   90.00000000
_symmetry_Int_Tables_number   1
_chemical_formula_structural   CeFeO3
_chemical_formula_sum   'Ce4 Fe4 O12'
_cell_volume   240.84082957
_cell_formula_units_Z   4
loop_
 _symmetry_equiv_pos_site_id
 _symmetry_equiv_pos_as_xyz
  1  'x, y, z'
loop_
 _atom_site_type_symbol
 _atom_site_label
 _atom_site_symmetry_multiplicity
 _atom_site_fract_x
 _atom_site_fract_y
 _atom_site_fract_z
 _atom_site_occupancy
  Ce  Ce0  1  0.08490652  0.75000000  0.52567356  1.0
  Ce  Ce1  1  0.58490652  0.75000000  0.97432644  1.0
  Ce  Ce2  1  0.91509348  0.25000000  0.47432644  1.0
  Ce  Ce3  1  0.41509348  0.25000000  0.02567356  1.0
  Fe  Fe4  1  0.50000000  0.00000000  0.50000000  1.0
  Fe  Fe5  1  0.50000000  0.50000000  0.50000000  1.0
  Fe  Fe6  1  0.00000000  0.00000000  0.00000000  1.0
  Fe  Fe7  1  0.00000000  0.50000000  0.00000000  1.0
  O  O8  1  0.31430385  0.94131823  0.81488483  1.0
  O  O9  1  0.31430385  0.55868177  0.81488483  1.0
  O  O10  1  0.81430385  0.94131823  0.68511517  1.0
  O  O11  1  0.81430385  0.55868177  0.68511517  1.0
  O  O12  1  0.68569615  0.44131823  0.18511517  1.0
  O  O13  1  0.68569615  0.05868177  0.18511517  1.0
  O  O14  1  0.18569615  0.44131823  0.31488483  1.0
  O  O15  1  0.18569615  0.05868177  0.31488483  1.0
  O  O16  1  0.96447212  0.75000000  0.11785289  1.0
  O  O17  1  0.46447212  0.75000000  0.38214711  1.0
  O  O18  1  0.03552788  0.25000000  0.88214711  1.0
  O  O19  1  0.53552788  0.25000000  0.61785289  1.0
