# generated using pymatgen
data_Cs3BiCl6
_symmetry_space_group_name_H-M   'P 1'
_cell_length_a   14.25894534
_cell_length_b   14.25894534
_cell_length_c   13.60938543
_cell_angle_alpha   80.64782208
_cell_angle_beta   99.35217792
_cell_angle_gamma   145.47812577
_symmetry_Int_Tables_number   1
_chemical_formula_structural   Cs3BiCl6
_chemical_formula_sum   'Cs12 Bi4 Cl24'
_cell_volume   1545.26096012
_cell_formula_units_Z   4
loop_
 _symmetry_equiv_pos_site_id
 _symmetry_equiv_pos_as_xyz
  1  'x, y, z'
loop_
 _atom_site_type_symbol
 _atom_site_label
 _atom_site_symmetry_multiplicity
 _atom_site_fract_x
 _atom_site_fract_y
 _atom_site_fract_z
 _atom_site_occupancy
  Cs  Cs0  1  1.64751241  -0.02606038  0.19450133  1.0
  Cs  Cs1  1  1.02606038  -0.64751241  0.69450133  1.0
  Cs  Cs2  1  0.97393962  -0.35248759  0.30549867  1.0
  Cs  Cs3  1  1.35248759  0.02606038  0.80549867  1.0
  Cs  Cs4  1  1.46917290  0.16355742  0.14618859  1.0
  Cs  Cs5  1  0.83644258  -0.46917290  0.64618859  1.0
  Cs  Cs6  1  1.16355742  -0.53082710  0.35381141  1.0
  Cs  Cs7  1  1.53082710  -0.16355742  0.85381141  1.0
  Cs  Cs8  1  1.27989442  0.17340199  0.44250137  1.0
  Cs  Cs9  1  0.82659801  -0.27989442  0.94250137  1.0
  Cs  Cs10  1  1.17340199  -0.72010558  0.05749863  1.0
  Cs  Cs11  1  1.72010558  -0.17340199  0.55749863  1.0
  Bi  Bi12  1  0.79167886  0.79167886  0.25000000  1.0
  Bi  Bi13  1  0.20832114  0.20832114  0.75000000  1.0
  Bi  Bi14  1  1.50000000  0.00000000  0.50000000  1.0
  Bi  Bi15  1  1.00000000  -0.50000000  0.00000000  1.0
  Cl  Cl16  1  1.51345457  -0.36727589  0.31949783  1.0
  Cl  Cl17  1  1.36727589  -0.51345457  0.81949783  1.0
  Cl  Cl18  1  0.63272411  -0.48654543  0.18050217  1.0
  Cl  Cl19  1  1.48654543  0.36727589  0.68050217  1.0
  Cl  Cl20  1  1.90748962  0.02646152  0.80032260  1.0
  Cl  Cl21  1  0.97353848  -0.90748962  0.30032260  1.0
  Cl  Cl22  1  1.02646152  -0.09251038  0.69967740  1.0
  Cl  Cl23  1  1.09251038  -0.02646152  0.19967740  1.0
  Cl  Cl24  1  1.73621081  -0.15052654  0.06433525  1.0
  Cl  Cl25  1  1.15052654  -0.73621081  0.56433525  1.0
  Cl  Cl26  1  0.84947346  -0.26378919  0.43566475  1.0
  Cl  Cl27  1  1.26378919  0.15052654  0.93566475  1.0
  Cl  Cl28  1  1.78572589  0.14550453  0.46527247  1.0
  Cl  Cl29  1  0.85449547  -0.78572589  0.96527247  1.0
  Cl  Cl30  1  1.14550453  -0.21427411  0.03472753  1.0
  Cl  Cl31  1  1.21427411  -0.14550453  0.53472753  1.0
  Cl  Cl32  1  1.36592334  -0.13427322  0.31546647  1.0
  Cl  Cl33  1  1.13427322  -0.36592334  0.81546647  1.0
  Cl  Cl34  1  0.86572678  -0.63407666  0.18453353  1.0
  Cl  Cl35  1  1.63407666  0.13427322  0.68453353  1.0
  Cl  Cl36  1  1.61242563  0.27068173  0.42332926  1.0
  Cl  Cl37  1  0.72931827  -0.61242563  0.92332926  1.0
  Cl  Cl38  1  1.27068173  -0.38757437  0.07667074  1.0
  Cl  Cl39  1  1.38757437  -0.27068173  0.57667074  1.0
