# generated using pymatgen
data_NdAlH6
_symmetry_space_group_name_H-M   'P 1'
_cell_length_a   4.21724674
_cell_length_b   4.21724674
_cell_length_c   4.21724674
_cell_angle_alpha   98.49952407
_cell_angle_beta   98.49952407
_cell_angle_gamma   98.49952407
_symmetry_Int_Tables_number   1
_chemical_formula_structural   NdAlH6
_chemical_formula_sum   'Nd1 Al1 H6'
_cell_volume   72.25412426
_cell_formula_units_Z   1
loop_
 _symmetry_equiv_pos_site_id
 _symmetry_equiv_pos_as_xyz
  1  'x, y, z'
loop_
 _atom_site_type_symbol
 _atom_site_label
 _atom_site_symmetry_multiplicity
 _atom_site_fract_x
 _atom_site_fract_y
 _atom_site_fract_z
 _atom_site_occupancy
  Nd  Nd0  1  0.50000000  0.50000000  0.50000000  1.0
  Al  Al1  1  0.00000000  0.00000000  0.00000000  1.0
  H  H2  1  0.94231687  0.30164088  0.30164088  1.0
  H  H3  1  1.30164088  0.30164088  -0.05768313  1.0
  H  H4  1  1.30164088  -0.05768313  0.30164088  1.0
  H  H5  1  1.05768313  0.69835912  -0.30164088  1.0
  H  H6  1  0.69835912  0.69835912  0.05768313  1.0
  H  H7  1  0.69835912  1.05768313  -0.30164088  1.0
