# generated using pymatgen
data_Ca5P3ClO12
_symmetry_space_group_name_H-M   'P 1'
_cell_length_a   9.87686869
_cell_length_b   9.87686869
_cell_length_c   6.70243622
_cell_angle_alpha   90.00000000
_cell_angle_beta   90.00000000
_cell_angle_gamma   120.00000000
_symmetry_Int_Tables_number   1
_chemical_formula_structural   Ca5P3ClO12
_chemical_formula_sum   'Ca10 P6 Cl2 O24'
_cell_volume   566.24174235
_cell_formula_units_Z   2
loop_
 _symmetry_equiv_pos_site_id
 _symmetry_equiv_pos_as_xyz
  1  'x, y, z'
loop_
 _atom_site_type_symbol
 _atom_site_label
 _atom_site_symmetry_multiplicity
 _atom_site_fract_x
 _atom_site_fract_y
 _atom_site_fract_z
 _atom_site_occupancy
  Ca  Ca0  1  0.02430237  0.75718264  0.25000000  1.0
  Ca  Ca1  1  0.75718264  0.73288027  0.75000000  1.0
  Ca  Ca2  1  0.73288027  0.97569763  0.25000000  1.0
  Ca  Ca3  1  0.24281736  0.26711973  0.25000000  1.0
  Ca  Ca4  1  0.97569763  0.24281736  0.75000000  1.0
  Ca  Ca5  1  0.26711973  0.02430237  0.75000000  1.0
  Ca  Ca6  1  0.33333333  0.66666667  0.50488295  1.0
  Ca  Ca7  1  0.33333333  0.66666667  -0.00488295  1.0
  Ca  Ca8  1  0.66666667  0.33333333  0.00488295  1.0
  Ca  Ca9  1  0.66666667  0.33333333  0.49511705  1.0
  P  P10  1  0.38100791  0.96869412  0.25000000  1.0
  P  P11  1  0.96869412  0.58768621  0.75000000  1.0
  P  P12  1  0.58768621  0.61899209  0.25000000  1.0
  P  P13  1  0.03130588  0.41231379  0.25000000  1.0
  P  P14  1  0.61899209  0.03130588  0.75000000  1.0
  P  P15  1  0.41231379  0.38100791  0.75000000  1.0
  Cl  Cl16  1  0.00000000  0.00000000  0.50000000  1.0
  Cl  Cl17  1  0.00000000  0.00000000  0.00000000  1.0
  O  O18  1  0.27179487  0.91778430  0.43663951  1.0
  O  O19  1  0.27179487  0.91778430  0.06336049  1.0
  O  O20  1  0.91778430  0.64598943  0.93663951  1.0
  O  O21  1  0.91778430  0.64598943  0.56336049  1.0
  O  O22  1  0.64598943  0.72820513  0.43663951  1.0
  O  O23  1  0.64598943  0.72820513  0.06336049  1.0
  O  O24  1  0.08221570  0.35401057  0.43663951  1.0
  O  O25  1  0.08221570  0.35401057  0.06336049  1.0
  O  O26  1  0.72820513  0.08221570  0.93663951  1.0
  O  O27  1  0.72820513  0.08221570  0.56336049  1.0
  O  O28  1  0.35401057  0.27179487  0.93663951  1.0
  O  O29  1  0.35401057  0.27179487  0.56336049  1.0
  O  O30  1  0.46367444  0.86750954  0.25000000  1.0
  O  O31  1  0.86750954  0.40383510  0.75000000  1.0
  O  O32  1  0.40383510  0.53632556  0.25000000  1.0
  O  O33  1  0.13249046  0.59616490  0.25000000  1.0
  O  O34  1  0.53632556  0.13249046  0.75000000  1.0
  O  O35  1  0.59616490  0.46367444  0.75000000  1.0
  O  O36  1  0.64263975  0.49719365  0.25000000  1.0
  O  O37  1  0.49719365  0.85455390  0.75000000  1.0
  O  O38  1  0.85455390  0.35736025  0.25000000  1.0
  O  O39  1  0.50280635  0.14544610  0.25000000  1.0
  O  O40  1  0.35736025  0.50280635  0.75000000  1.0
  O  O41  1  0.14544610  0.64263975  0.75000000  1.0
