# generated using pymatgen
data_Zr2In3
_symmetry_space_group_name_H-M   'P 1'
_cell_length_a   14.67342753
_cell_length_b   14.67342753
_cell_length_c   14.67342753
_cell_angle_alpha   155.67797221
_cell_angle_beta   155.67797221
_cell_angle_gamma   34.66516537
_symmetry_Int_Tables_number   1
_chemical_formula_structural   Zr2In3
_chemical_formula_sum   'Zr8 In12'
_cell_volume   535.34668753
_cell_formula_units_Z   4
loop_
 _symmetry_equiv_pos_site_id
 _symmetry_equiv_pos_as_xyz
  1  'x, y, z'
loop_
 _atom_site_type_symbol
 _atom_site_label
 _atom_site_symmetry_multiplicity
 _atom_site_fract_x
 _atom_site_fract_y
 _atom_site_fract_z
 _atom_site_occupancy
  Zr  Zr0  1  1.02535656  0.29114178  0.73421479  1.0
  Zr  Zr1  1  1.19307301  0.95885822  1.23421479  1.0
  Zr  Zr2  1  0.55692699  0.29114178  0.26578521  1.0
  Zr  Zr3  1  0.72464344  0.95885822  0.76578521  1.0
  Zr  Zr4  1  0.70885822  0.44307301  0.73421479  1.0
  Zr  Zr5  1  0.04114178  0.27535656  0.23421479  1.0
  Zr  Zr6  1  0.70885822  0.97464344  1.26578521  1.0
  Zr  Zr7  1  0.04114178  0.80692699  0.76578521  1.0
  In  In8  1  0.87500000  0.12500000  0.75000000  1.0
  In  In9  1  0.37500000  0.12500000  0.25000000  1.0
  In  In10  1  0.87500000  0.62500000  0.75000000  1.0
  In  In11  1  0.87500000  1.12500000  1.25000000  1.0
  In  In12  1  0.54008487  0.79268064  0.74740423  1.0
  In  In13  1  0.70472359  0.45731936  0.24740423  1.0
  In  In14  1  1.04527641  0.79268064  1.25259577  1.0
  In  In15  1  1.20991513  0.45731936  0.75259577  1.0
  In  In16  1  0.20731936  0.95472359  0.74740423  1.0
  In  In17  1  0.54268064  0.79008487  1.24740423  1.0
  In  In18  1  0.20731936  0.45991513  0.25259577  1.0
  In  In19  1  0.54268064  0.29527641  0.75259577  1.0
