# generated using pymatgen
data_MnPSe3
_symmetry_space_group_name_H-M   'P 1'
_cell_length_a   8.57262379
_cell_length_b   8.57262379
_cell_length_c   8.57262379
_cell_angle_alpha   43.89146675
_cell_angle_beta   43.89146675
_cell_angle_gamma   43.89146675
_symmetry_Int_Tables_number   1
_chemical_formula_structural   MnPSe3
_chemical_formula_sum   'Mn2 P2 Se6'
_cell_volume   274.97583116
_cell_formula_units_Z   2
loop_
 _symmetry_equiv_pos_site_id
 _symmetry_equiv_pos_as_xyz
  1  'x, y, z'
loop_
 _atom_site_type_symbol
 _atom_site_label
 _atom_site_symmetry_multiplicity
 _atom_site_fract_x
 _atom_site_fract_y
 _atom_site_fract_z
 _atom_site_occupancy
  Mn  Mn0  1  0.33323394  0.33323394  -0.66676606  1.0
  Mn  Mn1  1  0.66676606  0.66676606  -0.33323394  1.0
  P  P2  1  0.04828082  0.04828082  0.04828082  1.0
  P  P3  1  0.95171918  -0.04828082  -0.04828082  1.0
  Se  Se4  1  0.07391044  0.73901024  -0.59218236  1.0
  Se  Se5  1  0.59218236  0.92608956  -0.73901024  1.0
  Se  Se6  1  0.26098976  0.59218236  -0.07391044  1.0
  Se  Se7  1  0.92608956  0.26098976  -0.40781764  1.0
  Se  Se8  1  0.40781764  0.07391044  -0.26098976  1.0
  Se  Se9  1  0.73901024  0.40781764  -0.92608956  1.0
