# generated using pymatgen
data_V2Zn3O11
_symmetry_space_group_name_H-M   'P 1'
_cell_length_a   7.92108637
_cell_length_b   7.92108637
_cell_length_c   7.82863568
_cell_angle_alpha   90.00000000
_cell_angle_beta   90.00000000
_cell_angle_gamma   120.00000000
_symmetry_Int_Tables_number   1
_chemical_formula_structural   V2Zn3O11
_chemical_formula_sum   'V2 Zn3 O11'
_cell_volume   425.38895730
_cell_formula_units_Z   1
loop_
 _symmetry_equiv_pos_site_id
 _symmetry_equiv_pos_as_xyz
  1  'x, y, z'
loop_
 _atom_site_type_symbol
 _atom_site_label
 _atom_site_symmetry_multiplicity
 _atom_site_fract_x
 _atom_site_fract_y
 _atom_site_fract_z
 _atom_site_occupancy
  V  V0  1  0.00000000  0.00000000  0.77322665  1.0
  V  V1  1  0.00000000  0.00000000  0.22677335  1.0
  O  O2  1  0.00000000  0.00000000  0.00000000  1.0
  O  O3  1  0.33333333  0.66666667  0.57826049  1.0
  O  O4  1  0.33333333  0.66666667  0.42173951  1.0
  O  O5  1  -0.10022934  0.76738939  0.69968301  1.0
  O  O6  1  -0.10022934  0.76738939  0.30031699  1.0
  O  O7  1  0.86761873  1.10022934  0.69968301  1.0
  O  O8  1  0.86761873  1.10022934  0.30031699  1.0
  O  O9  1  0.23261061  0.13238127  0.69968301  1.0
  O  O10  1  0.23261061  0.13238127  0.30031699  1.0
  O  O11  1  0.66666667  0.33333333  0.60417782  1.0
  O  O12  1  0.66666667  0.33333333  0.39582218  1.0
  Zn  Zn13  1  0.79765394  1.18303618  0.50000000  1.0
  Zn  Zn14  1  0.38538224  0.20234606  0.50000000  1.0
  Zn  Zn15  1  -0.18303618  0.61461776  0.50000000  1.0
