# generated using pymatgen
data_Ba3In2Br2O5
_symmetry_space_group_name_H-M   'P 1'
_cell_length_a   13.72042041
_cell_length_b   13.72042041
_cell_length_c   13.72042041
_cell_angle_alpha   161.88960368
_cell_angle_beta   161.88960368
_cell_angle_gamma   25.72091141
_symmetry_Int_Tables_number   1
_chemical_formula_structural   Ba3In2Br2O5
_chemical_formula_sum   'Ba3 In2 Br2 O5'
_cell_volume   249.49438743
_cell_formula_units_Z   1
loop_
 _symmetry_equiv_pos_site_id
 _symmetry_equiv_pos_as_xyz
  1  'x, y, z'
loop_
 _atom_site_type_symbol
 _atom_site_label
 _atom_site_symmetry_multiplicity
 _atom_site_fract_x
 _atom_site_fract_y
 _atom_site_fract_z
 _atom_site_occupancy
  Ba  Ba0  1  0.50000000  0.50000000  1.00000000  1.0
  Ba  Ba1  1  0.65194459  0.65194459  1.00000000  1.0
  Ba  Ba2  1  0.34805541  0.34805541  0.00000000  1.0
  In  In3  1  0.92171748  0.92171748  1.00000000  1.0
  In  In4  1  0.07828252  0.07828252  0.00000000  1.0
  Br  Br5  1  0.79813243  0.79813243  1.00000000  1.0
  Br  Br6  1  0.20186757  0.20186757  0.00000000  1.0
  O  O7  1  0.41114954  0.91114954  0.50000000  1.0
  O  O8  1  0.58885046  0.08885046  0.50000000  1.0
  O  O9  1  0.91114954  0.41114954  0.50000000  1.0
  O  O10  1  0.08885046  0.58885046  0.50000000  1.0
  O  O11  1  0.00000000  0.00000000  0.00000000  1.0
