# generated using pymatgen
data_Yb6Ga7Ir5
_symmetry_space_group_name_H-M   'P 1'
_cell_length_a   9.41299846
_cell_length_b   9.41299847
_cell_length_c   8.51180346
_cell_angle_alpha   90.00000000
_cell_angle_beta   90.00000000
_cell_angle_gamma   120.00000000
_symmetry_Int_Tables_number   1
_chemical_formula_structural   Yb6Ga7Ir5
_chemical_formula_sum   'Yb12 Ga14 Ir10'
_cell_volume   653.14287648
_cell_formula_units_Z   2
loop_
 _symmetry_equiv_pos_site_id
 _symmetry_equiv_pos_as_xyz
  1  'x, y, z'
loop_
 _atom_site_type_symbol
 _atom_site_label
 _atom_site_symmetry_multiplicity
 _atom_site_fract_x
 _atom_site_fract_y
 _atom_site_fract_z
 _atom_site_occupancy
  Yb  Yb0  1  0.67110777  0.00000000  0.94300568  1.0
  Yb  Yb1  1  0.00000000  0.67110777  0.94300568  1.0
  Yb  Yb2  1  0.32889223  0.32889223  0.94300568  1.0
  Yb  Yb3  1  0.32889223  0.00000000  0.05699432  1.0
  Yb  Yb4  1  -0.00000000  0.32889223  0.05699432  1.0
  Yb  Yb5  1  0.67110777  0.67110777  0.05699432  1.0
  Yb  Yb6  1  0.32889223  0.00000000  0.44300568  1.0
  Yb  Yb7  1  -0.00000000  0.32889223  0.44300568  1.0
  Yb  Yb8  1  0.67110777  0.67110777  0.44300568  1.0
  Yb  Yb9  1  0.67110777  0.00000000  0.55699432  1.0
  Yb  Yb10  1  0.00000000  0.67110777  0.55699432  1.0
  Yb  Yb11  1  0.32889223  0.32889223  0.55699432  1.0
  Ga  Ga12  1  0.49259210  0.32238674  0.25000000  1.0
  Ga  Ga13  1  0.67761326  0.17020536  0.25000000  1.0
  Ga  Ga14  1  0.82979464  0.50740790  0.25000000  1.0
  Ga  Ga15  1  0.32238674  0.49259210  0.25000000  1.0
  Ga  Ga16  1  0.17020536  0.67761326  0.25000000  1.0
  Ga  Ga17  1  0.50740790  0.82979464  0.25000000  1.0
  Ga  Ga18  1  0.50740790  0.67761326  0.75000000  1.0
  Ga  Ga19  1  0.32238674  0.82979464  0.75000000  1.0
  Ga  Ga20  1  0.17020536  0.49259210  0.75000000  1.0
  Ga  Ga21  1  0.67761326  0.50740790  0.75000000  1.0
  Ga  Ga22  1  0.82979464  0.32238674  0.75000000  1.0
  Ga  Ga23  1  0.49259210  0.17020536  0.75000000  1.0
  Ga  Ga24  1  0.00000000  0.00000000  0.50000000  1.0
  Ga  Ga25  1  0.00000000  0.00000000  0.00000000  1.0
  Ir  Ir26  1  0.66666667  0.33333333  0.50000000  1.0
  Ir  Ir27  1  0.33333333  0.66666667  0.50000000  1.0
  Ir  Ir28  1  0.33333333  0.66666667  0.00000000  1.0
  Ir  Ir29  1  0.66666667  0.33333333  0.00000000  1.0
  Ir  Ir30  1  0.82851566  0.00000000  0.25000000  1.0
  Ir  Ir31  1  -0.00000000  0.82851566  0.25000000  1.0
  Ir  Ir32  1  0.17148434  0.17148434  0.25000000  1.0
  Ir  Ir33  1  0.17148434  0.00000000  0.75000000  1.0
  Ir  Ir34  1  -0.00000000  0.17148434  0.75000000  1.0
  Ir  Ir35  1  0.82851566  0.82851566  0.75000000  1.0
