# generated using pymatgen
data_LiGaSiO4
_symmetry_space_group_name_H-M   'P 1'
_cell_length_a   8.53662315
_cell_length_b   8.53662315
_cell_length_c   8.53662315
_cell_angle_alpha   107.87936112
_cell_angle_beta   107.87936112
_cell_angle_gamma   107.87936112
_symmetry_Int_Tables_number   1
_chemical_formula_structural   LiGaSiO4
_chemical_formula_sum   'Li6 Ga6 Si6 O24'
_cell_volume   505.14564532
_cell_formula_units_Z   6
loop_
 _symmetry_equiv_pos_site_id
 _symmetry_equiv_pos_as_xyz
  1  'x, y, z'
loop_
 _atom_site_type_symbol
 _atom_site_label
 _atom_site_symmetry_multiplicity
 _atom_site_fract_x
 _atom_site_fract_y
 _atom_site_fract_z
 _atom_site_occupancy
  Li  Li0  1  0.52523583  1.30180468  -0.29930718  1.0
  Li  Li1  1  1.30180468  0.70069282  -0.47476417  1.0
  Li  Li2  1  0.70069282  0.52523583  0.30180468  1.0
  Li  Li3  1  0.81563699  0.98530156  0.21884717  1.0
  Li  Li4  1  0.98530156  1.21884717  -0.18436301  1.0
  Li  Li5  1  1.21884717  0.81563699  -0.01469844  1.0
  Ga  Ga6  1  1.14536156  0.32918403  -0.45008152  1.0
  Ga  Ga7  1  1.32918403  -0.45008152  0.14536156  1.0
  Ga  Ga8  1  0.54991848  0.14536156  0.32918403  1.0
  Ga  Ga9  1  1.03627031  0.86137254  -0.37337600  1.0
  Ga  Ga10  1  0.86137254  0.62662400  0.03627031  1.0
  Ga  Ga11  1  0.62662400  1.03627031  -0.13862746  1.0
  Si  Si12  1  1.18700729  -0.03269525  0.37321607  1.0
  Si  Si13  1  0.96730475  0.37321607  0.18700729  1.0
  Si  Si14  1  1.37321607  0.18700729  -0.03269525  1.0
  Si  Si15  1  1.65853051  -0.11233460  0.47995267  1.0
  Si  Si16  1  0.88766540  0.47995267  0.65853051  1.0
  Si  Si17  1  1.47995267  0.65853051  -0.11233460  1.0
  O  O18  1  0.40000535  1.11318859  -0.55378041  1.0
  O  O19  1  1.11318859  0.44621959  -0.59999465  1.0
  O  O20  1  0.44621959  0.40000535  0.11318859  1.0
  O  O21  1  1.09671097  -0.17767198  0.15365577  1.0
  O  O22  1  0.82232802  0.15365577  0.09671097  1.0
  O  O23  1  1.15365577  0.09671097  -0.17767198  1.0
  O  O24  1  1.44803589  -0.27652171  0.39016554  1.0
  O  O25  1  0.72347829  0.39016554  0.44803589  1.0
  O  O26  1  1.39016554  0.44803589  -0.27652171  1.0
  O  O27  1  1.06736943  0.08427678  -0.59860929  1.0
  O  O28  1  1.08427678  -0.59860929  0.06736943  1.0
  O  O29  1  0.40139071  0.06736943  0.08427678  1.0
  O  O30  1  1.17469248  -0.14806697  0.49600722  1.0
  O  O31  1  0.85193303  0.49600722  0.17469248  1.0
  O  O32  1  1.49600722  0.17469248  -0.14806697  1.0
  O  O33  1  0.67096733  1.00156073  -0.64412710  1.0
  O  O34  1  1.00156073  0.35587290  -0.32903267  1.0
  O  O35  1  0.35587290  0.67096733  0.00156073  1.0
  O  O36  1  0.79528314  0.78827458  0.46981066  1.0
  O  O37  1  0.78827458  1.46981066  -0.20471686  1.0
  O  O38  1  1.46981066  0.79528314  -0.21172542  1.0
  O  O39  1  0.72609219  1.02942689  -0.30557276  1.0
  O  O40  1  1.02942689  0.69442724  -0.27390781  1.0
  O  O41  1  0.69442724  0.72609219  0.02942689  1.0
