# generated using pymatgen
data_Rb3Cr2Cl9
_symmetry_space_group_name_H-M   'P 1'
_cell_length_a   7.17958290
_cell_length_b   7.17958290
_cell_length_c   18.24280758
_cell_angle_alpha   90.00000000
_cell_angle_beta   90.00000000
_cell_angle_gamma   120.00000000
_symmetry_Int_Tables_number   1
_chemical_formula_structural   Rb3Cr2Cl9
_chemical_formula_sum   'Rb6 Cr4 Cl18'
_cell_volume   814.36807200
_cell_formula_units_Z   2
loop_
 _symmetry_equiv_pos_site_id
 _symmetry_equiv_pos_as_xyz
  1  'x, y, z'
loop_
 _atom_site_type_symbol
 _atom_site_label
 _atom_site_symmetry_multiplicity
 _atom_site_fract_x
 _atom_site_fract_y
 _atom_site_fract_z
 _atom_site_occupancy
  Rb  Rb0  1  0.00000000  0.00000000  0.25000000  1.0
  Rb  Rb1  1  -0.00000000  -0.00000000  0.75000000  1.0
  Rb  Rb2  1  0.33333333  0.66666667  0.43499768  1.0
  Rb  Rb3  1  0.33333333  0.66666667  0.06500232  1.0
  Rb  Rb4  1  0.66666667  0.33333333  0.93499768  1.0
  Rb  Rb5  1  0.66666667  0.33333333  0.56500232  1.0
  Cr  Cr6  1  0.33333333  0.66666667  0.83709801  1.0
  Cr  Cr7  1  0.33333333  0.66666667  0.66290199  1.0
  Cr  Cr8  1  0.66666667  0.33333333  0.33709801  1.0
  Cr  Cr9  1  0.66666667  0.33333333  0.16290199  1.0
  Cl  Cl10  1  0.51771536  0.48228464  0.25000000  1.0
  Cl  Cl11  1  0.51771536  0.03543071  0.25000000  1.0
  Cl  Cl12  1  0.48228464  0.51771536  0.75000000  1.0
  Cl  Cl13  1  0.48228464  0.96456929  0.75000000  1.0
  Cl  Cl14  1  0.96456929  0.48228464  0.25000000  1.0
  Cl  Cl15  1  0.03543071  0.51771536  0.75000000  1.0
  Cl  Cl16  1  0.17812728  0.82187272  0.90523012  1.0
  Cl  Cl17  1  0.17812728  0.82187272  0.59476988  1.0
  Cl  Cl18  1  0.17812728  0.35625455  0.90523012  1.0
  Cl  Cl19  1  0.17812728  0.35625455  0.59476988  1.0
  Cl  Cl20  1  0.82187272  0.17812728  0.40523012  1.0
  Cl  Cl21  1  0.82187272  0.17812728  0.09476988  1.0
  Cl  Cl22  1  0.82187272  0.64374545  0.40523012  1.0
  Cl  Cl23  1  0.82187272  0.64374545  0.09476988  1.0
  Cl  Cl24  1  0.64374545  0.82187272  0.90523012  1.0
  Cl  Cl25  1  0.64374545  0.82187272  0.59476988  1.0
  Cl  Cl26  1  0.35625455  0.17812728  0.40523012  1.0
  Cl  Cl27  1  0.35625455  0.17812728  0.09476988  1.0
