# generated using pymatgen
data_Lu3In5S12
_symmetry_space_group_name_H-M   'P 1'
_cell_length_a   10.93018334
_cell_length_b   3.88516639
_cell_length_c   21.36769599
_cell_angle_alpha   90.00000000
_cell_angle_beta   95.83721776
_cell_angle_gamma   90.00000000
_symmetry_Int_Tables_number   1
_chemical_formula_structural   Lu3In5S12
_chemical_formula_sum   'Lu6 In10 S24'
_cell_volume   902.68666687
_cell_formula_units_Z   2
loop_
 _symmetry_equiv_pos_site_id
 _symmetry_equiv_pos_as_xyz
  1  'x, y, z'
loop_
 _atom_site_type_symbol
 _atom_site_label
 _atom_site_symmetry_multiplicity
 _atom_site_fract_x
 _atom_site_fract_y
 _atom_site_fract_z
 _atom_site_occupancy
  Lu  Lu0  1  0.78534755  0.25000000  0.78492466  1.0
  Lu  Lu1  1  0.21465245  0.75000000  0.21507534  1.0
  Lu  Lu2  1  0.57957711  0.25000000  0.26124717  1.0
  Lu  Lu3  1  0.42042289  0.75000000  0.73875283  1.0
  Lu  Lu4  1  0.46971677  0.25000000  0.08780425  1.0
  Lu  Lu5  1  0.53028323  0.75000000  0.91219575  1.0
  In  In6  1  0.95227769  0.25000000  0.32298307  1.0
  In  In7  1  0.04772232  0.75000000  0.67701693  1.0
  In  In8  1  0.84700310  0.25000000  0.97130073  1.0
  In  In9  1  0.15299690  0.75000000  0.02869927  1.0
  In  In10  1  0.66706184  0.25000000  0.61375775  1.0
  In  In11  1  0.33293816  0.75000000  0.38624225  1.0
  In  In12  1  0.26361654  0.25000000  0.56151123  1.0
  In  In13  1  0.73638346  0.75000000  0.43848877  1.0
  In  In14  1  0.15141074  0.25000000  0.83509426  1.0
  In  In15  1  0.84858926  0.75000000  0.16490574  1.0
  S  S16  1  0.89107396  0.25000000  0.66269347  1.0
  S  S17  1  0.10892604  0.75000000  0.33730653  1.0
  S  S18  1  0.88004941  0.25000000  0.43659793  1.0
  S  S19  1  0.11995059  0.75000000  0.56340207  1.0
  S  S20  1  0.69467170  0.25000000  0.15010272  1.0
  S  S21  1  0.30532830  0.75000000  0.84989728  1.0
  S  S22  1  0.61912643  0.25000000  0.98963104  1.0
  S  S23  1  0.38087357  0.75000000  0.01036896  1.0
  S  S24  1  0.53924661  0.25000000  0.81700051  1.0
  S  S25  1  0.46075339  0.75000000  0.18299949  1.0
  S  S26  1  0.44232981  0.25000000  0.64543741  1.0
  S  S27  1  0.55767019  0.75000000  0.35456259  1.0
  S  S28  1  0.36848338  0.25000000  0.46317447  1.0
  S  S29  1  0.63151662  0.75000000  0.53682553  1.0
  S  S30  1  0.33498106  0.25000000  0.28591196  1.0
  S  S31  1  0.66501894  0.75000000  0.71408804  1.0
  S  S32  1  0.22665120  0.25000000  0.11453140  1.0
  S  S33  1  0.77334880  0.75000000  0.88546860  1.0
  S  S34  1  0.21409833  0.25000000  0.71965664  1.0
  S  S35  1  0.78590167  0.75000000  0.28034336  1.0
  S  S36  1  0.08004489  0.25000000  0.94844150  1.0
  S  S37  1  0.91995511  0.75000000  0.05155850  1.0
  S  S38  1  0.01469993  0.25000000  0.20766923  1.0
  S  S39  1  0.98530007  0.75000000  0.79233077  1.0
