# generated using pymatgen
data_FeGeO3
_symmetry_space_group_name_H-M   'P 1'
_cell_length_a   5.39924697
_cell_length_b   5.39924697
_cell_length_c   5.39924697
_cell_angle_alpha   56.83255677
_cell_angle_beta   56.83255677
_cell_angle_gamma   56.83255677
_symmetry_Int_Tables_number   1
_chemical_formula_structural   FeGeO3
_chemical_formula_sum   'Fe2 Ge2 O6'
_cell_volume   103.16211746
_cell_formula_units_Z   2
loop_
 _symmetry_equiv_pos_site_id
 _symmetry_equiv_pos_as_xyz
  1  'x, y, z'
loop_
 _atom_site_type_symbol
 _atom_site_label
 _atom_site_symmetry_multiplicity
 _atom_site_fract_x
 _atom_site_fract_y
 _atom_site_fract_z
 _atom_site_occupancy
  Fe  Fe0  1  0.78077851  -0.21922149  -0.21922149  1.0
  Fe  Fe1  1  0.28077851  0.28077851  0.28077851  1.0
  Ge  Ge2  1  -0.00195191  -0.00195191  -0.00195191  1.0
  Ge  Ge3  1  0.49804809  0.49804809  -0.50195191  1.0
  O  O4  1  0.61227357  -0.13478122  0.21568105  1.0
  O  O5  1  0.11227357  0.71568105  -0.63478122  1.0
  O  O6  1  0.71568105  0.36521878  -0.88772643  1.0
  O  O7  1  1.21568105  -0.38772643  -0.13478122  1.0
  O  O8  1  0.36521878  0.11227357  -0.28431895  1.0
  O  O9  1  0.86521878  0.21568105  -0.38772643  1.0
