# generated using pymatgen
data_CdGe(BiO3)2
_symmetry_space_group_name_H-M   'P 1'
_cell_length_a   10.57185545
_cell_length_b   10.36204837
_cell_length_c   5.70616315
_cell_angle_alpha   90.00000000
_cell_angle_beta   90.00000000
_cell_angle_gamma   90.00000000
_symmetry_Int_Tables_number   1
_chemical_formula_structural   CdGe(BiO3)2
_chemical_formula_sum   'Cd4 Ge4 Bi8 O24'
_cell_volume   625.08779044
_cell_formula_units_Z   4
loop_
 _symmetry_equiv_pos_site_id
 _symmetry_equiv_pos_as_xyz
  1  'x, y, z'
loop_
 _atom_site_type_symbol
 _atom_site_label
 _atom_site_symmetry_multiplicity
 _atom_site_fract_x
 _atom_site_fract_y
 _atom_site_fract_z
 _atom_site_occupancy
  Cd  Cd0  1  0.00000000  0.38494140  0.75000000  1.0
  Cd  Cd1  1  0.00000000  0.61505860  0.25000000  1.0
  Cd  Cd2  1  0.50000000  0.88494140  0.75000000  1.0
  Cd  Cd3  1  0.50000000  0.11505860  0.25000000  1.0
  Ge  Ge4  1  0.00000000  0.84607456  0.75000000  1.0
  Ge  Ge5  1  0.00000000  0.15392544  0.25000000  1.0
  Ge  Ge6  1  0.50000000  0.34607456  0.75000000  1.0
  Ge  Ge7  1  0.50000000  0.65392544  0.25000000  1.0
  Bi  Bi8  1  0.74170691  0.60666177  0.71661532  1.0
  Bi  Bi9  1  0.74170691  0.39333823  0.21661532  1.0
  Bi  Bi10  1  0.24170691  0.10666177  0.78338468  1.0
  Bi  Bi11  1  0.24170691  0.89333823  0.28338468  1.0
  Bi  Bi12  1  0.25829309  0.60666177  0.78338468  1.0
  Bi  Bi13  1  0.25829309  0.39333823  0.28338468  1.0
  Bi  Bi14  1  0.75829309  0.10666177  0.71661532  1.0
  Bi  Bi15  1  0.75829309  0.89333823  0.21661532  1.0
  O  O16  1  0.92213903  0.75006790  0.53446041  1.0
  O  O17  1  0.92213903  0.24993210  0.03446041  1.0
  O  O18  1  0.42213903  0.25006790  0.96553959  1.0
  O  O19  1  0.42213903  0.74993210  0.46553959  1.0
  O  O20  1  0.07786097  0.75006790  0.96553959  1.0
  O  O21  1  0.07786097  0.24993210  0.46553959  1.0
  O  O22  1  0.57786097  0.25006790  0.53446041  1.0
  O  O23  1  0.57786097  0.74993210  0.03446041  1.0
  O  O24  1  0.87763928  0.94369237  0.87435417  1.0
  O  O25  1  0.87763928  0.05630763  0.37435417  1.0
  O  O26  1  0.37763928  0.44369237  0.62564583  1.0
  O  O27  1  0.37763928  0.55630763  0.12564583  1.0
  O  O28  1  0.12236072  0.94369237  0.62564583  1.0
  O  O29  1  0.12236072  0.05630763  0.12564583  1.0
  O  O30  1  0.62236072  0.44369237  0.87435417  1.0
  O  O31  1  0.62236072  0.55630763  0.37435417  1.0
  O  O32  1  0.64664051  0.97035070  0.51582527  1.0
  O  O33  1  0.64664051  0.02964930  0.01582527  1.0
  O  O34  1  0.14664051  0.47035070  0.98417473  1.0
  O  O35  1  0.14664051  0.52964930  0.48417473  1.0
  O  O36  1  0.35335949  0.97035070  0.98417473  1.0
  O  O37  1  0.35335949  0.02964930  0.48417473  1.0
  O  O38  1  0.85335949  0.47035070  0.51582527  1.0
  O  O39  1  0.85335949  0.52964930  0.01582527  1.0
