# generated using pymatgen
data_Y6Fe23
_symmetry_space_group_name_H-M   'P 1'
_cell_length_a   8.50268844
_cell_length_b   8.50268844
_cell_length_c   8.50268844
_cell_angle_alpha   60.00000000
_cell_angle_beta   60.00000000
_cell_angle_gamma   60.00000000
_symmetry_Int_Tables_number   1
_chemical_formula_structural   Y6Fe23
_chemical_formula_sum   'Y6 Fe23'
_cell_volume   434.66412765
_cell_formula_units_Z   1
loop_
 _symmetry_equiv_pos_site_id
 _symmetry_equiv_pos_as_xyz
  1  'x, y, z'
loop_
 _atom_site_type_symbol
 _atom_site_label
 _atom_site_symmetry_multiplicity
 _atom_site_fract_x
 _atom_site_fract_y
 _atom_site_fract_z
 _atom_site_occupancy
  Y  Y0  1  -0.70943213  0.70943213  0.70943213  1.0
  Y  Y1  1  -0.29056787  0.29056787  0.70943213  1.0
  Y  Y2  1  0.70943213  0.70943213  -0.70943213  1.0
  Y  Y3  1  0.29056787  1.29056787  -0.29056787  1.0
  Y  Y4  1  0.29056787  -0.29056787  1.29056787  1.0
  Y  Y5  1  -0.29056787  0.29056787  0.29056787  1.0
  Fe  Fe6  1  0.87811815  0.87811815  -0.12188185  1.0
  Fe  Fe7  1  1.12188185  0.12188185  0.63435445  1.0
  Fe  Fe8  1  1.12188185  0.63435445  0.12188185  1.0
  Fe  Fe9  1  0.36564555  0.87811815  -0.12188185  1.0
  Fe  Fe10  1  1.63435445  0.12188185  0.12188185  1.0
  Fe  Fe11  1  0.87811815  0.36564555  -0.12188185  1.0
  Fe  Fe12  1  0.87811815  0.87811815  -0.63435445  1.0
  Fe  Fe13  1  1.12188185  0.12188185  0.12188185  1.0
  Fe  Fe14  1  0.67595378  0.67595378  -0.32404622  1.0
  Fe  Fe15  1  1.32404622  0.32404622  0.02786133  1.0
  Fe  Fe16  1  1.32404622  0.02786133  0.32404622  1.0
  Fe  Fe17  1  0.97213867  0.67595378  -0.32404622  1.0
  Fe  Fe18  1  1.02786133  0.32404622  0.32404622  1.0
  Fe  Fe19  1  0.67595378  0.97213867  -0.32404622  1.0
  Fe  Fe20  1  0.67595378  0.67595378  -0.02786133  1.0
  Fe  Fe21  1  1.32404622  0.32404622  0.32404622  1.0
  Fe  Fe22  1  1.50000000  0.00000000  -0.00000000  1.0
  Fe  Fe23  1  1.00000000  0.50000000  -0.50000000  1.0
  Fe  Fe24  1  0.00000000  1.50000000  -0.00000000  1.0
  Fe  Fe25  1  0.50000000  1.00000000  -0.50000000  1.0
  Fe  Fe26  1  0.00000000  0.00000000  0.50000000  1.0
  Fe  Fe27  1  0.50000000  -0.50000000  1.00000000  1.0
  Fe  Fe28  1  0.00000000  0.00000000  0.00000000  1.0
