# generated using pymatgen
data_In2CuO4
_symmetry_space_group_name_H-M   'P 1'
_cell_length_a   6.29437348
_cell_length_b   6.29437348
_cell_length_c   6.29437348
_cell_angle_alpha   144.46987536
_cell_angle_beta   144.46987536
_cell_angle_gamma   51.12523924
_symmetry_Int_Tables_number   1
_chemical_formula_structural   In2CuO4
_chemical_formula_sum   'In2 Cu1 O4'
_cell_volume   83.77321916
_cell_formula_units_Z   1
loop_
 _symmetry_equiv_pos_site_id
 _symmetry_equiv_pos_as_xyz
  1  'x, y, z'
loop_
 _atom_site_type_symbol
 _atom_site_label
 _atom_site_symmetry_multiplicity
 _atom_site_fract_x
 _atom_site_fract_y
 _atom_site_fract_z
 _atom_site_occupancy
  In  In0  1  0.65370061  0.65370061  1.00000000  1.0
  In  In1  1  0.34629939  0.34629939  0.00000000  1.0
  Cu  Cu2  1  0.00000000  0.00000000  0.00000000  1.0
  O  O3  1  0.25000000  0.75000000  0.50000000  1.0
  O  O4  1  0.75000000  0.25000000  0.50000000  1.0
  O  O5  1  0.50000000  0.00000000  0.50000000  1.0
  O  O6  1  0.00000000  0.50000000  0.50000000  1.0
