# generated using pymatgen
data_LaSiRh
_symmetry_space_group_name_H-M   'P 1'
_cell_length_a   6.40692154
_cell_length_b   6.40692154
_cell_length_c   6.40692154
_cell_angle_alpha   90.00000000
_cell_angle_beta   90.00000000
_cell_angle_gamma   90.00000000
_symmetry_Int_Tables_number   1
_chemical_formula_structural   LaSiRh
_chemical_formula_sum   'La4 Si4 Rh4'
_cell_volume   262.99543922
_cell_formula_units_Z   4
loop_
 _symmetry_equiv_pos_site_id
 _symmetry_equiv_pos_as_xyz
  1  'x, y, z'
loop_
 _atom_site_type_symbol
 _atom_site_label
 _atom_site_symmetry_multiplicity
 _atom_site_fract_x
 _atom_site_fract_y
 _atom_site_fract_z
 _atom_site_occupancy
  La  La0  1  0.36406400  0.86406400  0.63593600  1.0
  La  La1  1  0.86406400  0.63593600  0.36406400  1.0
  La  La2  1  0.63593600  0.36406400  0.86406400  1.0
  La  La3  1  0.13593600  0.13593600  0.13593600  1.0
  Si  Si4  1  0.66158531  0.16158531  0.33841469  1.0
  Si  Si5  1  0.16158531  0.33841469  0.66158531  1.0
  Si  Si6  1  0.33841469  0.66158531  0.16158531  1.0
  Si  Si7  1  0.83841469  0.83841469  0.83841469  1.0
  Rh  Rh8  1  0.07803575  0.57803575  0.92196425  1.0
  Rh  Rh9  1  0.57803575  0.92196425  0.07803575  1.0
  Rh  Rh10  1  0.92196425  0.07803575  0.57803575  1.0
  Rh  Rh11  1  0.42196425  0.42196425  0.42196425  1.0
