# generated using pymatgen
data_Fe(GeS2)2
_symmetry_space_group_name_H-M   'P 1'
_cell_length_a   12.46851317
_cell_length_b   7.51710265
_cell_length_c   6.26004862
_cell_angle_alpha   90.00000000
_cell_angle_beta   90.00000000
_cell_angle_gamma   90.00000000
_symmetry_Int_Tables_number   1
_chemical_formula_structural   Fe(GeS2)2
_chemical_formula_sum   'Fe4 Ge8 S16'
_cell_volume   586.73616208
_cell_formula_units_Z   4
loop_
 _symmetry_equiv_pos_site_id
 _symmetry_equiv_pos_as_xyz
  1  'x, y, z'
loop_
 _atom_site_type_symbol
 _atom_site_label
 _atom_site_symmetry_multiplicity
 _atom_site_fract_x
 _atom_site_fract_y
 _atom_site_fract_z
 _atom_site_occupancy
  Fe  Fe0  1  0.59016527  0.25000000  0.07224034  1.0
  Fe  Fe1  1  0.09016527  0.25000000  0.42775966  1.0
  Fe  Fe2  1  0.40983473  0.75000000  0.92775966  1.0
  Fe  Fe3  1  0.90983473  0.75000000  0.57224034  1.0
  Ge  Ge4  1  0.75608360  0.25000000  0.50940276  1.0
  Ge  Ge5  1  0.25608360  0.25000000  0.99059724  1.0
  Ge  Ge6  1  0.24391640  0.75000000  0.49059724  1.0
  Ge  Ge7  1  0.74391640  0.75000000  0.00940276  1.0
  Ge  Ge8  1  0.00000000  0.50000000  0.00000000  1.0
  Ge  Ge9  1  0.00000000  0.00000000  -0.00000000  1.0
  Ge  Ge10  1  0.50000000  0.50000000  0.50000000  1.0
  Ge  Ge11  1  0.50000000  0.00000000  0.50000000  1.0
  S  S12  1  0.66100283  0.46238587  0.24360336  1.0
  S  S13  1  0.66100283  0.03761413  0.24360336  1.0
  S  S14  1  0.16100283  0.46238587  0.25639664  1.0
  S  S15  1  0.16100283  0.03761413  0.25639664  1.0
  S  S16  1  0.33899717  0.96238587  0.75639664  1.0
  S  S17  1  0.33899717  0.53761413  0.75639664  1.0
  S  S18  1  0.83899717  0.96238587  0.74360336  1.0
  S  S19  1  0.83899717  0.53761413  0.74360336  1.0
  S  S20  1  0.94671116  0.25000000  0.25434140  1.0
  S  S21  1  0.44671116  0.25000000  0.24565860  1.0
  S  S22  1  0.05328884  0.75000000  0.74565860  1.0
  S  S23  1  0.55328884  0.75000000  0.75434140  1.0
  S  S24  1  0.58790474  0.25000000  0.72857794  1.0
  S  S25  1  0.08790474  0.25000000  0.77142206  1.0
  S  S26  1  0.41209526  0.75000000  0.27142206  1.0
  S  S27  1  0.91209526  0.75000000  0.22857794  1.0
