# generated using pymatgen
data_CsBeF3
_symmetry_space_group_name_H-M   'P 1'
_cell_length_a   4.88955573
_cell_length_b   6.14051752
_cell_length_c   13.05752009
_cell_angle_alpha   90.00000000
_cell_angle_beta   90.00000000
_cell_angle_gamma   90.00000000
_symmetry_Int_Tables_number   1
_chemical_formula_structural   CsBeF3
_chemical_formula_sum   'Cs4 Be4 F12'
_cell_volume   392.04424063
_cell_formula_units_Z   4
loop_
 _symmetry_equiv_pos_site_id
 _symmetry_equiv_pos_as_xyz
  1  'x, y, z'
loop_
 _atom_site_type_symbol
 _atom_site_label
 _atom_site_symmetry_multiplicity
 _atom_site_fract_x
 _atom_site_fract_y
 _atom_site_fract_z
 _atom_site_occupancy
  Cs  Cs0  1  0.26215198  0.75000000  0.09942308  1.0
  Cs  Cs1  1  0.76215198  0.75000000  0.40057692  1.0
  Cs  Cs2  1  0.73784802  0.25000000  0.90057692  1.0
  Cs  Cs3  1  0.23784802  0.25000000  0.59942308  1.0
  Be  Be4  1  0.19278257  0.75000000  0.82033750  1.0
  Be  Be5  1  0.69278257  0.75000000  0.67966250  1.0
  Be  Be6  1  0.80721743  0.25000000  0.17966250  1.0
  Be  Be7  1  0.30721743  0.25000000  0.32033750  1.0
  F  F8  1  0.24125037  0.95937935  0.88203641  1.0
  F  F9  1  0.24125037  0.54062065  0.88203641  1.0
  F  F10  1  0.74125037  0.95937935  0.61796359  1.0
  F  F11  1  0.74125037  0.54062065  0.61796359  1.0
  F  F12  1  0.75874963  0.45937935  0.11796359  1.0
  F  F13  1  0.75874963  0.04062065  0.11796359  1.0
  F  F14  1  0.25874963  0.45937935  0.38203641  1.0
  F  F15  1  0.25874963  0.04062065  0.38203641  1.0
  F  F16  1  0.37763559  0.75000000  0.71857772  1.0
  F  F17  1  0.87763559  0.75000000  0.78142228  1.0
  F  F18  1  0.62236441  0.25000000  0.28142228  1.0
  F  F19  1  0.12236441  0.25000000  0.21857772  1.0
