# generated using pymatgen
data_TlTe
_symmetry_space_group_name_H-M   'P 1'
_cell_length_a   18.61287632
_cell_length_b   18.61287632
_cell_length_c   6.30006965
_cell_angle_alpha   90.00000000
_cell_angle_beta   90.00000000
_cell_angle_gamma   90.00000000
_symmetry_Int_Tables_number   1
_chemical_formula_structural   TlTe
_chemical_formula_sum   'Tl32 Te32'
_cell_volume   2182.59086896
_cell_formula_units_Z   32
loop_
 _symmetry_equiv_pos_site_id
 _symmetry_equiv_pos_as_xyz
  1  'x, y, z'
loop_
 _atom_site_type_symbol
 _atom_site_label
 _atom_site_symmetry_multiplicity
 _atom_site_fract_x
 _atom_site_fract_y
 _atom_site_fract_z
 _atom_site_occupancy
  Tl  Tl0  1  0.59633761  0.32413339  0.74762615  1.0
  Tl  Tl1  1  0.40366239  0.32413339  0.74762615  1.0
  Tl  Tl2  1  0.59633761  0.67586661  0.74762615  1.0
  Tl  Tl3  1  0.40366239  0.67586661  0.74762615  1.0
  Tl  Tl4  1  0.82413339  0.09633761  0.24762615  1.0
  Tl  Tl5  1  0.17586661  0.09633761  0.24762615  1.0
  Tl  Tl6  1  0.82413339  0.90366239  0.24762615  1.0
  Tl  Tl7  1  0.17586661  0.90366239  0.24762615  1.0
  Tl  Tl8  1  0.90366239  0.17586661  0.75237385  1.0
  Tl  Tl9  1  0.09633761  0.17586661  0.75237385  1.0
  Tl  Tl10  1  0.90366239  0.82413339  0.75237385  1.0
  Tl  Tl11  1  0.09633761  0.82413339  0.75237385  1.0
  Tl  Tl12  1  0.67586661  0.40366239  0.25237385  1.0
  Tl  Tl13  1  0.32413339  0.40366239  0.25237385  1.0
  Tl  Tl14  1  0.67586661  0.59633761  0.25237385  1.0
  Tl  Tl15  1  0.32413339  0.59633761  0.25237385  1.0
  Tl  Tl16  1  0.82446215  0.40386454  0.74526070  1.0
  Tl  Tl17  1  0.17553785  0.40386454  0.74526070  1.0
  Tl  Tl18  1  0.82446215  0.59613546  0.74526070  1.0
  Tl  Tl19  1  0.17553785  0.59613546  0.74526070  1.0
  Tl  Tl20  1  0.90386454  0.32446215  0.24526070  1.0
  Tl  Tl21  1  0.09613546  0.32446215  0.24526070  1.0
  Tl  Tl22  1  0.90386454  0.67553785  0.24526070  1.0
  Tl  Tl23  1  0.09613546  0.67553785  0.24526070  1.0
  Tl  Tl24  1  0.67553785  0.09613546  0.75473930  1.0
  Tl  Tl25  1  0.32446215  0.09613546  0.75473930  1.0
  Tl  Tl26  1  0.67553785  0.90386454  0.75473930  1.0
  Tl  Tl27  1  0.32446215  0.90386454  0.75473930  1.0
  Tl  Tl28  1  0.59613546  0.17553785  0.25473930  1.0
  Tl  Tl29  1  0.40386454  0.17553785  0.25473930  1.0
  Tl  Tl30  1  0.59613546  0.82446215  0.25473930  1.0
  Tl  Tl31  1  0.40386454  0.82446215  0.25473930  1.0
  Te  Te32  1  0.16280374  0.50000000  0.24491797  1.0
  Te  Te33  1  0.83719626  0.50000000  0.24491797  1.0
  Te  Te34  1  0.00000000  0.66280374  0.74491797  1.0
  Te  Te35  1  0.00000000  0.33719626  0.74491797  1.0
  Te  Te36  1  0.33719626  0.00000000  0.25508203  1.0
  Te  Te37  1  0.66280374  0.00000000  0.25508203  1.0
  Te  Te38  1  0.50000000  0.83719626  0.75508203  1.0
  Te  Te39  1  0.50000000  0.16280374  0.75508203  1.0
  Te  Te40  1  0.66265455  0.50000000  0.76386967  1.0
  Te  Te41  1  0.33734545  0.50000000  0.76386967  1.0
  Te  Te42  1  0.00000000  0.16265455  0.26386967  1.0
  Te  Te43  1  0.00000000  0.83734545  0.26386967  1.0
  Te  Te44  1  0.83734545  0.00000000  0.73613033  1.0
  Te  Te45  1  0.16265455  0.00000000  0.73613033  1.0
  Te  Te46  1  0.50000000  0.33734545  0.23613033  1.0
  Te  Te47  1  0.50000000  0.66265455  0.23613033  1.0
  Te  Te48  1  0.00000000  0.50000000  0.24688514  1.0
  Te  Te49  1  0.00000000  0.50000000  0.74688514  1.0
  Te  Te50  1  0.50000000  0.00000000  0.25311486  1.0
  Te  Te51  1  0.50000000  0.00000000  0.75311486  1.0
  Te  Te52  1  0.00000000  0.00000000  0.23689674  1.0
  Te  Te53  1  0.50000000  0.50000000  0.73689674  1.0
  Te  Te54  1  0.50000000  0.50000000  0.26310326  1.0
  Te  Te55  1  0.00000000  0.00000000  0.76310326  1.0
  Te  Te56  1  0.25125735  0.74874265  0.00000000  1.0
  Te  Te57  1  0.74874265  0.74874265  0.00000000  1.0
  Te  Te58  1  0.25125735  0.25125735  0.00000000  1.0
  Te  Te59  1  0.74874265  0.25125735  0.00000000  1.0
  Te  Te60  1  0.24874265  0.75125735  0.50000000  1.0
  Te  Te61  1  0.75125735  0.75125735  0.50000000  1.0
  Te  Te62  1  0.24874265  0.24874265  0.50000000  1.0
  Te  Te63  1  0.75125735  0.24874265  0.50000000  1.0
