# generated using pymatgen
data_PbS
_symmetry_space_group_name_H-M   'P 1'
_cell_length_a   5.98649912
_cell_length_b   4.06356291
_cell_length_c   10.20232469
_cell_angle_alpha   90.00000000
_cell_angle_beta   87.80568458
_cell_angle_gamma   90.00000000
_symmetry_Int_Tables_number   1
_chemical_formula_structural   PbS
_chemical_formula_sum   'Pb4 S4'
_cell_volume   248.00502212
_cell_formula_units_Z   4
loop_
 _symmetry_equiv_pos_site_id
 _symmetry_equiv_pos_as_xyz
  1  'x, y, z'
loop_
 _atom_site_type_symbol
 _atom_site_label
 _atom_site_symmetry_multiplicity
 _atom_site_fract_x
 _atom_site_fract_y
 _atom_site_fract_z
 _atom_site_occupancy
  Pb  Pb0  1  0.78140427  0.25000000  0.88040319  1.0
  Pb  Pb1  1  0.21859573  0.75000000  0.11959681  1.0
  Pb  Pb2  1  0.23654355  0.25000000  0.59889301  1.0
  Pb  Pb3  1  0.76345645  0.75000000  0.40110699  1.0
  S  S4  1  0.74794920  0.25000000  0.58755691  1.0
  S  S5  1  0.25205080  0.75000000  0.41244309  1.0
  S  S6  1  0.08151948  0.75000000  0.84312779  1.0
  S  S7  1  0.91848052  0.25000000  0.15687221  1.0
