# generated using pymatgen
data_BiS
_symmetry_space_group_name_H-M   'P 1'
_cell_length_a   7.18225078
_cell_length_b   7.18225078
_cell_length_c   15.50058607
_cell_angle_alpha   90.00000000
_cell_angle_beta   90.00000000
_cell_angle_gamma   45.75478532
_symmetry_Int_Tables_number   1
_chemical_formula_structural   BiS
_chemical_formula_sum   'Bi10 S10'
_cell_volume   572.79696799
_cell_formula_units_Z   10
loop_
 _symmetry_equiv_pos_site_id
 _symmetry_equiv_pos_as_xyz
  1  'x, y, z'
loop_
 _atom_site_type_symbol
 _atom_site_label
 _atom_site_symmetry_multiplicity
 _atom_site_fract_x
 _atom_site_fract_y
 _atom_site_fract_z
 _atom_site_occupancy
  Bi  Bi0  1  -0.84500303  1.11579445  0.50000000  1.0
  Bi  Bi1  1  -0.11579445  0.84500303  0.50000000  1.0
  Bi  Bi2  1  -0.61092275  1.34893554  0.29861200  1.0
  Bi  Bi3  1  -0.34893554  0.61092275  0.70138800  1.0
  Bi  Bi4  1  -0.61092275  1.34893554  0.70138800  1.0
  Bi  Bi5  1  -0.34893554  0.61092275  0.29861200  1.0
  Bi  Bi6  1  -0.85464963  1.10563967  0.09953658  1.0
  Bi  Bi7  1  -0.10563967  0.85464963  0.90046342  1.0
  Bi  Bi8  1  -0.85464963  1.10563967  0.90046342  1.0
  Bi  Bi9  1  -0.10563967  0.85464963  0.09953658  1.0
  S  S10  1  -0.63143428  1.32945226  0.50000000  1.0
  S  S11  1  -0.32945226  0.63143428  0.50000000  1.0
  S  S12  1  -0.83010745  1.13042154  0.31778098  1.0
  S  S13  1  -0.13042154  0.83010745  0.68221902  1.0
  S  S14  1  -0.83010745  1.13042154  0.68221902  1.0
  S  S15  1  -0.13042154  0.83010745  0.31778098  1.0
  S  S16  1  -0.62673616  1.33274525  0.12719405  1.0
  S  S17  1  -0.33274525  0.62673616  0.87280595  1.0
  S  S18  1  -0.62673616  1.33274525  0.87280595  1.0
  S  S19  1  -0.33274525  0.62673616  0.12719405  1.0
