# generated using pymatgen
data_GeSb
_symmetry_space_group_name_H-M   'P 1'
_cell_length_a   4.11806018
_cell_length_b   4.11806018
_cell_length_c   4.11806018
_cell_angle_alpha   119.99625277
_cell_angle_beta   119.99625277
_cell_angle_gamma   90.00649051
_symmetry_Int_Tables_number   1
_chemical_formula_structural   GeSb
_chemical_formula_sum   'Ge1 Sb1'
_cell_volume   49.38415926
_cell_formula_units_Z   1
loop_
 _symmetry_equiv_pos_site_id
 _symmetry_equiv_pos_as_xyz
  1  'x, y, z'
loop_
 _atom_site_type_symbol
 _atom_site_label
 _atom_site_symmetry_multiplicity
 _atom_site_fract_x
 _atom_site_fract_y
 _atom_site_fract_z
 _atom_site_occupancy
  Ge  Ge0  1  0.00000000  0.00000000  0.00000000  1.0
  Sb  Sb1  1  0.50000000  0.50000000  1.00000000  1.0
