# generated using pymatgen
data_Mg3Pd
_symmetry_space_group_name_H-M   'P 1'
_cell_length_a   8.00669603
_cell_length_b   8.00669603
_cell_length_c   8.43681925
_cell_angle_alpha   90.00000000
_cell_angle_beta   90.00000000
_cell_angle_gamma   120.00000000
_symmetry_Int_Tables_number   1
_chemical_formula_structural   Mg3Pd
_chemical_formula_sum   'Mg18 Pd6'
_cell_volume   468.39910647
_cell_formula_units_Z   6
loop_
 _symmetry_equiv_pos_site_id
 _symmetry_equiv_pos_as_xyz
  1  'x, y, z'
loop_
 _atom_site_type_symbol
 _atom_site_label
 _atom_site_symmetry_multiplicity
 _atom_site_fract_x
 _atom_site_fract_y
 _atom_site_fract_z
 _atom_site_occupancy
  Mg  Mg0  1  0.62367842  0.62367842  0.39513379  1.0
  Mg  Mg1  1  0.62367842  0.00000000  0.89513379  1.0
  Mg  Mg2  1  -0.00000000  0.62367842  0.89513379  1.0
  Mg  Mg3  1  0.00000000  0.37632158  0.39513379  1.0
  Mg  Mg4  1  0.37632158  0.37632158  0.89513379  1.0
  Mg  Mg5  1  0.37632158  0.00000000  0.39513379  1.0
  Mg  Mg6  1  0.28092196  0.28092196  0.23859168  1.0
  Mg  Mg7  1  0.28092196  0.00000000  0.73859168  1.0
  Mg  Mg8  1  -0.00000000  0.28092196  0.73859168  1.0
  Mg  Mg9  1  -0.00000000  0.71907804  0.23859168  1.0
  Mg  Mg10  1  0.71907804  0.71907804  0.73859168  1.0
  Mg  Mg11  1  0.71907804  0.00000000  0.23859168  1.0
  Mg  Mg12  1  0.33333333  0.66666667  0.11637989  1.0
  Mg  Mg13  1  0.33333333  0.66666667  0.61637989  1.0
  Mg  Mg14  1  0.66666667  0.33333333  0.11637989  1.0
  Mg  Mg15  1  0.66666667  0.33333333  0.61637989  1.0
  Mg  Mg16  1  0.00000000  0.00000000  -0.00398653  1.0
  Mg  Mg17  1  0.00000000  0.00000000  0.49601347  1.0
  Pd  Pd18  1  0.67217083  0.67217083  0.06738345  1.0
  Pd  Pd19  1  0.67217083  0.00000000  0.56738345  1.0
  Pd  Pd20  1  0.00000000  0.67217083  0.56738345  1.0
  Pd  Pd21  1  -0.00000000  0.32782917  0.06738345  1.0
  Pd  Pd22  1  0.32782917  0.32782917  0.56738345  1.0
  Pd  Pd23  1  0.32782917  0.00000000  0.06738345  1.0
