# generated using pymatgen
data_Ba3Ag2
_symmetry_space_group_name_H-M   'P 1'
_cell_length_a   8.91312023
_cell_length_b   8.91312023
_cell_length_c   8.91312023
_cell_angle_alpha   72.70628935
_cell_angle_beta   72.70628935
_cell_angle_gamma   72.70628935
_symmetry_Int_Tables_number   1
_chemical_formula_structural   Ba3Ag2
_chemical_formula_sum   'Ba9 Ag6'
_cell_volume   628.34110812
_cell_formula_units_Z   3
loop_
 _symmetry_equiv_pos_site_id
 _symmetry_equiv_pos_as_xyz
  1  'x, y, z'
loop_
 _atom_site_type_symbol
 _atom_site_label
 _atom_site_symmetry_multiplicity
 _atom_site_fract_x
 _atom_site_fract_y
 _atom_site_fract_z
 _atom_site_occupancy
  Ba  Ba0  1  0.83466974  0.61462190  -0.66780415  1.0
  Ba  Ba1  1  0.38537810  0.66780415  -0.83466974  1.0
  Ba  Ba2  1  0.66780415  0.16533026  -0.61462190  1.0
  Ba  Ba3  1  0.16533026  0.38537810  -0.33219585  1.0
  Ba  Ba4  1  0.61462190  0.33219585  -0.16533026  1.0
  Ba  Ba5  1  0.33219585  0.83466974  -0.38537810  1.0
  Ba  Ba6  1  0.79350819  0.79350819  -0.20649181  1.0
  Ba  Ba7  1  1.20649181  1.20649181  0.20649181  1.0
  Ba  Ba8  1  -0.00000000  -0.00000000  0.00000000  1.0
  Ag  Ag9  1  0.59019876  -0.03705420  0.13396090  1.0
  Ag  Ag10  1  1.03705420  -0.13396090  -0.59019876  1.0
  Ag  Ag11  1  0.86603910  -0.59019876  0.03705420  1.0
  Ag  Ag12  1  0.40980124  0.03705420  -0.13396090  1.0
  Ag  Ag13  1  0.96294580  0.13396090  -0.40980124  1.0
  Ag  Ag14  1  1.13396090  -0.40980124  -0.03705420  1.0
