# generated using pymatgen
data_Y2Si2Rh
_symmetry_space_group_name_H-M   'P 1'
_cell_length_a   5.69761717
_cell_length_b   5.69761717
_cell_length_c   10.07686233
_cell_angle_alpha   63.54526005
_cell_angle_beta   116.45473995
_cell_angle_gamma   136.58484556
_symmetry_Int_Tables_number   1
_chemical_formula_structural   Y2Si2Rh
_chemical_formula_sum   'Y4 Si4 Rh2'
_cell_volume   197.29433801
_cell_formula_units_Z   2
loop_
 _symmetry_equiv_pos_site_id
 _symmetry_equiv_pos_as_xyz
  1  'x, y, z'
loop_
 _atom_site_type_symbol
 _atom_site_label
 _atom_site_symmetry_multiplicity
 _atom_site_fract_x
 _atom_site_fract_y
 _atom_site_fract_z
 _atom_site_occupancy
  Y  Y0  1  0.00190682  -0.00190682  0.67538854  1.0
  Y  Y1  1  0.99809318  -0.99809318  0.32461146  1.0
  Y  Y2  1  0.81520235  0.18479765  0.89127530  1.0
  Y  Y3  1  1.18479765  -0.18479765  0.10872470  1.0
  Si  Si4  1  0.64098314  0.35901686  0.56546964  1.0
  Si  Si5  1  1.35901686  -0.35901686  0.43453036  1.0
  Si  Si6  1  0.51130409  0.48869591  0.87924521  1.0
  Si  Si7  1  1.48869591  -0.48869591  0.12075479  1.0
  Rh  Rh8  1  0.72614650  -0.72614650  0.37371764  1.0
  Rh  Rh9  1  0.27385350  -0.27385350  0.62628236  1.0
