# generated using pymatgen
data_ICl
_symmetry_space_group_name_H-M   'P 1'
_cell_length_a   12.95559829
_cell_length_b   5.15755639
_cell_length_c   11.99509126
_cell_angle_alpha   90.00000000
_cell_angle_beta   112.24469795
_cell_angle_gamma   90.00000000
_symmetry_Int_Tables_number   1
_chemical_formula_structural   ICl
_chemical_formula_sum   'I8 Cl8'
_cell_volume   741.85133661
_cell_formula_units_Z   8
loop_
 _symmetry_equiv_pos_site_id
 _symmetry_equiv_pos_as_xyz
  1  'x, y, z'
loop_
 _atom_site_type_symbol
 _atom_site_label
 _atom_site_symmetry_multiplicity
 _atom_site_fract_x
 _atom_site_fract_y
 _atom_site_fract_z
 _atom_site_occupancy
  I  I0  1  0.80977413  0.85659263  0.88830525  1.0
  I  I1  1  0.80977413  0.64340737  0.38830525  1.0
  I  I2  1  0.19022587  0.35659263  0.61169475  1.0
  I  I3  1  0.19022587  0.14340737  0.11169475  1.0
  I  I4  1  0.28481827  0.53186845  0.85978859  1.0
  I  I5  1  0.28481827  0.96813155  0.35978859  1.0
  I  I6  1  0.71518173  0.03186845  0.64021141  1.0
  I  I7  1  0.71518173  0.46813155  0.14021141  1.0
  Cl  Cl8  1  0.89311914  0.79430308  0.61176002  1.0
  Cl  Cl9  1  0.89311914  0.70569692  0.11176002  1.0
  Cl  Cl10  1  0.10688086  0.29430308  0.88823998  1.0
  Cl  Cl11  1  0.10688086  0.20569692  0.38823998  1.0
  Cl  Cl12  1  0.44347603  0.74859424  0.84054924  1.0
  Cl  Cl13  1  0.44347603  0.75140576  0.34054924  1.0
  Cl  Cl14  1  0.55652397  0.24859424  0.65945076  1.0
  Cl  Cl15  1  0.55652397  0.25140576  0.15945076  1.0
