# generated using pymatgen
data_Ba3CuSb2O9
_symmetry_space_group_name_H-M   'P 1'
_cell_length_a   5.88464396
_cell_length_b   5.88464396
_cell_length_c   14.57944671
_cell_angle_alpha   90.00000000
_cell_angle_beta   90.00000000
_cell_angle_gamma   120.00000000
_symmetry_Int_Tables_number   1
_chemical_formula_structural   Ba3CuSb2O9
_chemical_formula_sum   'Ba6 Cu2 Sb4 O18'
_cell_volume   437.23211953
_cell_formula_units_Z   2
loop_
 _symmetry_equiv_pos_site_id
 _symmetry_equiv_pos_as_xyz
  1  'x, y, z'
loop_
 _atom_site_type_symbol
 _atom_site_label
 _atom_site_symmetry_multiplicity
 _atom_site_fract_x
 _atom_site_fract_y
 _atom_site_fract_z
 _atom_site_occupancy
  Ba  Ba0  1  0.33333333  0.66666667  0.16480972  1.0
  Ba  Ba1  1  0.66666667  0.33333333  0.66480972  1.0
  Ba  Ba2  1  0.33333333  0.66666667  0.86096243  1.0
  Ba  Ba3  1  0.66666667  0.33333333  0.36096243  1.0
  Ba  Ba4  1  0.00000000  0.00000000  -0.00210648  1.0
  Ba  Ba5  1  0.00000000  0.00000000  0.49789352  1.0
  Cu  Cu6  1  0.33333333  0.66666667  0.40153630  1.0
  Cu  Cu7  1  0.66666667  0.33333333  0.90153630  1.0
  Sb  Sb8  1  0.33333333  0.66666667  0.58944558  1.0
  Sb  Sb9  1  0.66666667  0.33333333  0.08944558  1.0
  Sb  Sb10  1  0.00000000  0.00000000  0.25489817  1.0
  Sb  Sb11  1  0.00000000  0.00000000  0.75489817  1.0
  O  O12  1  0.67629733  0.83814867  0.33091239  1.0
  O  O13  1  0.83814867  0.67629733  0.83091239  1.0
  O  O14  1  0.83814867  0.16185133  0.83091239  1.0
  O  O15  1  0.16185133  0.83814867  0.33091239  1.0
  O  O16  1  0.16185133  0.32370267  0.33091239  1.0
  O  O17  1  0.32370267  0.16185133  0.83091239  1.0
  O  O18  1  0.98025105  0.49012553  0.00762736  1.0
  O  O19  1  0.49012553  0.98025105  0.50762736  1.0
  O  O20  1  0.49012553  0.50987447  0.50762736  1.0
  O  O21  1  0.50987447  0.49012553  0.00762736  1.0
  O  O22  1  0.50987447  0.01974895  0.00762736  1.0
  O  O23  1  0.01974895  0.50987447  0.50762736  1.0
  O  O24  1  0.33095284  0.16547642  0.16887835  1.0
  O  O25  1  0.16547642  0.33095284  0.66887835  1.0
  O  O26  1  0.16547642  0.83452358  0.66887835  1.0
  O  O27  1  0.83452358  0.16547642  0.16887835  1.0
  O  O28  1  0.83452358  0.66904716  0.16887835  1.0
  O  O29  1  0.66904716  0.83452358  0.66887835  1.0
