# generated using pymatgen
data_Fe
_symmetry_space_group_name_H-M   'P 1'
_cell_length_a   4.35848867
_cell_length_b   9.78041385
_cell_length_c   2.38679954
_cell_angle_alpha   90.00000000
_cell_angle_beta   90.00000000
_cell_angle_gamma   90.00000000
_symmetry_Int_Tables_number   1
_chemical_formula_structural   Fe
_chemical_formula_sum   Fe8
_cell_volume   101.74406829
_cell_formula_units_Z   8
loop_
 _symmetry_equiv_pos_site_id
 _symmetry_equiv_pos_as_xyz
  1  'x, y, z'
loop_
 _atom_site_type_symbol
 _atom_site_label
 _atom_site_symmetry_multiplicity
 _atom_site_fract_x
 _atom_site_fract_y
 _atom_site_fract_z
 _atom_site_occupancy
  Fe  Fe0  1  0.25005088  0.68750371  0.50000000  1.0
  Fe  Fe1  1  0.75005088  0.81249629  0.50000000  1.0
  Fe  Fe2  1  0.75001468  0.56249417  0.50000000  1.0
  Fe  Fe3  1  0.25001468  0.93750583  0.50000000  1.0
  Fe  Fe4  1  0.24998532  0.43750583  0.50000000  1.0
  Fe  Fe5  1  0.74998532  0.06249417  0.50000000  1.0
  Fe  Fe6  1  0.74994912  0.31249629  0.50000000  1.0
  Fe  Fe7  1  0.24994912  0.18750371  0.50000000  1.0
