# generated using pymatgen
data_NaEuCl4
_symmetry_space_group_name_H-M   'P 1'
_cell_length_a   7.04728647
_cell_length_b   6.94121681
_cell_length_c   6.90657089
_cell_angle_alpha   102.54166982
_cell_angle_beta   93.45150907
_cell_angle_gamma   89.01880904
_symmetry_Int_Tables_number   1
_chemical_formula_structural   NaEuCl4
_chemical_formula_sum   'Na2 Eu2 Cl8'
_cell_volume   329.18432552
_cell_formula_units_Z   2
loop_
 _symmetry_equiv_pos_site_id
 _symmetry_equiv_pos_as_xyz
  1  'x, y, z'
loop_
 _atom_site_type_symbol
 _atom_site_label
 _atom_site_symmetry_multiplicity
 _atom_site_fract_x
 _atom_site_fract_y
 _atom_site_fract_z
 _atom_site_occupancy
  Na  Na0  1  0.46553980  0.81932868  -0.77989165  1.0
  Na  Na1  1  0.53446019  0.18067132  -0.22010835  1.0
  Eu  Eu2  1  0.94867024  0.69278205  -0.21581331  1.0
  Eu  Eu3  1  0.05132976  0.30721795  -0.78418669  1.0
  Cl  Cl4  1  0.75568325  0.50536710  -0.95775519  1.0
  Cl  Cl5  1  0.24431675  0.49463290  -0.04224481  1.0
  Cl  Cl6  1  0.77980699  1.00731489  -0.92900322  1.0
  Cl  Cl7  1  0.22019301  -0.00731489  -0.07099678  1.0
  Cl  Cl8  1  0.87328651  0.30841852  -0.43943000  1.0
  Cl  Cl9  1  0.12671349  0.69158148  -0.56057000  1.0
  Cl  Cl10  1  0.63607955  0.79412065  -0.41074586  1.0
  Cl  Cl11  1  0.36392045  0.20587935  -0.58925414  1.0
