# generated using pymatgen
data_Sr5As3
_symmetry_space_group_name_H-M   'P 1'
_cell_length_a   9.03719717
_cell_length_b   9.03719717
_cell_length_c   7.33447288
_cell_angle_alpha   90.00000000
_cell_angle_beta   90.00000000
_cell_angle_gamma   120.00000000
_symmetry_Int_Tables_number   1
_chemical_formula_structural   Sr5As3
_chemical_formula_sum   'Sr10 As6'
_cell_volume   518.76068303
_cell_formula_units_Z   2
loop_
 _symmetry_equiv_pos_site_id
 _symmetry_equiv_pos_as_xyz
  1  'x, y, z'
loop_
 _atom_site_type_symbol
 _atom_site_label
 _atom_site_symmetry_multiplicity
 _atom_site_fract_x
 _atom_site_fract_y
 _atom_site_fract_z
 _atom_site_occupancy
  Sr  Sr0  1  0.74321089  0.74321089  0.25000000  1.0
  Sr  Sr1  1  0.74321089  0.00000000  0.75000000  1.0
  Sr  Sr2  1  -0.00000000  0.74321089  0.75000000  1.0
  Sr  Sr3  1  0.00000000  0.25678911  0.25000000  1.0
  Sr  Sr4  1  0.25678911  0.25678911  0.75000000  1.0
  Sr  Sr5  1  0.25678911  0.00000000  0.25000000  1.0
  Sr  Sr6  1  0.33333333  0.66666667  0.50000000  1.0
  Sr  Sr7  1  0.33333333  0.66666667  0.00000000  1.0
  Sr  Sr8  1  0.66666667  0.33333333  0.50000000  1.0
  Sr  Sr9  1  0.66666667  0.33333333  0.00000000  1.0
  As  As10  1  0.39144263  0.39144263  0.25000000  1.0
  As  As11  1  0.39144263  0.00000000  0.75000000  1.0
  As  As12  1  -0.00000000  0.39144263  0.75000000  1.0
  As  As13  1  -0.00000000  0.60855737  0.25000000  1.0
  As  As14  1  0.60855737  0.60855737  0.75000000  1.0
  As  As15  1  0.60855737  0.00000000  0.25000000  1.0
