# generated using pymatgen
data_Ga2BiSe4
_symmetry_space_group_name_H-M   'P 1'
_cell_length_a   7.97268748
_cell_length_b   7.97268748
_cell_length_c   12.78191695
_cell_angle_alpha   90.00000000
_cell_angle_beta   90.00000000
_cell_angle_gamma   90.00000000
_symmetry_Int_Tables_number   1
_chemical_formula_structural   Ga2BiSe4
_chemical_formula_sum   'Ga8 Bi4 Se16'
_cell_volume   812.46651812
_cell_formula_units_Z   4
loop_
 _symmetry_equiv_pos_site_id
 _symmetry_equiv_pos_as_xyz
  1  'x, y, z'
loop_
 _atom_site_type_symbol
 _atom_site_label
 _atom_site_symmetry_multiplicity
 _atom_site_fract_x
 _atom_site_fract_y
 _atom_site_fract_z
 _atom_site_occupancy
  Ga  Ga0  1  0.00000000  0.50000000  0.75000000  1.0
  Ga  Ga1  1  0.00000000  0.50000000  0.25000000  1.0
  Ga  Ga2  1  0.50000000  0.00000000  0.75000000  1.0
  Ga  Ga3  1  0.50000000  0.00000000  0.25000000  1.0
  Ga  Ga4  1  0.00000000  0.50000000  0.00000000  1.0
  Ga  Ga5  1  0.50000000  0.00000000  0.50000000  1.0
  Ga  Ga6  1  0.50000000  0.00000000  0.00000000  1.0
  Ga  Ga7  1  0.00000000  0.50000000  0.50000000  1.0
  Bi  Bi8  1  0.50000000  0.50000000  0.62378288  1.0
  Bi  Bi9  1  0.50000000  0.50000000  0.37621712  1.0
  Bi  Bi10  1  0.00000000  0.00000000  0.87621712  1.0
  Bi  Bi11  1  0.00000000  0.00000000  0.12378288  1.0
  Se  Se12  1  0.66698931  0.16368128  0.62463524  1.0
  Se  Se13  1  0.33301069  0.83631872  0.62463524  1.0
  Se  Se14  1  0.33301069  0.16368128  0.37536476  1.0
  Se  Se15  1  0.66698931  0.83631872  0.37536476  1.0
  Se  Se16  1  0.83301069  0.33631872  0.87536476  1.0
  Se  Se17  1  0.16698931  0.66368128  0.87536476  1.0
  Se  Se18  1  0.16698931  0.33631872  0.12463524  1.0
  Se  Se19  1  0.83301069  0.66368128  0.12463524  1.0
  Se  Se20  1  0.16368128  0.66698931  0.37536476  1.0
  Se  Se21  1  0.83631872  0.33301069  0.37536476  1.0
  Se  Se22  1  0.16368128  0.33301069  0.62463524  1.0
  Se  Se23  1  0.83631872  0.66698931  0.62463524  1.0
  Se  Se24  1  0.33631872  0.83301069  0.12463524  1.0
  Se  Se25  1  0.66368128  0.16698931  0.12463524  1.0
  Se  Se26  1  0.33631872  0.16698931  0.87536476  1.0
  Se  Se27  1  0.66368128  0.83301069  0.87536476  1.0
