# generated using pymatgen
data_Li13In3
_symmetry_space_group_name_H-M   'P 1'
_cell_length_a   9.38933511
_cell_length_b   9.38933511
_cell_length_c   9.38933511
_cell_angle_alpha   60.00000000
_cell_angle_beta   60.00000000
_cell_angle_gamma   60.00000000
_symmetry_Int_Tables_number   1
_chemical_formula_structural   Li13In3
_chemical_formula_sum   'Li26 In6'
_cell_volume   585.31482081
_cell_formula_units_Z   2
loop_
 _symmetry_equiv_pos_site_id
 _symmetry_equiv_pos_as_xyz
  1  'x, y, z'
loop_
 _atom_site_type_symbol
 _atom_site_label
 _atom_site_symmetry_multiplicity
 _atom_site_fract_x
 _atom_site_fract_y
 _atom_site_fract_z
 _atom_site_occupancy
  Li  Li0  1  0.75000000  -0.25000000  0.75000000  1.0
  Li  Li1  1  0.50000000  0.50000000  -0.50000000  1.0
  Li  Li2  1  0.12500000  0.12500000  1.62500000  1.0
  Li  Li3  1  0.12500000  0.62500000  0.12500000  1.0
  Li  Li4  1  0.62500000  0.12500000  1.12500000  1.0
  Li  Li5  1  0.12500000  0.12500000  0.12500000  1.0
  Li  Li6  1  0.38020699  0.38020699  -0.14062096  1.0
  Li  Li7  1  0.38020699  -0.14062096  0.38020699  1.0
  Li  Li8  1  -0.14062096  0.38020699  0.38020699  1.0
  Li  Li9  1  0.38020699  0.38020699  0.38020699  1.0
  Li  Li10  1  -0.13020699  0.86979301  0.39062096  1.0
  Li  Li11  1  0.86979301  -0.60937904  0.86979301  1.0
  Li  Li12  1  -0.60937904  0.86979301  0.86979301  1.0
  Li  Li13  1  0.86979301  -0.13020699  0.86979301  1.0
  Li  Li14  1  0.49714678  0.49714678  0.00285322  1.0
  Li  Li15  1  0.00285322  0.49714678  0.00285322  1.0
  Li  Li16  1  0.49714678  0.00285322  0.00285322  1.0
  Li  Li17  1  1.00285322  0.00285322  0.49714678  1.0
  Li  Li18  1  -0.50285322  1.00285322  0.49714678  1.0
  Li  Li19  1  1.00285322  -0.50285322  0.49714678  1.0
  Li  Li20  1  -0.24714678  0.75285322  0.24714678  1.0
  Li  Li21  1  0.24714678  0.75285322  0.24714678  1.0
  Li  Li22  1  -0.24714678  1.24714678  0.24714678  1.0
  Li  Li23  1  0.24714678  0.24714678  -0.24714678  1.0
  Li  Li24  1  0.75285322  0.24714678  0.75285322  1.0
  Li  Li25  1  0.24714678  0.75285322  -0.24714678  1.0
  In  In26  1  0.25000000  0.25000000  0.25000000  1.0
  In  In27  1  0.00000000  1.00000000  -0.00000000  1.0
  In  In28  1  0.62500000  -0.37500000  1.12500000  1.0
  In  In29  1  0.62500000  0.12500000  0.62500000  1.0
  In  In30  1  1.12500000  -0.37500000  0.62500000  1.0
  In  In31  1  0.62500000  -0.37500000  0.62500000  1.0
