# generated using pymatgen
data_KP(OF)2
_symmetry_space_group_name_H-M   'P 1'
_cell_length_a   8.30695350
_cell_length_b   6.24599796
_cell_length_c   7.82727255
_cell_angle_alpha   90.00000000
_cell_angle_beta   90.00000000
_cell_angle_gamma   90.00000000
_symmetry_Int_Tables_number   1
_chemical_formula_structural   KP(OF)2
_chemical_formula_sum   'K4 P4 O8 F8'
_cell_volume   406.11971606
_cell_formula_units_Z   4
loop_
 _symmetry_equiv_pos_site_id
 _symmetry_equiv_pos_as_xyz
  1  'x, y, z'
loop_
 _atom_site_type_symbol
 _atom_site_label
 _atom_site_symmetry_multiplicity
 _atom_site_fract_x
 _atom_site_fract_y
 _atom_site_fract_z
 _atom_site_occupancy
  K  K0  1  0.34497271  0.75000000  0.14686308  1.0
  K  K1  1  0.84497271  0.75000000  0.35313692  1.0
  K  K2  1  0.65502729  0.25000000  0.85313692  1.0
  K  K3  1  0.15502729  0.25000000  0.64686308  1.0
  P  P4  1  0.41668287  0.75000000  0.69672395  1.0
  P  P5  1  0.91668287  0.75000000  0.80327605  1.0
  P  P6  1  0.58331713  0.25000000  0.30327605  1.0
  P  P7  1  0.08331713  0.25000000  0.19672395  1.0
  O  O8  1  0.40884792  0.96032812  0.78711953  1.0
  O  O9  1  0.40884792  0.53967188  0.78711953  1.0
  O  O10  1  0.90884792  0.96032812  0.71288047  1.0
  O  O11  1  0.90884792  0.53967188  0.71288047  1.0
  O  O12  1  0.59115208  0.46032812  0.21288047  1.0
  O  O13  1  0.59115208  0.03967188  0.21288047  1.0
  O  O14  1  0.09115208  0.46032812  0.28711953  1.0
  O  O15  1  0.09115208  0.03967188  0.28711953  1.0
  F  F16  1  0.28400635  0.75000000  0.54737412  1.0
  F  F17  1  0.78400635  0.75000000  0.95262588  1.0
  F  F18  1  0.71599365  0.25000000  0.45262588  1.0
  F  F19  1  0.21599365  0.25000000  0.04737412  1.0
  F  F20  1  0.07137322  0.75000000  0.92655580  1.0
  F  F21  1  0.57137322  0.75000000  0.57344420  1.0
  F  F22  1  0.92862678  0.25000000  0.07344420  1.0
  F  F23  1  0.42862678  0.25000000  0.42655580  1.0
