# generated using pymatgen
data_Rb2PtS6
_symmetry_space_group_name_H-M   'P 1'
_cell_length_a   5.64279798
_cell_length_b   5.64279798
_cell_length_c   8.53177888
_cell_angle_alpha   90.00000000
_cell_angle_beta   90.00000000
_cell_angle_gamma   120.00000000
_symmetry_Int_Tables_number   1
_chemical_formula_structural   Rb2PtS6
_chemical_formula_sum   'Rb2 Pt1 S6'
_cell_volume   235.26603214
_cell_formula_units_Z   1
loop_
 _symmetry_equiv_pos_site_id
 _symmetry_equiv_pos_as_xyz
  1  'x, y, z'
loop_
 _atom_site_type_symbol
 _atom_site_label
 _atom_site_symmetry_multiplicity
 _atom_site_fract_x
 _atom_site_fract_y
 _atom_site_fract_z
 _atom_site_occupancy
  Rb  Rb0  1  0.66666667  0.33333333  0.39532309  1.0
  Rb  Rb1  1  0.33333333  0.66666667  0.60467691  1.0
  Pt  Pt2  1  -0.00000000  -0.00000000  0.00000000  1.0
  S  S3  1  0.33823455  0.16911727  0.79816579  1.0
  S  S4  1  0.83088273  0.66176545  0.79816579  1.0
  S  S5  1  0.83088273  0.16911727  0.79816579  1.0
  S  S6  1  0.66176545  0.83088273  0.20183421  1.0
  S  S7  1  0.16911727  0.33823455  0.20183421  1.0
  S  S8  1  0.16911727  0.83088273  0.20183421  1.0
