# generated using pymatgen
data_Na2Zr(CuS2)2
_symmetry_space_group_name_H-M   'P 1'
_cell_length_a   7.12168008
_cell_length_b   7.12168008
_cell_length_c   7.10613271
_cell_angle_alpha   68.78134893
_cell_angle_beta   111.21865107
_cell_angle_gamma   149.52186114
_symmetry_Int_Tables_number   1
_chemical_formula_structural   Na2Zr(CuS2)2
_chemical_formula_sum   'Na2 Zr1 Cu2 S4'
_cell_volume   169.45509859
_cell_formula_units_Z   1
loop_
 _symmetry_equiv_pos_site_id
 _symmetry_equiv_pos_as_xyz
  1  'x, y, z'
loop_
 _atom_site_type_symbol
 _atom_site_label
 _atom_site_symmetry_multiplicity
 _atom_site_fract_x
 _atom_site_fract_y
 _atom_site_fract_z
 _atom_site_occupancy
  Na  Na0  1  0.86194344  -0.86194344  0.43889069  1.0
  Na  Na1  1  1.13805656  -0.13805656  0.56110931  1.0
  Zr  Zr2  1  0.00000000  0.00000000  0.00000000  1.0
  Cu  Cu3  1  0.67839680  -0.67839680  0.98826368  1.0
  Cu  Cu4  1  1.32160320  -0.32160320  0.01173632  1.0
  S  S5  1  0.79663188  -0.79663188  0.79960035  1.0
  S  S6  1  1.20336812  -0.20336812  0.20039965  1.0
  S  S7  1  0.51040155  -0.51040155  0.75297534  1.0
  S  S8  1  1.48959845  -0.48959845  0.24702466  1.0
