# generated using pymatgen
data_Ca(LuS2)2
_symmetry_space_group_name_H-M   'P 1'
_cell_length_a   12.80777513
_cell_length_b   3.83680265
_cell_length_c   12.99510928
_cell_angle_alpha   90.00000000
_cell_angle_beta   90.00000000
_cell_angle_gamma   90.00000000
_symmetry_Int_Tables_number   1
_chemical_formula_structural   Ca(LuS2)2
_chemical_formula_sum   'Ca4 Lu8 S16'
_cell_volume   638.59143713
_cell_formula_units_Z   4
loop_
 _symmetry_equiv_pos_site_id
 _symmetry_equiv_pos_as_xyz
  1  'x, y, z'
loop_
 _atom_site_type_symbol
 _atom_site_label
 _atom_site_symmetry_multiplicity
 _atom_site_fract_x
 _atom_site_fract_y
 _atom_site_fract_z
 _atom_site_occupancy
  Ca  Ca0  1  0.63068429  0.75000000  0.41640132  1.0
  Ca  Ca1  1  0.13068429  0.75000000  0.08359868  1.0
  Ca  Ca2  1  0.36931571  0.25000000  0.58359868  1.0
  Ca  Ca3  1  0.86931571  0.25000000  0.91640132  1.0
  Lu  Lu4  1  0.89335390  0.75000000  0.58216908  1.0
  Lu  Lu5  1  0.39335390  0.75000000  0.91783092  1.0
  Lu  Lu6  1  0.10664610  0.25000000  0.41783092  1.0
  Lu  Lu7  1  0.60664610  0.25000000  0.08216908  1.0
  Lu  Lu8  1  0.85203376  0.75000000  0.20157918  1.0
  Lu  Lu9  1  0.35203376  0.75000000  0.29842082  1.0
  Lu  Lu10  1  0.14796624  0.25000000  0.79842082  1.0
  Lu  Lu11  1  0.64796624  0.25000000  0.70157918  1.0
  S  S12  1  0.96612235  0.75000000  0.38149185  1.0
  S  S13  1  0.46612235  0.75000000  0.11850815  1.0
  S  S14  1  0.03387765  0.25000000  0.61850815  1.0
  S  S15  1  0.53387765  0.25000000  0.88149185  1.0
  S  S16  1  0.78344435  0.75000000  0.76104290  1.0
  S  S17  1  0.28344435  0.75000000  0.73895710  1.0
  S  S18  1  0.21655565  0.25000000  0.23895710  1.0
  S  S19  1  0.71655565  0.25000000  0.26104290  1.0
  S  S20  1  0.74164619  0.75000000  0.02569794  1.0
  S  S21  1  0.24164619  0.75000000  0.47430206  1.0
  S  S22  1  0.25835381  0.25000000  0.97430206  1.0
  S  S23  1  0.75835381  0.25000000  0.52569794  1.0
  S  S24  1  0.53153134  0.75000000  0.61821596  1.0
  S  S25  1  0.03153134  0.75000000  0.88178404  1.0
  S  S26  1  0.46846866  0.25000000  0.38178404  1.0
  S  S27  1  0.96846866  0.25000000  0.11821596  1.0
