# generated using pymatgen
data_Eu(BIr)4
_symmetry_space_group_name_H-M   'P 1'
_cell_length_a   7.68350049
_cell_length_b   7.68350049
_cell_length_c   3.97050718
_cell_angle_alpha   90.00000000
_cell_angle_beta   90.00000000
_cell_angle_gamma   90.00000000
_symmetry_Int_Tables_number   1
_chemical_formula_structural   Eu(BIr)4
_chemical_formula_sum   'Eu2 B8 Ir8'
_cell_volume   234.40357562
_cell_formula_units_Z   2
loop_
 _symmetry_equiv_pos_site_id
 _symmetry_equiv_pos_as_xyz
  1  'x, y, z'
loop_
 _atom_site_type_symbol
 _atom_site_label
 _atom_site_symmetry_multiplicity
 _atom_site_fract_x
 _atom_site_fract_y
 _atom_site_fract_z
 _atom_site_occupancy
  Eu  Eu0  1  0.50000000  0.50000000  0.00000000  1.0
  Eu  Eu1  1  0.00000000  0.00000000  0.50000000  1.0
  B  B2  1  0.15757999  0.72168508  0.89155930  1.0
  B  B3  1  0.84242001  0.27831492  0.89155930  1.0
  B  B4  1  0.65757999  0.22168508  0.60844070  1.0
  B  B5  1  0.34242001  0.77831492  0.60844070  1.0
  B  B6  1  0.72168508  0.84242001  0.10844070  1.0
  B  B7  1  0.27831492  0.15757999  0.10844070  1.0
  B  B8  1  0.22168508  0.34242001  0.39155930  1.0
  B  B9  1  0.77831492  0.65757999  0.39155930  1.0
  Ir  Ir10  1  0.88962910  0.65693176  0.89212739  1.0
  Ir  Ir11  1  0.11037090  0.34306824  0.89212739  1.0
  Ir  Ir12  1  0.38962910  0.15693176  0.60787261  1.0
  Ir  Ir13  1  0.61037090  0.84306824  0.60787261  1.0
  Ir  Ir14  1  0.65693176  0.11037090  0.10787261  1.0
  Ir  Ir15  1  0.34306824  0.88962910  0.10787261  1.0
  Ir  Ir16  1  0.15693176  0.61037090  0.39212739  1.0
  Ir  Ir17  1  0.84306824  0.38962910  0.39212739  1.0
