# generated using pymatgen
data_LiAs(HO2)2
_symmetry_space_group_name_H-M   'P 1'
_cell_length_a   6.58295998
_cell_length_b   7.83741698
_cell_length_c   7.40264379
_cell_angle_alpha   90.00000000
_cell_angle_beta   90.00000000
_cell_angle_gamma   90.00000000
_symmetry_Int_Tables_number   1
_chemical_formula_structural   LiAs(HO2)2
_chemical_formula_sum   'Li4 As4 H8 O16'
_cell_volume   381.92757991
_cell_formula_units_Z   4
loop_
 _symmetry_equiv_pos_site_id
 _symmetry_equiv_pos_as_xyz
  1  'x, y, z'
loop_
 _atom_site_type_symbol
 _atom_site_label
 _atom_site_symmetry_multiplicity
 _atom_site_fract_x
 _atom_site_fract_y
 _atom_site_fract_z
 _atom_site_occupancy
  Li  Li0  1  0.51799455  0.71270326  0.00775228  1.0
  Li  Li1  1  0.01799455  0.78729674  0.00775228  1.0
  Li  Li2  1  0.48200545  0.28729674  0.50775228  1.0
  Li  Li3  1  0.98200545  0.21270326  0.50775228  1.0
  As  As4  1  0.80518846  0.58045145  0.33295326  1.0
  As  As5  1  0.30518846  0.91954855  0.33295326  1.0
  As  As6  1  0.19481154  0.41954855  0.83295326  1.0
  As  As7  1  0.69481154  0.08045145  0.83295326  1.0
  H  H8  1  0.49132798  0.62519500  0.45046655  1.0
  H  H9  1  0.99132798  0.87480500  0.45046655  1.0
  H  H10  1  0.50867202  0.37480500  0.95046655  1.0
  H  H11  1  0.00867202  0.12519500  0.95046655  1.0
  H  H12  1  0.48270344  0.13674276  0.17902946  1.0
  H  H13  1  0.98270344  0.36325724  0.17902946  1.0
  H  H14  1  0.51729656  0.86325724  0.67902946  1.0
  H  H15  1  0.01729656  0.63674276  0.67902946  1.0
  O  O16  1  0.57737638  0.87822899  0.80711274  1.0
  O  O17  1  0.07737638  0.62177101  0.80711274  1.0
  O  O18  1  0.42262362  0.12177101  0.30711274  1.0
  O  O19  1  0.92262362  0.37822899  0.30711274  1.0
  O  O20  1  0.56342350  0.51289558  0.41381477  1.0
  O  O21  1  0.06342350  0.98710442  0.41381477  1.0
  O  O22  1  0.43657650  0.48710442  0.91381477  1.0
  O  O23  1  0.93657650  0.01289558  0.91381477  1.0
  O  O24  1  0.78144170  0.68707311  0.13413967  1.0
  O  O25  1  0.28144170  0.81292689  0.13413967  1.0
  O  O26  1  0.21855830  0.31292689  0.63413967  1.0
  O  O27  1  0.71855830  0.18707311  0.63413967  1.0
  O  O28  1  0.92816741  0.69310328  0.49803127  1.0
  O  O29  1  0.42816741  0.80689672  0.49803127  1.0
  O  O30  1  0.07183259  0.30689672  0.99803127  1.0
  O  O31  1  0.57183259  0.19310328  0.99803127  1.0
