# generated using pymatgen
data_Sc2Cr4Ge5
_symmetry_space_group_name_H-M   'P 1'
_cell_length_a   9.46129655
_cell_length_b   9.46129655
_cell_length_c   9.46129655
_cell_angle_alpha   131.58149357
_cell_angle_beta   58.63756198
_cell_angle_gamma   148.95530907
_symmetry_Int_Tables_number   1
_chemical_formula_structural   Sc2Cr4Ge5
_chemical_formula_sum   'Sc4 Cr8 Ge10'
_cell_volume   324.15332920
_cell_formula_units_Z   2
loop_
 _symmetry_equiv_pos_site_id
 _symmetry_equiv_pos_as_xyz
  1  'x, y, z'
loop_
 _atom_site_type_symbol
 _atom_site_label
 _atom_site_symmetry_multiplicity
 _atom_site_fract_x
 _atom_site_fract_y
 _atom_site_fract_z
 _atom_site_occupancy
  Sc  Sc0  1  0.35648543  0.38274184  0.73922727  1.0
  Sc  Sc1  1  0.14351457  0.88274184  1.02625641  1.0
  Sc  Sc2  1  0.85648543  1.11725816  0.97374359  1.0
  Sc  Sc3  1  0.64351457  0.61725816  0.26077273  1.0
  Cr  Cr4  1  0.06242886  0.25500240  0.31743126  1.0
  Cr  Cr5  1  0.43757114  0.75500240  1.19257353  1.0
  Cr  Cr6  1  0.56242886  1.24499760  0.80742647  1.0
  Cr  Cr7  1  0.93757114  0.74499760  0.68256874  1.0
  Cr  Cr8  1  0.94179656  1.25000000  0.69179656  1.0
  Cr  Cr9  1  0.44179656  0.75000000  0.69179656  1.0
  Cr  Cr10  1  1.05820344  0.75000000  0.30820344  1.0
  Cr  Cr11  1  0.55820344  0.25000000  0.30820344  1.0
  Ge  Ge12  1  0.21016007  0.20437864  0.41453871  1.0
  Ge  Ge13  1  0.28983993  0.70437864  0.99421857  1.0
  Ge  Ge14  1  0.71016007  1.29562136  1.00578143  1.0
  Ge  Ge15  1  0.78983993  0.79562136  0.58546129  1.0
  Ge  Ge16  1  0.43335978  0.08461407  0.51797385  1.0
  Ge  Ge17  1  0.06664022  0.58461407  0.65125428  1.0
  Ge  Ge18  1  0.93335978  1.41538593  1.34874572  1.0
  Ge  Ge19  1  0.56664022  0.91538593  0.48202615  1.0
  Ge  Ge20  1  0.25000000  0.25000000  -0.00000000  1.0
  Ge  Ge21  1  0.75000000  0.75000000  -0.00000000  1.0
