# generated using pymatgen
data_Ta3Tl2Cl9
_symmetry_space_group_name_H-M   'P 1'
_cell_length_a   10.01426392
_cell_length_b   10.01426392
_cell_length_c   9.79710401
_cell_angle_alpha   77.43769007
_cell_angle_beta   102.56230993
_cell_angle_gamma   62.24758091
_symmetry_Int_Tables_number   1
_chemical_formula_structural   Ta3Tl2Cl9
_chemical_formula_sum   'Ta6 Tl4 Cl18'
_cell_volume   788.76293711
_cell_formula_units_Z   2
loop_
 _symmetry_equiv_pos_site_id
 _symmetry_equiv_pos_as_xyz
  1  'x, y, z'
loop_
 _atom_site_type_symbol
 _atom_site_label
 _atom_site_symmetry_multiplicity
 _atom_site_fract_x
 _atom_site_fract_y
 _atom_site_fract_z
 _atom_site_occupancy
  Ta  Ta0  1  0.45564839  -0.28686033  0.86138406  1.0
  Ta  Ta1  1  1.28686033  0.54435161  0.86138406  1.0
  Ta  Ta2  1  0.71313967  -0.54435161  0.13861594  1.0
  Ta  Ta3  1  1.54435161  0.28686033  0.13861594  1.0
  Ta  Ta4  1  0.61991655  -0.61991655  0.87784165  1.0
  Ta  Ta5  1  0.38008345  -0.38008345  0.12215835  1.0
  Tl  Tl6  1  0.72762673  -0.04644448  0.66919923  1.0
  Tl  Tl7  1  1.04644448  0.27237327  0.66919923  1.0
  Tl  Tl8  1  0.95355552  -0.27237327  0.33080077  1.0
  Tl  Tl9  1  1.27237327  0.04644448  0.33080077  1.0
  Cl  Cl10  1  0.58982375  -0.38779152  0.69005302  1.0
  Cl  Cl11  1  1.38779152  0.41017625  0.69005302  1.0
  Cl  Cl12  1  0.61220848  -0.41017625  0.30994698  1.0
  Cl  Cl13  1  1.41017625  0.38779152  0.30994698  1.0
  Cl  Cl14  1  0.30572191  -0.10234354  0.98035376  1.0
  Cl  Cl15  1  1.10234354  0.69427809  0.98035376  1.0
  Cl  Cl16  1  0.89765646  -0.69427809  0.01964624  1.0
  Cl  Cl17  1  1.69427809  0.10234354  0.01964624  1.0
  Cl  Cl18  1  1.39574356  -0.01116100  0.67967383  1.0
  Cl  Cl19  1  1.01116100  -0.39574356  0.67967383  1.0
  Cl  Cl20  1  0.98883900  0.39574356  0.32032617  1.0
  Cl  Cl21  1  0.60425644  0.01116100  0.32032617  1.0
  Cl  Cl22  1  0.80949019  -0.80949019  0.33004302  1.0
  Cl  Cl23  1  0.19050981  -0.19050981  0.66995698  1.0
  Cl  Cl24  1  0.77248676  -0.77248676  0.72410087  1.0
  Cl  Cl25  1  0.22751324  -0.22751324  0.27589913  1.0
  Cl  Cl26  1  0.70195470  -0.29804530  0.00000000  1.0
  Cl  Cl27  1  1.29804530  0.29804530  0.00000000  1.0
