# generated using pymatgen
data_Y(Al4Ni)2
_symmetry_space_group_name_H-M   'P 1'
_cell_length_a   10.95910647
_cell_length_b   10.95910647
_cell_length_c   10.95910647
_cell_angle_alpha   42.76479461
_cell_angle_beta   42.76479461
_cell_angle_gamma   42.76479461
_symmetry_Int_Tables_number   1
_chemical_formula_structural   Y(Al4Ni)2
_chemical_formula_sum   'Y3 Al24 Ni6'
_cell_volume   549.74988132
_cell_formula_units_Z   3
loop_
 _symmetry_equiv_pos_site_id
 _symmetry_equiv_pos_as_xyz
  1  'x, y, z'
loop_
 _atom_site_type_symbol
 _atom_site_label
 _atom_site_symmetry_multiplicity
 _atom_site_fract_x
 _atom_site_fract_y
 _atom_site_fract_z
 _atom_site_occupancy
  Y  Y0  1  0.22097975  0.22097975  0.22097975  1.0
  Y  Y1  1  0.77902025  -0.22097975  -0.22097975  1.0
  Y  Y2  1  0.50000000  0.50000000  -0.50000000  1.0
  Al  Al3  1  0.41398027  0.04646073  -0.32120745  1.0
  Al  Al4  1  0.67879255  0.41398027  -0.95353927  1.0
  Al  Al5  1  0.04646073  0.67879255  -0.58601973  1.0
  Al  Al6  1  0.32120745  0.95353927  -0.41398027  1.0
  Al  Al7  1  0.58601973  0.32120745  -0.04646073  1.0
  Al  Al8  1  0.95353927  0.58601973  -0.67879255  1.0
  Al  Al9  1  0.84720544  0.15279456  -0.50000000  1.0
  Al  Al10  1  0.50000000  0.84720544  -0.84720544  1.0
  Al  Al11  1  0.15279456  0.50000000  -0.15279456  1.0
  Al  Al12  1  0.29154998  -0.29154998  -0.00000000  1.0
  Al  Al13  1  0.00000000  0.29154998  -0.29154998  1.0
  Al  Al14  1  0.70845002  -0.00000000  -0.70845002  1.0
  Al  Al15  1  0.05160274  0.05160274  0.05160274  1.0
  Al  Al16  1  0.94839726  -0.05160274  -0.05160274  1.0
  Al  Al17  1  0.31942167  0.31942167  0.31942167  1.0
  Al  Al18  1  0.68057833  -0.31942167  -0.31942167  1.0
  Al  Al19  1  0.40552454  0.40552454  -0.59447546  1.0
  Al  Al20  1  0.59447546  0.59447546  -0.40552454  1.0
  Al  Al21  1  0.34183765  0.12812883  -0.08840256  1.0
  Al  Al22  1  0.91159744  -0.65816235  0.12812883  1.0
  Al  Al23  1  1.12812883  -0.08840256  -0.65816235  1.0
  Al  Al24  1  1.08840256  -0.12812883  -0.34183765  1.0
  Al  Al25  1  0.65816235  0.08840256  -0.12812883  1.0
  Al  Al26  1  0.87187117  -0.34183765  0.08840256  1.0
  Ni  Ni27  1  0.36642386  -0.24737571  0.12192913  1.0
  Ni  Ni28  1  1.12192913  -0.63357614  -0.24737571  1.0
  Ni  Ni29  1  0.75262429  0.12192913  -0.63357614  1.0
  Ni  Ni30  1  0.87807087  0.24737571  -0.36642386  1.0
  Ni  Ni31  1  0.63357614  -0.12192913  0.24737571  1.0
  Ni  Ni32  1  1.24737571  -0.36642386  -0.12192913  1.0
