# generated using pymatgen
data_KMg(PO3)3
_symmetry_space_group_name_H-M   'P 1'
_cell_length_a   6.72256917
_cell_length_b   6.72256917
_cell_length_c   9.92488352
_cell_angle_alpha   90.00000000
_cell_angle_beta   90.00000000
_cell_angle_gamma   120.00000000
_symmetry_Int_Tables_number   1
_chemical_formula_structural   KMg(PO3)3
_chemical_formula_sum   'K2 Mg2 P6 O18'
_cell_volume   388.44238208
_cell_formula_units_Z   2
loop_
 _symmetry_equiv_pos_site_id
 _symmetry_equiv_pos_as_xyz
  1  'x, y, z'
loop_
 _atom_site_type_symbol
 _atom_site_label
 _atom_site_symmetry_multiplicity
 _atom_site_fract_x
 _atom_site_fract_y
 _atom_site_fract_z
 _atom_site_occupancy
  K  K0  1  0.00000000  0.00000000  0.50000000  1.0
  K  K1  1  0.00000000  0.00000000  0.00000000  1.0
  Mg  Mg2  1  0.33333333  0.66666667  0.50000000  1.0
  Mg  Mg3  1  0.33333333  0.66666667  0.00000000  1.0
  P  P4  1  0.60630512  0.55658718  0.25000000  1.0
  P  P5  1  0.60630512  0.04971794  0.75000000  1.0
  P  P6  1  0.95028206  0.55658718  0.75000000  1.0
  P  P7  1  0.95028206  0.39369488  0.25000000  1.0
  P  P8  1  0.44341282  0.39369488  0.75000000  1.0
  P  P9  1  0.44341282  0.04971794  0.25000000  1.0
  O  O10  1  0.07299096  0.41288149  0.38022586  1.0
  O  O11  1  0.07299096  0.41288149  0.11977414  1.0
  O  O12  1  0.07299096  0.66010947  0.88022586  1.0
  O  O13  1  0.07299096  0.66010947  0.61977414  1.0
  O  O14  1  0.33989053  0.41288149  0.88022586  1.0
  O  O15  1  0.33989053  0.41288149  0.61977414  1.0
  O  O16  1  0.33989053  0.92700904  0.38022586  1.0
  O  O17  1  0.33989053  0.92700904  0.11977414  1.0
  O  O18  1  0.58711851  0.92700904  0.88022586  1.0
  O  O19  1  0.58711851  0.92700904  0.61977414  1.0
  O  O20  1  0.58711851  0.66010947  0.38022586  1.0
  O  O21  1  0.58711851  0.66010947  0.11977414  1.0
  O  O22  1  0.85560094  0.57293202  0.25000000  1.0
  O  O23  1  0.85560094  0.28266892  0.75000000  1.0
  O  O24  1  0.71733108  0.57293202  0.75000000  1.0
  O  O25  1  0.71733108  0.14439906  0.25000000  1.0
  O  O26  1  0.42706798  0.14439906  0.75000000  1.0
  O  O27  1  0.42706798  0.28266892  0.25000000  1.0
