# generated using pymatgen
data_Sr6Mg23
_symmetry_space_group_name_H-M   'P 1'
_cell_length_a   10.53668693
_cell_length_b   10.53668693
_cell_length_c   10.53668693
_cell_angle_alpha   60.00000000
_cell_angle_beta   60.00000000
_cell_angle_gamma   60.00000000
_symmetry_Int_Tables_number   1
_chemical_formula_structural   Sr6Mg23
_chemical_formula_sum   'Sr6 Mg23'
_cell_volume   827.17467825
_cell_formula_units_Z   1
loop_
 _symmetry_equiv_pos_site_id
 _symmetry_equiv_pos_as_xyz
  1  'x, y, z'
loop_
 _atom_site_type_symbol
 _atom_site_label
 _atom_site_symmetry_multiplicity
 _atom_site_fract_x
 _atom_site_fract_y
 _atom_site_fract_z
 _atom_site_occupancy
  Sr  Sr0  1  -0.70668609  0.70668609  0.70668609  1.0
  Sr  Sr1  1  -0.29331391  0.29331391  0.70668609  1.0
  Sr  Sr2  1  0.70668609  0.70668609  -0.70668609  1.0
  Sr  Sr3  1  0.29331391  1.29331391  -0.29331391  1.0
  Sr  Sr4  1  0.29331391  -0.29331391  1.29331391  1.0
  Sr  Sr5  1  -0.29331391  0.29331391  0.29331391  1.0
  Mg  Mg6  1  0.87842581  0.87842581  -0.12157419  1.0
  Mg  Mg7  1  1.12157419  0.12157419  0.63527742  1.0
  Mg  Mg8  1  1.12157419  0.63527742  0.12157419  1.0
  Mg  Mg9  1  0.36472258  0.87842581  -0.12157419  1.0
  Mg  Mg10  1  1.63527742  0.12157419  0.12157419  1.0
  Mg  Mg11  1  0.87842581  0.36472258  -0.12157419  1.0
  Mg  Mg12  1  0.87842581  0.87842581  -0.63527742  1.0
  Mg  Mg13  1  1.12157419  0.12157419  0.12157419  1.0
  Mg  Mg14  1  0.67462240  0.67462240  -0.32537760  1.0
  Mg  Mg15  1  1.32537760  0.32537760  0.02386721  1.0
  Mg  Mg16  1  1.32537760  0.02386721  0.32537760  1.0
  Mg  Mg17  1  0.97613279  0.67462240  -0.32537760  1.0
  Mg  Mg18  1  1.02386721  0.32537760  0.32537760  1.0
  Mg  Mg19  1  0.67462240  0.97613279  -0.32537760  1.0
  Mg  Mg20  1  0.67462240  0.67462240  -0.02386721  1.0
  Mg  Mg21  1  1.32537760  0.32537760  0.32537760  1.0
  Mg  Mg22  1  1.50000000  0.00000000  0.00000000  1.0
  Mg  Mg23  1  1.00000000  0.50000000  -0.50000000  1.0
  Mg  Mg24  1  0.00000000  1.50000000  0.00000000  1.0
  Mg  Mg25  1  0.50000000  1.00000000  -0.50000000  1.0
  Mg  Mg26  1  0.00000000  0.00000000  0.50000000  1.0
  Mg  Mg27  1  0.50000000  -0.50000000  1.00000000  1.0
  Mg  Mg28  1  0.00000000  0.00000000  0.00000000  1.0
