# generated using pymatgen
data_NbSe2
_symmetry_space_group_name_H-M   'P 1'
_cell_length_a   3.47555514
_cell_length_b   3.47555514
_cell_length_c   26.69215733
_cell_angle_alpha   90.00000000
_cell_angle_beta   90.00000000
_cell_angle_gamma   120.00000000
_symmetry_Int_Tables_number   1
_chemical_formula_structural   NbSe2
_chemical_formula_sum   'Nb4 Se8'
_cell_volume   279.23038430
_cell_formula_units_Z   4
loop_
 _symmetry_equiv_pos_site_id
 _symmetry_equiv_pos_as_xyz
  1  'x, y, z'
loop_
 _atom_site_type_symbol
 _atom_site_label
 _atom_site_symmetry_multiplicity
 _atom_site_fract_x
 _atom_site_fract_y
 _atom_site_fract_z
 _atom_site_occupancy
  Nb  Nb0  1  0.00000000  0.00000000  0.50000000  1.0
  Nb  Nb1  1  0.33333333  0.66666667  -0.00000000  1.0
  Nb  Nb2  1  -0.00000000  -0.00000000  0.74599771  1.0
  Nb  Nb3  1  -0.00000000  -0.00000000  0.25400229  1.0
  Se  Se4  1  0.00000000  0.00000000  0.93721849  1.0
  Se  Se5  1  0.00000000  0.00000000  0.06278151  1.0
  Se  Se6  1  0.33333333  0.66666667  0.68331370  1.0
  Se  Se7  1  0.33333333  0.66666667  0.31668630  1.0
  Se  Se8  1  0.66666667  0.33333333  0.80887022  1.0
  Se  Se9  1  0.66666667  0.33333333  0.19112978  1.0
  Se  Se10  1  0.66666667  0.33333333  0.56270328  1.0
  Se  Se11  1  0.66666667  0.33333333  0.43729672  1.0
