# generated using pymatgen
data_BiF3
_symmetry_space_group_name_H-M   'P 1'
_cell_length_a   7.13875997
_cell_length_b   7.13875997
_cell_length_c   7.25300070
_cell_angle_alpha   90.00000000
_cell_angle_beta   90.00000000
_cell_angle_gamma   120.00000000
_symmetry_Int_Tables_number   1
_chemical_formula_structural   BiF3
_chemical_formula_sum   'Bi6 F18'
_cell_volume   320.10607035
_cell_formula_units_Z   6
loop_
 _symmetry_equiv_pos_site_id
 _symmetry_equiv_pos_as_xyz
  1  'x, y, z'
loop_
 _atom_site_type_symbol
 _atom_site_label
 _atom_site_symmetry_multiplicity
 _atom_site_fract_x
 _atom_site_fract_y
 _atom_site_fract_z
 _atom_site_occupancy
  Bi  Bi0  1  0.65424881  0.65424881  0.25000000  1.0
  Bi  Bi1  1  0.65424881  0.00000000  0.75000000  1.0
  Bi  Bi2  1  -0.00000000  0.65424881  0.75000000  1.0
  Bi  Bi3  1  -0.00000000  0.34575119  0.25000000  1.0
  Bi  Bi4  1  0.34575119  0.34575119  0.75000000  1.0
  Bi  Bi5  1  0.34575119  0.00000000  0.25000000  1.0
  F  F6  1  0.93361135  0.62445118  0.07878329  1.0
  F  F7  1  0.93361135  0.30916017  0.57878329  1.0
  F  F8  1  0.62445118  0.93361135  0.42121671  1.0
  F  F9  1  0.62445118  0.69083983  0.92121671  1.0
  F  F10  1  0.69083983  0.62445118  0.57878329  1.0
  F  F11  1  0.69083983  0.06638865  0.07878329  1.0
  F  F12  1  0.37554882  0.06638865  0.57878329  1.0
  F  F13  1  0.37554882  0.30916017  0.07878329  1.0
  F  F14  1  0.06638865  0.69083983  0.42121671  1.0
  F  F15  1  0.06638865  0.37554882  0.92121671  1.0
  F  F16  1  0.30916017  0.93361135  0.92121671  1.0
  F  F17  1  0.30916017  0.37554882  0.42121671  1.0
  F  F18  1  0.33333333  0.66666667  0.18402881  1.0
  F  F19  1  0.33333333  0.66666667  0.68402881  1.0
  F  F20  1  0.66666667  0.33333333  0.31597119  1.0
  F  F21  1  0.66666667  0.33333333  0.81597119  1.0
  F  F22  1  0.00000000  0.00000000  0.25000000  1.0
  F  F23  1  0.00000000  0.00000000  0.75000000  1.0
