# generated using pymatgen
data_Ba3Nb16O23
_symmetry_space_group_name_H-M   'P 1'
_cell_length_a   12.27313241
_cell_length_b   12.27313241
_cell_length_c   4.18797664
_cell_angle_alpha   90.00000000
_cell_angle_beta   90.00000000
_cell_angle_gamma   118.44014528
_symmetry_Int_Tables_number   1
_chemical_formula_structural   Ba3Nb16O23
_chemical_formula_sum   'Ba3 Nb16 O23'
_cell_volume   554.70186039
_cell_formula_units_Z   1
loop_
 _symmetry_equiv_pos_site_id
 _symmetry_equiv_pos_as_xyz
  1  'x, y, z'
loop_
 _atom_site_type_symbol
 _atom_site_label
 _atom_site_symmetry_multiplicity
 _atom_site_fract_x
 _atom_site_fract_y
 _atom_site_fract_z
 _atom_site_occupancy
  Ba  Ba0  1  0.29901688  0.70098312  0.50000000  1.0
  Ba  Ba1  1  -0.29901688  1.29901688  0.50000000  1.0
  Ba  Ba2  1  0.50000000  0.50000000  0.50000000  1.0
  Nb  Nb3  1  -0.06920841  1.72750022  0.50000000  1.0
  Nb  Nb4  1  0.72750022  0.93079159  0.50000000  1.0
  Nb  Nb5  1  -0.72750022  1.06920841  0.50000000  1.0
  Nb  Nb6  1  0.06920841  0.27249978  0.50000000  1.0
  Nb  Nb7  1  0.02844205  0.63786945  0.00000000  1.0
  Nb  Nb8  1  -0.36213055  1.02844205  0.00000000  1.0
  Nb  Nb9  1  0.36213055  0.97155795  0.00000000  1.0
  Nb  Nb10  1  -0.02844205  1.36213055  0.00000000  1.0
  Nb  Nb11  1  -0.22990666  1.56810446  0.00000000  1.0
  Nb  Nb12  1  0.56810446  0.77009334  0.00000000  1.0
  Nb  Nb13  1  -0.56810446  1.22990666  0.00000000  1.0
  Nb  Nb14  1  0.22990666  0.43189554  0.00000000  1.0
  Nb  Nb15  1  0.10094135  0.89905865  0.00000000  1.0
  Nb  Nb16  1  -0.10094135  1.10094135  0.00000000  1.0
  Nb  Nb17  1  0.82788726  0.82788726  0.00000000  1.0
  Nb  Nb18  1  0.17211274  0.17211274  0.00000000  1.0
  O  O19  1  0.03925247  0.64089811  0.50000000  1.0
  O  O20  1  -0.35910189  1.03925247  0.50000000  1.0
  O  O21  1  0.35910189  0.96074753  0.50000000  1.0
  O  O22  1  -0.03925247  1.35910189  0.50000000  1.0
  O  O23  1  -0.23862504  1.56286034  0.50000000  1.0
  O  O24  1  0.56286034  0.76137496  0.50000000  1.0
  O  O25  1  -0.56286034  1.23862504  0.50000000  1.0
  O  O26  1  0.23862504  0.43713966  0.50000000  1.0
  O  O27  1  0.13410707  0.53297180  0.00000000  1.0
  O  O28  1  -0.46702820  1.13410707  0.00000000  1.0
  O  O29  1  0.46702820  0.86589293  0.00000000  1.0
  O  O30  1  -0.13410707  1.46702820  0.00000000  1.0
  O  O31  1  0.09665056  0.90334944  0.50000000  1.0
  O  O32  1  -0.09665056  1.09665056  0.50000000  1.0
  O  O33  1  0.20077134  0.79922866  0.00000000  1.0
  O  O34  1  -0.20077134  1.20077134  0.00000000  1.0
  O  O35  1  0.39715712  0.60284288  0.00000000  1.0
  O  O36  1  -0.39715712  1.39715712  0.00000000  1.0
  O  O37  1  0.83401616  0.83401616  0.50000000  1.0
  O  O38  1  0.16598384  0.16598384  0.50000000  1.0
  O  O39  1  0.66055462  0.66055462  0.00000000  1.0
  O  O40  1  0.33944538  0.33944538  0.00000000  1.0
  O  O41  1  0.00000000  0.00000000  0.00000000  1.0
