# generated using pymatgen
data_Cu(NO3)2
_symmetry_space_group_name_H-M   'P 1'
_cell_length_a   11.42409834
_cell_length_b   5.23472968
_cell_length_c   8.62667864
_cell_angle_alpha   90.00000000
_cell_angle_beta   90.00000000
_cell_angle_gamma   90.00000000
_symmetry_Int_Tables_number   1
_chemical_formula_structural   Cu(NO3)2
_chemical_formula_sum   'Cu4 N8 O24'
_cell_volume   515.89321063
_cell_formula_units_Z   4
loop_
 _symmetry_equiv_pos_site_id
 _symmetry_equiv_pos_as_xyz
  1  'x, y, z'
loop_
 _atom_site_type_symbol
 _atom_site_label
 _atom_site_symmetry_multiplicity
 _atom_site_fract_x
 _atom_site_fract_y
 _atom_site_fract_z
 _atom_site_occupancy
  N  N0  1  0.28344501  0.77000269  0.91656120  1.0
  N  N1  1  0.71655499  0.77000269  0.91656120  1.0
  N  N2  1  0.21655499  0.22999731  0.41656120  1.0
  N  N3  1  0.78344501  0.22999731  0.41656120  1.0
  N  N4  1  0.50000000  0.21205305  0.72741798  1.0
  N  N5  1  0.00000000  0.78794695  0.22741798  1.0
  N  N6  1  0.00000000  0.21315638  0.77490665  1.0
  N  N7  1  0.50000000  0.78684362  0.27490665  1.0
  O  O8  1  0.28482098  0.67481075  0.78590387  1.0
  O  O9  1  0.71517902  0.67481075  0.78590387  1.0
  O  O10  1  0.21517902  0.32518925  0.28590387  1.0
  O  O11  1  0.78482098  0.32518925  0.28590387  1.0
  O  O12  1  0.27458288  0.01215935  0.93682977  1.0
  O  O13  1  0.72541712  0.01215935  0.93682977  1.0
  O  O14  1  0.22541712  0.98784065  0.43682977  1.0
  O  O15  1  0.77458288  0.98784065  0.43682977  1.0
  O  O16  1  0.40646270  0.14121380  0.65642135  1.0
  O  O17  1  0.59353730  0.14121380  0.65642135  1.0
  O  O18  1  0.09353730  0.85878620  0.15642135  1.0
  O  O19  1  0.90646270  0.85878620  0.15642135  1.0
  O  O20  1  0.50000000  0.33106622  0.84872060  1.0
  O  O21  1  0.00000000  0.66893378  0.34872060  1.0
  O  O22  1  0.00000000  0.03325088  0.68450401  1.0
  O  O23  1  0.50000000  0.96674912  0.18450401  1.0
  O  O24  1  0.09380990  0.31667595  0.82716228  1.0
  O  O25  1  0.90619010  0.31667595  0.82716228  1.0
  O  O26  1  0.40619010  0.68332405  0.32716228  1.0
  O  O27  1  0.59380990  0.68332405  0.32716228  1.0
  O  O28  1  0.29116796  0.62992197  0.03687954  1.0
  O  O29  1  0.70883204  0.62992197  0.03687954  1.0
  O  O30  1  0.20883204  0.37007803  0.53687954  1.0
  O  O31  1  0.79116796  0.37007803  0.53687954  1.0
  Cu  Cu32  1  0.24860250  0.21250664  0.74236737  1.0
  Cu  Cu33  1  0.75139750  0.21250664  0.74236737  1.0
  Cu  Cu34  1  0.25139750  0.78749336  0.24236737  1.0
  Cu  Cu35  1  0.74860250  0.78749336  0.24236737  1.0
