# generated using pymatgen
data_Rh2O3
_symmetry_space_group_name_H-M   'P 1'
_cell_length_a   8.05203234
_cell_length_b   2.99176485
_cell_length_c   9.03054186
_cell_angle_alpha   90.00000000
_cell_angle_beta   90.00000000
_cell_angle_gamma   90.00000000
_symmetry_Int_Tables_number   1
_chemical_formula_structural   Rh2O3
_chemical_formula_sum   'Rh8 O12'
_cell_volume   217.54383279
_cell_formula_units_Z   4
loop_
 _symmetry_equiv_pos_site_id
 _symmetry_equiv_pos_as_xyz
  1  'x, y, z'
loop_
 _atom_site_type_symbol
 _atom_site_label
 _atom_site_symmetry_multiplicity
 _atom_site_fract_x
 _atom_site_fract_y
 _atom_site_fract_z
 _atom_site_occupancy
  Rh  Rh0  1  -0.02121042  0.25000000  0.84232133  1.0
  Rh  Rh1  1  0.47878958  0.25000000  0.65767867  1.0
  Rh  Rh2  1  1.02121042  0.75000000  0.15767867  1.0
  Rh  Rh3  1  0.52121042  0.75000000  0.34232133  1.0
  Rh  Rh4  1  0.82922000  0.25000000  0.46637278  1.0
  Rh  Rh5  1  0.32922000  0.25000000  0.03362722  1.0
  Rh  Rh6  1  0.17078000  0.75000000  0.53362722  1.0
  Rh  Rh7  1  0.67078000  0.75000000  0.96637278  1.0
  O  O8  1  1.03471380  0.25000000  0.62018757  1.0
  O  O9  1  0.53471380  0.25000000  0.87981243  1.0
  O  O10  1  -0.03471380  0.75000000  0.37981243  1.0
  O  O11  1  0.46528620  0.75000000  0.12018757  1.0
  O  O12  1  0.86151714  0.25000000  0.04614334  1.0
  O  O13  1  0.36151714  0.25000000  0.45385666  1.0
  O  O14  1  0.13848286  0.75000000  0.95385666  1.0
  O  O15  1  0.63848286  0.75000000  0.54614334  1.0
  O  O16  1  0.67319922  0.25000000  0.29749563  1.0
  O  O17  1  0.17319922  0.25000000  0.20250437  1.0
  O  O18  1  0.32680078  0.75000000  0.70250437  1.0
  O  O19  1  0.82680078  0.75000000  0.79749563  1.0
