# generated using pymatgen
data_TiS3
_symmetry_space_group_name_H-M   'P 1'
_cell_length_a   5.03272430
_cell_length_b   3.41800138
_cell_length_c   9.62337411
_cell_angle_alpha   90.00000000
_cell_angle_beta   96.64089572
_cell_angle_gamma   90.00000000
_symmetry_Int_Tables_number   1
_chemical_formula_structural   TiS3
_chemical_formula_sum   'Ti2 S6'
_cell_volume   164.42922640
_cell_formula_units_Z   2
loop_
 _symmetry_equiv_pos_site_id
 _symmetry_equiv_pos_as_xyz
  1  'x, y, z'
loop_
 _atom_site_type_symbol
 _atom_site_label
 _atom_site_symmetry_multiplicity
 _atom_site_fract_x
 _atom_site_fract_y
 _atom_site_fract_z
 _atom_site_occupancy
  Ti  Ti0  1  0.71906281  0.25000000  0.86005867  1.0
  Ti  Ti1  1  0.28093719  0.75000000  0.13994133  1.0
  S  S2  1  0.23988842  0.25000000  0.95414909  1.0
  S  S3  1  0.76011158  0.75000000  0.04585091  1.0
  S  S4  1  0.51924099  0.25000000  0.29742091  1.0
  S  S5  1  0.48075901  0.75000000  0.70257909  1.0
  S  S6  1  0.11156229  0.25000000  0.29687038  1.0
  S  S7  1  0.88843771  0.75000000  0.70312962  1.0
