# generated using pymatgen
data_InBP2H5NO9
_symmetry_space_group_name_H-M   'P 1'
_cell_length_a   8.64924899
_cell_length_b   8.50604638
_cell_length_c   5.37778488
_cell_angle_alpha   80.80665908
_cell_angle_beta   86.19246236
_cell_angle_gamma   86.88469992
_symmetry_Int_Tables_number   1
_chemical_formula_structural   InBP2H5NO9
_chemical_formula_sum   'In2 B2 P4 H10 N2 O18'
_cell_volume   389.31992420
_cell_formula_units_Z   2
loop_
 _symmetry_equiv_pos_site_id
 _symmetry_equiv_pos_as_xyz
  1  'x, y, z'
loop_
 _atom_site_type_symbol
 _atom_site_label
 _atom_site_symmetry_multiplicity
 _atom_site_fract_x
 _atom_site_fract_y
 _atom_site_fract_z
 _atom_site_occupancy
  In  In0  1  0.81995802  0.21333104  0.71930863  1.0
  In  In1  1  0.18004198  0.78666896  0.28069137  1.0
  B  B2  1  0.72163746  0.56936142  0.89394479  1.0
  B  B3  1  0.27836254  0.43063858  0.10605521  1.0
  P  P4  1  0.41406660  0.68738503  0.79935039  1.0
  P  P5  1  0.58593340  0.31261497  0.20064961  1.0
  P  P6  1  0.93076699  0.81088353  0.78326780  1.0
  P  P7  1  0.06923301  0.18911647  0.21673220  1.0
  H  H8  1  0.88605745  0.53689224  0.61896143  1.0
  H  H9  1  0.11394255  0.46310776  0.38103857  1.0
  H  H10  1  0.71643998  0.91633779  0.43219970  1.0
  H  H11  1  0.28356002  0.08366221  0.56780030  1.0
  H  H12  1  0.54785679  0.84525752  0.35785390  1.0
  H  H13  1  0.45214321  0.15474248  0.64214610  1.0
  H  H14  1  0.63439243  0.99761628  0.16367002  1.0
  H  H15  1  0.36560757  0.00238372  0.83632998  1.0
  H  H16  1  0.71409027  0.80988973  0.18953621  1.0
  H  H17  1  0.28590973  0.19011027  0.81046379  1.0
  N  N18  1  0.65292196  0.89190633  0.28584549  1.0
  N  N19  1  0.34707804  0.10809367  0.71415451  1.0
  O  O20  1  0.61412024  0.20945799  0.98826449  1.0
  O  O21  1  0.38587976  0.79054201  0.01173551  1.0
  O  O22  1  0.82183100  0.68989523  0.96300247  1.0
  O  O23  1  0.17816900  0.31010477  0.03699753  1.0
  O  O24  1  0.06249734  0.84657435  0.93705604  1.0
  O  O25  1  0.93750266  0.15342565  0.06294396  1.0
  O  O26  1  0.33143858  0.52528821  0.86795485  1.0
  O  O27  1  0.66856142  0.47471179  0.13204515  1.0
  O  O28  1  0.82808485  0.96191525  0.68970847  1.0
  O  O29  1  0.17191515  0.03808475  0.31029153  1.0
  O  O30  1  0.59216411  0.65240141  0.75064361  1.0
  O  O31  1  0.40783589  0.34759859  0.24935639  1.0
  O  O32  1  0.81204072  0.47016265  0.73045992  1.0
  O  O33  1  0.18795928  0.52983735  0.26954008  1.0
  O  O34  1  0.36193857  0.77482196  0.54416626  1.0
  O  O35  1  0.63806143  0.22517804  0.45583374  1.0
  O  O36  1  0.98718788  0.72762754  0.55267361  1.0
  O  O37  1  0.01281212  0.27237246  0.44732639  1.0
