# generated using pymatgen
data_HfBrN
_symmetry_space_group_name_H-M   'P 1'
_cell_length_a   10.87541328
_cell_length_b   10.87541328
_cell_length_c   10.87541328
_cell_angle_alpha   19.20847387
_cell_angle_beta   19.20847387
_cell_angle_gamma   19.20847387
_symmetry_Int_Tables_number   1
_chemical_formula_structural   HfBrN
_chemical_formula_sum   'Hf2 Br2 N2'
_cell_volume   121.70941534
_cell_formula_units_Z   2
loop_
 _symmetry_equiv_pos_site_id
 _symmetry_equiv_pos_as_xyz
  1  'x, y, z'
loop_
 _atom_site_type_symbol
 _atom_site_label
 _atom_site_symmetry_multiplicity
 _atom_site_fract_x
 _atom_site_fract_y
 _atom_site_fract_z
 _atom_site_occupancy
  Hf  Hf0  1  0.87369187  0.87369187  0.87369187  1.0
  Hf  Hf1  1  1.12630813  1.12630813  0.12630813  1.0
  Br  Br2  1  1.60264277  0.60264277  0.60264277  1.0
  Br  Br3  1  1.39735723  0.39735723  0.39735723  1.0
  N  N4  1  0.80624348  0.80624348  0.80624348  1.0
  N  N5  1  1.19375652  1.19375652  0.19375652  1.0
