# generated using pymatgen
data_CrCo3
_symmetry_space_group_name_H-M   'P 1'
_cell_length_a   4.94774377
_cell_length_b   4.94774377
_cell_length_c   3.94562834
_cell_angle_alpha   90.00000000
_cell_angle_beta   90.00000000
_cell_angle_gamma   120.00000000
_symmetry_Int_Tables_number   1
_chemical_formula_structural   CrCo3
_chemical_formula_sum   'Cr2 Co6'
_cell_volume   83.64908743
_cell_formula_units_Z   2
loop_
 _symmetry_equiv_pos_site_id
 _symmetry_equiv_pos_as_xyz
  1  'x, y, z'
loop_
 _atom_site_type_symbol
 _atom_site_label
 _atom_site_symmetry_multiplicity
 _atom_site_fract_x
 _atom_site_fract_y
 _atom_site_fract_z
 _atom_site_occupancy
  Cr  Cr0  1  0.33333333  0.66666667  0.25000000  1.0
  Cr  Cr1  1  0.66666667  0.33333333  0.75000000  1.0
  Co  Co2  1  0.83414858  0.16585142  0.25000000  1.0
  Co  Co3  1  0.83414858  0.66829716  0.25000000  1.0
  Co  Co4  1  0.33170284  0.16585142  0.25000000  1.0
  Co  Co5  1  0.16585142  0.83414858  0.75000000  1.0
  Co  Co6  1  0.16585142  0.33170284  0.75000000  1.0
  Co  Co7  1  0.66829716  0.83414858  0.75000000  1.0
