# generated using pymatgen
data_Ba2Br2O
_symmetry_space_group_name_H-M   'P 1'
_cell_length_a   8.23735781
_cell_length_b   8.23735781
_cell_length_c   8.23735781
_cell_angle_alpha   125.56883779
_cell_angle_beta   75.43115763
_cell_angle_gamma   132.05644761
_symmetry_Int_Tables_number   1
_chemical_formula_structural   Ba2Br2O
_chemical_formula_sum   'Ba4 Br4 O2'
_cell_volume   328.62692795
_cell_formula_units_Z   2
loop_
 _symmetry_equiv_pos_site_id
 _symmetry_equiv_pos_as_xyz
  1  'x, y, z'
loop_
 _atom_site_type_symbol
 _atom_site_label
 _atom_site_symmetry_multiplicity
 _atom_site_fract_x
 _atom_site_fract_y
 _atom_site_fract_z
 _atom_site_occupancy
  Ba  Ba0  1  0.40363062  0.31233182  0.71596243  1.0
  Ba  Ba1  1  0.09636938  0.81233182  0.90870120  1.0
  Ba  Ba2  1  0.90363062  1.18766818  1.09129880  1.0
  Ba  Ba3  1  0.59636938  0.68766818  0.28403757  1.0
  Br  Br4  1  0.14672691  0.35604625  0.50277315  1.0
  Br  Br5  1  0.35327309  0.85604625  1.20931934  1.0
  Br  Br6  1  0.64672691  1.14395375  0.79068066  1.0
  Br  Br7  1  0.85327309  0.64395375  0.49722685  1.0
  O  O8  1  0.25000000  0.25000000  0.00000000  1.0
  O  O9  1  0.75000000  0.75000000  0.00000000  1.0
