# generated using pymatgen
data_Ba4Ga2S7
_symmetry_space_group_name_H-M   'P 1'
_cell_length_a   9.13311807
_cell_length_b   7.18898311
_cell_length_c   11.97292781
_cell_angle_alpha   90.00000000
_cell_angle_beta   109.08684730
_cell_angle_gamma   90.00000000
_symmetry_Int_Tables_number   1
_chemical_formula_structural   Ba4Ga2S7
_chemical_formula_sum   'Ba8 Ga4 S14'
_cell_volume   742.89893952
_cell_formula_units_Z   2
loop_
 _symmetry_equiv_pos_site_id
 _symmetry_equiv_pos_as_xyz
  1  'x, y, z'
loop_
 _atom_site_type_symbol
 _atom_site_label
 _atom_site_symmetry_multiplicity
 _atom_site_fract_x
 _atom_site_fract_y
 _atom_site_fract_z
 _atom_site_occupancy
  Ba  Ba0  1  0.99642606  0.25000000  0.11105556  1.0
  Ba  Ba1  1  0.00357394  0.75000000  0.88894444  1.0
  Ba  Ba2  1  0.92438551  0.25000000  0.56792747  1.0
  Ba  Ba3  1  0.07561449  0.75000000  0.43207253  1.0
  Ba  Ba4  1  0.46977992  0.25000000  0.31701213  1.0
  Ba  Ba5  1  0.53022008  0.75000000  0.68298787  1.0
  Ba  Ba6  1  0.36898986  0.25000000  0.88966457  1.0
  Ba  Ba7  1  0.63101014  0.75000000  0.11033543  1.0
  Ga  Ga8  1  0.73140084  0.25000000  0.81174083  1.0
  Ga  Ga9  1  0.26859916  0.75000000  0.18825917  1.0
  Ga  Ga10  1  0.31290383  0.25000000  0.57780108  1.0
  Ga  Ga11  1  0.68709617  0.75000000  0.42219892  1.0
  S  S12  1  0.75924616  0.49742114  0.33582737  1.0
  S  S13  1  0.75924616  0.00257886  0.33582737  1.0
  S  S14  1  0.24075384  0.99742114  0.66417263  1.0
  S  S15  1  0.24075384  0.50257886  0.66417263  1.0
  S  S16  1  0.68448625  0.50097454  0.91142699  1.0
  S  S17  1  0.68448625  -0.00097454  0.91142699  1.0
  S  S18  1  0.31551375  1.00097454  0.08857301  1.0
  S  S19  1  0.31551375  0.49902546  0.08857301  1.0
  S  S20  1  0.99046244  0.25000000  0.84287587  1.0
  S  S21  1  0.00953756  0.75000000  0.15712413  1.0
  S  S22  1  0.58314232  0.25000000  0.61026707  1.0
  S  S23  1  0.41685768  0.75000000  0.38973293  1.0
  S  S24  1  0.16397272  0.25000000  0.38443508  1.0
  S  S25  1  0.83602728  0.75000000  0.61556492  1.0
