# generated using pymatgen
data_BeZn13
_symmetry_space_group_name_H-M   'P 1'
_cell_length_a   8.63310511
_cell_length_b   8.63310511
_cell_length_c   8.63310511
_cell_angle_alpha   60.00000000
_cell_angle_beta   60.00000000
_cell_angle_gamma   60.00000000
_symmetry_Int_Tables_number   1
_chemical_formula_structural   BeZn13
_chemical_formula_sum   'Be2 Zn26'
_cell_volume   454.97348566
_cell_formula_units_Z   2
loop_
 _symmetry_equiv_pos_site_id
 _symmetry_equiv_pos_as_xyz
  1  'x, y, z'
loop_
 _atom_site_type_symbol
 _atom_site_label
 _atom_site_symmetry_multiplicity
 _atom_site_fract_x
 _atom_site_fract_y
 _atom_site_fract_z
 _atom_site_occupancy
  Be  Be0  1  -0.25000000  0.75000000  0.75000000  1.0
  Be  Be1  1  0.25000000  1.25000000  0.25000000  1.0
  Zn  Zn2  1  1.00000000  -0.00000000  0.00000000  1.0
  Zn  Zn3  1  0.50000000  0.50000000  -0.50000000  1.0
  Zn  Zn4  1  0.30176019  1.06090193  0.69823981  1.0
  Zn  Zn5  1  -0.30176019  0.93909807  0.30176019  1.0
  Zn  Zn6  1  0.06090193  1.30176019  -0.06090193  1.0
  Zn  Zn7  1  -0.06090193  0.69823981  1.06090193  1.0
  Zn  Zn8  1  -0.19823981  1.43909807  0.19823981  1.0
  Zn  Zn9  1  0.19823981  0.56090193  0.80176019  1.0
  Zn  Zn10  1  0.43909807  0.80176019  0.56090193  1.0
  Zn  Zn11  1  -0.43909807  1.19823981  0.43909807  1.0
  Zn  Zn12  1  0.69823981  0.30176019  1.06090193  1.0
  Zn  Zn13  1  0.30176019  0.69823981  0.93909807  1.0
  Zn  Zn14  1  -0.06090193  1.06090193  0.30176019  1.0
  Zn  Zn15  1  0.06090193  0.93909807  0.69823981  1.0
  Zn  Zn16  1  0.19823981  0.80176019  0.43909807  1.0
  Zn  Zn17  1  -0.19823981  1.19823981  0.56090193  1.0
  Zn  Zn18  1  0.56090193  0.43909807  0.80176019  1.0
  Zn  Zn19  1  0.43909807  0.56090193  1.19823981  1.0
  Zn  Zn20  1  1.06090193  -0.30176019  0.30176019  1.0
  Zn  Zn21  1  0.93909807  0.30176019  -0.30176019  1.0
  Zn  Zn22  1  1.30176019  -0.06090193  0.06090193  1.0
  Zn  Zn23  1  0.69823981  0.06090193  -0.06090193  1.0
  Zn  Zn24  1  1.43909807  0.19823981  -0.19823981  1.0
  Zn  Zn25  1  0.56090193  -0.19823981  0.19823981  1.0
  Zn  Zn26  1  0.80176019  -0.43909807  0.43909807  1.0
  Zn  Zn27  1  1.19823981  0.43909807  -0.43909807  1.0
