# generated using pymatgen
data_Rb2Mo3SeO12
_symmetry_space_group_name_H-M   'P 1'
_cell_length_a   7.37550792
_cell_length_b   7.37550792
_cell_length_c   12.53271020
_cell_angle_alpha   90.00000000
_cell_angle_beta   90.00000000
_cell_angle_gamma   120.00000000
_symmetry_Int_Tables_number   1
_chemical_formula_structural   Rb2Mo3SeO12
_chemical_formula_sum   'Rb4 Mo6 Se2 O24'
_cell_volume   590.41787341
_cell_formula_units_Z   2
loop_
 _symmetry_equiv_pos_site_id
 _symmetry_equiv_pos_as_xyz
  1  'x, y, z'
loop_
 _atom_site_type_symbol
 _atom_site_label
 _atom_site_symmetry_multiplicity
 _atom_site_fract_x
 _atom_site_fract_y
 _atom_site_fract_z
 _atom_site_occupancy
  Rb  Rb0  1  0.33333333  0.66666667  0.05817156  1.0
  Rb  Rb1  1  0.66666667  0.33333333  0.55817156  1.0
  Rb  Rb2  1  0.33333333  0.66666667  0.45289676  1.0
  Rb  Rb3  1  0.66666667  0.33333333  0.95289676  1.0
  Mo  Mo4  1  0.79476894  0.66082790  0.23088020  1.0
  Mo  Mo5  1  0.66082790  0.86605896  0.73088020  1.0
  Mo  Mo6  1  0.86605896  0.20523106  0.23088020  1.0
  Mo  Mo7  1  0.33917210  0.13394104  0.23088020  1.0
  Mo  Mo8  1  0.20523106  0.33917210  0.73088020  1.0
  Mo  Mo9  1  0.13394104  0.79476894  0.73088020  1.0
  Se  Se10  1  0.00000000  0.00000000  0.00637320  1.0
  Se  Se11  1  0.00000000  0.00000000  0.50637320  1.0
  O  O12  1  0.12183966  0.87168020  0.24195580  1.0
  O  O13  1  0.87168020  0.74984054  0.74195580  1.0
  O  O14  1  0.74984054  0.87816034  0.24195580  1.0
  O  O15  1  0.12831980  0.25015946  0.24195580  1.0
  O  O16  1  0.87816034  0.12831980  0.74195580  1.0
  O  O17  1  0.25015946  0.12183966  0.74195580  1.0
  O  O18  1  0.88142128  0.75242206  0.06367586  1.0
  O  O19  1  0.75242206  0.87100078  0.56367586  1.0
  O  O20  1  0.87100078  0.11857872  0.06367586  1.0
  O  O21  1  0.24757794  0.12899922  0.06367586  1.0
  O  O22  1  0.11857872  0.24757794  0.56367586  1.0
  O  O23  1  0.12899922  0.88142128  0.56367586  1.0
  O  O24  1  0.79713351  0.59758504  0.36324879  1.0
  O  O25  1  0.59758504  0.80045153  0.86324879  1.0
  O  O26  1  0.80045153  0.20286649  0.36324879  1.0
  O  O27  1  0.40241496  0.19954847  0.36324879  1.0
  O  O28  1  0.20286649  0.40241496  0.86324879  1.0
  O  O29  1  0.19954847  0.79713351  0.86324879  1.0
  O  O30  1  0.54003366  0.45331094  0.18629219  1.0
  O  O31  1  0.45331094  0.91327729  0.68629219  1.0
  O  O32  1  0.91327729  0.45996634  0.18629219  1.0
  O  O33  1  0.54668906  0.08672271  0.18629219  1.0
  O  O34  1  0.45996634  0.54668906  0.68629219  1.0
  O  O35  1  0.08672271  0.54003366  0.68629219  1.0
