# generated using pymatgen
data_CsTe4
_symmetry_space_group_name_H-M   'P 1'
_cell_length_a   8.18006864
_cell_length_b   7.34461579
_cell_length_c   14.17069875
_cell_angle_alpha   90.00000000
_cell_angle_beta   93.64759462
_cell_angle_gamma   90.00000000
_symmetry_Int_Tables_number   1
_chemical_formula_structural   CsTe4
_chemical_formula_sum   'Cs4 Te16'
_cell_volume   849.64326824
_cell_formula_units_Z   4
loop_
 _symmetry_equiv_pos_site_id
 _symmetry_equiv_pos_as_xyz
  1  'x, y, z'
loop_
 _atom_site_type_symbol
 _atom_site_label
 _atom_site_symmetry_multiplicity
 _atom_site_fract_x
 _atom_site_fract_y
 _atom_site_fract_z
 _atom_site_occupancy
  Cs  Cs0  1  0.64222284  0.87899407  0.35272211  1.0
  Cs  Cs1  1  0.64222284  0.62100593  0.85272211  1.0
  Cs  Cs2  1  0.35777716  0.37899407  0.14727789  1.0
  Cs  Cs3  1  0.35777716  0.12100593  0.64727789  1.0
  Te  Te4  1  0.96691327  0.69472439  0.06501006  1.0
  Te  Te5  1  0.96691327  0.80527561  0.56501006  1.0
  Te  Te6  1  0.03308673  0.19472439  0.43498994  1.0
  Te  Te7  1  0.03308673  0.30527561  0.93498994  1.0
  Te  Te8  1  0.87972721  0.06070280  0.12590983  1.0
  Te  Te9  1  0.87972721  0.43929720  0.62590983  1.0
  Te  Te10  1  0.12027279  0.56070280  0.37409017  1.0
  Te  Te11  1  0.12027279  0.93929720  0.87409017  1.0
  Te  Te12  1  0.84964452  0.48337848  0.21226863  1.0
  Te  Te13  1  0.84964452  0.01662152  0.71226863  1.0
  Te  Te14  1  0.15035548  0.98337848  0.28773137  1.0
  Te  Te15  1  0.15035548  0.51662152  0.78773137  1.0
  Te  Te16  1  0.62871732  0.39099794  0.46732169  1.0
  Te  Te17  1  0.62871732  0.10900206  0.96732169  1.0
  Te  Te18  1  0.37128268  0.89099794  0.03267831  1.0
  Te  Te19  1  0.37128268  0.60900206  0.53267831  1.0
