# generated using pymatgen
data_Na5Sc(C2O7)2
_symmetry_space_group_name_H-M   'P 1'
_cell_length_a   7.42793222
_cell_length_b   7.42793222
_cell_length_c   11.57997351
_cell_angle_alpha   90.00000000
_cell_angle_beta   90.00000000
_cell_angle_gamma   90.00000000
_symmetry_Int_Tables_number   1
_chemical_formula_structural   Na5Sc(C2O7)2
_chemical_formula_sum   'Na10 Sc2 C8 O28'
_cell_volume   638.91550928
_cell_formula_units_Z   2
loop_
 _symmetry_equiv_pos_site_id
 _symmetry_equiv_pos_as_xyz
  1  'x, y, z'
loop_
 _atom_site_type_symbol
 _atom_site_label
 _atom_site_symmetry_multiplicity
 _atom_site_fract_x
 _atom_site_fract_y
 _atom_site_fract_z
 _atom_site_occupancy
  O  O0  1  0.42183082  0.31865589  0.35726030  1.0
  O  O1  1  0.07816918  0.81865589  0.14273970  1.0
  O  O2  1  0.68134411  0.42183082  0.64273970  1.0
  O  O3  1  0.81865589  0.92183082  0.85726030  1.0
  O  O4  1  0.57816918  0.68134411  0.35726030  1.0
  O  O5  1  0.92183082  0.18134411  0.14273970  1.0
  O  O6  1  0.31865589  0.57816918  0.64273970  1.0
  O  O7  1  0.18134411  0.07816918  0.85726030  1.0
  O  O8  1  0.25098738  0.07116519  0.38578533  1.0
  O  O9  1  0.24901262  0.57116519  0.11421467  1.0
  O  O10  1  0.92883481  0.25098738  0.61421467  1.0
  O  O11  1  0.57116519  0.75098738  0.88578533  1.0
  O  O12  1  0.74901262  0.92883481  0.38578533  1.0
  O  O13  1  0.75098738  0.42883481  0.11421467  1.0
  O  O14  1  0.07116519  0.74901262  0.61421467  1.0
  O  O15  1  0.42883481  0.24901262  0.88578533  1.0
  O  O16  1  0.00000000  0.50000000  0.32812901  1.0
  O  O17  1  0.50000000  0.00000000  0.17187099  1.0
  O  O18  1  0.50000000  0.00000000  0.67187099  1.0
  O  O19  1  0.00000000  0.50000000  0.82812901  1.0
  O  O20  1  0.26601573  0.13573350  0.03573020  1.0
  O  O21  1  0.23398427  0.63573350  0.46426980  1.0
  O  O22  1  0.86426650  0.26601573  0.96426980  1.0
  O  O23  1  0.63573350  0.76601573  0.53573020  1.0
  O  O24  1  0.73398427  0.86426650  0.03573020  1.0
  O  O25  1  0.76601573  0.36426650  0.46426980  1.0
  O  O26  1  0.13573350  0.73398427  0.96426980  1.0
  O  O27  1  0.36426650  0.23398427  0.53573020  1.0
  Na  Na28  1  0.20491630  0.29102148  0.21003049  1.0
  Na  Na29  1  0.29508370  0.79102148  0.28996951  1.0
  Na  Na30  1  0.70897852  0.20491630  0.78996951  1.0
  Na  Na31  1  0.79102148  0.70491630  0.71003049  1.0
  Na  Na32  1  0.79508370  0.70897852  0.21003049  1.0
  Na  Na33  1  0.70491630  0.20897852  0.28996951  1.0
  Na  Na34  1  0.29102148  0.79508370  0.78996951  1.0
  Na  Na35  1  0.20897852  0.29508370  0.71003049  1.0
  Na  Na36  1  0.50000000  0.50000000  0.00000000  1.0
  Na  Na37  1  0.00000000  0.00000000  0.50000000  1.0
  C  C38  1  0.34329052  0.20076019  0.42561730  1.0
  C  C39  1  0.15670948  0.70076019  0.07438270  1.0
  C  C40  1  0.79923981  0.34329052  0.57438270  1.0
  C  C41  1  0.70076019  0.84329052  0.92561730  1.0
  C  C42  1  0.65670948  0.79923981  0.42561730  1.0
  C  C43  1  0.84329052  0.29923981  0.07438270  1.0
  C  C44  1  0.20076019  0.65670948  0.57438270  1.0
  C  C45  1  0.29923981  0.15670948  0.92561730  1.0
  Sc  Sc46  1  0.50000000  0.50000000  0.50000000  1.0
  Sc  Sc47  1  0.00000000  0.00000000  0.00000000  1.0
