# generated using pymatgen
data_LaSiAs3
_symmetry_space_group_name_H-M   'P 1'
_cell_length_a   5.95585068
_cell_length_b   26.64044024
_cell_length_c   6.04515445
_cell_angle_alpha   90.00000000
_cell_angle_beta   90.00000000
_cell_angle_gamma   90.00000000
_symmetry_Int_Tables_number   1
_chemical_formula_structural   LaSiAs3
_chemical_formula_sum   'La8 Si8 As24'
_cell_volume   959.16340297
_cell_formula_units_Z   8
loop_
 _symmetry_equiv_pos_site_id
 _symmetry_equiv_pos_as_xyz
  1  'x, y, z'
loop_
 _atom_site_type_symbol
 _atom_site_label
 _atom_site_symmetry_multiplicity
 _atom_site_fract_x
 _atom_site_fract_y
 _atom_site_fract_z
 _atom_site_occupancy
  La  La0  1  0.49857455  0.40981532  1.00066345  1.0
  La  La1  1  0.49857455  0.09018468  0.50066345  1.0
  La  La2  1  0.99857455  0.40981532  0.49933655  1.0
  La  La3  1  0.99857455  0.09018468  -0.00066345  1.0
  La  La4  1  0.50142545  0.90981532  0.49933655  1.0
  La  La5  1  0.50142545  0.59018468  -0.00066345  1.0
  La  La6  1  0.00142545  0.90981532  1.00066345  1.0
  La  La7  1  0.00142545  0.59018468  0.50066345  1.0
  Si  Si8  1  0.08929063  0.29299402  0.08804971  1.0
  Si  Si9  1  0.08929063  0.20700598  0.58804971  1.0
  Si  Si10  1  0.58929063  0.29299402  0.41195029  1.0
  Si  Si11  1  0.58929063  0.20700598  0.91195029  1.0
  Si  Si12  1  0.91070937  0.79299402  0.41195029  1.0
  Si  Si13  1  0.91070937  0.70700598  0.91195029  1.0
  Si  Si14  1  0.41070937  0.79299402  0.08804971  1.0
  Si  Si15  1  0.41070937  0.70700598  0.58804971  1.0
  As  As16  1  0.49688904  0.37551832  0.50445196  1.0
  As  As17  1  0.49688904  0.12448168  0.00445196  1.0
  As  As18  1  0.99688904  0.37551832  0.99554804  1.0
  As  As19  1  0.99688904  0.12448168  0.49554804  1.0
  As  As20  1  0.50311096  0.87551832  0.99554804  1.0
  As  As21  1  0.50311096  0.62448168  0.49554804  1.0
  As  As22  1  0.00311096  0.87551832  0.50445196  1.0
  As  As23  1  0.00311096  0.62448168  0.00445196  1.0
  As  As24  1  0.48679274  0.28933064  0.03463740  1.0
  As  As25  1  0.48679274  0.21066936  0.53463740  1.0
  As  As26  1  0.98679274  0.28933064  0.46536260  1.0
  As  As27  1  0.98679274  0.21066936  0.96536260  1.0
  As  As28  1  0.51320726  0.78933064  0.46536260  1.0
  As  As29  1  0.51320726  0.71066936  0.96536260  1.0
  As  As30  1  0.01320726  0.78933064  0.03463740  1.0
  As  As31  1  0.01320726  0.71066936  0.53463740  1.0
  As  As32  1  0.25047859  0.00023563  0.24944846  1.0
  As  As33  1  0.25047859  0.49976437  0.74944846  1.0
  As  As34  1  0.75047859  0.00023563  0.25055154  1.0
  As  As35  1  0.75047859  0.49976437  0.75055154  1.0
  As  As36  1  0.74952141  0.50023563  0.25055154  1.0
  As  As37  1  0.74952141  0.99976437  0.75055154  1.0
  As  As38  1  0.24952141  0.50023563  0.24944846  1.0
  As  As39  1  0.24952141  0.99976437  0.74944846  1.0
