# generated using pymatgen
data_Zr13Os4
_symmetry_space_group_name_H-M   'P 1'
_cell_length_a   12.05493537
_cell_length_b   12.05493537
_cell_length_c   12.05493537
_cell_angle_alpha   60.00000000
_cell_angle_beta   60.00000000
_cell_angle_gamma   60.00000000
_symmetry_Int_Tables_number   1
_chemical_formula_structural   Zr13Os4
_chemical_formula_sum   'Zr26 Os8'
_cell_volume   1238.73857282
_cell_formula_units_Z   2
loop_
 _symmetry_equiv_pos_site_id
 _symmetry_equiv_pos_as_xyz
  1  'x, y, z'
loop_
 _atom_site_type_symbol
 _atom_site_label
 _atom_site_symmetry_multiplicity
 _atom_site_fract_x
 _atom_site_fract_y
 _atom_site_fract_z
 _atom_site_occupancy
  Zr  Zr0  1  0.92442069  -0.53521888  0.68637749  1.0
  Zr  Zr1  1  -0.07557931  0.68637749  0.46478112  1.0
  Zr  Zr2  1  -0.21478112  0.32557931  0.32557931  1.0
  Zr  Zr3  1  0.56362251  0.32557931  0.32557931  1.0
  Zr  Zr4  1  -0.53521888  0.92442069  0.68637749  1.0
  Zr  Zr5  1  0.92442069  -0.07557931  0.68637749  1.0
  Zr  Zr6  1  0.92442069  -0.31362251  0.92442069  1.0
  Zr  Zr7  1  -0.53521888  0.68637749  0.92442069  1.0
  Zr  Zr8  1  0.32557931  -0.21478112  0.32557931  1.0
  Zr  Zr9  1  0.32557931  0.32557931  -0.21478112  1.0
  Zr  Zr10  1  0.56362251  0.32557931  -0.21478112  1.0
  Zr  Zr11  1  0.56362251  -0.21478112  0.32557931  1.0
  Zr  Zr12  1  0.68637749  -0.07557931  0.92442069  1.0
  Zr  Zr13  1  -0.53521888  0.92442069  0.92442069  1.0
  Zr  Zr14  1  0.32557931  0.56362251  -0.21478112  1.0
  Zr  Zr15  1  0.32557931  -0.21478112  0.56362251  1.0
  Zr  Zr16  1  -0.31362251  0.92442069  0.46478112  1.0
  Zr  Zr17  1  0.68637749  -0.53521888  0.92442069  1.0
  Zr  Zr18  1  0.92442069  -0.53521888  0.92442069  1.0
  Zr  Zr19  1  -0.07557931  0.92442069  0.46478112  1.0
  Zr  Zr20  1  0.32557931  0.56362251  0.32557931  1.0
  Zr  Zr21  1  -0.21478112  0.56362251  0.32557931  1.0
  Zr  Zr22  1  -0.21478112  0.32557931  0.56362251  1.0
  Zr  Zr23  1  0.32557931  0.32557931  0.56362251  1.0
  Zr  Zr24  1  0.50000000  0.50000000  -0.50000000  1.0
  Zr  Zr25  1  0.75000000  -0.25000000  0.75000000  1.0
  Os  Os26  1  0.66478212  -0.33521788  1.00565364  1.0
  Os  Os27  1  0.66478212  0.00565364  0.66478212  1.0
  Os  Os28  1  0.58521788  -0.41478212  0.58521788  1.0
  Os  Os29  1  1.24434636  -0.41478212  0.58521788  1.0
  Os  Os30  1  1.00565364  -0.33521788  0.66478212  1.0
  Os  Os31  1  0.66478212  -0.33521788  0.66478212  1.0
  Os  Os32  1  0.58521788  0.24434636  0.58521788  1.0
  Os  Os33  1  0.58521788  -0.41478212  1.24434636  1.0
