# generated using pymatgen
data_Y4CdRu
_symmetry_space_group_name_H-M   'P 1'
_cell_length_a   9.64315644
_cell_length_b   9.64315644
_cell_length_c   9.64315644
_cell_angle_alpha   60.00000000
_cell_angle_beta   60.00000000
_cell_angle_gamma   60.00000000
_symmetry_Int_Tables_number   1
_chemical_formula_structural   Y4CdRu
_chemical_formula_sum   'Y16 Cd4 Ru4'
_cell_volume   634.07793365
_cell_formula_units_Z   4
loop_
 _symmetry_equiv_pos_site_id
 _symmetry_equiv_pos_as_xyz
  1  'x, y, z'
loop_
 _atom_site_type_symbol
 _atom_site_label
 _atom_site_symmetry_multiplicity
 _atom_site_fract_x
 _atom_site_fract_y
 _atom_site_fract_z
 _atom_site_occupancy
  Y  Y0  1  0.06123519  0.43876481  0.43876481  1.0
  Y  Y1  1  0.43876481  0.43876481  0.06123519  1.0
  Y  Y2  1  0.43876481  0.06123519  0.43876481  1.0
  Y  Y3  1  0.06123519  0.06123519  0.43876481  1.0
  Y  Y4  1  0.06123519  0.43876481  0.06123519  1.0
  Y  Y5  1  0.43876481  0.06123519  0.06123519  1.0
  Y  Y6  1  -0.81042652  0.81042652  0.81042652  1.0
  Y  Y7  1  -0.18957348  0.81042652  0.18957348  1.0
  Y  Y8  1  -0.18957348  0.18957348  0.81042652  1.0
  Y  Y9  1  0.18957348  1.18957348  -0.18957348  1.0
  Y  Y10  1  0.18957348  -0.18957348  0.18957348  1.0
  Y  Y11  1  -0.18957348  0.18957348  0.18957348  1.0
  Y  Y12  1  -0.34641496  0.65358504  0.65358504  1.0
  Y  Y13  1  1.03924488  0.65358504  -0.34641496  1.0
  Y  Y14  1  -0.34641496  0.65358504  1.03924488  1.0
  Y  Y15  1  0.65358504  1.03924488  -0.34641496  1.0
  Cd  Cd16  1  0.41988008  1.41988008  0.41988008  1.0
  Cd  Cd17  1  -0.25964025  0.41988008  0.41988008  1.0
  Cd  Cd18  1  0.41988008  1.41988008  -0.25964025  1.0
  Cd  Cd19  1  0.41988008  -0.25964025  0.41988008  1.0
  Ru  Ru20  1  0.86084056  0.86084056  -0.13915944  1.0
  Ru  Ru21  1  0.41747831  0.86084056  -0.13915944  1.0
  Ru  Ru22  1  0.86084056  0.86084056  -0.58252169  1.0
  Ru  Ru23  1  0.86084056  0.41747831  -0.13915944  1.0
