# generated using pymatgen
data_Ba3Nb2(P2O9)2
_symmetry_space_group_name_H-M   'P 1'
_cell_length_a   9.64173842
_cell_length_b   9.12867936
_cell_length_c   5.03156356
_cell_angle_alpha   101.66244542
_cell_angle_beta   99.68442924
_cell_angle_gamma   87.13392514
_symmetry_Int_Tables_number   1
_chemical_formula_structural   Ba3Nb2(P2O9)2
_chemical_formula_sum   'Ba3 Nb2 P4 O18'
_cell_volume   427.47768688
_cell_formula_units_Z   1
loop_
 _symmetry_equiv_pos_site_id
 _symmetry_equiv_pos_as_xyz
  1  'x, y, z'
loop_
 _atom_site_type_symbol
 _atom_site_label
 _atom_site_symmetry_multiplicity
 _atom_site_fract_x
 _atom_site_fract_y
 _atom_site_fract_z
 _atom_site_occupancy
  Ba  Ba0  1  0.40563266  0.77154211  -0.51356207  1.0
  Ba  Ba1  1  0.59436734  0.22845789  -0.48643793  1.0
  Ba  Ba2  1  0.00000000  0.00000000  0.00000000  1.0
  Nb  Nb3  1  0.77116374  0.61854303  -0.23408328  1.0
  Nb  Nb4  1  0.22883626  0.38145697  -0.76591672  1.0
  P  P5  1  0.85672193  0.36960434  -0.80264854  1.0
  P  P6  1  0.14327807  0.63039566  -0.19735146  1.0
  P  P7  1  0.72420099  0.87825821  -0.67474275  1.0
  P  P8  1  0.27579901  0.12174179  -0.32525725  1.0
  O  O9  1  0.75637195  0.24574344  -0.96520905  1.0
  O  O10  1  0.24362805  0.75425656  -0.03479095  1.0
  O  O11  1  0.78772430  0.81145824  -0.94566473  1.0
  O  O12  1  0.21227570  0.18854176  -0.05433527  1.0
  O  O13  1  0.85461989  0.50533176  -0.94999192  1.0
  O  O14  1  0.14538011  0.49466824  -0.05000808  1.0
  O  O15  1  0.57260626  0.93393059  -0.74397784  1.0
  O  O16  1  0.42739374  0.06606941  -0.25602216  1.0
  O  O17  1  0.40611437  0.42129645  -0.76717216  1.0
  O  O18  1  0.59388563  0.57870355  -0.23282784  1.0
  O  O19  1  0.71722410  0.74374207  -0.52246253  1.0
  O  O20  1  0.28277590  0.25625793  -0.47753747  1.0
  O  O21  1  0.80376367  0.43323332  -0.52058549  1.0
  O  O22  1  0.19623633  0.56676668  -0.47941451  1.0
  O  O23  1  0.82327272  1.00119597  -0.50299115  1.0
  O  O24  1  0.17672728  -0.00119597  -0.49700885  1.0
  O  O25  1  0.99074549  0.69031671  -0.25003071  1.0
  O  O26  1  0.00925451  0.30968329  -0.74996929  1.0
