# generated using pymatgen
data_HfSi2
_symmetry_space_group_name_H-M   'P 1'
_cell_length_a   4.95690241
_cell_length_b   4.95690241
_cell_length_c   6.86915064
_cell_angle_alpha   90.00000000
_cell_angle_beta   90.00000000
_cell_angle_gamma   120.00000000
_symmetry_Int_Tables_number   1
_chemical_formula_structural   HfSi2
_chemical_formula_sum   'Hf3 Si6'
_cell_volume   146.16870854
_cell_formula_units_Z   3
loop_
 _symmetry_equiv_pos_site_id
 _symmetry_equiv_pos_as_xyz
  1  'x, y, z'
loop_
 _atom_site_type_symbol
 _atom_site_label
 _atom_site_symmetry_multiplicity
 _atom_site_fract_x
 _atom_site_fract_y
 _atom_site_fract_z
 _atom_site_occupancy
  Hf  Hf0  1  0.50000000  0.50000000  0.83333333  1.0
  Hf  Hf1  1  0.50000000  0.00000000  0.50000000  1.0
  Hf  Hf2  1  -0.00000000  0.50000000  0.16666667  1.0
  Si  Si3  1  0.15936359  0.84063641  0.83333333  1.0
  Si  Si4  1  0.15936359  0.31872719  0.50000000  1.0
  Si  Si5  1  0.68127281  0.84063641  0.16666667  1.0
  Si  Si6  1  0.84063641  0.15936359  0.83333333  1.0
  Si  Si7  1  0.84063641  0.68127281  0.50000000  1.0
  Si  Si8  1  0.31872719  0.15936359  0.16666667  1.0
