# generated using pymatgen
data_Rb5LiSi2NiO8
_symmetry_space_group_name_H-M   'P 1'
_cell_length_a   6.84397620
_cell_length_b   6.84397620
_cell_length_c   13.91192842
_cell_angle_alpha   82.12806624
_cell_angle_beta   97.87193376
_cell_angle_gamma   80.76705969
_symmetry_Int_Tables_number   1
_chemical_formula_structural   Rb5LiSi2NiO8
_chemical_formula_sum   'Rb10 Li2 Si4 Ni2 O16'
_cell_volume   628.65751177
_cell_formula_units_Z   2
loop_
 _symmetry_equiv_pos_site_id
 _symmetry_equiv_pos_as_xyz
  1  'x, y, z'
loop_
 _atom_site_type_symbol
 _atom_site_label
 _atom_site_symmetry_multiplicity
 _atom_site_fract_x
 _atom_site_fract_y
 _atom_site_fract_z
 _atom_site_occupancy
  Rb  Rb0  1  0.40199079  -0.03356724  0.35087612  1.0
  Rb  Rb1  1  1.03356724  0.59800921  0.85087612  1.0
  Rb  Rb2  1  0.96643276  -0.59800921  0.14912388  1.0
  Rb  Rb3  1  1.59800921  0.03356724  0.64912388  1.0
  Rb  Rb4  1  1.46485086  0.23121850  0.07042668  1.0
  Rb  Rb5  1  0.76878150  -0.46485086  0.57042668  1.0
  Rb  Rb6  1  1.23121850  0.46485086  0.42957332  1.0
  Rb  Rb7  1  0.53514914  -0.23121850  0.92957332  1.0
  Rb  Rb8  1  0.86397962  -0.13602038  0.25000000  1.0
  Rb  Rb9  1  1.13602038  0.13602038  0.75000000  1.0
  Li  Li10  1  0.53919815  -0.46080185  0.25000000  1.0
  Li  Li11  1  1.46080185  0.46080185  0.75000000  1.0
  Si  Si12  1  0.27775400  -0.21990335  0.13193510  1.0
  Si  Si13  1  1.21990335  0.72224600  0.63193510  1.0
  Si  Si14  1  0.78009665  -0.72224600  0.36806490  1.0
  Si  Si15  1  1.72224600  0.21990335  0.86806490  1.0
  Ni  Ni16  1  0.00000000  -0.00000000  0.50000000  1.0
  Ni  Ni17  1  0.00000000  -0.00000000  0.00000000  1.0
  O  O18  1  0.84161244  -0.01870199  0.87835039  1.0
  O  O19  1  1.01870199  0.15838756  0.37835039  1.0
  O  O20  1  0.98129801  -0.15838756  0.62164961  1.0
  O  O21  1  1.15838756  0.01870199  0.12164961  1.0
  O  O22  1  0.52070809  -0.24478441  0.13372798  1.0
  O  O23  1  1.24478441  0.47929191  0.63372798  1.0
  O  O24  1  0.75521559  -0.47929191  0.36627202  1.0
  O  O25  1  1.47929191  0.24478441  0.86627202  1.0
  O  O26  1  1.73137934  0.15316928  0.47218484  1.0
  O  O27  1  0.84683072  -0.73137934  0.97218484  1.0
  O  O28  1  1.15316928  0.73137934  0.02781516  1.0
  O  O29  1  0.26862066  -0.15316928  0.52781516  1.0
  O  O30  1  1.63978747  0.24608185  0.26790151  1.0
  O  O31  1  0.75391815  -0.63978747  0.76790151  1.0
  O  O32  1  1.24608185  0.63978747  0.23209849  1.0
  O  O33  1  0.36021253  -0.24608185  0.73209849  1.0
