# generated using pymatgen
data_Sm2CdGe2
_symmetry_space_group_name_H-M   'P 1'
_cell_length_a   7.43429701
_cell_length_b   7.43429701
_cell_length_c   4.49441571
_cell_angle_alpha   90.00000000
_cell_angle_beta   90.00000000
_cell_angle_gamma   90.00000000
_symmetry_Int_Tables_number   1
_chemical_formula_structural   Sm2CdGe2
_chemical_formula_sum   'Sm4 Cd2 Ge4'
_cell_volume   248.40083742
_cell_formula_units_Z   2
loop_
 _symmetry_equiv_pos_site_id
 _symmetry_equiv_pos_as_xyz
  1  'x, y, z'
loop_
 _atom_site_type_symbol
 _atom_site_label
 _atom_site_symmetry_multiplicity
 _atom_site_fract_x
 _atom_site_fract_y
 _atom_site_fract_z
 _atom_site_occupancy
  Sm  Sm0  1  0.32484345  0.17515655  0.50000000  1.0
  Sm  Sm1  1  0.82484345  0.32484345  0.50000000  1.0
  Sm  Sm2  1  0.67515655  0.82484345  0.50000000  1.0
  Sm  Sm3  1  0.17515655  0.67515655  0.50000000  1.0
  Cd  Cd4  1  0.50000000  0.50000000  0.00000000  1.0
  Cd  Cd5  1  0.00000000  0.00000000  0.00000000  1.0
  Ge  Ge6  1  0.87774621  0.62225379  0.00000000  1.0
  Ge  Ge7  1  0.37774621  0.87774621  0.00000000  1.0
  Ge  Ge8  1  0.12225379  0.37774621  0.00000000  1.0
  Ge  Ge9  1  0.62225379  0.12225379  0.00000000  1.0
