# generated using pymatgen
data_SiO2
_symmetry_space_group_name_H-M   'P 1'
_cell_length_a   4.93113608
_cell_length_b   4.93113608
_cell_length_c   4.93113608
_cell_angle_alpha   103.66181682
_cell_angle_beta   102.93773673
_cell_angle_gamma   122.67800885
_symmetry_Int_Tables_number   1
_chemical_formula_structural   SiO2
_chemical_formula_sum   'Si2 O4'
_cell_volume   88.55793184
_cell_formula_units_Z   2
loop_
 _symmetry_equiv_pos_site_id
 _symmetry_equiv_pos_as_xyz
  1  'x, y, z'
loop_
 _atom_site_type_symbol
 _atom_site_label
 _atom_site_symmetry_multiplicity
 _atom_site_fract_x
 _atom_site_fract_y
 _atom_site_fract_z
 _atom_site_occupancy
  Si  Si0  1  0.25000000  0.25000000  0.00000000  1.0
  Si  Si1  1  0.75000000  0.75000000  0.00000000  1.0
  O  O2  1  1.36355461  1.36227644  1.72583105  1.0
  O  O3  1  1.13644539  0.86227644  0.99872182  1.0
  O  O4  1  0.86355461  0.13772356  1.00127818  1.0
  O  O5  1  0.63644539  0.63772356  1.27416895  1.0
