# generated using pymatgen
data_MgMo2O7
_symmetry_space_group_name_H-M   'P 1'
_cell_length_a   8.20988209
_cell_length_b   5.77829692
_cell_length_c   15.53902433
_cell_angle_alpha   90.00000000
_cell_angle_beta   114.50911239
_cell_angle_gamma   90.00000000
_symmetry_Int_Tables_number   1
_chemical_formula_structural   MgMo2O7
_chemical_formula_sum   'Mg4 Mo8 O28'
_cell_volume   670.73650886
_cell_formula_units_Z   4
loop_
 _symmetry_equiv_pos_site_id
 _symmetry_equiv_pos_as_xyz
  1  'x, y, z'
loop_
 _atom_site_type_symbol
 _atom_site_label
 _atom_site_symmetry_multiplicity
 _atom_site_fract_x
 _atom_site_fract_y
 _atom_site_fract_z
 _atom_site_occupancy
  Mg  Mg0  1  0.49282606  0.37100888  0.09127974  1.0
  Mg  Mg1  1  0.49282606  0.12899112  0.59127974  1.0
  Mg  Mg2  1  0.50717394  0.87100888  0.40872026  1.0
  Mg  Mg3  1  0.50717394  0.62899112  0.90872026  1.0
  Mo  Mo4  1  0.79208247  0.86273071  0.12313256  1.0
  Mo  Mo5  1  0.79208247  0.63726929  0.62313256  1.0
  Mo  Mo6  1  0.20791753  0.36273071  0.37686744  1.0
  Mo  Mo7  1  0.20791753  0.13726929  0.87686744  1.0
  Mo  Mo8  1  0.74481280  0.37046312  0.35898163  1.0
  Mo  Mo9  1  0.74481280  0.12953688  0.85898163  1.0
  Mo  Mo10  1  0.25518720  0.87046312  0.14101837  1.0
  Mo  Mo11  1  0.25518720  0.62953688  0.64101837  1.0
  O  O12  1  0.99440075  0.36763458  0.39628758  1.0
  O  O13  1  0.99440075  0.13236542  0.89628758  1.0
  O  O14  1  0.00559925  0.86763458  0.10371242  1.0
  O  O15  1  0.00559925  0.63236542  0.60371242  1.0
  O  O16  1  0.85012975  0.82239519  0.24109631  1.0
  O  O17  1  0.85012975  0.67760481  0.74109631  1.0
  O  O18  1  0.14987025  0.32239519  0.25890369  1.0
  O  O19  1  0.14987025  0.17760481  0.75890369  1.0
  O  O20  1  0.68236747  0.11949569  0.39947302  1.0
  O  O21  1  0.68236747  0.38050431  0.89947302  1.0
  O  O22  1  0.31763253  0.61949569  0.10052698  1.0
  O  O23  1  0.31763253  0.88050431  0.60052698  1.0
  O  O24  1  0.68190709  0.89202853  0.90920643  1.0
  O  O25  1  0.68190709  0.60797147  0.40920643  1.0
  O  O26  1  0.31809291  0.39202853  0.59079357  1.0
  O  O27  1  0.31809291  0.10797147  0.09079357  1.0
  O  O28  1  0.67870500  0.12609365  0.09171618  1.0
  O  O29  1  0.67870500  0.37390635  0.59171618  1.0
  O  O30  1  0.32129500  0.62609365  0.40828382  1.0
  O  O31  1  0.32129500  0.87390635  0.90828382  1.0
  O  O32  1  0.62897292  0.38110990  0.23646626  1.0
  O  O33  1  0.62897292  0.11889010  0.73646626  1.0
  O  O34  1  0.37102708  0.88110990  0.26353374  1.0
  O  O35  1  0.37102708  0.61889010  0.76353374  1.0
  O  O36  1  0.35868834  0.13305954  0.43973539  1.0
  O  O37  1  0.35868834  0.36694046  0.93973539  1.0
  O  O38  1  0.64131166  0.63305954  0.06026461  1.0
  O  O39  1  0.64131166  0.86694046  0.56026461  1.0
