# generated using pymatgen
data_Cu12As4S13
_symmetry_space_group_name_H-M   'P 1'
_cell_length_a   8.86473664
_cell_length_b   8.86473664
_cell_length_c   8.86473664
_cell_angle_alpha   109.47122063
_cell_angle_beta   109.47122063
_cell_angle_gamma   109.47122063
_symmetry_Int_Tables_number   1
_chemical_formula_structural   Cu12As4S13
_chemical_formula_sum   'Cu12 As4 S13'
_cell_volume   536.26027080
_cell_formula_units_Z   1
loop_
 _symmetry_equiv_pos_site_id
 _symmetry_equiv_pos_as_xyz
  1  'x, y, z'
loop_
 _atom_site_type_symbol
 _atom_site_label
 _atom_site_symmetry_multiplicity
 _atom_site_fract_x
 _atom_site_fract_y
 _atom_site_fract_z
 _atom_site_occupancy
  Cu  Cu0  1  0.77811426  0.77811426  -0.00000000  1.0
  Cu  Cu1  1  0.77811426  0.00000000  0.77811426  1.0
  Cu  Cu2  1  0.00000000  0.77811426  0.77811426  1.0
  Cu  Cu3  1  0.22188574  -0.00000000  0.22188574  1.0
  Cu  Cu4  1  0.00000000  0.22188574  0.22188574  1.0
  Cu  Cu5  1  0.22188574  0.22188574  -0.00000000  1.0
  Cu  Cu6  1  0.25000000  0.75000000  0.50000000  1.0
  Cu  Cu7  1  0.75000000  0.25000000  0.50000000  1.0
  Cu  Cu8  1  0.25000000  0.50000000  0.75000000  1.0
  Cu  Cu9  1  0.50000000  0.25000000  0.75000000  1.0
  Cu  Cu10  1  0.75000000  0.50000000  0.25000000  1.0
  Cu  Cu11  1  0.50000000  0.75000000  0.25000000  1.0
  As  As12  1  0.47257438  0.47257438  0.47257438  1.0
  As  As13  1  1.00000000  1.00000000  0.52742562  1.0
  As  As14  1  1.00000000  0.52742562  1.00000000  1.0
  As  As15  1  0.52742562  1.00000000  1.00000000  1.0
  S  S16  1  0.76080678  0.51980994  0.51980994  1.0
  S  S17  1  0.51980994  0.76080678  0.51980994  1.0
  S  S18  1  1.00000000  1.24099684  0.48019006  1.0
  S  S19  1  1.24099684  1.00000000  0.48019006  1.0
  S  S20  1  0.51980994  0.51980994  0.76080678  1.0
  S  S21  1  0.75900316  0.75900316  0.23919322  1.0
  S  S22  1  1.00000000  0.48019006  1.24099684  1.0
  S  S23  1  0.75900316  0.23919322  0.75900316  1.0
  S  S24  1  0.23919322  0.75900316  0.75900316  1.0
  S  S25  1  0.48019006  1.00000000  1.24099684  1.0
  S  S26  1  1.24099684  0.48019006  1.00000000  1.0
  S  S27  1  0.48019006  1.24099684  1.00000000  1.0
  S  S28  1  -0.00000000  -0.00000000  -0.00000000  1.0
