# generated using pymatgen
data_LaAs2Au
_symmetry_space_group_name_H-M   'P 1'
_cell_length_a   10.82385218
_cell_length_b   10.82385218
_cell_length_c   10.82385218
_cell_angle_alpha   157.78629235
_cell_angle_beta   157.78629235
_cell_angle_gamma   31.61821339
_symmetry_Int_Tables_number   1
_chemical_formula_structural   LaAs2Au
_chemical_formula_sum   'La2 As4 Au2'
_cell_volume   181.11294333
_cell_formula_units_Z   2
loop_
 _symmetry_equiv_pos_site_id
 _symmetry_equiv_pos_as_xyz
  1  'x, y, z'
loop_
 _atom_site_type_symbol
 _atom_site_label
 _atom_site_symmetry_multiplicity
 _atom_site_fract_x
 _atom_site_fract_y
 _atom_site_fract_z
 _atom_site_occupancy
  La  La0  1  0.88384722  0.88384722  1.00000000  1.0
  La  La1  1  0.11615278  0.11615278  0.00000000  1.0
  As  As2  1  0.66269545  0.66269545  1.00000000  1.0
  As  As3  1  0.33730455  0.33730455  0.00000000  1.0
  As  As4  1  0.50000000  0.00000000  0.50000000  1.0
  As  As5  1  0.00000000  0.50000000  0.50000000  1.0
  Au  Au6  1  0.25000000  0.75000000  0.50000000  1.0
  Au  Au7  1  0.75000000  0.25000000  0.50000000  1.0
