# generated using pymatgen
data_InSiTe3
_symmetry_space_group_name_H-M   'P 1'
_cell_length_a   7.44469227
_cell_length_b   7.44469227
_cell_length_c   5.87541394
_cell_angle_alpha   90.00000000
_cell_angle_beta   90.00000000
_cell_angle_gamma   120.00000000
_symmetry_Int_Tables_number   1
_chemical_formula_structural   InSiTe3
_chemical_formula_sum   'In1 Si1 Te3'
_cell_volume   282.00876277
_cell_formula_units_Z   1
loop_
 _symmetry_equiv_pos_site_id
 _symmetry_equiv_pos_as_xyz
  1  'x, y, z'
loop_
 _atom_site_type_symbol
 _atom_site_label
 _atom_site_symmetry_multiplicity
 _atom_site_fract_x
 _atom_site_fract_y
 _atom_site_fract_z
 _atom_site_occupancy
  In  In0  1  0.33333333  0.66666667  0.31011484  1.0
  Si  Si1  1  -0.00000000  -0.00000000  0.30765875  1.0
  Te  Te2  1  -0.08859423  0.63426039  0.30747213  1.0
  Te  Te3  1  0.36573961  0.27714537  0.30747213  1.0
  Te  Te4  1  0.72285463  1.08859423  0.30747213  1.0
