# generated using pymatgen
data_Tc7B3
_symmetry_space_group_name_H-M   'P 1'
_cell_length_a   7.49157089
_cell_length_b   7.49157089
_cell_length_c   4.85321849
_cell_angle_alpha   90.00000000
_cell_angle_beta   90.00000000
_cell_angle_gamma   120.00000000
_symmetry_Int_Tables_number   1
_chemical_formula_structural   Tc7B3
_chemical_formula_sum   'Tc14 B6'
_cell_volume   235.88822487
_cell_formula_units_Z   2
loop_
 _symmetry_equiv_pos_site_id
 _symmetry_equiv_pos_as_xyz
  1  'x, y, z'
loop_
 _atom_site_type_symbol
 _atom_site_label
 _atom_site_symmetry_multiplicity
 _atom_site_fract_x
 _atom_site_fract_y
 _atom_site_fract_z
 _atom_site_occupancy
  Tc  Tc0  1  0.90870558  0.45435279  0.02964318  1.0
  Tc  Tc1  1  0.45435279  0.90870558  0.52964318  1.0
  Tc  Tc2  1  0.45435279  0.54564721  0.52964318  1.0
  Tc  Tc3  1  0.54564721  0.45435279  0.02964318  1.0
  Tc  Tc4  1  0.54564721  0.09129442  0.02964318  1.0
  Tc  Tc5  1  0.09129442  0.54564721  0.52964318  1.0
  Tc  Tc6  1  0.24724377  0.12362188  0.32392581  1.0
  Tc  Tc7  1  0.12362188  0.24724377  0.82392581  1.0
  Tc  Tc8  1  0.12362188  0.87637812  0.82392581  1.0
  Tc  Tc9  1  0.87637812  0.12362188  0.32392581  1.0
  Tc  Tc10  1  0.87637812  0.75275623  0.32392581  1.0
  Tc  Tc11  1  0.75275623  0.87637812  0.82392581  1.0
  Tc  Tc12  1  0.33333333  0.66666667  -0.00491805  1.0
  Tc  Tc13  1  0.66666667  0.33333333  0.49508195  1.0
  B  B14  1  0.62104617  0.81052309  0.23807036  1.0
  B  B15  1  0.81052309  0.62104617  0.73807036  1.0
  B  B16  1  0.81052309  0.18947691  0.73807036  1.0
  B  B17  1  0.18947691  0.81052309  0.23807036  1.0
  B  B18  1  0.18947691  0.37895383  0.23807036  1.0
  B  B19  1  0.37895383  0.18947691  0.73807036  1.0
