# generated using pymatgen
data_Rb2EuF5
_symmetry_space_group_name_H-M   'P 1'
_cell_length_a   11.56245905
_cell_length_b   6.98813318
_cell_length_c   7.68148010
_cell_angle_alpha   90.00000000
_cell_angle_beta   90.00000000
_cell_angle_gamma   90.00000000
_symmetry_Int_Tables_number   1
_chemical_formula_structural   Rb2EuF5
_chemical_formula_sum   'Rb8 Eu4 F20'
_cell_volume   620.66362051
_cell_formula_units_Z   4
loop_
 _symmetry_equiv_pos_site_id
 _symmetry_equiv_pos_as_xyz
  1  'x, y, z'
loop_
 _atom_site_type_symbol
 _atom_site_label
 _atom_site_symmetry_multiplicity
 _atom_site_fract_x
 _atom_site_fract_y
 _atom_site_fract_z
 _atom_site_occupancy
  Rb  Rb0  1  0.32971320  0.03268392  0.52063458  1.0
  Rb  Rb1  1  0.82971320  0.46731608  0.52063458  1.0
  Rb  Rb2  1  0.67028680  0.96731608  0.02063458  1.0
  Rb  Rb3  1  0.17028680  0.53268392  0.02063458  1.0
  Rb  Rb4  1  0.17019764  0.53280032  0.51606726  1.0
  Rb  Rb5  1  0.67019764  0.96719968  0.51606726  1.0
  Rb  Rb6  1  0.82980236  0.46719968  0.01606726  1.0
  Rb  Rb7  1  0.32980236  0.03280032  0.01606726  1.0
  Eu  Eu8  1  -0.00105785  0.94387184  0.76838575  1.0
  Eu  Eu9  1  0.49894215  0.55612816  0.76838575  1.0
  Eu  Eu10  1  1.00105785  0.05612816  0.26838575  1.0
  Eu  Eu11  1  0.50105785  0.44387184  0.26838575  1.0
  F  F12  1  0.48588059  0.88184833  0.76843220  1.0
  F  F13  1  0.98588059  0.61815167  0.76843220  1.0
  F  F14  1  0.51411941  0.11815167  0.26843220  1.0
  F  F15  1  0.01411941  0.38184833  0.26843220  1.0
  F  F16  1  0.42505661  0.64233440  0.05044389  1.0
  F  F17  1  0.92505661  0.85766560  0.05044389  1.0
  F  F18  1  0.57494339  0.35766560  0.55044389  1.0
  F  F19  1  0.07494339  0.14233440  0.55044389  1.0
  F  F20  1  0.42514614  0.64244111  0.48632826  1.0
  F  F21  1  0.92514614  0.85755889  0.48632826  1.0
  F  F22  1  0.57485386  0.35755889  -0.01367174  1.0
  F  F23  1  0.07485386  0.14244111  -0.01367174  1.0
  F  F24  1  0.18563730  0.84483278  0.76841045  1.0
  F  F25  1  0.68563730  0.65516722  0.76841045  1.0
  F  F26  1  0.81436270  0.15516722  0.26841045  1.0
  F  F27  1  0.31436270  0.34483278  0.26841045  1.0
  F  F28  1  0.16397190  0.87702596  0.26829761  1.0
  F  F29  1  0.66397190  0.62297404  0.26829761  1.0
  F  F30  1  0.83602810  0.12297404  0.76829761  1.0
  F  F31  1  0.33602810  0.37702596  0.76829761  1.0
