# generated using pymatgen
data_CrAsRh
_symmetry_space_group_name_H-M   'P 1'
_cell_length_a   6.50327076
_cell_length_b   6.50327076
_cell_length_c   3.72794097
_cell_angle_alpha   90.00000000
_cell_angle_beta   90.00000000
_cell_angle_gamma   120.00000000
_symmetry_Int_Tables_number   1
_chemical_formula_structural   CrAsRh
_chemical_formula_sum   'Cr3 As3 Rh3'
_cell_volume   136.54107902
_cell_formula_units_Z   3
loop_
 _symmetry_equiv_pos_site_id
 _symmetry_equiv_pos_as_xyz
  1  'x, y, z'
loop_
 _atom_site_type_symbol
 _atom_site_label
 _atom_site_symmetry_multiplicity
 _atom_site_fract_x
 _atom_site_fract_y
 _atom_site_fract_z
 _atom_site_occupancy
  Rh  Rh0  1  0.74560527  0.74560527  0.50000000  1.0
  Rh  Rh1  1  0.00000000  0.25439473  0.50000000  1.0
  Rh  Rh2  1  0.25439473  0.00000000  0.50000000  1.0
  As  As3  1  0.00000000  0.00000000  0.00000000  1.0
  As  As4  1  0.33333333  0.66666667  0.50000000  1.0
  As  As5  1  0.66666667  0.33333333  0.50000000  1.0
  Cr  Cr6  1  0.40757870  0.40757870  0.00000000  1.0
  Cr  Cr7  1  -0.00000000  0.59242130  0.00000000  1.0
  Cr  Cr8  1  0.59242130  0.00000000  0.00000000  1.0
