# generated using pymatgen
data_K2Ni3S2
_symmetry_space_group_name_H-M   'P 1'
_cell_length_a   21.93017917
_cell_length_b   21.75315946
_cell_length_c   6.10291560
_cell_angle_alpha   83.61822899
_cell_angle_beta   80.32653151
_cell_angle_gamma   16.05523949
_symmetry_Int_Tables_number   1
_chemical_formula_structural   K2Ni3S2
_chemical_formula_sum   'K8 Ni12 S8'
_cell_volume   780.09924841
_cell_formula_units_Z   4
loop_
 _symmetry_equiv_pos_site_id
 _symmetry_equiv_pos_as_xyz
  1  'x, y, z'
loop_
 _atom_site_type_symbol
 _atom_site_label
 _atom_site_symmetry_multiplicity
 _atom_site_fract_x
 _atom_site_fract_y
 _atom_site_fract_z
 _atom_site_occupancy
  K  K0  1  0.81573218  0.30247178  1.22012422  1.0
  K  K1  1  0.66167181  1.22012422  0.30247178  1.0
  K  K2  1  0.94752822  0.43426782  0.58832819  1.0
  K  K3  1  1.02987578  0.58832819  0.43426782  1.0
  K  K4  1  1.22012422  0.66167181  0.81573218  1.0
  K  K5  1  0.30247178  0.81573218  0.66167181  1.0
  K  K6  1  0.58832819  1.02987578  0.94752822  1.0
  K  K7  1  0.43426782  0.94752822  1.02987578  1.0
  Ni  Ni8  1  1.29999425  0.44682298  0.45900264  1.0
  Ni  Ni9  1  0.79418012  0.45900264  0.44682298  1.0
  Ni  Ni10  1  0.80317702  0.95000575  0.45581988  1.0
  Ni  Ni11  1  0.79099736  0.45581988  0.95000575  1.0
  Ni  Ni12  1  1.45900264  -0.20581988  0.29999425  1.0
  Ni  Ni13  1  1.44682298  0.29999425  -0.20581988  1.0
  Ni  Ni14  1  0.45581988  0.79099736  0.80317702  1.0
  Ni  Ni15  1  0.95000575  0.80317702  0.79099736  1.0
  Ni  Ni16  1  1.12500000  0.12500000  0.62500000  1.0
  Ni  Ni17  1  1.12500000  0.62500000  0.12500000  1.0
  Ni  Ni18  1  1.12500000  0.12500000  0.12500000  1.0
  Ni  Ni19  1  1.62500000  0.12500000  0.12500000  1.0
  S  S20  1  0.82846092  0.35202401  0.70366482  1.0
  S  S21  1  1.11585026  0.70366482  0.35202401  1.0
  S  S22  1  0.89797599  0.42153908  1.13414974  1.0
  S  S23  1  0.54633518  1.13414974  0.42153908  1.0
  S  S24  1  1.70366482  0.11585026  -0.17153908  1.0
  S  S25  1  1.35202401  -0.17153908  0.11585026  1.0
  S  S26  1  1.13414974  0.54633518  0.89797599  1.0
  S  S27  1  0.42153908  0.89797599  0.54633518  1.0
