# generated using pymatgen
data_Hf3(Al2C3)2
_symmetry_space_group_name_H-M   'P 1'
_cell_length_a   16.46322955
_cell_length_b   16.46322955
_cell_length_c   16.46322955
_cell_angle_alpha   11.59067124
_cell_angle_beta   11.59067124
_cell_angle_gamma   11.59067124
_symmetry_Int_Tables_number   1
_chemical_formula_structural   Hf3(Al2C3)2
_chemical_formula_sum   'Hf3 Al4 C6'
_cell_volume   156.52862578
_cell_formula_units_Z   1
loop_
 _symmetry_equiv_pos_site_id
 _symmetry_equiv_pos_as_xyz
  1  'x, y, z'
loop_
 _atom_site_type_symbol
 _atom_site_label
 _atom_site_symmetry_multiplicity
 _atom_site_fract_x
 _atom_site_fract_y
 _atom_site_fract_z
 _atom_site_occupancy
  Hf  Hf0  1  1.61232987  0.61232987  0.61232987  1.0
  Hf  Hf1  1  1.38767013  0.38767013  0.38767013  1.0
  Hf  Hf2  1  0.00000000  -0.00000000  0.00000000  1.0
  Al  Al3  1  0.85235529  0.85235529  0.85235529  1.0
  Al  Al4  1  1.14764471  1.14764471  0.14764471  1.0
  Al  Al5  1  0.76779898  0.76779898  0.76779898  1.0
  Al  Al6  1  1.23220102  1.23220102  0.23220102  1.0
  C  C7  1  0.91738799  0.91738799  0.91738799  1.0
  C  C8  1  1.08261201  1.08261201  0.08261201  1.0
  C  C9  1  0.80756931  0.80756931  0.80756931  1.0
  C  C10  1  1.19243069  1.19243069  0.19243069  1.0
  C  C11  1  0.69408486  0.69408486  0.69408486  1.0
  C  C12  1  1.30591514  1.30591514  0.30591514  1.0
