# generated using pymatgen
data_Eu2ZnGe3
_symmetry_space_group_name_H-M   'P 1'
_cell_length_a   8.48718264
_cell_length_b   8.48718264
_cell_length_c   8.81130092
_cell_angle_alpha   90.00000000
_cell_angle_beta   90.00000000
_cell_angle_gamma   119.97073656
_symmetry_Int_Tables_number   1
_chemical_formula_structural   Eu2ZnGe3
_chemical_formula_sum   'Eu8 Zn4 Ge12'
_cell_volume   549.82660308
_cell_formula_units_Z   4
loop_
 _symmetry_equiv_pos_site_id
 _symmetry_equiv_pos_as_xyz
  1  'x, y, z'
loop_
 _atom_site_type_symbol
 _atom_site_label
 _atom_site_symmetry_multiplicity
 _atom_site_fract_x
 _atom_site_fract_y
 _atom_site_fract_z
 _atom_site_occupancy
  Eu  Eu0  1  0.50156824  0.49843176  0.74127254  1.0
  Eu  Eu1  1  0.49843176  0.50156824  0.25872746  1.0
  Eu  Eu2  1  -0.00156824  0.00156824  0.24127254  1.0
  Eu  Eu3  1  0.00156824  -0.00156824  0.75872746  1.0
  Eu  Eu4  1  0.49785459  1.00214541  0.75000000  1.0
  Eu  Eu5  1  0.00214541  0.49785459  0.25000000  1.0
  Eu  Eu6  1  0.50214541  0.99785459  0.25000000  1.0
  Eu  Eu7  1  -0.00214541  0.50214541  0.75000000  1.0
  Zn  Zn8  1  -0.16663218  0.16663218  0.52939400  1.0
  Zn  Zn9  1  0.16663218  0.83336782  0.47060600  1.0
  Zn  Zn10  1  -0.33336782  0.33336782  0.02939400  1.0
  Zn  Zn11  1  0.33336782  0.66663218  0.97060600  1.0
  Ge  Ge12  1  -0.33089489  0.33089489  0.47339982  1.0
  Ge  Ge13  1  0.33089489  0.66910511  0.52660018  1.0
  Ge  Ge14  1  -0.16910511  0.16910511  0.97339982  1.0
  Ge  Ge15  1  0.16910511  0.83089489  0.02660018  1.0
  Ge  Ge16  1  0.32939936  1.16006314  0.51888168  1.0
  Ge  Ge17  1  0.16006314  0.32939936  0.48111832  1.0
  Ge  Ge18  1  0.66006314  0.82939936  0.01888168  1.0
  Ge  Ge19  1  -0.17060064  0.66006314  0.98111832  1.0
  Ge  Ge20  1  0.67060064  0.83993686  0.48111832  1.0
  Ge  Ge21  1  -0.16006314  0.67060064  0.51888168  1.0
  Ge  Ge22  1  0.33993686  1.17060064  0.98111832  1.0
  Ge  Ge23  1  0.17060064  0.33993686  0.01888168  1.0
