# generated using pymatgen
data_Ba(BiPd)2
_symmetry_space_group_name_H-M   'P 1'
_cell_length_a   5.00524812
_cell_length_b   4.91368175
_cell_length_c   11.00111385
_cell_angle_alpha   90.00000000
_cell_angle_beta   91.49512108
_cell_angle_gamma   90.00000000
_symmetry_Int_Tables_number   1
_chemical_formula_structural   Ba(BiPd)2
_chemical_formula_sum   'Ba2 Bi4 Pd4'
_cell_volume   270.47144041
_cell_formula_units_Z   2
loop_
 _symmetry_equiv_pos_site_id
 _symmetry_equiv_pos_as_xyz
  1  'x, y, z'
loop_
 _atom_site_type_symbol
 _atom_site_label
 _atom_site_symmetry_multiplicity
 _atom_site_fract_x
 _atom_site_fract_y
 _atom_site_fract_z
 _atom_site_occupancy
  Ba  Ba0  1  0.74015482  0.25000000  0.24087426  1.0
  Ba  Ba1  1  0.25984518  0.75000000  0.75912574  1.0
  Bi  Bi2  1  0.78944318  0.25000000  0.88146737  1.0
  Bi  Bi3  1  0.21055682  0.75000000  0.11853263  1.0
  Bi  Bi4  1  0.24811140  0.25000000  0.50197562  1.0
  Bi  Bi5  1  0.75188860  0.75000000  0.49802438  1.0
  Pd  Pd6  1  0.75206512  0.25000000  0.62676696  1.0
  Pd  Pd7  1  0.24793488  0.75000000  0.37323304  1.0
  Pd  Pd8  1  0.30804849  0.25000000  0.00083457  1.0
  Pd  Pd9  1  0.69195151  0.75000000  0.99916543  1.0
