# generated using pymatgen
data_Ca2AlH2OF7
_symmetry_space_group_name_H-M   'P 1'
_cell_length_a   9.38119282
_cell_length_b   5.88236743
_cell_length_c   5.94428429
_cell_angle_alpha   72.96515264
_cell_angle_beta   76.99785284
_cell_angle_gamma   79.20813648
_symmetry_Int_Tables_number   1
_chemical_formula_structural   Ca2AlH2OF7
_chemical_formula_sum   'Ca4 Al2 H4 O2 F14'
_cell_volume   302.99162639
_cell_formula_units_Z   2
loop_
 _symmetry_equiv_pos_site_id
 _symmetry_equiv_pos_as_xyz
  1  'x, y, z'
loop_
 _atom_site_type_symbol
 _atom_site_label
 _atom_site_symmetry_multiplicity
 _atom_site_fract_x
 _atom_site_fract_y
 _atom_site_fract_z
 _atom_site_occupancy
  Ca  Ca0  1  -0.35796007  -0.91359835  -0.91543078  1.0
  Ca  Ca1  1  -0.64203993  -0.08640165  -0.08456922  1.0
  Ca  Ca2  1  -0.79811639  -0.65624393  -0.65764665  1.0
  Ca  Ca3  1  -0.20188361  -0.34375607  -0.34235335  1.0
  Al  Al4  1  -0.50000000  -0.50000000  -0.50000000  1.0
  Al  Al5  1  0.00000000  0.00000000  0.00000000  1.0
  H  H6  1  -0.87016132  -0.28588733  -0.36906969  1.0
  H  H7  1  -0.12983868  -0.71411267  -0.63093031  1.0
  H  H8  1  -0.89612191  -0.53964697  -0.20872951  1.0
  H  H9  1  -0.10387809  -0.46035303  -0.79127049  1.0
  O  O10  1  -0.91569196  -0.42622733  -0.36014161  1.0
  O  O11  1  -0.08430804  -0.57377267  -0.63985839  1.0
  F  F12  1  -0.86787110  -0.26850168  -0.91291732  1.0
  F  F13  1  -0.13212890  -0.73149832  -0.08708268  1.0
  F  F14  1  -0.87663616  -0.82105206  -0.94655172  1.0
  F  F15  1  -0.12336384  -0.17894794  -0.05344828  1.0
  F  F16  1  -0.60666629  -0.86718277  -0.84506298  1.0
  F  F17  1  -0.39333371  -0.13281723  -0.15493702  1.0
  F  F18  1  -0.60969835  -0.39150042  -0.74333724  1.0
  F  F19  1  -0.39030165  -0.60849958  -0.25666276  1.0
  F  F20  1  -0.36979323  -0.67975315  -0.67285827  1.0
  F  F21  1  -0.63020677  -0.32024685  -0.32714173  1.0
  F  F22  1  -0.62068875  -0.74171886  -0.38455223  1.0
  F  F23  1  -0.37931125  -0.25828114  -0.61544777  1.0
  F  F24  1  -0.89309341  -0.95362839  -0.30901472  1.0
  F  F25  1  -0.10690659  -0.04637161  -0.69098528  1.0
