# generated using pymatgen
data_Sn2Au
_symmetry_space_group_name_H-M   'P 1'
_cell_length_a   7.86178286
_cell_length_b   7.86178286
_cell_length_c   6.68095356
_cell_angle_alpha   90.00000000
_cell_angle_beta   90.00000000
_cell_angle_gamma   130.53339943
_symmetry_Int_Tables_number   1
_chemical_formula_structural   Sn2Au
_chemical_formula_sum   'Sn8 Au4'
_cell_volume   313.84102105
_cell_formula_units_Z   4
loop_
 _symmetry_equiv_pos_site_id
 _symmetry_equiv_pos_as_xyz
  1  'x, y, z'
loop_
 _atom_site_type_symbol
 _atom_site_label
 _atom_site_symmetry_multiplicity
 _atom_site_fract_x
 _atom_site_fract_y
 _atom_site_fract_z
 _atom_site_occupancy
  Sn  Sn0  1  -0.13333932  0.63334039  0.00008588  1.0
  Sn  Sn1  1  0.36666068  1.13334039  0.49991412  1.0
  Sn  Sn2  1  0.63334039  0.86666068  0.99991412  1.0
  Sn  Sn3  1  0.13334039  0.36666068  0.50008588  1.0
  Sn  Sn4  1  0.36665961  1.13333932  0.99991412  1.0
  Sn  Sn5  1  -0.13334039  0.63333932  0.50008588  1.0
  Sn  Sn6  1  0.13333932  0.36665961  0.00008588  1.0
  Sn  Sn7  1  0.63333932  0.86665961  0.49991412  1.0
  Au  Au8  1  0.25000000  0.75000000  0.25000000  1.0
  Au  Au9  1  -0.25000000  0.25000000  0.25000000  1.0
  Au  Au10  1  -0.25000000  0.25000000  0.75000000  1.0
  Au  Au11  1  0.25000000  0.75000000  0.75000000  1.0
