# generated using pymatgen
data_Tl4V5CdClO15
_symmetry_space_group_name_H-M   'P 1'
_cell_length_a   9.18075359
_cell_length_b   9.18075359
_cell_length_c   5.77745748
_cell_angle_alpha   90.00000000
_cell_angle_beta   90.00000000
_cell_angle_gamma   90.00000000
_symmetry_Int_Tables_number   1
_chemical_formula_structural   Tl4V5CdClO15
_chemical_formula_sum   'Tl4 V5 Cd1 Cl1 O15'
_cell_volume   486.96014813
_cell_formula_units_Z   1
loop_
 _symmetry_equiv_pos_site_id
 _symmetry_equiv_pos_as_xyz
  1  'x, y, z'
loop_
 _atom_site_type_symbol
 _atom_site_label
 _atom_site_symmetry_multiplicity
 _atom_site_fract_x
 _atom_site_fract_y
 _atom_site_fract_z
 _atom_site_occupancy
  Tl  Tl0  1  0.66132254  0.81012870  0.44173564  1.0
  Tl  Tl1  1  0.81012870  0.33867746  0.44173564  1.0
  Tl  Tl2  1  0.33867746  0.18987130  0.44173564  1.0
  Tl  Tl3  1  0.18987130  0.66132254  0.44173564  1.0
  V  V4  1  0.87747394  0.64230215  0.97089568  1.0
  V  V5  1  0.64230215  0.12252606  0.97089568  1.0
  V  V6  1  0.12252606  0.35769785  0.97089568  1.0
  V  V7  1  0.35769785  0.87747394  0.97089568  1.0
  V  V8  1  0.00000000  0.00000000  -0.01398439  1.0
  Cd  Cd9  1  0.50000000  0.50000000  0.01122601  1.0
  Cl  Cl10  1  0.50000000  0.50000000  0.56658727  1.0
  O  O11  1  0.94393977  0.81007636  0.07223851  1.0
  O  O12  1  0.81007636  0.05606023  0.07223851  1.0
  O  O13  1  0.05606023  0.18992364  0.07223851  1.0
  O  O14  1  0.18992364  0.94393977  0.07223851  1.0
  O  O15  1  0.86337205  0.64175244  0.68682211  1.0
  O  O16  1  0.64175244  0.13662795  0.68682211  1.0
  O  O17  1  0.13662795  0.35824756  0.68682211  1.0
  O  O18  1  0.35824756  0.86337205  0.68682211  1.0
  O  O19  1  0.71282063  0.61216194  0.09565714  1.0
  O  O20  1  0.61216194  0.28717937  0.09565714  1.0
  O  O21  1  0.28717937  0.38783806  0.09565714  1.0
  O  O22  1  0.38783806  0.71282063  0.09565714  1.0
  O  O23  1  0.00000000  0.50000000  0.06536658  1.0
  O  O24  1  0.50000000  0.00000000  0.06536658  1.0
  O  O25  1  0.00000000  0.00000000  0.71064165  1.0
