# generated using pymatgen
data_CsFeSiO4
_symmetry_space_group_name_H-M   'P 1'
_cell_length_a   9.30130672
_cell_length_b   9.69680214
_cell_length_c   5.59175112
_cell_angle_alpha   90.00000000
_cell_angle_beta   90.00000000
_cell_angle_gamma   90.00000000
_symmetry_Int_Tables_number   1
_chemical_formula_structural   CsFeSiO4
_chemical_formula_sum   'Cs4 Fe4 Si4 O16'
_cell_volume   504.33642227
_cell_formula_units_Z   4
loop_
 _symmetry_equiv_pos_site_id
 _symmetry_equiv_pos_as_xyz
  1  'x, y, z'
loop_
 _atom_site_type_symbol
 _atom_site_label
 _atom_site_symmetry_multiplicity
 _atom_site_fract_x
 _atom_site_fract_y
 _atom_site_fract_z
 _atom_site_occupancy
  Cs  Cs0  1  0.49858925  0.79631590  0.01409025  1.0
  Cs  Cs1  1  0.99858925  0.70368410  0.01409025  1.0
  Cs  Cs2  1  0.50141075  0.20368410  0.51409025  1.0
  Cs  Cs3  1  0.00141075  0.29631590  0.51409025  1.0
  Fe  Fe4  1  0.18202857  0.91652729  0.49905523  1.0
  Fe  Fe5  1  0.68202857  0.58347271  0.49905523  1.0
  Fe  Fe6  1  0.81797143  0.08347271  0.99905523  1.0
  Fe  Fe7  1  0.31797143  0.41652729  0.99905523  1.0
  Si  Si8  1  0.30702292  0.58560378  0.49861276  1.0
  Si  Si9  1  0.80702292  0.91439622  0.49861276  1.0
  Si  Si10  1  0.69297708  0.41439622  -0.00138724  1.0
  Si  Si11  1  0.19297708  0.08560378  -0.00138724  1.0
  O  O12  1  0.24677424  0.54184268  0.76522955  1.0
  O  O13  1  0.74677424  0.95815732  0.76522955  1.0
  O  O14  1  0.75322576  0.45815732  0.26522955  1.0
  O  O15  1  0.25322576  0.04184268  0.26522955  1.0
  O  O16  1  0.48312482  0.58991839  0.49809060  1.0
  O  O17  1  0.98312482  0.91008161  0.49809060  1.0
  O  O18  1  0.51687518  0.41008161  -0.00190940  1.0
  O  O19  1  0.01687518  0.08991839  -0.00190940  1.0
  O  O20  1  0.25267421  0.23879191  0.92221212  1.0
  O  O21  1  0.75267421  0.26120809  0.92221212  1.0
  O  O22  1  0.74732579  0.76120809  0.42221212  1.0
  O  O23  1  0.24732579  0.73879191  0.42221212  1.0
  O  O24  1  0.25226239  0.97255739  0.80070948  1.0
  O  O25  1  0.75226239  0.52744261  0.80070948  1.0
  O  O26  1  0.74773761  0.02744261  0.30070948  1.0
  O  O27  1  0.24773761  0.47255739  0.30070948  1.0
