# generated using pymatgen
data_BaTeWO5F2
_symmetry_space_group_name_H-M   'P 1'
_cell_length_a   5.69978907
_cell_length_b   9.95451395
_cell_length_c   12.60921262
_cell_angle_alpha   90.00000000
_cell_angle_beta   116.41754860
_cell_angle_gamma   90.00000000
_symmetry_Int_Tables_number   1
_chemical_formula_structural   BaTeWO5F2
_chemical_formula_sum   'Ba4 Te4 W4 O20 F8'
_cell_volume   640.72110934
_cell_formula_units_Z   4
loop_
 _symmetry_equiv_pos_site_id
 _symmetry_equiv_pos_as_xyz
  1  'x, y, z'
loop_
 _atom_site_type_symbol
 _atom_site_label
 _atom_site_symmetry_multiplicity
 _atom_site_fract_x
 _atom_site_fract_y
 _atom_site_fract_z
 _atom_site_occupancy
  Ba  Ba0  1  0.07898028  0.45979114  0.34140923  1.0
  Ba  Ba1  1  0.92101972  0.95979114  0.15859077  1.0
  Ba  Ba2  1  0.92101972  0.54020886  0.65859077  1.0
  Ba  Ba3  1  0.07898028  0.04020886  0.84140923  1.0
  Te  Te4  1  0.57361285  0.39006844  0.92740409  1.0
  Te  Te5  1  0.42638715  0.89006844  0.57259591  1.0
  Te  Te6  1  0.42638715  0.60993156  0.07259591  1.0
  Te  Te7  1  0.57361285  0.10993156  0.42740409  1.0
  W  W8  1  0.39634383  0.26400569  0.63948343  1.0
  W  W9  1  0.60365617  0.76400569  0.86051657  1.0
  W  W10  1  0.60365617  0.73599431  0.36051657  1.0
  W  W11  1  0.39634383  0.23599431  0.13948343  1.0
  O  O12  1  0.29404406  0.33440402  0.75357959  1.0
  O  O13  1  0.70595594  0.83440402  0.74642041  1.0
  O  O14  1  0.70595594  0.66559598  0.24642041  1.0
  O  O15  1  0.29404406  0.16559598  0.25357959  1.0
  O  O16  1  0.27759927  0.51183313  0.90636469  1.0
  O  O17  1  0.72240073  0.01183313  0.59363531  1.0
  O  O18  1  0.72240073  0.48816687  0.09363531  1.0
  O  O19  1  0.27759927  0.98816687  0.40636469  1.0
  O  O20  1  0.41668198  0.24309747  0.98752617  1.0
  O  O21  1  0.58331802  0.74309747  0.51247383  1.0
  O  O22  1  0.58331802  0.75690253  0.01247383  1.0
  O  O23  1  0.41668198  0.25690253  0.48752617  1.0
  O  O24  1  0.73590287  0.25965541  0.73569829  1.0
  O  O25  1  0.26409713  0.75965541  0.76430171  1.0
  O  O26  1  0.26409713  0.74034459  0.26430171  1.0
  O  O27  1  0.73590287  0.24034459  0.23569829  1.0
  O  O28  1  0.29743766  0.09282904  0.64090840  1.0
  O  O29  1  0.70256234  0.59282904  0.85909160  1.0
  O  O30  1  0.70256234  0.90717096  0.35909160  1.0
  O  O31  1  0.29743766  0.40717096  0.14090840  1.0
  F  F32  1  1.01043828  0.33011652  0.52502677  1.0
  F  F33  1  -0.01043828  0.83011652  0.97497323  1.0
  F  F34  1  -0.01043828  0.66988348  0.47497323  1.0
  F  F35  1  1.01043828  0.16988348  0.02502677  1.0
  F  F36  1  0.43068898  0.47091245  0.60514436  1.0
  F  F37  1  0.56931102  0.97091245  0.89485564  1.0
  F  F38  1  0.56931102  0.52908755  0.39485564  1.0
  F  F39  1  0.43068898  0.02908755  0.10514436  1.0
