# generated using pymatgen
data_H4SO5
_symmetry_space_group_name_H-M   'P 1'
_cell_length_a   9.16370876
_cell_length_b   6.71149523
_cell_length_c   8.14624762
_cell_angle_alpha   90.00000000
_cell_angle_beta   90.00000000
_cell_angle_gamma   90.00000000
_symmetry_Int_Tables_number   1
_chemical_formula_structural   H4SO5
_chemical_formula_sum   'H16 S4 O20'
_cell_volume   501.01204997
_cell_formula_units_Z   4
loop_
 _symmetry_equiv_pos_site_id
 _symmetry_equiv_pos_as_xyz
  1  'x, y, z'
loop_
 _atom_site_type_symbol
 _atom_site_label
 _atom_site_symmetry_multiplicity
 _atom_site_fract_x
 _atom_site_fract_y
 _atom_site_fract_z
 _atom_site_occupancy
  H  H0  1  0.41997579  0.55187312  0.55775344  1.0
  H  H1  1  0.91997579  0.94812688  0.44224656  1.0
  H  H2  1  0.58002421  0.05187312  0.94224656  1.0
  H  H3  1  0.08002421  0.44812688  0.05775344  1.0
  H  H4  1  0.33323182  0.63321800  0.72557139  1.0
  H  H5  1  0.83323182  0.86678200  0.27442861  1.0
  H  H6  1  0.66676818  0.13321800  0.77442861  1.0
  H  H7  1  0.16676818  0.36678200  0.22557139  1.0
  H  H8  1  0.28317236  0.41525582  0.63887364  1.0
  H  H9  1  0.78317236  0.08474418  0.36112636  1.0
  H  H10  1  0.71682764  0.91525582  0.86112636  1.0
  H  H11  1  0.21682764  0.58474418  0.13887364  1.0
  H  H12  1  0.79595589  0.57568995  0.67228084  1.0
  H  H13  1  0.29595589  0.92431005  0.32771916  1.0
  H  H14  1  0.20404411  0.07568995  0.82771916  1.0
  H  H15  1  0.70404411  0.42431005  0.17228084  1.0
  S  S16  1  0.32821673  0.89886552  0.00067450  1.0
  S  S17  1  0.82821673  0.60113448  0.99932550  1.0
  S  S18  1  0.67178327  0.39886552  0.49932550  1.0
  S  S19  1  0.17178327  0.10113448  0.50067450  1.0
  O  O20  1  0.31383629  0.99634737  0.43548486  1.0
  O  O21  1  0.81383629  0.50365263  0.56451514  1.0
  O  O22  1  0.68616371  0.49634737  1.06451514  1.0
  O  O23  1  0.18616371  0.00365263  -0.06451514  1.0
  O  O24  1  0.32039320  0.55670935  0.61855717  1.0
  O  O25  1  0.82039320  0.94329065  0.38144283  1.0
  O  O26  1  0.67960680  0.05670935  0.88144283  1.0
  O  O27  1  0.17960680  0.44329065  0.11855717  1.0
  O  O28  1  0.27630875  0.80359104  0.15579653  1.0
  O  O29  1  0.77630875  0.69640896  0.84420347  1.0
  O  O30  1  0.72369125  0.30359104  0.34420347  1.0
  O  O31  1  0.22369125  0.19640896  0.65579653  1.0
  O  O32  1  0.06098232  0.94740468  0.53500415  1.0
  O  O33  1  0.56098232  0.55259532  0.46499585  1.0
  O  O34  1  0.93901768  0.44740468  0.96499585  1.0
  O  O35  1  0.43901768  0.05259532  0.03500415  1.0
  O  O36  1  0.37824925  0.75077149  0.88068353  1.0
  O  O37  1  0.87824925  0.74922851  0.11931647  1.0
  O  O38  1  0.62175075  0.25077149  0.61931647  1.0
  O  O39  1  0.12175075  0.24922851  0.38068353  1.0
