# generated using pymatgen
data_CaV4(AgO6)2
_symmetry_space_group_name_H-M   'P 1'
_cell_length_a   10.48258601
_cell_length_b   10.48258601
_cell_length_c   5.03632529
_cell_angle_alpha   90.00000000
_cell_angle_beta   90.00000000
_cell_angle_gamma   90.00000000
_symmetry_Int_Tables_number   1
_chemical_formula_structural   CaV4(AgO6)2
_chemical_formula_sum   'Ca2 V8 Ag4 O24'
_cell_volume   553.41463738
_cell_formula_units_Z   2
loop_
 _symmetry_equiv_pos_site_id
 _symmetry_equiv_pos_as_xyz
  1  'x, y, z'
loop_
 _atom_site_type_symbol
 _atom_site_label
 _atom_site_symmetry_multiplicity
 _atom_site_fract_x
 _atom_site_fract_y
 _atom_site_fract_z
 _atom_site_occupancy
  Ca  Ca0  1  0.50000000  0.50000000  0.50000000  1.0
  Ca  Ca1  1  0.00000000  0.00000000  0.50000000  1.0
  V  V2  1  0.50000000  0.77774922  0.00000000  1.0
  V  V3  1  0.00000000  0.72225078  0.00000000  1.0
  V  V4  1  0.00000000  0.27774922  0.00000000  1.0
  V  V5  1  0.50000000  0.22225078  0.00000000  1.0
  V  V6  1  0.77774922  0.50000000  0.00000000  1.0
  V  V7  1  0.72225078  0.00000000  0.00000000  1.0
  V  V8  1  0.27774922  0.00000000  0.00000000  1.0
  V  V9  1  0.22225078  0.50000000  0.00000000  1.0
  Ag  Ag10  1  0.25000000  0.25000000  0.50000000  1.0
  Ag  Ag11  1  0.75000000  0.25000000  0.50000000  1.0
  Ag  Ag12  1  0.25000000  0.75000000  0.50000000  1.0
  Ag  Ag13  1  0.75000000  0.75000000  0.50000000  1.0
  O  O14  1  0.62020542  0.87979458  0.14339188  1.0
  O  O15  1  0.12020542  0.62020542  0.14339188  1.0
  O  O16  1  0.87979458  0.37979458  0.14339188  1.0
  O  O17  1  0.37979458  0.12020542  0.14339188  1.0
  O  O18  1  0.87979458  0.62020542  0.85660812  1.0
  O  O19  1  0.37979458  0.87979458  0.85660812  1.0
  O  O20  1  0.62020542  0.12020542  0.85660812  1.0
  O  O21  1  0.12020542  0.37979458  0.85660812  1.0
  O  O22  1  0.30962850  0.43349674  0.23995341  1.0
  O  O23  1  0.80962850  0.06650326  0.23995341  1.0
  O  O24  1  0.19037150  0.93349674  0.23995341  1.0
  O  O25  1  0.69037150  0.56650326  0.23995341  1.0
  O  O26  1  0.19037150  0.06650326  0.76004659  1.0
  O  O27  1  0.69037150  0.43349674  0.76004659  1.0
  O  O28  1  0.30962850  0.56650326  0.76004659  1.0
  O  O29  1  0.80962850  0.93349674  0.76004659  1.0
  O  O30  1  0.43349674  0.30962850  0.76004659  1.0
  O  O31  1  0.06650326  0.80962850  0.76004659  1.0
  O  O32  1  0.93349674  0.19037150  0.76004659  1.0
  O  O33  1  0.56650326  0.69037150  0.76004659  1.0
  O  O34  1  0.06650326  0.19037150  0.23995341  1.0
  O  O35  1  0.43349674  0.69037150  0.23995341  1.0
  O  O36  1  0.56650326  0.30962850  0.23995341  1.0
  O  O37  1  0.93349674  0.80962850  0.23995341  1.0
