# generated using pymatgen
data_Rb3BAs2
_symmetry_space_group_name_H-M   'P 1'
_cell_length_a   6.90266442
_cell_length_b   6.90266442
_cell_length_c   9.65608912
_cell_angle_alpha   75.33149396
_cell_angle_beta   104.66850604
_cell_angle_gamma   92.07651510
_symmetry_Int_Tables_number   1
_chemical_formula_structural   Rb3BAs2
_chemical_formula_sum   'Rb6 B2 As4'
_cell_volume   430.38823622
_cell_formula_units_Z   2
loop_
 _symmetry_equiv_pos_site_id
 _symmetry_equiv_pos_as_xyz
  1  'x, y, z'
loop_
 _atom_site_type_symbol
 _atom_site_label
 _atom_site_symmetry_multiplicity
 _atom_site_fract_x
 _atom_site_fract_y
 _atom_site_fract_z
 _atom_site_occupancy
  Rb  Rb0  1  0.74339008  0.14884726  0.51964102  1.0
  Rb  Rb1  1  0.85115274  0.25660992  1.01964102  1.0
  Rb  Rb2  1  1.14884726  -0.25660992  -0.01964102  1.0
  Rb  Rb3  1  1.25660992  -0.14884726  0.48035898  1.0
  Rb  Rb4  1  0.35152548  0.35152548  0.75000000  1.0
  Rb  Rb5  1  0.64847452  0.64847452  0.25000000  1.0
  B  B6  1  0.71594673  0.71594673  0.75000000  1.0
  B  B7  1  0.28405327  0.28405327  0.25000000  1.0
  As  As8  1  1.59209136  -0.15146426  0.85553771  1.0
  As  As9  1  1.15146426  -0.59209136  0.35553771  1.0
  As  As10  1  0.84853574  0.59209136  0.64446229  1.0
  As  As11  1  0.40790864  0.15146426  0.14446229  1.0
