# generated using pymatgen
data_SrGe2
_symmetry_space_group_name_H-M   'P 1'
_cell_length_a   8.88111419
_cell_length_b   6.59443691
_cell_length_c   11.21975191
_cell_angle_alpha   90.00000000
_cell_angle_beta   90.00000000
_cell_angle_gamma   90.00000000
_symmetry_Int_Tables_number   1
_chemical_formula_structural   SrGe2
_chemical_formula_sum   'Sr8 Ge16'
_cell_volume   657.09539807
_cell_formula_units_Z   8
loop_
 _symmetry_equiv_pos_site_id
 _symmetry_equiv_pos_as_xyz
  1  'x, y, z'
loop_
 _atom_site_type_symbol
 _atom_site_label
 _atom_site_symmetry_multiplicity
 _atom_site_fract_x
 _atom_site_fract_y
 _atom_site_fract_z
 _atom_site_occupancy
  Sr  Sr0  1  0.85181238  0.75000000  0.09298097  1.0
  Sr  Sr1  1  0.35181238  0.75000000  0.40701903  1.0
  Sr  Sr2  1  0.14818762  0.25000000  0.90701903  1.0
  Sr  Sr3  1  0.64818762  0.25000000  0.59298097  1.0
  Sr  Sr4  1  0.51544633  0.75000000  0.80609241  1.0
  Sr  Sr5  1  0.01544633  0.75000000  0.69390759  1.0
  Sr  Sr6  1  0.48455367  0.25000000  0.19390759  1.0
  Sr  Sr7  1  0.98455367  0.25000000  0.30609241  1.0
  Ge  Ge8  1  0.69844685  0.75000000  0.54804207  1.0
  Ge  Ge9  1  0.19844685  0.75000000  0.95195793  1.0
  Ge  Ge10  1  0.30155315  0.25000000  0.45195793  1.0
  Ge  Ge11  1  0.80155315  0.25000000  0.04804207  1.0
  Ge  Ge12  1  0.69440796  0.94545749  0.34936962  1.0
  Ge  Ge13  1  0.69440796  0.55454251  0.34936962  1.0
  Ge  Ge14  1  0.19440796  0.94545749  0.15063038  1.0
  Ge  Ge15  1  0.19440796  0.55454251  0.15063038  1.0
  Ge  Ge16  1  0.30559204  0.44545749  0.65063038  1.0
  Ge  Ge17  1  0.30559204  0.05454251  0.65063038  1.0
  Ge  Ge18  1  0.80559204  0.44545749  0.84936962  1.0
  Ge  Ge19  1  0.80559204  0.05454251  0.84936962  1.0
  Ge  Ge20  1  0.93637134  0.75000000  0.40764893  1.0
  Ge  Ge21  1  0.43637134  0.75000000  0.09235107  1.0
  Ge  Ge22  1  0.06362866  0.25000000  0.59235107  1.0
  Ge  Ge23  1  0.56362866  0.25000000  0.90764893  1.0
