# generated using pymatgen
data_Hg3Bi2(TeCl4)2
_symmetry_space_group_name_H-M   'P 1'
_cell_length_a   9.86134881
_cell_length_b   9.86134881
_cell_length_c   13.73687591
_cell_angle_alpha   76.95579814
_cell_angle_beta   103.04420186
_cell_angle_gamma   133.23613725
_symmetry_Int_Tables_number   1
_chemical_formula_structural   Hg3Bi2(TeCl4)2
_chemical_formula_sum   'Hg6 Bi4 Te4 Cl16'
_cell_volume   943.34080939
_cell_formula_units_Z   2
loop_
 _symmetry_equiv_pos_site_id
 _symmetry_equiv_pos_as_xyz
  1  'x, y, z'
loop_
 _atom_site_type_symbol
 _atom_site_label
 _atom_site_symmetry_multiplicity
 _atom_site_fract_x
 _atom_site_fract_y
 _atom_site_fract_z
 _atom_site_occupancy
  Hg  Hg0  1  0.25864412  -0.24368398  0.74667698  1.0
  Hg  Hg1  1  1.24368398  0.74135588  0.24667698  1.0
  Hg  Hg2  1  0.75631602  0.25864412  0.75332302  1.0
  Hg  Hg3  1  0.74135588  0.24368398  0.25332302  1.0
  Hg  Hg4  1  0.50000000  -0.00000000  -0.00000000  1.0
  Hg  Hg5  1  1.00000000  0.50000000  0.50000000  1.0
  Bi  Bi6  1  0.69223832  -0.22666492  0.56122489  1.0
  Bi  Bi7  1  1.22666492  0.30776168  0.06122489  1.0
  Bi  Bi8  1  0.77333508  0.69223832  0.93877511  1.0
  Bi  Bi9  1  0.30776168  0.22666492  0.43877511  1.0
  Te  Te10  1  0.41746032  0.08574964  0.80687328  1.0
  Te  Te11  1  0.91425036  0.58253968  0.30687328  1.0
  Te  Te12  1  1.08574964  0.41746032  0.69312672  1.0
  Te  Te13  1  0.58253968  -0.08574964  0.19312672  1.0
  Cl  Cl14  1  0.67247679  -0.12628176  0.72142949  1.0
  Cl  Cl15  1  1.12628176  0.32752321  0.22142949  1.0
  Cl  Cl16  1  0.87371824  0.67247679  0.77857051  1.0
  Cl  Cl17  1  0.32752321  0.12628176  0.27857051  1.0
  Cl  Cl18  1  0.87570015  0.07605784  0.96446243  1.0
  Cl  Cl19  1  0.92394216  0.12429985  0.46446243  1.0
  Cl  Cl20  1  1.07605784  0.87570015  0.53553757  1.0
  Cl  Cl21  1  0.12429985  -0.07605784  0.03553757  1.0
  Cl  Cl22  1  0.56526526  0.22158961  0.52430308  1.0
  Cl  Cl23  1  0.77841039  0.43473474  0.02430308  1.0
  Cl  Cl24  1  1.22158961  0.56526526  0.97569692  1.0
  Cl  Cl25  1  0.43473474  -0.22158961  0.47569692  1.0
  Cl  Cl26  1  1.39208801  0.39446202  0.88709104  1.0
  Cl  Cl27  1  0.60553798  -0.39208801  0.38709104  1.0
  Cl  Cl28  1  0.39446202  0.39208801  0.61290896  1.0
  Cl  Cl29  1  0.60791199  0.60553798  0.11290896  1.0
