# generated using pymatgen
data_BaLiCrF6
_symmetry_space_group_name_H-M   'P 1'
_cell_length_a   5.39239363
_cell_length_b   10.81141844
_cell_length_c   8.80544928
_cell_angle_alpha   90.00000000
_cell_angle_beta   90.33596082
_cell_angle_gamma   90.00000000
_symmetry_Int_Tables_number   1
_chemical_formula_structural   BaLiCrF6
_chemical_formula_sum   'Ba4 Li4 Cr4 F24'
_cell_volume   513.34379557
_cell_formula_units_Z   4
loop_
 _symmetry_equiv_pos_site_id
 _symmetry_equiv_pos_as_xyz
  1  'x, y, z'
loop_
 _atom_site_type_symbol
 _atom_site_label
 _atom_site_symmetry_multiplicity
 _atom_site_fract_x
 _atom_site_fract_y
 _atom_site_fract_z
 _atom_site_occupancy
  Ba  Ba0  1  0.19929612  0.17596246  0.48535652  1.0
  Ba  Ba1  1  0.19929612  0.32403754  0.98535652  1.0
  Ba  Ba2  1  0.80070388  0.67596246  0.01464348  1.0
  Ba  Ba3  1  0.80070388  0.82403754  0.51464348  1.0
  Li  Li4  1  0.75262435  0.09010385  0.17215463  1.0
  Li  Li5  1  0.75262435  0.40989615  0.67215463  1.0
  Li  Li6  1  0.24737565  0.59010385  0.32784537  1.0
  Li  Li7  1  0.24737565  0.90989615  0.82784537  1.0
  Cr  Cr8  1  0.74015970  0.40337686  0.26449885  1.0
  Cr  Cr9  1  0.74015970  0.09662314  0.76449885  1.0
  Cr  Cr10  1  0.25984030  0.90337686  0.23550115  1.0
  Cr  Cr11  1  0.25984030  0.59662314  0.73550115  1.0
  F  F12  1  0.96026901  0.99166340  0.29591426  1.0
  F  F13  1  0.96026901  0.50833660  0.79591426  1.0
  F  F14  1  0.03973099  0.49166340  0.20408574  1.0
  F  F15  1  0.03973099  0.00833660  0.70408574  1.0
  F  F16  1  0.91091823  0.24599419  0.23379074  1.0
  F  F17  1  0.91091823  0.25400581  0.73379074  1.0
  F  F18  1  0.08908177  0.74599419  0.26620926  1.0
  F  F19  1  0.08908177  0.75400581  0.76620926  1.0
  F  F20  1  0.84029037  0.38876065  0.47141327  1.0
  F  F21  1  0.84029037  0.11123935  0.97141327  1.0
  F  F22  1  0.15970963  0.88876065  0.02858673  1.0
  F  F23  1  0.15970963  0.61123935  0.52858673  1.0
  F  F24  1  0.67108460  0.40476105  0.04835871  1.0
  F  F25  1  0.67108460  0.09523895  0.54835871  1.0
  F  F26  1  0.32891540  0.90476105  0.45164129  1.0
  F  F27  1  0.32891540  0.59523895  0.95164129  1.0
  F  F28  1  0.43241875  0.32164731  0.29635751  1.0
  F  F29  1  0.43241875  0.17835269  0.79635751  1.0
  F  F30  1  0.56758125  0.82164731  0.20364249  1.0
  F  F31  1  0.56758125  0.67835269  0.70364249  1.0
  F  F32  1  0.41385638  0.06302894  0.21213203  1.0
  F  F33  1  0.41385638  0.43697106  0.71213203  1.0
  F  F34  1  0.58614362  0.56302894  0.28786797  1.0
  F  F35  1  0.58614362  0.93697106  0.78786797  1.0
