# generated using pymatgen
data_Cs3NiO2
_symmetry_space_group_name_H-M   'P 1'
_cell_length_a   6.57257111
_cell_length_b   6.57257111
_cell_length_c   8.00974744
_cell_angle_alpha   90.00000000
_cell_angle_beta   90.00000000
_cell_angle_gamma   90.00000000
_symmetry_Int_Tables_number   1
_chemical_formula_structural   Cs3NiO2
_chemical_formula_sum   'Cs6 Ni2 O4'
_cell_volume   346.01060495
_cell_formula_units_Z   2
loop_
 _symmetry_equiv_pos_site_id
 _symmetry_equiv_pos_as_xyz
  1  'x, y, z'
loop_
 _atom_site_type_symbol
 _atom_site_label
 _atom_site_symmetry_multiplicity
 _atom_site_fract_x
 _atom_site_fract_y
 _atom_site_fract_z
 _atom_site_occupancy
  Cs  Cs0  1  0.50000000  0.00000000  0.25000000  1.0
  Cs  Cs1  1  0.50000000  0.00000000  0.75000000  1.0
  Cs  Cs2  1  0.00000000  0.50000000  0.75000000  1.0
  Cs  Cs3  1  0.00000000  0.50000000  0.25000000  1.0
  Cs  Cs4  1  0.50000000  0.50000000  0.00000000  1.0
  Cs  Cs5  1  0.00000000  0.00000000  0.50000000  1.0
  Ni  Ni6  1  0.50000000  0.50000000  0.50000000  1.0
  Ni  Ni7  1  0.00000000  0.00000000  0.00000000  1.0
  O  O8  1  0.30944942  0.69055058  0.50000000  1.0
  O  O9  1  0.80944942  0.80944942  0.00000000  1.0
  O  O10  1  0.69055058  0.30944942  0.50000000  1.0
  O  O11  1  0.19055058  0.19055058  0.00000000  1.0
