# generated using pymatgen
data_Cs2CoSe2
_symmetry_space_group_name_H-M   'P 1'
_cell_length_a   8.78762526
_cell_length_b   8.78762526
_cell_length_c   8.78762526
_cell_angle_alpha   129.13365849
_cell_angle_beta   69.65556328
_cell_angle_gamma   135.76884021
_symmetry_Int_Tables_number   1
_chemical_formula_structural   Cs2CoSe2
_chemical_formula_sum   'Cs4 Co2 Se4'
_cell_volume   360.25371935
_cell_formula_units_Z   2
loop_
 _symmetry_equiv_pos_site_id
 _symmetry_equiv_pos_as_xyz
  1  'x, y, z'
loop_
 _atom_site_type_symbol
 _atom_site_label
 _atom_site_symmetry_multiplicity
 _atom_site_fract_x
 _atom_site_fract_y
 _atom_site_fract_z
 _atom_site_occupancy
  Cs  Cs0  1  0.14600918  0.32648581  0.47249499  1.0
  Cs  Cs1  1  0.35399082  0.82648581  1.18047663  1.0
  Cs  Cs2  1  0.64600918  1.17351419  0.81952337  1.0
  Cs  Cs3  1  0.85399082  0.67351419  0.52750501  1.0
  Co  Co4  1  0.25000000  0.25000000  -0.00000000  1.0
  Co  Co5  1  0.75000000  0.75000000  -0.00000000  1.0
  Se  Se6  1  0.40845028  0.33565748  0.74410775  1.0
  Se  Se7  1  0.09154972  0.83565748  0.92720720  1.0
  Se  Se8  1  0.90845028  1.16434252  1.07279280  1.0
  Se  Se9  1  0.59154972  0.66434252  0.25589225  1.0
