# generated using pymatgen
data_Nb3Zn3N
_symmetry_space_group_name_H-M   'P 1'
_cell_length_a   8.26492797
_cell_length_b   8.26492797
_cell_length_c   8.26492797
_cell_angle_alpha   60.00000000
_cell_angle_beta   60.00000000
_cell_angle_gamma   60.00000000
_symmetry_Int_Tables_number   1
_chemical_formula_structural   Nb3Zn3N
_chemical_formula_sum   'Nb12 Zn12 N4'
_cell_volume   399.21074391
_cell_formula_units_Z   4
loop_
 _symmetry_equiv_pos_site_id
 _symmetry_equiv_pos_as_xyz
  1  'x, y, z'
loop_
 _atom_site_type_symbol
 _atom_site_label
 _atom_site_symmetry_multiplicity
 _atom_site_fract_x
 _atom_site_fract_y
 _atom_site_fract_z
 _atom_site_occupancy
  Nb  Nb0  1  1.43128762  0.43128762  0.06871238  1.0
  Nb  Nb1  1  1.06871238  0.43128762  0.06871238  1.0
  Nb  Nb2  1  1.43128762  0.06871238  0.06871238  1.0
  Nb  Nb3  1  1.06871238  0.06871238  0.43128762  1.0
  Nb  Nb4  1  1.43128762  0.06871238  0.43128762  1.0
  Nb  Nb5  1  1.06871238  0.43128762  0.43128762  1.0
  Nb  Nb6  1  0.81871238  0.81871238  -0.81871238  1.0
  Nb  Nb7  1  1.18128762  -0.18128762  0.18128762  1.0
  Nb  Nb8  1  -0.18128762  0.18128762  0.18128762  1.0
  Nb  Nb9  1  0.18128762  0.18128762  -0.18128762  1.0
  Nb  Nb10  1  0.81871238  -0.81871238  0.81871238  1.0
  Nb  Nb11  1  -0.81871238  0.81871238  0.81871238  1.0
  Zn  Zn12  1  0.83240690  -0.16759310  0.50277929  1.0
  Zn  Zn13  1  0.83240690  -0.49722071  0.83240690  1.0
  Zn  Zn14  1  0.50277929  0.83240690  0.83240690  1.0
  Zn  Zn15  1  0.83240690  0.83240690  0.83240690  1.0
  Zn  Zn16  1  1.41759310  0.41759310  -0.25277929  1.0
  Zn  Zn17  1  1.41759310  -0.25277929  0.41759310  1.0
  Zn  Zn18  1  0.74722071  0.41759310  0.41759310  1.0
  Zn  Zn19  1  1.41759310  0.41759310  0.41759310  1.0
  Zn  Zn20  1  0.62500000  0.62500000  1.12500000  1.0
  Zn  Zn21  1  0.62500000  1.12500000  0.62500000  1.0
  Zn  Zn22  1  1.12500000  0.62500000  0.62500000  1.0
  Zn  Zn23  1  0.62500000  0.62500000  0.62500000  1.0
  N  N24  1  0.12500000  0.12500000  1.62500000  1.0
  N  N25  1  0.12500000  0.62500000  1.12500000  1.0
  N  N26  1  1.62500000  0.12500000  0.12500000  1.0
  N  N27  1  1.12500000  0.12500000  0.12500000  1.0
