# generated using pymatgen
data_Sr3Bi(ClO)3
_symmetry_space_group_name_H-M   'P 1'
_cell_length_a   6.75875524
_cell_length_b   11.49722688
_cell_length_c   12.09155347
_cell_angle_alpha   90.00000000
_cell_angle_beta   90.00000000
_cell_angle_gamma   90.00000000
_symmetry_Int_Tables_number   1
_chemical_formula_structural   Sr3Bi(ClO)3
_chemical_formula_sum   'Sr12 Bi4 Cl12 O12'
_cell_volume   939.59764851
_cell_formula_units_Z   4
loop_
 _symmetry_equiv_pos_site_id
 _symmetry_equiv_pos_as_xyz
  1  'x, y, z'
loop_
 _atom_site_type_symbol
 _atom_site_label
 _atom_site_symmetry_multiplicity
 _atom_site_fract_x
 _atom_site_fract_y
 _atom_site_fract_z
 _atom_site_occupancy
  Sr  Sr0  1  0.33971115  0.43031581  0.88654168  1.0
  Sr  Sr1  1  0.33971115  0.06968419  0.88654168  1.0
  Sr  Sr2  1  0.83971115  0.43031581  0.61345832  1.0
  Sr  Sr3  1  0.83971115  0.06968419  0.61345832  1.0
  Sr  Sr4  1  0.66028885  0.93031581  0.11345832  1.0
  Sr  Sr5  1  0.66028885  0.56968419  0.11345832  1.0
  Sr  Sr6  1  0.16028885  0.93031581  0.38654168  1.0
  Sr  Sr7  1  0.16028885  0.56968419  0.38654168  1.0
  Sr  Sr8  1  0.15084042  0.75000000  0.03290307  1.0
  Sr  Sr9  1  0.65084042  0.75000000  0.46709693  1.0
  Sr  Sr10  1  0.84915958  0.25000000  0.96709693  1.0
  Sr  Sr11  1  0.34915958  0.25000000  0.53290307  1.0
  Bi  Bi12  1  0.09750018  0.75000000  0.61943885  1.0
  Bi  Bi13  1  0.59750018  0.75000000  0.88056115  1.0
  Bi  Bi14  1  0.90249982  0.25000000  0.38056115  1.0
  Bi  Bi15  1  0.40249982  0.25000000  0.11943885  1.0
  Cl  Cl16  1  0.41581363  0.99000399  0.64758668  1.0
  Cl  Cl17  1  0.41581363  0.50999601  0.64758668  1.0
  Cl  Cl18  1  0.91581363  0.99000399  0.85241332  1.0
  Cl  Cl19  1  0.91581363  0.50999601  0.85241332  1.0
  Cl  Cl20  1  0.58418637  0.49000399  0.35241332  1.0
  Cl  Cl21  1  0.58418637  0.00999601  0.35241332  1.0
  Cl  Cl22  1  0.08418637  0.49000399  0.14758668  1.0
  Cl  Cl23  1  0.08418637  0.00999601  0.14758668  1.0
  Cl  Cl24  1  0.40589421  0.75000000  0.22727531  1.0
  Cl  Cl25  1  0.90589421  0.75000000  0.27272469  1.0
  Cl  Cl26  1  0.59410579  0.25000000  0.77272469  1.0
  Cl  Cl27  1  0.09410579  0.25000000  0.72727531  1.0
  O  O28  1  0.41877485  0.87771336  0.95596023  1.0
  O  O29  1  0.41877485  0.62228664  0.95596023  1.0
  O  O30  1  0.91877485  0.87771336  0.54403977  1.0
  O  O31  1  0.91877485  0.62228664  0.54403977  1.0
  O  O32  1  0.58122515  0.37771336  0.04403977  1.0
  O  O33  1  0.58122515  0.12228664  0.04403977  1.0
  O  O34  1  0.08122515  0.37771336  0.45596023  1.0
  O  O35  1  0.08122515  0.12228664  0.45596023  1.0
  O  O36  1  0.29084127  0.75000000  0.48401978  1.0
  O  O37  1  0.79084127  0.75000000  0.01598022  1.0
  O  O38  1  0.70915873  0.25000000  0.51598022  1.0
  O  O39  1  0.20915873  0.25000000  0.98401978  1.0
