# generated using pymatgen
data_Cs3NbSe4
_symmetry_space_group_name_H-M   'P 1'
_cell_length_a   10.41672410
_cell_length_b   12.15975051
_cell_length_c   10.50981557
_cell_angle_alpha   90.00000000
_cell_angle_beta   90.00000000
_cell_angle_gamma   90.00000000
_symmetry_Int_Tables_number   1
_chemical_formula_structural   Cs3NbSe4
_chemical_formula_sum   'Cs12 Nb4 Se16'
_cell_volume   1331.22333309
_cell_formula_units_Z   4
loop_
 _symmetry_equiv_pos_site_id
 _symmetry_equiv_pos_as_xyz
  1  'x, y, z'
loop_
 _atom_site_type_symbol
 _atom_site_label
 _atom_site_symmetry_multiplicity
 _atom_site_fract_x
 _atom_site_fract_y
 _atom_site_fract_z
 _atom_site_occupancy
  Cs  Cs0  1  0.44933819  0.95694115  0.79204067  1.0
  Cs  Cs1  1  0.44933819  0.54305885  0.79204067  1.0
  Cs  Cs2  1  0.94933819  0.95694115  0.70795933  1.0
  Cs  Cs3  1  0.94933819  0.54305885  0.70795933  1.0
  Cs  Cs4  1  0.55066181  0.45694115  0.20795933  1.0
  Cs  Cs5  1  0.55066181  0.04305885  0.20795933  1.0
  Cs  Cs6  1  0.05066181  0.45694115  0.29204067  1.0
  Cs  Cs7  1  0.05066181  0.04305885  0.29204067  1.0
  Cs  Cs8  1  0.14165981  0.75000000  0.08454540  1.0
  Cs  Cs9  1  0.64165981  0.75000000  0.41545460  1.0
  Cs  Cs10  1  0.85834019  0.25000000  0.91545460  1.0
  Cs  Cs11  1  0.35834019  0.25000000  0.58454540  1.0
  Nb  Nb12  1  0.22037327  0.75000000  0.51637311  1.0
  Nb  Nb13  1  0.72037327  0.75000000  0.98362689  1.0
  Nb  Nb14  1  0.77962673  0.25000000  0.48362689  1.0
  Nb  Nb15  1  0.27962673  0.25000000  0.01637311  1.0
  Se  Se16  1  0.16651664  0.41403980  0.95187271  1.0
  Se  Se17  1  0.16651664  0.08596020  0.95187271  1.0
  Se  Se18  1  0.66651664  0.41403980  0.54812729  1.0
  Se  Se19  1  0.66651664  0.08596020  0.54812729  1.0
  Se  Se20  1  0.83348336  0.91403980  0.04812729  1.0
  Se  Se21  1  0.83348336  0.58596020  0.04812729  1.0
  Se  Se22  1  0.33348336  0.91403980  0.45187271  1.0
  Se  Se23  1  0.33348336  0.58596020  0.45187271  1.0
  Se  Se24  1  0.50660952  0.75000000  0.07470278  1.0
  Se  Se25  1  0.00660952  0.75000000  0.42529722  1.0
  Se  Se26  1  0.49339048  0.25000000  0.92529722  1.0
  Se  Se27  1  0.99339048  0.25000000  0.57470278  1.0
  Se  Se28  1  0.20293784  0.75000000  0.74578804  1.0
  Se  Se29  1  0.70293784  0.75000000  0.75421196  1.0
  Se  Se30  1  0.79706216  0.25000000  0.25421196  1.0
  Se  Se31  1  0.29706216  0.25000000  0.24578804  1.0
