# generated using pymatgen
data_Tl3Co(NO2)6
_symmetry_space_group_name_H-M   'P 1'
_cell_length_a   7.71710171
_cell_length_b   7.71710171
_cell_length_c   7.71710171
_cell_angle_alpha   60.00000000
_cell_angle_beta   60.00000000
_cell_angle_gamma   60.00000000
_symmetry_Int_Tables_number   1
_chemical_formula_structural   Tl3Co(NO2)6
_chemical_formula_sum   'Tl3 Co1 N6 O12'
_cell_volume   324.97329610
_cell_formula_units_Z   1
loop_
 _symmetry_equiv_pos_site_id
 _symmetry_equiv_pos_as_xyz
  1  'x, y, z'
loop_
 _atom_site_type_symbol
 _atom_site_label
 _atom_site_symmetry_multiplicity
 _atom_site_fract_x
 _atom_site_fract_y
 _atom_site_fract_z
 _atom_site_occupancy
  Tl  Tl0  1  0.25000000  0.25000000  0.25000000  1.0
  Tl  Tl1  1  0.75000000  0.75000000  -0.25000000  1.0
  Tl  Tl2  1  -0.50000000  0.50000000  0.50000000  1.0
  Co  Co3  1  0.00000000  0.00000000  0.00000000  1.0
  N  N4  1  -0.82040349  0.82040349  0.82040349  1.0
  N  N5  1  0.17959651  -0.17959651  0.17959651  1.0
  N  N6  1  -0.17959651  0.17959651  0.82040349  1.0
  N  N7  1  -0.17959651  0.82040349  0.17959651  1.0
  N  N8  1  0.17959651  1.17959651  -0.17959651  1.0
  N  N9  1  -0.17959651  0.17959651  0.17959651  1.0
  O  O10  1  1.13789532  0.66440638  -0.66440638  1.0
  O  O11  1  0.66440638  1.13789532  -0.13789532  1.0
  O  O12  1  0.33559362  -0.13789532  0.13789532  1.0
  O  O13  1  -0.13789532  0.33559362  0.66440638  1.0
  O  O14  1  -0.13789532  0.66440638  0.13789532  1.0
  O  O15  1  0.33559362  1.13789532  -0.33559362  1.0
  O  O16  1  -0.66440638  0.66440638  0.86210468  1.0
  O  O17  1  0.13789532  -0.13789532  0.66440638  1.0
  O  O18  1  -0.33559362  0.86210468  0.33559362  1.0
  O  O19  1  0.13789532  1.33559362  -0.13789532  1.0
  O  O20  1  -0.13789532  0.13789532  0.33559362  1.0
  O  O21  1  -0.33559362  0.33559362  1.13789532  1.0
