# generated using pymatgen
data_Cs3Mo2BrO7
_symmetry_space_group_name_H-M   'P 1'
_cell_length_a   6.59329928
_cell_length_b   6.59329928
_cell_length_c   16.75591276
_cell_angle_alpha   90.00000000
_cell_angle_beta   90.00000000
_cell_angle_gamma   120.00000000
_symmetry_Int_Tables_number   1
_chemical_formula_structural   Cs3Mo2BrO7
_chemical_formula_sum   'Cs6 Mo4 Br2 O14'
_cell_volume   630.81832602
_cell_formula_units_Z   2
loop_
 _symmetry_equiv_pos_site_id
 _symmetry_equiv_pos_as_xyz
  1  'x, y, z'
loop_
 _atom_site_type_symbol
 _atom_site_label
 _atom_site_symmetry_multiplicity
 _atom_site_fract_x
 _atom_site_fract_y
 _atom_site_fract_z
 _atom_site_occupancy
  Cs  Cs0  1  0.33333333  0.66666667  0.95697096  1.0
  Cs  Cs1  1  0.33333333  0.66666667  0.54302904  1.0
  Cs  Cs2  1  0.66666667  0.33333333  0.45697096  1.0
  Cs  Cs3  1  0.66666667  0.33333333  0.04302904  1.0
  Cs  Cs4  1  0.33333333  0.66666667  0.25000000  1.0
  Cs  Cs5  1  0.66666667  0.33333333  0.75000000  1.0
  Mo  Mo6  1  -0.00000000  -0.00000000  0.36342099  1.0
  Mo  Mo7  1  -0.00000000  -0.00000000  0.13657901  1.0
  Mo  Mo8  1  0.00000000  0.00000000  0.86342099  1.0
  Mo  Mo9  1  0.00000000  0.00000000  0.63657901  1.0
  Br  Br10  1  0.33333333  0.66666667  0.75000000  1.0
  Br  Br11  1  0.66666667  0.33333333  0.25000000  1.0
  O  O12  1  0.14368123  0.85631877  0.39995413  1.0
  O  O13  1  0.14368123  0.85631877  0.10004587  1.0
  O  O14  1  0.14368123  0.28736246  0.39995413  1.0
  O  O15  1  0.14368123  0.28736246  0.10004587  1.0
  O  O16  1  0.85631877  0.14368123  0.89995413  1.0
  O  O17  1  0.85631877  0.14368123  0.60004587  1.0
  O  O18  1  0.85631877  0.71263754  0.89995413  1.0
  O  O19  1  0.85631877  0.71263754  0.60004587  1.0
  O  O20  1  0.71263754  0.85631877  0.39995413  1.0
  O  O21  1  0.71263754  0.85631877  0.10004587  1.0
  O  O22  1  0.28736246  0.14368123  0.89995413  1.0
  O  O23  1  0.28736246  0.14368123  0.60004587  1.0
  O  O24  1  0.00000000  -0.00000000  0.25000000  1.0
  O  O25  1  -0.00000000  -0.00000000  0.75000000  1.0
