# generated using pymatgen
data_Na2Mn3(PO4)3
_symmetry_space_group_name_H-M   'P 1'
_cell_length_a   8.70363736
_cell_length_b   8.70363736
_cell_length_c   6.83530919
_cell_angle_alpha   72.17561235
_cell_angle_beta   107.82438765
_cell_angle_gamma   88.54936777
_symmetry_Int_Tables_number   1
_chemical_formula_structural   Na2Mn3(PO4)3
_chemical_formula_sum   'Na4 Mn6 P6 O24'
_cell_volume   465.21713215
_cell_formula_units_Z   2
loop_
 _symmetry_equiv_pos_site_id
 _symmetry_equiv_pos_as_xyz
  1  'x, y, z'
loop_
 _atom_site_type_symbol
 _atom_site_label
 _atom_site_symmetry_multiplicity
 _atom_site_fract_x
 _atom_site_fract_y
 _atom_site_fract_z
 _atom_site_occupancy
  Na  Na0  1  0.51689101  -0.48310899  0.75000000  1.0
  Na  Na1  1  1.48310899  0.48310899  0.25000000  1.0
  Na  Na2  1  0.00000000  0.00000000  0.00000000  1.0
  Na  Na3  1  -0.00000000  0.00000000  0.50000000  1.0
  Mn  Mn4  1  1.56235845  0.11560334  0.64390890  1.0
  Mn  Mn5  1  0.88439666  -0.56235845  0.14390890  1.0
  Mn  Mn6  1  1.11560334  0.56235845  0.85609110  1.0
  Mn  Mn7  1  0.43764155  -0.11560334  0.35609110  1.0
  Mn  Mn8  1  1.23253673  0.23253673  0.75000000  1.0
  Mn  Mn9  1  0.76746327  -0.23253673  0.25000000  1.0
  P  P10  1  0.37383342  -0.15535912  0.87768304  1.0
  P  P11  1  1.15535912  0.62616658  0.37768304  1.0
  P  P12  1  0.84464088  -0.62616658  0.62231696  1.0
  P  P13  1  1.62616658  0.15535912  0.12231696  1.0
  P  P14  1  0.78464061  -0.21535939  0.75000000  1.0
  P  P15  1  1.21535939  0.21535939  0.25000000  1.0
  O  O16  1  0.66767776  -0.24350819  0.54172385  1.0
  O  O17  1  1.24350819  0.33232224  0.04172385  1.0
  O  O18  1  0.75649181  -0.33232224  0.95827615  1.0
  O  O19  1  1.33232224  0.24350819  0.45827615  1.0
  O  O20  1  0.76331169  -0.03658718  0.74789642  1.0
  O  O21  1  1.03658718  0.23668831  0.24789642  1.0
  O  O22  1  0.96341282  -0.23668831  0.75210358  1.0
  O  O23  1  1.23668831  0.03658718  0.25210358  1.0
  O  O24  1  0.45373389  -0.09491686  0.69515229  1.0
  O  O25  1  1.09491686  0.54626611  0.19515229  1.0
  O  O26  1  0.90508314  -0.54626611  0.80484771  1.0
  O  O27  1  1.54626611  0.09491686  0.30484771  1.0
  O  O28  1  1.67261564  0.32216646  0.61784926  1.0
  O  O29  1  0.67783354  -0.67261564  0.11784926  1.0
  O  O30  1  1.32216646  0.67261564  0.88215074  1.0
  O  O31  1  0.32738436  -0.32216646  0.38215074  1.0
  O  O32  1  1.49473376  0.18114380  0.89436593  1.0
  O  O33  1  0.81885620  -0.49473376  0.39436593  1.0
  O  O34  1  1.18114380  0.49473376  0.60563407  1.0
  O  O35  1  0.50526624  -0.18114380  0.10563407  1.0
  O  O36  1  0.22820151  -0.02860675  0.83157789  1.0
  O  O37  1  1.02860675  0.77179849  0.33157789  1.0
  O  O38  1  0.97139325  -0.77179849  0.66842211  1.0
  O  O39  1  1.77179849  0.02860675  0.16842211  1.0
