# generated using pymatgen
data_K2CaAs2O7
_symmetry_space_group_name_H-M   'P 1'
_cell_length_a   9.43829491
_cell_length_b   5.94901589
_cell_length_c   14.92266891
_cell_angle_alpha   90.00000000
_cell_angle_beta   106.61663144
_cell_angle_gamma   90.00000000
_symmetry_Int_Tables_number   1
_chemical_formula_structural   K2CaAs2O7
_chemical_formula_sum   'K8 Ca4 As8 O28'
_cell_volume   802.89599858
_cell_formula_units_Z   4
loop_
 _symmetry_equiv_pos_site_id
 _symmetry_equiv_pos_as_xyz
  1  'x, y, z'
loop_
 _atom_site_type_symbol
 _atom_site_label
 _atom_site_symmetry_multiplicity
 _atom_site_fract_x
 _atom_site_fract_y
 _atom_site_fract_z
 _atom_site_occupancy
  K  K0  1  0.97487908  0.74788861  0.38117496  1.0
  K  K1  1  0.97487908  0.75211139  0.88117496  1.0
  K  K2  1  0.02512092  0.24788861  0.11882504  1.0
  K  K3  1  0.02512092  0.25211139  0.61882504  1.0
  K  K4  1  0.46679211  0.23076162  0.16654380  1.0
  K  K5  1  0.46679211  0.26923838  0.66654380  1.0
  K  K6  1  0.53320789  0.73076162  0.33345620  1.0
  K  K7  1  0.53320789  0.76923838  0.83345620  1.0
  Ca  Ca8  1  0.26796412  0.26918642  0.36307605  1.0
  Ca  Ca9  1  0.26796412  0.23081358  0.86307605  1.0
  Ca  Ca10  1  0.73203588  0.76918642  0.13692395  1.0
  Ca  Ca11  1  0.73203588  0.73081358  0.63692395  1.0
  As  As12  1  0.82706534  0.25578278  0.30420159  1.0
  As  As13  1  0.82706534  0.24421722  0.80420159  1.0
  As  As14  1  0.17293466  0.75578278  0.19579841  1.0
  As  As15  1  0.17293466  0.74421722  0.69579841  1.0
  As  As16  1  0.68096410  0.20975408  0.47112951  1.0
  As  As17  1  0.68096410  0.29024592  0.97112951  1.0
  As  As18  1  0.31903590  0.70975408  0.02887049  1.0
  As  As19  1  0.31903590  0.79024592  0.52887049  1.0
  O  O20  1  0.98951822  0.75831927  0.19025367  1.0
  O  O21  1  0.98951822  0.74168073  0.69025367  1.0
  O  O22  1  0.01048178  0.25831927  0.30974633  1.0
  O  O23  1  0.01048178  0.24168073  0.80974633  1.0
  O  O24  1  0.83882445  0.29427338  0.42876619  1.0
  O  O25  1  0.83882445  0.20572662  0.92876619  1.0
  O  O26  1  0.16117555  0.79427338  0.07123381  1.0
  O  O27  1  0.16117555  0.70572662  0.57123381  1.0
  O  O28  1  0.74015310  0.00255715  0.27178976  1.0
  O  O29  1  0.74015310  0.49744285  0.77178976  1.0
  O  O30  1  0.25984690  0.50255715  0.22821024  1.0
  O  O31  1  0.25984690  0.99744285  0.72821024  1.0
  O  O32  1  0.73111836  0.48685258  0.25010306  1.0
  O  O33  1  0.73111836  0.01314742  0.75010306  1.0
  O  O34  1  0.26888164  0.98685258  0.24989694  1.0
  O  O35  1  0.26888164  0.51314742  0.74989694  1.0
  O  O36  1  0.71016449  0.92969450  0.49814733  1.0
  O  O37  1  0.71016449  0.57030550  0.99814733  1.0
  O  O38  1  0.28983551  0.42969450  0.00185267  1.0
  O  O39  1  0.28983551  0.07030550  0.50185267  1.0
  O  O40  1  0.71003974  0.12507439  0.06849917  1.0
  O  O41  1  0.71003974  0.37492561  0.56849917  1.0
  O  O42  1  0.28996026  0.62507439  0.43150083  1.0
  O  O43  1  0.28996026  0.87492561  0.93150083  1.0
  O  O44  1  0.52437283  0.26250825  0.38149627  1.0
  O  O45  1  0.52437283  0.23749175  0.88149627  1.0
  O  O46  1  0.47562717  0.76250825  0.11850373  1.0
  O  O47  1  0.47562717  0.73749175  0.61850373  1.0
