# generated using pymatgen
data_EuNiGe
_symmetry_space_group_name_H-M   'P 1'
_cell_length_a   6.07132604
_cell_length_b   6.12226043
_cell_length_c   7.55207295
_cell_angle_alpha   90.00000000
_cell_angle_beta   119.97331293
_cell_angle_gamma   90.00000000
_symmetry_Int_Tables_number   1
_chemical_formula_structural   EuNiGe
_chemical_formula_sum   'Eu4 Ni4 Ge4'
_cell_volume   243.16938118
_cell_formula_units_Z   4
loop_
 _symmetry_equiv_pos_site_id
 _symmetry_equiv_pos_as_xyz
  1  'x, y, z'
loop_
 _atom_site_type_symbol
 _atom_site_label
 _atom_site_symmetry_multiplicity
 _atom_site_fract_x
 _atom_site_fract_y
 _atom_site_fract_z
 _atom_site_occupancy
  Eu  Eu0  1  0.69970853  0.86129124  0.39421260  1.0
  Eu  Eu1  1  0.69970853  0.63870876  0.89421260  1.0
  Eu  Eu2  1  0.30029147  0.36129124  0.10578740  1.0
  Eu  Eu3  1  0.30029147  0.13870876  0.60578740  1.0
  Ni  Ni4  1  0.88586549  0.40618873  0.32306014  1.0
  Ni  Ni5  1  0.88586549  0.09381127  0.82306014  1.0
  Ni  Ni6  1  0.11413451  0.90618873  0.17693986  1.0
  Ni  Ni7  1  0.11413451  0.59381127  0.67693986  1.0
  Ge  Ge8  1  0.76284320  0.14362023  0.07031665  1.0
  Ge  Ge9  1  0.76284320  0.35637977  0.57031665  1.0
  Ge  Ge10  1  0.23715680  0.64362023  0.42968335  1.0
  Ge  Ge11  1  0.23715680  0.85637977  0.92968335  1.0
