# generated using pymatgen
data_CsGaSe2
_symmetry_space_group_name_H-M   'P 1'
_cell_length_a   7.50764689
_cell_length_b   7.50764689
_cell_length_c   6.26718266
_cell_angle_alpha   77.90278719
_cell_angle_beta   102.09721281
_cell_angle_gamma   64.08892809
_symmetry_Int_Tables_number   1
_chemical_formula_structural   CsGaSe2
_chemical_formula_sum   'Cs2 Ga2 Se4'
_cell_volume   291.90115064
_cell_formula_units_Z   2
loop_
 _symmetry_equiv_pos_site_id
 _symmetry_equiv_pos_as_xyz
  1  'x, y, z'
loop_
 _atom_site_type_symbol
 _atom_site_label
 _atom_site_symmetry_multiplicity
 _atom_site_fract_x
 _atom_site_fract_y
 _atom_site_fract_z
 _atom_site_occupancy
  Cs  Cs0  1  0.86020044  -0.13979956  0.25000000  1.0
  Cs  Cs1  1  1.13979956  0.13979956  0.75000000  1.0
  Ga  Ga2  1  1.49651165  0.49651165  0.25000000  1.0
  Ga  Ga3  1  0.50348835  -0.49651165  0.75000000  1.0
  Se  Se4  1  0.78652376  -0.57844650  0.09778831  1.0
  Se  Se5  1  0.42155350  -0.21347624  0.40221169  1.0
  Se  Se6  1  1.21347624  0.57844650  0.90221169  1.0
  Se  Se7  1  1.57844650  0.21347624  0.59778831  1.0
