# generated using pymatgen
data_KIn2F7
_symmetry_space_group_name_H-M   'P 1'
_cell_length_a   6.76508362
_cell_length_b   8.32662383
_cell_length_c   11.03924893
_cell_angle_alpha   90.00000000
_cell_angle_beta   90.00340777
_cell_angle_gamma   90.00000000
_symmetry_Int_Tables_number   1
_chemical_formula_structural   KIn2F7
_chemical_formula_sum   'K4 In8 F28'
_cell_volume   621.84427477
_cell_formula_units_Z   4
loop_
 _symmetry_equiv_pos_site_id
 _symmetry_equiv_pos_as_xyz
  1  'x, y, z'
loop_
 _atom_site_type_symbol
 _atom_site_label
 _atom_site_symmetry_multiplicity
 _atom_site_fract_x
 _atom_site_fract_y
 _atom_site_fract_z
 _atom_site_occupancy
  K  K0  1  0.75007020  0.75000000  0.75000852  1.0
  K  K1  1  0.24992980  0.25000000  0.24999148  1.0
  K  K2  1  0.25046668  0.75000000  0.25000280  1.0
  K  K3  1  0.74953332  0.25000000  0.74999720  1.0
  In  In4  1  0.75001126  0.00307929  0.44157873  1.0
  In  In5  1  0.75001126  0.49692071  0.44157873  1.0
  In  In6  1  0.24998874  0.50307929  0.55842127  1.0
  In  In7  1  0.24998874  -0.00307929  0.55842127  1.0
  In  In8  1  0.24999569  -0.00307924  0.94158694  1.0
  In  In9  1  0.24999569  0.50307924  0.94158694  1.0
  In  In10  1  0.75000431  0.49692076  0.05841306  1.0
  In  In11  1  0.75000431  0.00307924  0.05841306  1.0
  F  F12  1  0.93867475  0.98013101  0.60515539  1.0
  F  F13  1  0.93867475  0.51986899  0.60515539  1.0
  F  F14  1  0.06132525  0.48013101  0.39484461  1.0
  F  F15  1  0.06132525  0.01986899  0.39484461  1.0
  F  F16  1  0.93869321  0.98046276  0.89479410  1.0
  F  F17  1  0.93869321  0.51953724  0.89479410  1.0
  F  F18  1  0.06130679  0.48046276  0.10520590  1.0
  F  F19  1  0.06130679  0.01953724  0.10520590  1.0
  F  F20  1  0.56130163  0.98035631  0.60519022  1.0
  F  F21  1  0.56130163  0.51964369  0.60519022  1.0
  F  F22  1  0.43869837  0.48035631  0.39480978  1.0
  F  F23  1  0.43869837  0.01964369  0.39480978  1.0
  F  F24  1  0.56130265  0.98027112  0.89481663  1.0
  F  F25  1  0.56130265  0.51972888  0.89481663  1.0
  F  F26  1  0.43869735  0.48027112  0.10518337  1.0
  F  F27  1  0.43869735  0.01972888  0.10518337  1.0
  F  F28  1  0.24999864  0.95655083  0.75000133  1.0
  F  F29  1  0.24999864  0.54344917  0.75000133  1.0
  F  F30  1  0.75000136  0.45655083  0.24999867  1.0
  F  F31  1  0.75000136  0.04344917  0.24999867  1.0
  F  F32  1  0.74998153  0.75000000  0.41721539  1.0
  F  F33  1  0.25001847  0.25000000  0.58278461  1.0
  F  F34  1  0.74980758  0.75000000  0.08261268  1.0
  F  F35  1  0.25019242  0.25000000  0.91738732  1.0
  F  F36  1  0.24997816  0.75000000  0.98710419  1.0
  F  F37  1  0.75002184  0.25000000  0.01289581  1.0
  F  F38  1  0.25000676  0.75000000  0.51280769  1.0
  F  F39  1  0.74999324  0.25000000  0.48719231  1.0
