# generated using pymatgen
data_RbCr2BiO8
_symmetry_space_group_name_H-M   'P 1'
_cell_length_a   10.26854119
_cell_length_b   13.49452346
_cell_length_c   5.78806587
_cell_angle_alpha   90.00000000
_cell_angle_beta   90.00000000
_cell_angle_gamma   90.00000000
_symmetry_Int_Tables_number   1
_chemical_formula_structural   RbCr2BiO8
_chemical_formula_sum   'Rb4 Cr8 Bi4 O32'
_cell_volume   802.04690445
_cell_formula_units_Z   4
loop_
 _symmetry_equiv_pos_site_id
 _symmetry_equiv_pos_as_xyz
  1  'x, y, z'
loop_
 _atom_site_type_symbol
 _atom_site_label
 _atom_site_symmetry_multiplicity
 _atom_site_fract_x
 _atom_site_fract_y
 _atom_site_fract_z
 _atom_site_occupancy
  Rb  Rb0  1  0.41788672  0.75000000  0.25000000  1.0
  Rb  Rb1  1  0.91788672  0.75000000  0.75000000  1.0
  Rb  Rb2  1  0.58211328  0.25000000  0.75000000  1.0
  Rb  Rb3  1  0.08211328  0.25000000  0.25000000  1.0
  Cr  Cr4  1  0.08553939  0.91896321  0.23611044  1.0
  Cr  Cr5  1  0.08553939  0.58103679  0.26388956  1.0
  Cr  Cr6  1  0.58553939  0.91896321  0.76388956  1.0
  Cr  Cr7  1  0.58553939  0.58103679  0.73611044  1.0
  Cr  Cr8  1  0.91446061  0.41896321  0.73611044  1.0
  Cr  Cr9  1  0.91446061  0.08103679  0.76388956  1.0
  Cr  Cr10  1  0.41446061  0.41896321  0.26388956  1.0
  Cr  Cr11  1  0.41446061  0.08103679  0.23611044  1.0
  Bi  Bi12  1  0.25000000  0.00000000  0.71261656  1.0
  Bi  Bi13  1  0.25000000  0.50000000  0.78738344  1.0
  Bi  Bi14  1  0.75000000  0.00000000  0.28738344  1.0
  Bi  Bi15  1  0.75000000  0.50000000  0.21261656  1.0
  O  O16  1  0.39834569  0.96643929  0.31511058  1.0
  O  O17  1  0.39834569  0.53356071  0.18488942  1.0
  O  O18  1  0.89834569  0.96643929  0.68488942  1.0
  O  O19  1  0.89834569  0.53356071  0.81511058  1.0
  O  O20  1  0.60165431  0.46643929  0.81511058  1.0
  O  O21  1  0.60165431  0.03356071  0.68488942  1.0
  O  O22  1  0.10165431  0.46643929  0.18488942  1.0
  O  O23  1  0.10165431  0.03356071  0.31511058  1.0
  O  O24  1  0.15290354  0.64808256  0.05975011  1.0
  O  O25  1  0.15290354  0.85191744  0.44024989  1.0
  O  O26  1  0.65290354  0.64808256  0.94024989  1.0
  O  O27  1  0.65290354  0.85191744  0.55975011  1.0
  O  O28  1  0.84709646  0.14808256  0.55975011  1.0
  O  O29  1  0.84709646  0.35191744  0.94024989  1.0
  O  O30  1  0.34709646  0.14808256  0.44024989  1.0
  O  O31  1  0.34709646  0.35191744  0.05975011  1.0
  O  O32  1  0.16117868  0.90140241  0.97807029  1.0
  O  O33  1  0.16117868  0.59859759  0.52192971  1.0
  O  O34  1  0.66117868  0.90140241  0.02192971  1.0
  O  O35  1  0.66117868  0.59859759  0.47807029  1.0
  O  O36  1  0.83882132  0.40140241  0.47807029  1.0
  O  O37  1  0.83882132  0.09859759  0.02192971  1.0
  O  O38  1  0.33882132  0.40140241  0.52192971  1.0
  O  O39  1  0.33882132  0.09859759  0.97807029  1.0
  O  O40  1  0.92730792  0.89173889  0.20894422  1.0
  O  O41  1  0.92730792  0.60826111  0.29105578  1.0
  O  O42  1  0.42730792  0.89173889  0.79105578  1.0
  O  O43  1  0.42730792  0.60826111  0.70894422  1.0
  O  O44  1  0.07269208  0.39173889  0.70894422  1.0
  O  O45  1  0.07269208  0.10826111  0.79105578  1.0
  O  O46  1  0.57269208  0.39173889  0.29105578  1.0
  O  O47  1  0.57269208  0.10826111  0.20894422  1.0
