# generated using pymatgen
data_Gd4CrS7
_symmetry_space_group_name_H-M   'P 1'
_cell_length_a   9.71462777
_cell_length_b   9.71462777
_cell_length_c   6.68588366
_cell_angle_alpha   90.00000000
_cell_angle_beta   90.00000000
_cell_angle_gamma   120.00000000
_symmetry_Int_Tables_number   1
_chemical_formula_structural   Gd4CrS7
_chemical_formula_sum   'Gd8 Cr2 S14'
_cell_volume   546.43911165
_cell_formula_units_Z   2
loop_
 _symmetry_equiv_pos_site_id
 _symmetry_equiv_pos_as_xyz
  1  'x, y, z'
loop_
 _atom_site_type_symbol
 _atom_site_label
 _atom_site_symmetry_multiplicity
 _atom_site_fract_x
 _atom_site_fract_y
 _atom_site_fract_z
 _atom_site_occupancy
  Gd  Gd0  1  0.84617207  0.62266672  0.21257720  1.0
  Gd  Gd1  1  0.62266672  0.77649464  0.71257720  1.0
  Gd  Gd2  1  0.77649464  0.15382793  0.21257720  1.0
  Gd  Gd3  1  0.37733328  0.22350536  0.21257720  1.0
  Gd  Gd4  1  0.15382793  0.37733328  0.71257720  1.0
  Gd  Gd5  1  0.22350536  0.84617207  0.71257720  1.0
  Gd  Gd6  1  0.33333333  0.66666667  0.16340723  1.0
  Gd  Gd7  1  0.66666667  0.33333333  0.66340723  1.0
  Cr  Cr8  1  0.00000000  0.00000000  0.04945922  1.0
  Cr  Cr9  1  0.00000000  0.00000000  0.54945922  1.0
  S  S10  1  0.12958714  0.89868659  0.31169691  1.0
  S  S11  1  0.89868659  0.76909945  0.81169691  1.0
  S  S12  1  0.76909945  0.87041286  0.31169691  1.0
  S  S13  1  0.10131341  0.23090055  0.31169691  1.0
  S  S14  1  0.87041286  0.10131341  0.81169691  1.0
  S  S15  1  0.23090055  0.12958714  0.81169691  1.0
  S  S16  1  0.56329802  0.48995369  0.45329158  1.0
  S  S17  1  0.48995369  0.92665566  0.95329158  1.0
  S  S18  1  0.92665566  0.43670198  0.45329158  1.0
  S  S19  1  0.51004631  0.07334434  0.45329158  1.0
  S  S20  1  0.43670198  0.51004631  0.95329158  1.0
  S  S21  1  0.07334434  0.56329802  0.95329158  1.0
  S  S22  1  0.33333333  0.66666667  0.55043648  1.0
  S  S23  1  0.66666667  0.33333333  0.05043648  1.0
