# generated using pymatgen
data_LaFe2AsN
_symmetry_space_group_name_H-M   'P 1'
_cell_length_a   5.86154861
_cell_length_b   5.86154861
_cell_length_c   7.18324105
_cell_angle_alpha   90.00000000
_cell_angle_beta   90.00000000
_cell_angle_gamma   142.57492792
_symmetry_Int_Tables_number   1
_chemical_formula_structural   LaFe2AsN
_chemical_formula_sum   'La2 Fe4 As2 N2'
_cell_volume   149.98614713
_cell_formula_units_Z   2
loop_
 _symmetry_equiv_pos_site_id
 _symmetry_equiv_pos_as_xyz
  1  'x, y, z'
loop_
 _atom_site_type_symbol
 _atom_site_label
 _atom_site_symmetry_multiplicity
 _atom_site_fract_x
 _atom_site_fract_y
 _atom_site_fract_z
 _atom_site_occupancy
  La  La0  1  -0.46109769  0.46109769  0.25000000  1.0
  La  La1  1  0.46109769  0.53890231  0.75000000  1.0
  Fe  Fe2  1  -0.16915296  0.16915296  0.44651615  1.0
  Fe  Fe3  1  0.16915296  0.83084704  0.55348385  1.0
  Fe  Fe4  1  -0.16915296  0.16915296  0.05348385  1.0
  Fe  Fe5  1  0.16915296  0.83084704  0.94651615  1.0
  As  As6  1  0.26636431  0.73363569  0.25000000  1.0
  As  As7  1  -0.26636431  0.26636431  0.75000000  1.0
  N  N8  1  0.00000000  0.00000000  0.50000000  1.0
  N  N9  1  0.00000000  0.00000000  0.00000000  1.0
