# generated using pymatgen
data_BaPr2Sc2O7
_symmetry_space_group_name_H-M   'P 1'
_cell_length_a   5.86844957
_cell_length_b   5.86844957
_cell_length_c   20.32265742
_cell_angle_alpha   90.00000000
_cell_angle_beta   90.00000000
_cell_angle_gamma   90.00000000
_symmetry_Int_Tables_number   1
_chemical_formula_structural   BaPr2Sc2O7
_chemical_formula_sum   'Ba4 Pr8 Sc8 O28'
_cell_volume   699.88591009
_cell_formula_units_Z   4
loop_
 _symmetry_equiv_pos_site_id
 _symmetry_equiv_pos_as_xyz
  1  'x, y, z'
loop_
 _atom_site_type_symbol
 _atom_site_label
 _atom_site_symmetry_multiplicity
 _atom_site_fract_x
 _atom_site_fract_y
 _atom_site_fract_z
 _atom_site_occupancy
  Ba  Ba0  1  0.24023635  0.24023635  0.50000000  1.0
  Ba  Ba1  1  0.74023635  0.25976365  0.00000000  1.0
  Ba  Ba2  1  0.75976365  0.75976365  0.50000000  1.0
  Ba  Ba3  1  0.25976365  0.74023635  0.00000000  1.0
  Pr  Pr4  1  0.27859218  0.72140782  0.18478832  1.0
  Pr  Pr5  1  0.27859218  0.72140782  0.81521168  1.0
  Pr  Pr6  1  0.77859218  0.77859218  0.68478832  1.0
  Pr  Pr7  1  0.77859218  0.77859218  0.31521168  1.0
  Pr  Pr8  1  0.72140782  0.27859218  0.18478832  1.0
  Pr  Pr9  1  0.72140782  0.27859218  0.81521168  1.0
  Pr  Pr10  1  0.22140782  0.22140782  0.68478832  1.0
  Pr  Pr11  1  0.22140782  0.22140782  0.31521168  1.0
  Sc  Sc12  1  0.25898554  0.74101446  0.39794679  1.0
  Sc  Sc13  1  0.25898554  0.74101446  0.60205321  1.0
  Sc  Sc14  1  0.75898554  0.75898554  0.89794679  1.0
  Sc  Sc15  1  0.75898554  0.75898554  0.10205321  1.0
  Sc  Sc16  1  0.74101446  0.25898554  0.39794679  1.0
  Sc  Sc17  1  0.74101446  0.25898554  0.60205321  1.0
  Sc  Sc18  1  0.24101446  0.24101446  0.89794679  1.0
  Sc  Sc19  1  0.24101446  0.24101446  0.10205321  1.0
  O  O20  1  0.18472947  0.81527053  0.28898163  1.0
  O  O21  1  0.18472947  0.81527053  0.71101837  1.0
  O  O22  1  0.68472947  0.68472947  0.78898163  1.0
  O  O23  1  0.68472947  0.68472947  0.21101837  1.0
  O  O24  1  0.81527053  0.18472947  0.28898163  1.0
  O  O25  1  0.81527053  0.18472947  0.71101837  1.0
  O  O26  1  0.31527053  0.31527053  0.78898163  1.0
  O  O27  1  0.31527053  0.31527053  0.21101837  1.0
  O  O28  1  0.50000000  0.00000000  0.38643538  1.0
  O  O29  1  0.50000000  0.00000000  0.61356462  1.0
  O  O30  1  0.00000000  0.50000000  0.88643538  1.0
  O  O31  1  0.00000000  0.50000000  0.11356462  1.0
  O  O32  1  0.00000000  0.50000000  0.38643538  1.0
  O  O33  1  0.00000000  0.50000000  0.61356462  1.0
  O  O34  1  0.50000000  0.00000000  0.88643538  1.0
  O  O35  1  0.50000000  0.00000000  0.11356462  1.0
  O  O36  1  0.28457559  0.71542441  0.50000000  1.0
  O  O37  1  0.78457559  0.78457559  0.00000000  1.0
  O  O38  1  0.71542441  0.28457559  0.50000000  1.0
  O  O39  1  0.21542441  0.21542441  0.00000000  1.0
  O  O40  1  0.50000000  0.50000000  0.37099170  1.0
  O  O41  1  0.50000000  0.50000000  0.62900830  1.0
  O  O42  1  0.00000000  0.00000000  0.87099170  1.0
  O  O43  1  0.00000000  0.00000000  0.12900830  1.0
  O  O44  1  0.50000000  0.50000000  0.09498040  1.0
  O  O45  1  0.50000000  0.50000000  0.90501960  1.0
  O  O46  1  0.00000000  0.00000000  0.59498040  1.0
  O  O47  1  0.00000000  0.00000000  0.40501960  1.0
