# generated using pymatgen
data_Mg(HO)2
_symmetry_space_group_name_H-M   'P 1'
_cell_length_a   5.50823143
_cell_length_b   5.50823143
_cell_length_c   4.78864916
_cell_angle_alpha   90.00000000
_cell_angle_beta   90.00000000
_cell_angle_gamma   120.00000000
_symmetry_Int_Tables_number   1
_chemical_formula_structural   Mg(HO)2
_chemical_formula_sum   'Mg3 H6 O6'
_cell_volume   125.82531014
_cell_formula_units_Z   3
loop_
 _symmetry_equiv_pos_site_id
 _symmetry_equiv_pos_as_xyz
  1  'x, y, z'
loop_
 _atom_site_type_symbol
 _atom_site_label
 _atom_site_symmetry_multiplicity
 _atom_site_fract_x
 _atom_site_fract_y
 _atom_site_fract_z
 _atom_site_occupancy
  Mg  Mg0  1  0.33333333  0.66666667  -0.00790377  1.0
  Mg  Mg1  1  0.66666667  0.33333333  1.00790377  1.0
  Mg  Mg2  1  0.00000000  0.00000000  0.00000000  1.0
  H  H3  1  0.32158222  0.97688936  0.41884137  1.0
  H  H4  1  0.97688936  0.65530715  0.58115863  1.0
  H  H5  1  0.65530715  0.67841778  0.41884137  1.0
  H  H6  1  0.02311064  0.34469285  0.41884137  1.0
  H  H7  1  0.67841778  0.02311064  0.58115863  1.0
  H  H8  1  0.34469285  0.32158222  0.58115863  1.0
  O  O9  1  0.33194428  0.99720390  0.21743669  1.0
  O  O10  1  0.99720390  0.66525962  0.78256331  1.0
  O  O11  1  0.66525962  0.66805572  0.21743669  1.0
  O  O12  1  0.00279610  0.33474038  0.21743669  1.0
  O  O13  1  0.66805572  0.00279610  0.78256331  1.0
  O  O14  1  0.33474038  0.33194428  0.78256331  1.0
