# generated using pymatgen
data_ScSi3Ni
_symmetry_space_group_name_H-M   'P 1'
_cell_length_a   10.54965649
_cell_length_b   10.54965649
_cell_length_c   3.83024780
_cell_angle_alpha   90.00000000
_cell_angle_beta   90.00000000
_cell_angle_gamma   158.94041090
_symmetry_Int_Tables_number   1
_chemical_formula_structural   ScSi3Ni
_chemical_formula_sum   'Sc2 Si6 Ni2'
_cell_volume   153.18191896
_cell_formula_units_Z   2
loop_
 _symmetry_equiv_pos_site_id
 _symmetry_equiv_pos_as_xyz
  1  'x, y, z'
loop_
 _atom_site_type_symbol
 _atom_site_label
 _atom_site_symmetry_multiplicity
 _atom_site_fract_x
 _atom_site_fract_y
 _atom_site_fract_z
 _atom_site_occupancy
  Sc  Sc0  1  0.45109226  0.54890774  0.50000000  1.0
  Sc  Sc1  1  0.11156019  0.88843981  0.50000000  1.0
  Si  Si2  1  -0.16190238  0.16190238  0.50000000  1.0
  Si  Si3  1  -0.27543813  0.27543813  0.50000000  1.0
  Si  Si4  1  -0.00024990  0.00024990  0.00000000  1.0
  Si  Si5  1  -0.43708441  0.43708441  0.00000000  1.0
  Si  Si6  1  0.33832591  0.66167409  0.00000000  1.0
  Si  Si7  1  0.22433725  0.77566275  0.00000000  1.0
  Ni  Ni8  1  -0.10614693  0.10614693  0.00000000  1.0
  Ni  Ni9  1  -0.33119385  0.33119385  0.00000000  1.0
