# generated using pymatgen
data_Au2Se3O10
_symmetry_space_group_name_H-M   'P 1'
_cell_length_a   9.28326773
_cell_length_b   9.28326773
_cell_length_c   9.08872979
_cell_angle_alpha   90.00000000
_cell_angle_beta   90.00000000
_cell_angle_gamma   40.14855575
_symmetry_Int_Tables_number   1
_chemical_formula_structural   Au2Se3O10
_chemical_formula_sum   'Au4 Se6 O20'
_cell_volume   505.02266437
_cell_formula_units_Z   2
loop_
 _symmetry_equiv_pos_site_id
 _symmetry_equiv_pos_as_xyz
  1  'x, y, z'
loop_
 _atom_site_type_symbol
 _atom_site_label
 _atom_site_symmetry_multiplicity
 _atom_site_fract_x
 _atom_site_fract_y
 _atom_site_fract_z
 _atom_site_occupancy
  Au  Au0  1  -0.82162672  1.13774722  0.96864855  1.0
  Au  Au1  1  0.13774722  0.17837328  0.46864855  1.0
  Au  Au2  1  -0.13774722  0.82162672  0.96864855  1.0
  Au  Au3  1  -0.17837328  0.86225278  0.46864855  1.0
  Se  Se4  1  -0.63587251  1.30678599  0.07984231  1.0
  Se  Se5  1  0.30678599  0.36412749  0.57984231  1.0
  Se  Se6  1  -0.30678599  0.63587251  0.07984231  1.0
  Se  Se7  1  -0.36412749  0.69321401  0.57984231  1.0
  Se  Se8  1  -0.85016201  0.85016201  0.33373492  1.0
  Se  Se9  1  -0.14983799  0.14983799  0.83373492  1.0
  O  O10  1  -0.75438439  0.75438439  0.50056298  1.0
  O  O11  1  -0.24561561  0.24561561  0.00056298  1.0
  O  O12  1  -0.74466429  1.22153641  0.12851829  1.0
  O  O13  1  0.22153641  0.25533571  0.62851829  1.0
  O  O14  1  -0.22153641  0.74466429  0.12851829  1.0
  O  O15  1  -0.25533571  0.77846359  0.62851829  1.0
  O  O16  1  -0.69537580  0.69537580  0.19095914  1.0
  O  O17  1  -0.30462420  0.30462420  0.69095914  1.0
  O  O18  1  -0.48565869  1.18219900  0.44837725  1.0
  O  O19  1  0.18219900  0.51434131  0.94837725  1.0
  O  O20  1  -0.18219900  0.48565869  0.44837725  1.0
  O  O21  1  -0.51434131  0.81780100  0.94837725  1.0
  O  O22  1  -0.10112024  0.94651711  0.31058929  1.0
  O  O23  1  -0.05348289  0.89887976  0.81058929  1.0
  O  O24  1  0.05348289  0.10112024  0.31058929  1.0
  O  O25  1  -0.89887976  1.05348289  0.81058929  1.0
  O  O26  1  -0.54265880  0.87929099  0.43579579  1.0
  O  O27  1  -0.12070901  0.45734120  0.93579579  1.0
  O  O28  1  0.12070901  0.54265880  0.43579579  1.0
  O  O29  1  -0.45734120  1.12070901  0.93579579  1.0
