# generated using pymatgen
data_YMoClO4
_symmetry_space_group_name_H-M   'P 1'
_cell_length_a   6.30321311
_cell_length_b   6.30321311
_cell_length_c   6.92099574
_cell_angle_alpha   75.98949310
_cell_angle_beta   104.01050690
_cell_angle_gamma   109.04358147
_symmetry_Int_Tables_number   1
_chemical_formula_structural   YMoClO4
_chemical_formula_sum   'Y2 Mo2 Cl2 O8'
_cell_volume   248.17289023
_cell_formula_units_Z   2
loop_
 _symmetry_equiv_pos_site_id
 _symmetry_equiv_pos_as_xyz
  1  'x, y, z'
loop_
 _atom_site_type_symbol
 _atom_site_label
 _atom_site_symmetry_multiplicity
 _atom_site_fract_x
 _atom_site_fract_y
 _atom_site_fract_z
 _atom_site_occupancy
  Y  Y0  1  0.72237340  -0.72237340  0.61618745  1.0
  Y  Y1  1  0.27762660  -0.27762660  0.38381255  1.0
  Mo  Mo2  1  0.86176239  -0.86176239  0.23208338  1.0
  Mo  Mo3  1  0.13823761  -0.13823761  0.76791662  1.0
  Cl  Cl4  1  0.48789386  -0.48789386  0.73149497  1.0
  Cl  Cl5  1  0.51210614  -0.51210614  0.26850503  1.0
  O  O6  1  0.38888291  -0.00800172  0.65389560  1.0
  O  O7  1  1.00800172  0.61111709  0.65389560  1.0
  O  O8  1  0.99199828  -0.61111709  0.34610440  1.0
  O  O9  1  1.61111709  0.00800172  0.34610440  1.0
  O  O10  1  0.95858526  -0.95858526  0.70365326  1.0
  O  O11  1  0.04141474  -0.04141474  0.29634674  1.0
  O  O12  1  0.79312487  -0.79312487  0.96786014  1.0
  O  O13  1  0.20687513  -0.20687513  0.03213986  1.0
