# generated using pymatgen
data_CdI2
_symmetry_space_group_name_H-M   'P 1'
_cell_length_a   4.32787507
_cell_length_b   4.32787507
_cell_length_c   60.64964317
_cell_angle_alpha   90.00000000
_cell_angle_beta   90.00000000
_cell_angle_gamma   120.00000000
_symmetry_Int_Tables_number   1
_chemical_formula_structural   CdI2
_chemical_formula_sum   'Cd8 I16'
_cell_volume   983.80338871
_cell_formula_units_Z   8
loop_
 _symmetry_equiv_pos_site_id
 _symmetry_equiv_pos_as_xyz
  1  'x, y, z'
loop_
 _atom_site_type_symbol
 _atom_site_label
 _atom_site_symmetry_multiplicity
 _atom_site_fract_x
 _atom_site_fract_y
 _atom_site_fract_z
 _atom_site_occupancy
  Cd  Cd0  1  0.00000000  0.00000000  0.03124899  1.0
  Cd  Cd1  1  0.00000000  0.00000000  0.15622752  1.0
  Cd  Cd2  1  -0.00000000  -0.00000000  0.28122944  1.0
  Cd  Cd3  1  0.00000000  0.00000000  0.40622914  1.0
  Cd  Cd4  1  0.00000000  0.00000000  0.53122899  1.0
  Cd  Cd5  1  0.00000000  0.00000000  0.65622808  1.0
  Cd  Cd6  1  0.00000000  0.00000000  0.78121168  1.0
  Cd  Cd7  1  0.66666667  0.33333333  0.90623287  1.0
  I  I8  1  0.00000000  0.00000000  0.93458545  1.0
  I  I9  1  0.66666667  0.33333333  0.05960149  1.0
  I  I10  1  0.66666667  0.33333333  0.18458087  1.0
  I  I11  1  0.66666667  0.33333333  0.30958243  1.0
  I  I12  1  0.66666667  0.33333333  0.43458377  1.0
  I  I13  1  0.66666667  0.33333333  0.55958266  1.0
  I  I14  1  0.66666667  0.33333333  0.68458192  1.0
  I  I15  1  0.66666667  0.33333333  0.80956560  1.0
  I  I16  1  0.33333333  0.66666667  0.00291063  1.0
  I  I17  1  0.33333333  0.66666667  0.12788441  1.0
  I  I18  1  0.33333333  0.66666667  0.25288528  1.0
  I  I19  1  0.33333333  0.66666667  0.37788687  1.0
  I  I20  1  0.33333333  0.66666667  0.50288561  1.0
  I  I21  1  0.33333333  0.66666667  0.62788526  1.0
  I  I22  1  0.33333333  0.66666667  0.75286810  1.0
  I  I23  1  0.33333333  0.66666667  0.87789295  1.0
