# generated using pymatgen
data_Nb5Si3
_symmetry_space_group_name_H-M   'P 1'
_cell_length_a   7.55611532
_cell_length_b   7.55611532
_cell_length_c   7.55611532
_cell_angle_alpha   96.48858219
_cell_angle_beta   96.48858219
_cell_angle_gamma   140.71351327
_symmetry_Int_Tables_number   1
_chemical_formula_structural   Nb5Si3
_chemical_formula_sum   'Nb10 Si6'
_cell_volume   257.27408121
_cell_formula_units_Z   2
loop_
 _symmetry_equiv_pos_site_id
 _symmetry_equiv_pos_as_xyz
  1  'x, y, z'
loop_
 _atom_site_type_symbol
 _atom_site_label
 _atom_site_symmetry_multiplicity
 _atom_site_fract_x
 _atom_site_fract_y
 _atom_site_fract_z
 _atom_site_occupancy
  Nb  Nb0  1  0.28077015  0.42367877  0.70444892  1.0
  Nb  Nb1  1  1.21922985  0.92367877  1.14290862  1.0
  Nb  Nb2  1  0.92367877  0.78077015  1.70444892  1.0
  Nb  Nb3  1  0.57632123  1.28077015  0.85709138  1.0
  Nb  Nb4  1  0.78077015  1.07632123  0.85709138  1.0
  Nb  Nb5  1  0.71922985  0.57632123  1.29555108  1.0
  Nb  Nb6  1  1.42367877  0.71922985  1.14290862  1.0
  Nb  Nb7  1  0.07632123  0.21922985  0.29555108  1.0
  Nb  Nb8  1  0.75000000  1.25000000  0.50000000  1.0
  Nb  Nb9  1  0.25000000  0.75000000  0.50000000  1.0
  Si  Si10  1  0.83542864  0.33542864  1.17085729  1.0
  Si  Si11  1  0.66457136  0.83542864  0.50000000  1.0
  Si  Si12  1  1.33542864  1.16457136  1.50000000  1.0
  Si  Si13  1  0.16457136  0.66457136  0.82914271  1.0
  Si  Si14  1  0.25000000  0.25000000  -0.00000000  1.0
  Si  Si15  1  0.75000000  0.75000000  -0.00000000  1.0
