# generated using pymatgen
data_Na2NiH4(SeO5)2
_symmetry_space_group_name_H-M   'P 1'
_cell_length_a   5.58061105
_cell_length_b   7.32264153
_cell_length_c   6.00664541
_cell_angle_alpha   109.49657420
_cell_angle_beta   107.38419654
_cell_angle_gamma   98.56277552
_symmetry_Int_Tables_number   1
_chemical_formula_structural   Na2NiH4(SeO5)2
_chemical_formula_sum   'Na2 Ni1 H4 Se2 O10'
_cell_volume   212.21742990
_cell_formula_units_Z   1
loop_
 _symmetry_equiv_pos_site_id
 _symmetry_equiv_pos_as_xyz
  1  'x, y, z'
loop_
 _atom_site_type_symbol
 _atom_site_label
 _atom_site_symmetry_multiplicity
 _atom_site_fract_x
 _atom_site_fract_y
 _atom_site_fract_z
 _atom_site_occupancy
  Na  Na0  1  -0.84015008  -0.24855772  -0.71797984  1.0
  Na  Na1  1  -0.15984992  -0.75144228  -0.28202016  1.0
  Ni  Ni2  1  -0.50000000  0.00000000  0.00000000  1.0
  H  H3  1  -0.58269718  -0.71011373  -0.15095217  1.0
  H  H4  1  -0.41730282  -0.28988627  -0.84904783  1.0
  H  H5  1  -0.36326459  -0.61287548  -0.87197123  1.0
  H  H6  1  -0.63673541  -0.38712452  -0.12802877  1.0
  Se  Se7  1  -0.83190905  -0.76273390  -0.66563282  1.0
  Se  Se8  1  -0.16809095  -0.23726610  -0.33436718  1.0
  O  O9  1  -0.85059276  -0.61664638  -0.82367684  1.0
  O  O10  1  -0.14940724  -0.38335362  -0.17632316  1.0
  O  O11  1  -0.77725217  -0.63286871  -0.35768702  1.0
  O  O12  1  -0.22274783  -0.36713129  -0.64231298  1.0
  O  O13  1  -0.58592421  -0.87314132  -0.67060683  1.0
  O  O14  1  -0.41407579  -0.12685868  -0.32939317  1.0
  O  O15  1  -0.57030042  -0.26716203  -0.96383035  1.0
  O  O16  1  -0.42969958  -0.73283797  -0.03616965  1.0
  O  O17  1  -0.10839283  -0.94936739  -0.77139277  1.0
  O  O18  1  -0.89160717  -0.05063261  -0.22860723  1.0
