# generated using pymatgen
data_LiFeSiO4
_symmetry_space_group_name_H-M   'P 1'
_cell_length_a   6.62704478
_cell_length_b   5.04855530
_cell_length_c   11.98994677
_cell_angle_alpha   90.00000000
_cell_angle_beta   121.98751382
_cell_angle_gamma   90.00000000
_symmetry_Int_Tables_number   1
_chemical_formula_structural   LiFeSiO4
_chemical_formula_sum   'Li4 Fe4 Si4 O16'
_cell_volume   340.23883813
_cell_formula_units_Z   4
loop_
 _symmetry_equiv_pos_site_id
 _symmetry_equiv_pos_as_xyz
  1  'x, y, z'
loop_
 _atom_site_type_symbol
 _atom_site_label
 _atom_site_symmetry_multiplicity
 _atom_site_fract_x
 _atom_site_fract_y
 _atom_site_fract_z
 _atom_site_occupancy
  Li  Li0  1  0.33966002  0.33589399  0.84703831  1.0
  Li  Li1  1  0.33966002  0.16410601  0.34703831  1.0
  Li  Li2  1  0.66033998  0.66410601  0.15296169  1.0
  Li  Li3  1  0.66033998  0.83589399  0.65296169  1.0
  Fe  Fe4  1  0.16055159  0.66675025  0.16526210  1.0
  Fe  Fe5  1  0.16055159  0.83324975  0.66526210  1.0
  Fe  Fe6  1  0.83944841  0.33324975  0.83473790  1.0
  Fe  Fe7  1  0.83944841  0.16675025  0.33473790  1.0
  Si  Si8  1  0.16676995  0.66440498  0.42097919  1.0
  Si  Si9  1  0.16676995  0.83559502  0.92097919  1.0
  Si  Si10  1  0.83323005  0.33559502  0.57902081  1.0
  Si  Si11  1  0.83323005  0.16440498  0.07902081  1.0
  O  O12  1  0.32199985  0.75267256  0.57710958  1.0
  O  O13  1  0.32199985  0.74732744  0.07710958  1.0
  O  O14  1  0.67800015  0.24732744  0.42289042  1.0
  O  O15  1  0.67800015  0.25267256  0.92289042  1.0
  O  O16  1  0.69738218  0.26776232  0.15391807  1.0
  O  O17  1  0.69738218  0.23223768  0.65391807  1.0
  O  O18  1  0.30261782  0.73223768  0.84608193  1.0
  O  O19  1  0.30261782  0.76776232  0.34608193  1.0
  O  O20  1  0.89715960  0.70195213  0.84496954  1.0
  O  O21  1  0.89715960  0.79804787  0.34496954  1.0
  O  O22  1  0.10284040  0.29804787  0.15503046  1.0
  O  O23  1  0.10284040  0.20195213  0.65503046  1.0
  O  O24  1  0.86349029  0.66018687  0.59255810  1.0
  O  O25  1  0.86349029  0.83981313  0.09255810  1.0
  O  O26  1  0.13650971  0.33981313  0.40744190  1.0
  O  O27  1  0.13650971  0.16018687  0.90744190  1.0
