# generated using pymatgen
data_Ba3B(BrO)3
_symmetry_space_group_name_H-M   'P 1'
_cell_length_a   13.11013797
_cell_length_b   9.42477453
_cell_length_c   9.47458291
_cell_angle_alpha   116.43321931
_cell_angle_beta   98.57058741
_cell_angle_gamma   92.31459808
_symmetry_Int_Tables_number   1
_chemical_formula_structural   Ba3B(BrO)3
_chemical_formula_sum   'Ba12 B4 Br12 O12'
_cell_volume   1029.02651457
_cell_formula_units_Z   4
loop_
 _symmetry_equiv_pos_site_id
 _symmetry_equiv_pos_as_xyz
  1  'x, y, z'
loop_
 _atom_site_type_symbol
 _atom_site_label
 _atom_site_symmetry_multiplicity
 _atom_site_fract_x
 _atom_site_fract_y
 _atom_site_fract_z
 _atom_site_occupancy
  Ba  Ba0  1  -0.60477714  -0.49430916  -0.85926092  1.0
  Ba  Ba1  1  -0.39522286  -0.50569084  -0.14073908  1.0
  Ba  Ba2  1  -0.91934480  -0.54454254  -0.76639608  1.0
  Ba  Ba3  1  -0.08065520  -0.45545746  -0.23360392  1.0
  Ba  Ba4  1  -0.51724449  -0.91843724  -0.74176740  1.0
  Ba  Ba5  1  -0.48275551  -0.08156276  -0.25823260  1.0
  Ba  Ba6  1  -0.85638707  -0.99087737  -0.66880447  1.0
  Ba  Ba7  1  -0.14361293  -0.00912263  -0.33119553  1.0
  Ba  Ba8  1  -0.73277665  -0.49681939  -0.32482499  1.0
  Ba  Ba9  1  -0.26722335  -0.50318061  -0.67517501  1.0
  Ba  Ba10  1  -0.74761094  -0.97250605  -0.11251448  1.0
  Ba  Ba11  1  -0.25238906  -0.02749395  -0.88748552  1.0
  B  B12  1  -0.44631865  -0.74279787  -0.92288825  1.0
  B  B13  1  -0.55368135  -0.25720213  -0.07711175  1.0
  B  B14  1  -0.75560106  -0.75956198  -0.76126532  1.0
  B  B15  1  -0.24439894  -0.24043802  -0.23873468  1.0
  Br  Br16  1  -0.84934453  -0.36058853  -0.98211554  1.0
  Br  Br17  1  -0.15065547  -0.63941147  -0.01788446  1.0
  Br  Br18  1  -0.28804044  -0.76535785  -0.43972573  1.0
  Br  Br19  1  -0.71195956  -0.23464215  -0.56027427  1.0
  Br  Br20  1  -0.92269742  -0.29550399  -0.37865718  1.0
  Br  Br21  1  -0.07730258  -0.70449601  -0.62134282  1.0
  Br  Br22  1  -0.59962675  -0.81315231  -0.36580940  1.0
  Br  Br23  1  -0.40037325  -0.18684769  -0.63419060  1.0
  Br  Br24  1  -0.90682781  -0.79852756  -0.29940719  1.0
  Br  Br25  1  -0.09317219  -0.20147244  -0.70059281  1.0
  Br  Br26  1  -0.50000000  -0.50000000  -0.50000000  1.0
  Br  Br27  1  0.00000000  0.00000000  0.00000000  1.0
  O  O28  1  -0.54538068  -0.82574609  -0.98633033  1.0
  O  O29  1  -0.45461932  -0.17425391  -0.01366967  1.0
  O  O30  1  -0.42297149  -0.59832867  -0.92479896  1.0
  O  O31  1  -0.57702851  -0.40167133  -0.07520104  1.0
  O  O32  1  -0.75731349  -0.68812541  -0.86209127  1.0
  O  O33  1  -0.24268651  -0.31187459  -0.13790873  1.0
  O  O34  1  -0.37153239  -0.79711399  -0.84361028  1.0
  O  O35  1  -0.62846761  -0.20288601  -0.15638972  1.0
  O  O36  1  -0.71704824  -0.90605498  -0.80277662  1.0
  O  O37  1  -0.28295176  -0.09394502  -0.19722338  1.0
  O  O38  1  -0.80378645  -0.69516267  -0.62893552  1.0
  O  O39  1  -0.19621355  -0.30483733  -0.37106448  1.0
