# generated using pymatgen
data_Cs2O2
_symmetry_space_group_name_H-M   'P 1'
_cell_length_a   5.48546529
_cell_length_b   5.48546529
_cell_length_c   5.48546529
_cell_angle_alpha   133.02839354
_cell_angle_beta   106.41159239
_cell_angle_gamma   92.01170996
_symmetry_Int_Tables_number   1
_chemical_formula_structural   Cs2O2
_chemical_formula_sum   'Cs2 O2'
_cell_volume   109.46191151
_cell_formula_units_Z   1
loop_
 _symmetry_equiv_pos_site_id
 _symmetry_equiv_pos_as_xyz
  1  'x, y, z'
loop_
 _atom_site_type_symbol
 _atom_site_label
 _atom_site_symmetry_multiplicity
 _atom_site_fract_x
 _atom_site_fract_y
 _atom_site_fract_z
 _atom_site_occupancy
  Cs  Cs0  1  0.74299005  0.74299005  1.00000000  1.0
  Cs  Cs1  1  1.25700995  1.25700995  1.00000000  1.0
  O  O2  1  0.61501328  0.00000000  0.61501328  1.0
  O  O3  1  0.38498672  -0.00000000  0.38498672  1.0
