# generated using pymatgen
data_Y2Ni12As7
_symmetry_space_group_name_H-M   'P 1'
_cell_length_a   9.38718134
_cell_length_b   9.38718134
_cell_length_c   3.85013030
_cell_angle_alpha   90.00000000
_cell_angle_beta   90.00000000
_cell_angle_gamma   120.00000000
_symmetry_Int_Tables_number   1
_chemical_formula_structural   Y2Ni12As7
_chemical_formula_sum   'Y2 Ni12 As7'
_cell_volume   293.81669890
_cell_formula_units_Z   1
loop_
 _symmetry_equiv_pos_site_id
 _symmetry_equiv_pos_as_xyz
  1  'x, y, z'
loop_
 _atom_site_type_symbol
 _atom_site_label
 _atom_site_symmetry_multiplicity
 _atom_site_fract_x
 _atom_site_fract_y
 _atom_site_fract_z
 _atom_site_occupancy
  Y  Y0  1  -0.00000000  -0.00000000  0.50000000  1.0
  Y  Y1  1  0.66666667  0.33333333  -0.00000000  1.0
  Ni  Ni2  1  0.71003441  0.61851920  0.50000000  1.0
  Ni  Ni3  1  0.90848479  0.28996559  0.50000000  1.0
  Ni  Ni4  1  0.38148080  0.09151521  0.50000000  1.0
  Ni  Ni5  1  0.23839340  0.45724983  0.50000000  1.0
  Ni  Ni6  1  0.21885643  0.76160660  0.50000000  1.0
  Ni  Ni7  1  0.54275017  0.78114357  0.50000000  1.0
  Ni  Ni8  1  0.48454352  0.53765046  0.00000000  1.0
  Ni  Ni9  1  0.05310694  0.51545648  0.00000000  1.0
  Ni  Ni10  1  0.46234954  0.94689306  -0.00000000  1.0
  Ni  Ni11  1  0.27659697  0.22832294  0.00000000  1.0
  Ni  Ni12  1  0.95172597  0.72340303  -0.00000000  1.0
  Ni  Ni13  1  0.77167706  0.04827403  -0.00000000  1.0
  As  As14  1  0.44228014  0.36851272  0.50000000  1.0
  As  As15  1  0.92623258  0.55771986  0.50000000  1.0
  As  As16  1  0.63148728  0.07376742  0.50000000  1.0
  As  As17  1  0.04677723  0.26296191  -0.00000000  1.0
  As  As18  1  0.21618468  0.95322277  0.00000000  1.0
  As  As19  1  0.73703809  0.78381532  0.00000000  1.0
  As  As20  1  0.33333333  0.66666667  -0.00000000  1.0
