# generated using pymatgen
data_NaCa(PO2)3
_symmetry_space_group_name_H-M   'P 1'
_cell_length_a   9.89307641
_cell_length_b   9.89307641
_cell_length_c   9.89307641
_cell_angle_alpha   90.00000000
_cell_angle_beta   90.00000000
_cell_angle_gamma   90.00000000
_symmetry_Int_Tables_number   1
_chemical_formula_structural   NaCa(PO2)3
_chemical_formula_sum   'Na4 Ca4 P12 O24'
_cell_volume   968.26468099
_cell_formula_units_Z   4
loop_
 _symmetry_equiv_pos_site_id
 _symmetry_equiv_pos_as_xyz
  1  'x, y, z'
loop_
 _atom_site_type_symbol
 _atom_site_label
 _atom_site_symmetry_multiplicity
 _atom_site_fract_x
 _atom_site_fract_y
 _atom_site_fract_z
 _atom_site_occupancy
  Na  Na0  1  0.89925838  0.39925838  0.10074162  1.0
  Na  Na1  1  0.39925838  0.10074162  0.89925838  1.0
  Na  Na2  1  0.10074162  0.89925838  0.39925838  1.0
  Na  Na3  1  0.60074162  0.60074162  0.60074162  1.0
  Ca  Ca4  1  0.40369094  0.90369094  0.59630906  1.0
  Ca  Ca5  1  0.90369094  0.59630906  0.40369094  1.0
  Ca  Ca6  1  0.59630906  0.40369094  0.90369094  1.0
  Ca  Ca7  1  0.09630906  0.09630906  0.09630906  1.0
  P  P8  1  0.49666623  0.75468037  0.92258792  1.0
  P  P9  1  0.99666623  0.74531963  0.07741208  1.0
  P  P10  1  0.25468037  0.57741208  0.50333377  1.0
  P  P11  1  0.75468037  0.92258792  0.49666623  1.0
  P  P12  1  0.07741208  0.99666623  0.74531963  1.0
  P  P13  1  0.57741208  0.50333377  0.25468037  1.0
  P  P14  1  0.50333377  0.25468037  0.57741208  1.0
  P  P15  1  0.00333377  0.24531963  0.42258792  1.0
  P  P16  1  0.74531963  0.07741208  0.99666623  1.0
  P  P17  1  0.24531963  0.42258792  0.00333377  1.0
  P  P18  1  0.92258792  0.49666623  0.75468037  1.0
  P  P19  1  0.42258792  0.00333377  0.24531963  1.0
  O  O20  1  0.44615395  0.86715836  0.82904322  1.0
  O  O21  1  0.94615395  0.63284164  0.17095678  1.0
  O  O22  1  0.36715836  0.67095678  0.55384605  1.0
  O  O23  1  0.86715836  0.82904322  0.44615395  1.0
  O  O24  1  0.17095678  0.94615395  0.63284164  1.0
  O  O25  1  0.67095678  0.55384605  0.36715836  1.0
  O  O26  1  0.55384605  0.36715836  0.67095678  1.0
  O  O27  1  0.05384605  0.13284164  0.32904322  1.0
  O  O28  1  0.63284164  0.17095678  0.94615395  1.0
  O  O29  1  0.13284164  0.32904322  0.05384605  1.0
  O  O30  1  0.82904322  0.44615395  0.86715836  1.0
  O  O31  1  0.32904322  0.05384605  0.13284164  1.0
  O  O32  1  0.36934409  0.34617464  0.95046021  1.0
  O  O33  1  0.86934409  0.15382536  0.04953979  1.0
  O  O34  1  0.84617464  0.54953979  0.63065591  1.0
  O  O35  1  0.34617464  0.95046021  0.36934409  1.0
  O  O36  1  0.04953979  0.86934409  0.15382536  1.0
  O  O37  1  0.54953979  0.63065591  0.84617464  1.0
  O  O38  1  0.63065591  0.84617464  0.54953979  1.0
  O  O39  1  0.13065591  0.65382536  0.45046021  1.0
  O  O40  1  0.15382536  0.04953979  0.86934409  1.0
  O  O41  1  0.65382536  0.45046021  0.13065591  1.0
  O  O42  1  0.95046021  0.36934409  0.34617464  1.0
  O  O43  1  0.45046021  0.13065591  0.65382536  1.0
