# generated using pymatgen
data_Li3AlSiO5
_symmetry_space_group_name_H-M   'P 1'
_cell_length_a   5.37657663
_cell_length_b   15.68556306
_cell_length_c   4.84810101
_cell_angle_alpha   90.00000000
_cell_angle_beta   90.00000000
_cell_angle_gamma   90.00000000
_symmetry_Int_Tables_number   1
_chemical_formula_structural   Li3AlSiO5
_chemical_formula_sum   'Li12 Al4 Si4 O20'
_cell_volume   408.86281293
_cell_formula_units_Z   4
loop_
 _symmetry_equiv_pos_site_id
 _symmetry_equiv_pos_as_xyz
  1  'x, y, z'
loop_
 _atom_site_type_symbol
 _atom_site_label
 _atom_site_symmetry_multiplicity
 _atom_site_fract_x
 _atom_site_fract_y
 _atom_site_fract_z
 _atom_site_occupancy
  Li  Li0  1  0.33563664  0.50438997  0.51686763  1.0
  Li  Li1  1  0.83563664  0.99561003  0.51686763  1.0
  Li  Li2  1  0.66436336  0.49561003  0.01686763  1.0
  Li  Li3  1  0.16436336  0.00438997  0.01686763  1.0
  Li  Li4  1  0.32725470  0.69647000  0.51548667  1.0
  Li  Li5  1  0.82725470  0.80353000  0.51548667  1.0
  Li  Li6  1  0.67274530  0.30353000  0.01548667  1.0
  Li  Li7  1  0.17274530  0.19647000  0.01548667  1.0
  Li  Li8  1  0.17012848  0.59500299  0.01439987  1.0
  Li  Li9  1  0.67012848  0.90499701  0.01439987  1.0
  Li  Li10  1  0.82987152  0.40499701  0.51439987  1.0
  Li  Li11  1  0.32987152  0.09500299  0.51439987  1.0
  Al  Al12  1  0.17208677  0.79976212  0.01475614  1.0
  Al  Al13  1  0.67208677  0.70023788  0.01475614  1.0
  Al  Al14  1  0.82791323  0.20023788  0.51475614  1.0
  Al  Al15  1  0.32791323  0.29976212  0.51475614  1.0
  Si  Si16  1  0.33356419  0.90167934  0.51845857  1.0
  Si  Si17  1  0.83356419  0.59832066  0.51845857  1.0
  Si  Si18  1  0.66643581  0.09832066  0.01845857  1.0
  Si  Si19  1  0.16643581  0.40167934  0.01845857  1.0
  O  O20  1  0.35395407  0.70938275  0.10452460  1.0
  O  O21  1  0.85395407  0.79061725  0.10452460  1.0
  O  O22  1  0.64604593  0.29061725  0.60452460  1.0
  O  O23  1  0.14604593  0.20938275  0.60452460  1.0
  O  O24  1  0.30933940  0.89084062  0.17412189  1.0
  O  O25  1  0.80933940  0.60915938  0.17412189  1.0
  O  O26  1  0.69066060  0.10915938  0.67412189  1.0
  O  O27  1  0.19066060  0.39084062  0.67412189  1.0
  O  O28  1  0.18785038  0.81399874  0.64642315  1.0
  O  O29  1  0.68785038  0.68600126  0.64642315  1.0
  O  O30  1  0.81214962  0.18600126  0.14642315  1.0
  O  O31  1  0.31214962  0.31399874  0.14642315  1.0
  O  O32  1  0.18677379  0.98679653  0.61421446  1.0
  O  O33  1  0.68677379  0.51320347  0.61421446  1.0
  O  O34  1  0.81322621  0.01320347  0.11421446  1.0
  O  O35  1  0.31322621  0.48679653  0.11421446  1.0
  O  O36  1  0.12371356  0.60225802  0.61074701  1.0
  O  O37  1  0.62371356  0.89774198  0.61074701  1.0
  O  O38  1  0.87628644  0.39774198  0.11074701  1.0
  O  O39  1  0.37628644  0.10225802  0.11074701  1.0
