# generated using pymatgen
data_Rb2TaCuS4
_symmetry_space_group_name_H-M   'P 1'
_cell_length_a   14.02648244
_cell_length_b   12.51208033
_cell_length_c   7.47853507
_cell_angle_alpha   85.17584475
_cell_angle_beta   62.73192093
_cell_angle_gamma   32.09223432
_symmetry_Int_Tables_number   1
_chemical_formula_structural   Rb2TaCuS4
_chemical_formula_sum   'Rb4 Ta2 Cu2 S8'
_cell_volume   474.25823147
_cell_formula_units_Z   2
loop_
 _symmetry_equiv_pos_site_id
 _symmetry_equiv_pos_as_xyz
  1  'x, y, z'
loop_
 _atom_site_type_symbol
 _atom_site_label
 _atom_site_symmetry_multiplicity
 _atom_site_fract_x
 _atom_site_fract_y
 _atom_site_fract_z
 _atom_site_occupancy
  Rb  Rb0  1  0.17739795  1.17739795  -0.17739795  1.0
  Rb  Rb1  1  0.82260205  0.82260205  -0.82260205  1.0
  Rb  Rb2  1  0.07260205  0.07260205  1.42739795  1.0
  Rb  Rb3  1  1.42739795  0.42739795  0.07260205  1.0
  Ta  Ta4  1  0.00000000  0.00000000  0.00000000  1.0
  Ta  Ta5  1  1.25000000  0.25000000  0.25000000  1.0
  Cu  Cu6  1  -0.50000000  0.50000000  0.50000000  1.0
  Cu  Cu7  1  0.75000000  0.75000000  0.75000000  1.0
  S  S8  1  0.80040732  1.09292358  -0.60963898  1.0
  S  S9  1  0.71630807  -0.60963898  1.09292358  1.0
  S  S10  1  -0.60963898  0.71630807  0.80040732  1.0
  S  S11  1  1.09292358  0.80040732  0.71630807  1.0
  S  S12  1  1.44959268  0.15707642  -0.14036102  1.0
  S  S13  1  1.53369193  -0.14036102  0.15707642  1.0
  S  S14  1  0.85963898  0.53369193  0.44959268  1.0
  S  S15  1  1.15707642  0.44959268  0.53369193  1.0
