# generated using pymatgen
data_Eu(FeP3)4
_symmetry_space_group_name_H-M   'P 1'
_cell_length_a   6.76455780
_cell_length_b   6.76455780
_cell_length_c   6.76455780
_cell_angle_alpha   109.47122063
_cell_angle_beta   109.47122063
_cell_angle_gamma   109.47122063
_symmetry_Int_Tables_number   1
_chemical_formula_structural   Eu(FeP3)4
_chemical_formula_sum   'Eu1 Fe4 P12'
_cell_volume   238.28480318
_cell_formula_units_Z   1
loop_
 _symmetry_equiv_pos_site_id
 _symmetry_equiv_pos_as_xyz
  1  'x, y, z'
loop_
 _atom_site_type_symbol
 _atom_site_label
 _atom_site_symmetry_multiplicity
 _atom_site_fract_x
 _atom_site_fract_y
 _atom_site_fract_z
 _atom_site_occupancy
  Eu  Eu0  1  0.00000000  0.00000000  0.00000000  1.0
  Fe  Fe1  1  0.50000000  1.00000000  1.00000000  1.0
  Fe  Fe2  1  0.50000000  0.50000000  0.50000000  1.0
  Fe  Fe3  1  1.00000000  1.00000000  0.50000000  1.0
  Fe  Fe4  1  1.00000000  0.50000000  1.00000000  1.0
  P  P5  1  0.84927452  1.35253344  1.20180796  1.0
  P  P6  1  0.84927452  0.64746656  0.49674108  1.0
  P  P7  1  0.15072548  0.35253344  0.50325892  1.0
  P  P8  1  0.15072548  0.64746656  0.79819204  1.0
  P  P9  1  0.49674108  0.84927452  0.64746656  1.0
  P  P10  1  1.20180796  0.84927452  1.35253344  1.0
  P  P11  1  0.64746656  0.79819204  0.15072548  1.0
  P  P12  1  0.64746656  0.49674108  0.84927452  1.0
  P  P13  1  0.79819204  0.15072548  0.64746656  1.0
  P  P14  1  0.50325892  0.15072548  0.35253344  1.0
  P  P15  1  0.35253344  0.50325892  0.15072548  1.0
  P  P16  1  1.35253344  1.20180796  0.84927452  1.0
