# generated using pymatgen
data_Tl3SbSe3
_symmetry_space_group_name_H-M   'P 1'
_cell_length_a   9.69640391
_cell_length_b   9.69640391
_cell_length_c   9.69640391
_cell_angle_alpha   90.00000000
_cell_angle_beta   90.00000000
_cell_angle_gamma   90.00000000
_symmetry_Int_Tables_number   1
_chemical_formula_structural   Tl3SbSe3
_chemical_formula_sum   'Tl12 Sb4 Se12'
_cell_volume   911.65830907
_cell_formula_units_Z   4
loop_
 _symmetry_equiv_pos_site_id
 _symmetry_equiv_pos_as_xyz
  1  'x, y, z'
loop_
 _atom_site_type_symbol
 _atom_site_label
 _atom_site_symmetry_multiplicity
 _atom_site_fract_x
 _atom_site_fract_y
 _atom_site_fract_z
 _atom_site_occupancy
  Tl  Tl0  1  0.91310081  0.41310081  0.08689919  1.0
  Tl  Tl1  1  0.41310081  0.08689919  0.91310081  1.0
  Tl  Tl2  1  0.08689919  0.91310081  0.41310081  1.0
  Tl  Tl3  1  0.58689919  0.58689919  0.58689919  1.0
  Tl  Tl4  1  0.45091220  0.95091220  0.54908780  1.0
  Tl  Tl5  1  0.95091220  0.54908780  0.45091220  1.0
  Tl  Tl6  1  0.54908780  0.45091220  0.95091220  1.0
  Tl  Tl7  1  0.04908780  0.04908780  0.04908780  1.0
  Tl  Tl8  1  0.68758770  0.18758770  0.31241230  1.0
  Tl  Tl9  1  0.18758770  0.31241230  0.68758770  1.0
  Tl  Tl10  1  0.31241230  0.68758770  0.18758770  1.0
  Tl  Tl11  1  0.81241230  0.81241230  0.81241230  1.0
  Sb  Sb12  1  0.20091725  0.70091725  0.79908275  1.0
  Sb  Sb13  1  0.70091725  0.79908275  0.20091725  1.0
  Sb  Sb14  1  0.79908275  0.20091725  0.70091725  1.0
  Sb  Sb15  1  0.29908275  0.29908275  0.29908275  1.0
  Se  Se16  1  0.44808630  0.75961152  0.89110968  1.0
  Se  Se17  1  0.94808630  0.74038848  0.10889032  1.0
  Se  Se18  1  0.25961152  0.60889032  0.55191370  1.0
  Se  Se19  1  0.75961152  0.89110968  0.44808630  1.0
  Se  Se20  1  0.10889032  0.94808630  0.74038848  1.0
  Se  Se21  1  0.60889032  0.55191370  0.25961152  1.0
  Se  Se22  1  0.55191370  0.25961152  0.60889032  1.0
  Se  Se23  1  0.05191370  0.24038848  0.39110968  1.0
  Se  Se24  1  0.74038848  0.10889032  0.94808630  1.0
  Se  Se25  1  0.24038848  0.39110968  0.05191370  1.0
  Se  Se26  1  0.89110968  0.44808630  0.75961152  1.0
  Se  Se27  1  0.39110968  0.05191370  0.24038848  1.0
