# generated using pymatgen
data_GdRe2SiC
_symmetry_space_group_name_H-M   'P 1'
_cell_length_a   5.79795258
_cell_length_b   5.79795258
_cell_length_c   7.31782157
_cell_angle_alpha   90.00000000
_cell_angle_beta   90.00000000
_cell_angle_gamma   139.95913098
_symmetry_Int_Tables_number   1
_chemical_formula_structural   GdRe2SiC
_chemical_formula_sum   'Gd2 Re4 Si2 C2'
_cell_volume   158.25868289
_cell_formula_units_Z   2
loop_
 _symmetry_equiv_pos_site_id
 _symmetry_equiv_pos_as_xyz
  1  'x, y, z'
loop_
 _atom_site_type_symbol
 _atom_site_label
 _atom_site_symmetry_multiplicity
 _atom_site_fract_x
 _atom_site_fract_y
 _atom_site_fract_z
 _atom_site_occupancy
  Gd  Gd0  1  0.45766011  0.54233989  0.75000000  1.0
  Gd  Gd1  1  -0.45766011  0.45766011  0.25000000  1.0
  Re  Re2  1  0.17411070  0.82588930  0.93856662  1.0
  Re  Re3  1  0.17411070  0.82588930  0.56143338  1.0
  Re  Re4  1  -0.17411070  0.17411070  0.43856662  1.0
  Re  Re5  1  -0.17411070  0.17411070  0.06143338  1.0
  Si  Si6  1  -0.26482443  0.26482443  0.75000000  1.0
  Si  Si7  1  0.26482443  0.73517557  0.25000000  1.0
  C  C8  1  0.00000000  0.00000000  0.00000000  1.0
  C  C9  1  0.00000000  0.00000000  0.50000000  1.0
