# generated using pymatgen
data_TePb3Cl4O3
_symmetry_space_group_name_H-M   'P 1'
_cell_length_a   7.86224743
_cell_length_b   16.12784740
_cell_length_c   8.71881490
_cell_angle_alpha   90.00000000
_cell_angle_beta   90.00000000
_cell_angle_gamma   90.00000000
_symmetry_Int_Tables_number   1
_chemical_formula_structural   TePb3Cl4O3
_chemical_formula_sum   'Te4 Pb12 Cl16 O12'
_cell_volume   1105.55555277
_cell_formula_units_Z   4
loop_
 _symmetry_equiv_pos_site_id
 _symmetry_equiv_pos_as_xyz
  1  'x, y, z'
loop_
 _atom_site_type_symbol
 _atom_site_label
 _atom_site_symmetry_multiplicity
 _atom_site_fract_x
 _atom_site_fract_y
 _atom_site_fract_z
 _atom_site_occupancy
  Te  Te0  1  0.84689415  0.97801333  0.42272586  1.0
  Te  Te1  1  0.34689415  0.52198667  0.42272586  1.0
  Te  Te2  1  0.15310585  0.02198667  0.92272586  1.0
  Te  Te3  1  0.65310585  0.47801333  0.92272586  1.0
  Pb  Pb4  1  0.55110553  0.69232203  0.22850457  1.0
  Pb  Pb5  1  0.05110553  0.80767797  0.22850457  1.0
  Pb  Pb6  1  0.44889447  0.30767797  0.72850457  1.0
  Pb  Pb7  1  0.94889447  0.19232203  0.72850457  1.0
  Pb  Pb8  1  0.55760625  0.68452158  0.71738352  1.0
  Pb  Pb9  1  0.05760625  0.81547842  0.71738352  1.0
  Pb  Pb10  1  0.44239375  0.31547842  0.21738352  1.0
  Pb  Pb11  1  0.94239375  0.18452158  0.21738352  1.0
  Pb  Pb12  1  0.72608994  0.97499775  -0.00589774  1.0
  Pb  Pb13  1  0.22608994  0.52500225  -0.00589774  1.0
  Pb  Pb14  1  0.27391006  0.02500225  0.49410226  1.0
  Pb  Pb15  1  0.77391006  0.47499775  0.49410226  1.0
  Cl  Cl16  1  0.62520287  0.09786507  0.23697120  1.0
  Cl  Cl17  1  0.12520287  0.40213493  0.23697120  1.0
  Cl  Cl18  1  0.37479713  0.90213493  0.73697120  1.0
  Cl  Cl19  1  0.87479713  0.59786507  0.73697120  1.0
  Cl  Cl20  1  0.74695238  0.78166420  0.47410721  1.0
  Cl  Cl21  1  0.24695238  0.71833580  0.47410721  1.0
  Cl  Cl22  1  0.25304762  0.21833580  0.97410721  1.0
  Cl  Cl23  1  0.75304762  0.28166420  0.97410721  1.0
  Cl  Cl24  1  0.74530345  0.78171951  0.96957734  1.0
  Cl  Cl25  1  0.24530345  0.71828049  0.96957734  1.0
  Cl  Cl26  1  0.25469655  0.21828049  0.46957734  1.0
  Cl  Cl27  1  0.75469655  0.28171951  0.46957734  1.0
  Cl  Cl28  1  0.83236287  0.59035897  0.20547260  1.0
  Cl  Cl29  1  0.33236287  0.90964103  0.20547260  1.0
  Cl  Cl30  1  0.16763713  0.40964103  0.70547260  1.0
  Cl  Cl31  1  0.66763713  0.09035897  0.70547260  1.0
  O  O32  1  0.50310770  0.57424781  0.89744044  1.0
  O  O33  1  0.00310770  0.92575219  0.89744044  1.0
  O  O34  1  0.49689230  0.42575219  0.39744044  1.0
  O  O35  1  0.99689230  0.07424781  0.39744044  1.0
  O  O36  1  0.54549042  0.58455031  0.50175164  1.0
  O  O37  1  0.04549042  0.91544969  0.50175164  1.0
  O  O38  1  0.45450958  0.41544969  0.00175164  1.0
  O  O39  1  0.95450958  0.08455031  0.00175164  1.0
  O  O40  1  0.86957813  0.92911345  0.21866336  1.0
  O  O41  1  0.36957813  0.57088655  0.21866336  1.0
  O  O42  1  0.13042187  0.07088655  0.71866336  1.0
  O  O43  1  0.63042187  0.42911345  0.71866336  1.0
