# generated using pymatgen
data_Li3NiF6
_symmetry_space_group_name_H-M   'P 1'
_cell_length_a   9.72741552
_cell_length_b   8.53312763
_cell_length_c   4.92907608
_cell_angle_alpha   90.00000000
_cell_angle_beta   90.00000000
_cell_angle_gamma   90.00000000
_symmetry_Int_Tables_number   1
_chemical_formula_structural   Li3NiF6
_chemical_formula_sum   'Li12 Ni4 F24'
_cell_volume   409.13933120
_cell_formula_units_Z   4
loop_
 _symmetry_equiv_pos_site_id
 _symmetry_equiv_pos_as_xyz
  1  'x, y, z'
loop_
 _atom_site_type_symbol
 _atom_site_label
 _atom_site_symmetry_multiplicity
 _atom_site_fract_x
 _atom_site_fract_y
 _atom_site_fract_z
 _atom_site_occupancy
  Li  Li0  1  0.39071390  0.45950510  0.51184858  1.0
  Li  Li1  1  0.89071390  0.04049490  0.51184858  1.0
  Li  Li2  1  0.60928610  0.54049490  0.01184858  1.0
  Li  Li3  1  0.10928610  0.95950510  0.01184858  1.0
  Li  Li4  1  0.35613098  0.04691571  0.48655807  1.0
  Li  Li5  1  0.85613098  0.45308429  0.48655807  1.0
  Li  Li6  1  0.64386902  0.95308429  0.98655807  1.0
  Li  Li7  1  0.14386902  0.54691571  0.98655807  1.0
  Li  Li8  1  0.12150990  0.36463935  0.49448855  1.0
  Li  Li9  1  0.62150990  0.13536065  0.49448855  1.0
  Li  Li10  1  0.87849010  0.63536065  0.99448855  1.0
  Li  Li11  1  0.37849010  0.86463935  0.99448855  1.0
  Ni  Ni12  1  0.37174035  0.24465526  0.99613930  1.0
  Ni  Ni13  1  0.87174035  0.25534474  0.99613930  1.0
  Ni  Ni14  1  0.62825965  0.75534474  0.49613930  1.0
  Ni  Ni15  1  0.12825965  0.74465526  0.49613930  1.0
  F  F16  1  0.49219651  0.08158006  0.18882086  1.0
  F  F17  1  0.99219651  0.41841994  0.18882086  1.0
  F  F18  1  0.50780349  0.91841994  0.68882086  1.0
  F  F19  1  0.00780349  0.58158006  0.68882086  1.0
  F  F20  1  0.47904068  0.25328068  0.68978005  1.0
  F  F21  1  0.97904068  0.24671932  0.68978005  1.0
  F  F22  1  0.52095932  0.74671932  0.18978005  1.0
  F  F23  1  0.02095932  0.75328068  0.18978005  1.0
  F  F24  1  0.46890581  0.40591930  0.15428864  1.0
  F  F25  1  0.96890581  0.09408070  0.15428864  1.0
  F  F26  1  0.53109419  0.59408070  0.65428864  1.0
  F  F27  1  0.03109419  0.90591930  0.65428864  1.0
  F  F28  1  0.27486358  0.07869602  0.84459496  1.0
  F  F29  1  0.77486358  0.42130398  0.84459496  1.0
  F  F30  1  0.72513642  0.92130398  0.34459496  1.0
  F  F31  1  0.22513642  0.57869602  0.34459496  1.0
  F  F32  1  0.26268867  0.23972034  0.29935984  1.0
  F  F33  1  0.76268867  0.26027966  0.29935984  1.0
  F  F34  1  0.73731133  0.76027966  0.79935984  1.0
  F  F35  1  0.23731133  0.73972034  0.79935984  1.0
  F  F36  1  0.24795438  0.90072015  0.29562116  1.0
  F  F37  1  0.74795438  0.59927985  0.29562116  1.0
  F  F38  1  0.75204562  0.09927985  0.79562116  1.0
  F  F39  1  0.25204562  0.40072015  0.79562116  1.0
