# generated using pymatgen
data_Mn2Pt(CO)12
_symmetry_space_group_name_H-M   'P 1'
_cell_length_a   7.65884806
_cell_length_b   6.75676417
_cell_length_c   10.18256496
_cell_angle_alpha   83.42978109
_cell_angle_beta   69.65525731
_cell_angle_gamma   85.74781699
_symmetry_Int_Tables_number   1
_chemical_formula_structural   Mn2Pt(CO)12
_chemical_formula_sum   'Mn2 Pt1 C12 O12'
_cell_volume   490.48726197
_cell_formula_units_Z   1
loop_
 _symmetry_equiv_pos_site_id
 _symmetry_equiv_pos_as_xyz
  1  'x, y, z'
loop_
 _atom_site_type_symbol
 _atom_site_label
 _atom_site_symmetry_multiplicity
 _atom_site_fract_x
 _atom_site_fract_y
 _atom_site_fract_z
 _atom_site_occupancy
  Mn  Mn0  1  -0.61403075  -0.20547945  -0.73166214  1.0
  Mn  Mn1  1  -0.38596925  -0.79452055  -0.26833786  1.0
  Pt  Pt2  1  -0.50000000  0.00000000  -0.00000000  1.0
  C  C3  1  -0.58728576  -0.89949607  -0.29167088  1.0
  C  C4  1  -0.41271424  -0.10050393  -0.70832912  1.0
  C  C5  1  -0.46653225  -0.41632787  -0.81461344  1.0
  C  C6  1  -0.53346775  -0.58367213  -0.18538656  1.0
  C  C7  1  -0.68841719  -0.34047471  -0.56039835  1.0
  C  C8  1  -0.31158281  -0.65952529  -0.43960165  1.0
  C  C9  1  -0.80440042  -0.29074663  -0.78100378  1.0
  C  C10  1  -0.19559958  -0.70925337  -0.21899622  1.0
  C  C11  1  -0.74769729  -0.89867139  -0.96838897  1.0
  C  C12  1  -0.25230271  -0.10132861  -0.03161103  1.0
  C  C13  1  -0.75061932  -0.97713891  -0.67061810  1.0
  C  C14  1  -0.24938068  -0.02286109  -0.32938190  1.0
  O  O15  1  -0.37794357  -0.55336856  -0.86228915  1.0
  O  O16  1  -0.62205643  -0.44663144  -0.13771085  1.0
  O  O17  1  -0.73468320  -0.42918489  -0.45038181  1.0
  O  O18  1  -0.26531680  -0.57081511  -0.54961819  1.0
  O  O19  1  -0.92382955  -0.34905655  -0.80872038  1.0
  O  O20  1  -0.07617045  -0.65094345  -0.19127962  1.0
  O  O21  1  -0.89788457  -0.83663453  -0.94853522  1.0
  O  O22  1  -0.10211543  -0.16336547  -0.05146478  1.0
  O  O23  1  -0.71001486  -0.96428252  -0.31190475  1.0
  O  O24  1  -0.28998514  -0.03571748  -0.68809525  1.0
  O  O25  1  -0.83575307  -0.83558076  -0.62771708  1.0
  O  O26  1  -0.16424693  -0.16441924  -0.37228292  1.0
