# generated using pymatgen
data_H6CN4O
_symmetry_space_group_name_H-M   'P 1'
_cell_length_a   4.08102490
_cell_length_b   8.89847141
_cell_length_c   12.34285834
_cell_angle_alpha   90.00000000
_cell_angle_beta   107.71544165
_cell_angle_gamma   90.00000000
_symmetry_Int_Tables_number   1
_chemical_formula_structural   H6CN4O
_chemical_formula_sum   'H24 C4 N16 O4'
_cell_volume   426.97420007
_cell_formula_units_Z   4
loop_
 _symmetry_equiv_pos_site_id
 _symmetry_equiv_pos_as_xyz
  1  'x, y, z'
loop_
 _atom_site_type_symbol
 _atom_site_label
 _atom_site_symmetry_multiplicity
 _atom_site_fract_x
 _atom_site_fract_y
 _atom_site_fract_z
 _atom_site_occupancy
  H  H0  1  0.89745455  0.12739484  0.48582069  1.0
  H  H1  1  0.89745455  0.37260516  0.98582069  1.0
  H  H2  1  0.10254545  0.62739484  0.01417931  1.0
  H  H3  1  0.10254545  0.87260516  0.51417931  1.0
  H  H4  1  0.84664657  0.03450632  0.28336322  1.0
  H  H5  1  0.84664657  0.46549368  0.78336322  1.0
  H  H6  1  0.15335343  0.53450632  0.21663678  1.0
  H  H7  1  0.15335343  0.96549368  0.71663678  1.0
  H  H8  1  0.77300616  0.42133925  0.41185701  1.0
  H  H9  1  0.77300616  0.07866075  0.91185701  1.0
  H  H10  1  0.22699384  0.92133925  0.08814299  1.0
  H  H11  1  0.22699384  0.57866075  0.58814299  1.0
  H  H12  1  0.49938670  0.50173689  0.17873747  1.0
  H  H13  1  0.49938670  -0.00173689  0.67873747  1.0
  H  H14  1  0.50061330  1.00173689  0.32126253  1.0
  H  H15  1  0.50061330  0.49826311  0.82126253  1.0
  H  H16  1  0.46428754  0.36586148  0.46464144  1.0
  H  H17  1  0.46428754  0.13413852  0.96464144  1.0
  H  H18  1  0.53571246  0.86586148  0.03535856  1.0
  H  H19  1  0.53571246  0.63413852  0.53535856  1.0
  H  H20  1  0.36036601  0.28859866  0.27384313  1.0
  H  H21  1  0.36036601  0.21140134  0.77384313  1.0
  H  H22  1  0.63963399  0.78859866  0.22615687  1.0
  H  H23  1  0.63963399  0.71140134  0.72615687  1.0
  C  C24  1  1.03913996  0.21749817  0.11826751  1.0
  C  C25  1  1.03913996  0.28250183  0.61826751  1.0
  C  C26  1  -0.03913996  0.71749817  0.38173249  1.0
  C  C27  1  -0.03913996  0.78250183  0.88173249  1.0
  N  N28  1  0.88504075  0.26300110  0.00894096  1.0
  N  N29  1  0.88504075  0.23699890  0.50894096  1.0
  N  N30  1  0.11495925  0.76300110  0.49105904  1.0
  N  N31  1  0.11495925  0.73699890  0.99105904  1.0
  N  N32  1  0.76735012  0.82023389  0.30883404  1.0
  N  N33  1  0.76735012  0.67976611  0.80883404  1.0
  N  N34  1  0.23264988  0.32023389  0.19116596  1.0
  N  N35  1  0.23264988  0.17976611  0.69116596  1.0
  N  N36  1  0.75434361  0.97268071  0.33859594  1.0
  N  N37  1  0.75434361  0.52731929  0.83859594  1.0
  N  N38  1  0.24565639  0.47268071  0.16140406  1.0
  N  N39  1  0.24565639  0.02731929  0.66140406  1.0
  N  N40  1  0.64840637  0.32849783  0.43030399  1.0
  N  N41  1  0.64840637  0.17150217  0.93030399  1.0
  N  N42  1  0.35159363  0.82849783  0.06969601  1.0
  N  N43  1  0.35159363  0.67150217  0.56969601  1.0
  O  O44  1  1.01054306  0.08498586  0.15066205  1.0
  O  O45  1  1.01054306  0.41501414  0.65066205  1.0
  O  O46  1  -0.01054306  0.58498586  0.34933795  1.0
  O  O47  1  -0.01054306  0.91501414  0.84933795  1.0
