# generated using pymatgen
data_PI2
_symmetry_space_group_name_H-M   'P 1'
_cell_length_a   5.07249816
_cell_length_b   7.45749261
_cell_length_c   7.73926354
_cell_angle_alpha   80.30706980
_cell_angle_beta   78.89682163
_cell_angle_gamma   73.79420641
_symmetry_Int_Tables_number   1
_chemical_formula_structural   PI2
_chemical_formula_sum   'P2 I4'
_cell_volume   273.81827398
_cell_formula_units_Z   2
loop_
 _symmetry_equiv_pos_site_id
 _symmetry_equiv_pos_as_xyz
  1  'x, y, z'
loop_
 _atom_site_type_symbol
 _atom_site_label
 _atom_site_symmetry_multiplicity
 _atom_site_fract_x
 _atom_site_fract_y
 _atom_site_fract_z
 _atom_site_occupancy
  P  P0  1  -0.58800461  -0.46694262  -0.62816309  1.0
  P  P1  1  -0.41199539  -0.53305738  -0.37183691  1.0
  I  I2  1  -0.44074134  -0.16761736  -0.72125378  1.0
  I  I3  1  -0.55925866  -0.83238264  -0.27874622  1.0
  I  I4  1  -0.19748620  -0.69742643  -0.78617571  1.0
  I  I5  1  -0.80251380  -0.30257357  -0.21382429  1.0
