# generated using pymatgen
data_VTe
_symmetry_space_group_name_H-M   'P 1'
_cell_length_a   4.10896378
_cell_length_b   4.10896378
_cell_length_c   6.05677089
_cell_angle_alpha   90.00000000
_cell_angle_beta   90.00000000
_cell_angle_gamma   120.00000000
_symmetry_Int_Tables_number   1
_chemical_formula_structural   VTe
_chemical_formula_sum   'V2 Te2'
_cell_volume   88.55975461
_cell_formula_units_Z   2
loop_
 _symmetry_equiv_pos_site_id
 _symmetry_equiv_pos_as_xyz
  1  'x, y, z'
loop_
 _atom_site_type_symbol
 _atom_site_label
 _atom_site_symmetry_multiplicity
 _atom_site_fract_x
 _atom_site_fract_y
 _atom_site_fract_z
 _atom_site_occupancy
  V  V0  1  -0.00000000  0.00000000  0.50000000  1.0
  V  V1  1  -0.00000000  -0.00000000  0.00000000  1.0
  Te  Te2  1  0.33333333  0.66666667  0.25000000  1.0
  Te  Te3  1  0.66666667  0.33333333  0.75000000  1.0
