# generated using pymatgen
data_Zn(PO5)2
_symmetry_space_group_name_H-M   'P 1'
_cell_length_a   5.17191817
_cell_length_b   9.37505156
_cell_length_c   9.20969607
_cell_angle_alpha   90.00000000
_cell_angle_beta   129.04666506
_cell_angle_gamma   90.00000000
_symmetry_Int_Tables_number   1
_chemical_formula_structural   Zn(PO5)2
_chemical_formula_sum   'Zn2 P4 O20'
_cell_volume   346.80594320
_cell_formula_units_Z   2
loop_
 _symmetry_equiv_pos_site_id
 _symmetry_equiv_pos_as_xyz
  1  'x, y, z'
loop_
 _atom_site_type_symbol
 _atom_site_label
 _atom_site_symmetry_multiplicity
 _atom_site_fract_x
 _atom_site_fract_y
 _atom_site_fract_z
 _atom_site_occupancy
  O  O0  1  0.49435445  0.44998063  0.30067184  1.0
  O  O1  1  0.49435445  0.05001937  0.80067184  1.0
  O  O2  1  0.50564555  0.94998063  0.19932816  1.0
  O  O3  1  0.50564555  0.55001937  0.69932816  1.0
  O  O4  1  0.74950276  0.14605708  0.32995389  1.0
  O  O5  1  0.74950276  0.35394292  0.82995389  1.0
  O  O6  1  0.25049724  0.64605708  0.17004611  1.0
  O  O7  1  0.25049724  0.85394292  0.67004611  1.0
  O  O8  1  0.36420596  0.11355195  0.51570758  1.0
  O  O9  1  0.36420596  0.38644805  1.01570758  1.0
  O  O10  1  0.63579404  0.61355195  -0.01570758  1.0
  O  O11  1  0.63579404  0.88644805  0.48429242  1.0
  O  O12  1  1.01407660  0.15545115  0.16604974  1.0
  O  O13  1  1.01407660  0.34454885  0.66604974  1.0
  O  O14  1  -0.01407660  0.65545115  0.33395026  1.0
  O  O15  1  -0.01407660  0.84454885  0.83395026  1.0
  O  O16  1  0.88551456  0.85340178  0.11708487  1.0
  O  O17  1  0.88551456  0.64659822  0.61708487  1.0
  O  O18  1  0.11448544  0.35340178  0.38291513  1.0
  O  O19  1  0.11448544  0.14659822  0.88291513  1.0
  Zn  Zn20  1  0.00000000  0.50000000  0.50000000  1.0
  Zn  Zn21  1  0.00000000  0.00000000  0.00000000  1.0
  P  P22  1  0.94737169  0.69071306  0.15952535  1.0
  P  P23  1  0.94737169  0.80928694  0.65952535  1.0
  P  P24  1  0.05262831  0.19071306  0.34047465  1.0
  P  P25  1  0.05262831  0.30928694  0.84047465  1.0
