# generated using pymatgen
data_GeP3
_symmetry_space_group_name_H-M   'P 1'
_cell_length_a   5.29521830
_cell_length_b   5.29521830
_cell_length_c   5.29521830
_cell_angle_alpha   84.36776544
_cell_angle_beta   84.36776544
_cell_angle_gamma   84.36776544
_symmetry_Int_Tables_number   1
_chemical_formula_structural   GeP3
_chemical_formula_sum   'Ge2 P6'
_cell_volume   146.45588279
_cell_formula_units_Z   2
loop_
 _symmetry_equiv_pos_site_id
 _symmetry_equiv_pos_as_xyz
  1  'x, y, z'
loop_
 _atom_site_type_symbol
 _atom_site_label
 _atom_site_symmetry_multiplicity
 _atom_site_fract_x
 _atom_site_fract_y
 _atom_site_fract_z
 _atom_site_occupancy
  Ge  Ge0  1  0.76255351  0.76255351  -0.23744649  1.0
  Ge  Ge1  1  1.23744649  1.23744649  0.23744649  1.0
  P  P2  1  0.28730306  0.28730306  -0.23717322  1.0
  P  P3  1  0.28730306  0.76282678  -0.71269694  1.0
  P  P4  1  0.23717322  0.71269694  -0.28730306  1.0
  P  P5  1  0.71269694  0.23717322  -0.28730306  1.0
  P  P6  1  0.71269694  0.71269694  -0.76282678  1.0
  P  P7  1  0.76282678  0.28730306  -0.71269694  1.0
