# generated using pymatgen
data_LaGe
_symmetry_space_group_name_H-M   'P 1'
_cell_length_a   8.52595429
_cell_length_b   4.15013626
_cell_length_c   6.13010200
_cell_angle_alpha   90.00000000
_cell_angle_beta   90.00000000
_cell_angle_gamma   90.00000000
_symmetry_Int_Tables_number   1
_chemical_formula_structural   LaGe
_chemical_formula_sum   'La4 Ge4'
_cell_volume   216.90674517
_cell_formula_units_Z   4
loop_
 _symmetry_equiv_pos_site_id
 _symmetry_equiv_pos_as_xyz
  1  'x, y, z'
loop_
 _atom_site_type_symbol
 _atom_site_label
 _atom_site_symmetry_multiplicity
 _atom_site_fract_x
 _atom_site_fract_y
 _atom_site_fract_z
 _atom_site_occupancy
  La  La0  1  0.31870323  0.75000000  0.11679754  1.0
  La  La1  1  0.81870323  0.75000000  0.38320246  1.0
  La  La2  1  0.68129677  0.25000000  0.88320246  1.0
  La  La3  1  0.18129677  0.25000000  0.61679754  1.0
  Ge  Ge4  1  0.46286211  0.75000000  0.63275320  1.0
  Ge  Ge5  1  0.96286211  0.75000000  0.86724680  1.0
  Ge  Ge6  1  0.53713789  0.25000000  0.36724680  1.0
  Ge  Ge7  1  0.03713789  0.25000000  0.13275320  1.0
