# generated using pymatgen
data_LiH4SNO4
_symmetry_space_group_name_H-M   'P 1'
_cell_length_a   8.96652132
_cell_length_b   9.36857229
_cell_length_c   5.27101014
_cell_angle_alpha   90.00000000
_cell_angle_beta   90.00000000
_cell_angle_gamma   90.00000000
_symmetry_Int_Tables_number   1
_chemical_formula_structural   LiH4SNO4
_chemical_formula_sum   'Li4 H16 S4 N4 O16'
_cell_volume   442.78331712
_cell_formula_units_Z   4
loop_
 _symmetry_equiv_pos_site_id
 _symmetry_equiv_pos_as_xyz
  1  'x, y, z'
loop_
 _atom_site_type_symbol
 _atom_site_label
 _atom_site_symmetry_multiplicity
 _atom_site_fract_x
 _atom_site_fract_y
 _atom_site_fract_z
 _atom_site_occupancy
  Li  Li0  1  0.17155498  -0.09256957  0.53943948  1.0
  Li  Li1  1  0.67155498  0.59256957  0.53943948  1.0
  Li  Li2  1  0.82844502  1.09256957  0.03943948  1.0
  Li  Li3  1  0.32844502  0.40743043  0.03943948  1.0
  H  H4  1  0.49004788  0.70607117  0.89492065  1.0
  H  H5  1  -0.00995212  0.79392883  0.89492065  1.0
  H  H6  1  0.50995212  0.29392883  0.39492065  1.0
  H  H7  1  0.00995212  0.20607117  0.39492065  1.0
  H  H8  1  0.48016496  0.22855634  0.69073349  1.0
  H  H9  1  0.98016496  0.27144366  0.69073349  1.0
  H  H10  1  0.51983504  0.77144366  0.19073349  1.0
  H  H11  1  0.01983504  0.72855634  0.19073349  1.0
  H  H12  1  0.40244610  0.85677392  -0.01687530  1.0
  H  H13  1  0.90244610  0.64322608  -0.01687530  1.0
  H  H14  1  0.59755390  0.14322608  0.48312470  1.0
  H  H15  1  0.09755390  0.35677392  0.48312470  1.0
  H  H16  1  0.09171942  0.64457086  0.93477478  1.0
  H  H17  1  0.59171942  0.85542914  0.93477478  1.0
  H  H18  1  0.90828058  0.35542914  0.43477478  1.0
  H  H19  1  0.40828058  0.14457086  0.43477478  1.0
  S  S20  1  0.29241355  0.58147805  0.54338315  1.0
  S  S21  1  0.79241355  0.91852195  0.54338315  1.0
  S  S22  1  0.70758645  0.41852195  0.04338315  1.0
  S  S23  1  0.20758645  0.08147805  0.04338315  1.0
  N  N24  1  0.50037488  0.79711839  0.00378662  1.0
  N  N25  1  0.00037488  0.70288161  0.00378662  1.0
  N  N26  1  0.49962512  0.20288161  0.50378662  1.0
  N  N27  1  0.99962512  0.29711839  0.50378662  1.0
  O  O28  1  0.45612917  0.60854521  0.54451950  1.0
  O  O29  1  0.95612917  0.89145479  0.54451950  1.0
  O  O30  1  0.54387083  0.39145479  1.04451950  1.0
  O  O31  1  0.04387083  0.10854521  1.04451950  1.0
  O  O32  1  0.28838364  0.20943491  0.94916547  1.0
  O  O33  1  0.78838364  0.29056509  0.94916547  1.0
  O  O34  1  0.71161636  0.79056509  0.44916547  1.0
  O  O35  1  0.21161636  0.70943491  0.44916547  1.0
  O  O36  1  0.24260841  0.95497204  0.87847060  1.0
  O  O37  1  0.74260841  0.54502796  0.87847060  1.0
  O  O38  1  0.75739159  0.04502796  0.37847060  1.0
  O  O39  1  0.25739159  0.45497204  0.37847060  1.0
  O  O40  1  0.24220182  0.54783226  0.80968156  1.0
  O  O41  1  0.74220182  0.95216774  0.80968156  1.0
  O  O42  1  0.75779818  0.45216774  0.30968156  1.0
  O  O43  1  0.25779818  0.04783226  0.30968156  1.0
