# generated using pymatgen
data_Cr2CuO4
_symmetry_space_group_name_H-M   'P 1'
_cell_length_a   5.91213692
_cell_length_b   5.91213692
_cell_length_c   5.91213692
_cell_angle_alpha   119.97230179
_cell_angle_beta   119.97230179
_cell_angle_gamma   90.04798141
_symmetry_Int_Tables_number   1
_chemical_formula_structural   Cr2CuO4
_chemical_formula_sum   'Cr4 Cu2 O8'
_cell_volume   146.18407719
_cell_formula_units_Z   2
loop_
 _symmetry_equiv_pos_site_id
 _symmetry_equiv_pos_as_xyz
  1  'x, y, z'
loop_
 _atom_site_type_symbol
 _atom_site_label
 _atom_site_symmetry_multiplicity
 _atom_site_fract_x
 _atom_site_fract_y
 _atom_site_fract_z
 _atom_site_occupancy
  Cr  Cr0  1  0.87500000  1.62500819  1.25000819  1.0
  Cr  Cr1  1  1.37500819  1.12500000  0.75000819  1.0
  Cr  Cr2  1  0.37499181  0.62500000  0.24999181  1.0
  Cr  Cr3  1  0.37500000  0.62499181  0.74999181  1.0
  Cu  Cu4  1  0.00000000  0.00000000  0.00000000  1.0
  Cu  Cu5  1  0.75000000  1.25000000  0.50000000  1.0
  O  O6  1  1.13891492  0.86077820  0.72190543  1.0
  O  O7  1  0.61108508  0.83299051  0.22186328  1.0
  O  O8  1  0.61077820  1.38891492  1.22190543  1.0
  O  O9  1  1.13922180  1.86112723  1.27813672  1.0
  O  O10  1  0.61112723  0.38922180  0.77813672  1.0
  O  O11  1  1.13887277  1.41700949  1.27809457  1.0
  O  O12  1  1.58299051  0.86108508  0.72186328  1.0
  O  O13  1  1.16700949  1.38887277  0.77809457  1.0
