# generated using pymatgen
data_TlCoCl3
_symmetry_space_group_name_H-M   'P 1'
_cell_length_a   5.93273422
_cell_length_b   13.97055259
_cell_length_c   12.16749992
_cell_angle_alpha   90.00000000
_cell_angle_beta   90.00000000
_cell_angle_gamma   90.00000000
_symmetry_Int_Tables_number   1
_chemical_formula_structural   TlCoCl3
_chemical_formula_sum   'Tl8 Co8 Cl24'
_cell_volume   1008.48589816
_cell_formula_units_Z   8
loop_
 _symmetry_equiv_pos_site_id
 _symmetry_equiv_pos_as_xyz
  1  'x, y, z'
loop_
 _atom_site_type_symbol
 _atom_site_label
 _atom_site_symmetry_multiplicity
 _atom_site_fract_x
 _atom_site_fract_y
 _atom_site_fract_z
 _atom_site_occupancy
  Tl  Tl0  1  0.24541689  0.12633022  0.08256898  1.0
  Tl  Tl1  1  0.24541689  0.37366978  0.58256898  1.0
  Tl  Tl2  1  0.74541689  0.12633022  0.41743102  1.0
  Tl  Tl3  1  0.74541689  0.37366978  0.91743102  1.0
  Tl  Tl4  1  0.75458311  0.62633022  0.41743102  1.0
  Tl  Tl5  1  0.75458311  0.87366978  0.91743102  1.0
  Tl  Tl6  1  0.25458311  0.62633022  0.08256898  1.0
  Tl  Tl7  1  0.25458311  0.87366978  0.58256898  1.0
  Co  Co8  1  0.44217754  0.37662876  0.24999837  1.0
  Co  Co9  1  0.44217754  0.12337124  0.74999837  1.0
  Co  Co10  1  0.94217754  0.37662876  0.25000163  1.0
  Co  Co11  1  0.94217754  0.12337124  0.75000163  1.0
  Co  Co12  1  0.55782246  0.87662876  0.25000163  1.0
  Co  Co13  1  0.55782246  0.62337124  0.75000163  1.0
  Co  Co14  1  0.05782246  0.87662876  0.24999837  1.0
  Co  Co15  1  0.05782246  0.62337124  0.74999837  1.0
  Cl  Cl16  1  0.18963579  0.37702337  0.09221868  1.0
  Cl  Cl17  1  0.18963579  0.12297663  0.59221868  1.0
  Cl  Cl18  1  0.68963579  0.37702337  0.40778132  1.0
  Cl  Cl19  1  0.68963579  0.12297663  0.90778132  1.0
  Cl  Cl20  1  0.81036421  0.87702337  0.40778132  1.0
  Cl  Cl21  1  0.81036421  0.62297663  0.90778132  1.0
  Cl  Cl22  1  0.31036421  0.87702337  0.09221868  1.0
  Cl  Cl23  1  0.31036421  0.62297663  0.59221868  1.0
  Cl  Cl24  1  0.18924234  0.49530321  0.32860945  1.0
  Cl  Cl25  1  0.18924234  0.00469679  0.82860945  1.0
  Cl  Cl26  1  0.68924234  0.49530321  0.17139055  1.0
  Cl  Cl27  1  0.68924234  0.00469679  0.67139055  1.0
  Cl  Cl28  1  0.81075766  0.99530321  0.17139055  1.0
  Cl  Cl29  1  0.81075766  0.50469679  0.67139055  1.0
  Cl  Cl30  1  0.31075766  0.99530321  0.32860945  1.0
  Cl  Cl31  1  0.31075766  0.50469679  0.82860945  1.0
  Cl  Cl32  1  0.19002046  0.25762497  0.32841386  1.0
  Cl  Cl33  1  0.19002046  0.24237503  0.82841386  1.0
  Cl  Cl34  1  0.69002046  0.25762497  0.17158614  1.0
  Cl  Cl35  1  0.69002046  0.24237503  0.67158614  1.0
  Cl  Cl36  1  0.80997954  0.75762497  0.17158614  1.0
  Cl  Cl37  1  0.80997954  0.74237503  0.67158614  1.0
  Cl  Cl38  1  0.30997954  0.75762497  0.32841386  1.0
  Cl  Cl39  1  0.30997954  0.74237503  0.82841386  1.0
