# generated using pymatgen
data_Hf9BMo4
_symmetry_space_group_name_H-M   'P 1'
_cell_length_a   8.55008090
_cell_length_b   8.55008090
_cell_length_c   8.50440014
_cell_angle_alpha   90.00000000
_cell_angle_beta   90.00000000
_cell_angle_gamma   120.00000000
_symmetry_Int_Tables_number   1
_chemical_formula_structural   Hf9BMo4
_chemical_formula_sum   'Hf18 B2 Mo8'
_cell_volume   538.41204394
_cell_formula_units_Z   2
loop_
 _symmetry_equiv_pos_site_id
 _symmetry_equiv_pos_as_xyz
  1  'x, y, z'
loop_
 _atom_site_type_symbol
 _atom_site_label
 _atom_site_symmetry_multiplicity
 _atom_site_fract_x
 _atom_site_fract_y
 _atom_site_fract_z
 _atom_site_occupancy
  Hf  Hf0  1  0.20364923  0.79635077  0.44453613  1.0
  Hf  Hf1  1  0.20364923  0.79635077  0.05546387  1.0
  Hf  Hf2  1  0.20364923  0.40729846  0.44453613  1.0
  Hf  Hf3  1  0.20364923  0.40729846  0.05546387  1.0
  Hf  Hf4  1  0.79635077  0.20364923  0.94453613  1.0
  Hf  Hf5  1  0.79635077  0.20364923  0.55546387  1.0
  Hf  Hf6  1  0.79635077  0.59270154  0.94453613  1.0
  Hf  Hf7  1  0.79635077  0.59270154  0.55546387  1.0
  Hf  Hf8  1  0.59270154  0.79635077  0.44453613  1.0
  Hf  Hf9  1  0.59270154  0.79635077  0.05546387  1.0
  Hf  Hf10  1  0.40729846  0.20364923  0.94453613  1.0
  Hf  Hf11  1  0.40729846  0.20364923  0.55546387  1.0
  Hf  Hf12  1  0.54033650  0.45966350  0.25000000  1.0
  Hf  Hf13  1  0.54033650  0.08067300  0.25000000  1.0
  Hf  Hf14  1  0.45966350  0.54033650  0.75000000  1.0
  Hf  Hf15  1  0.45966350  0.91932700  0.75000000  1.0
  Hf  Hf16  1  0.91932700  0.45966350  0.25000000  1.0
  Hf  Hf17  1  0.08067300  0.54033650  0.75000000  1.0
  B  B18  1  0.33333333  0.66666667  0.25000000  1.0
  B  B19  1  0.66666667  0.33333333  0.75000000  1.0
  Mo  Mo20  1  0.88917169  0.11082831  0.25000000  1.0
  Mo  Mo21  1  0.88917169  0.77834337  0.25000000  1.0
  Mo  Mo22  1  0.11082831  0.88917169  0.75000000  1.0
  Mo  Mo23  1  0.11082831  0.22165663  0.75000000  1.0
  Mo  Mo24  1  0.22165663  0.11082831  0.25000000  1.0
  Mo  Mo25  1  0.77834337  0.88917169  0.75000000  1.0
  Mo  Mo26  1  0.00000000  0.00000000  0.50000000  1.0
  Mo  Mo27  1  0.00000000  0.00000000  0.00000000  1.0
