# generated using pymatgen
data_CsSbCl6
_symmetry_space_group_name_H-M   'P 1'
_cell_length_a   7.23186421
_cell_length_b   7.23186421
_cell_length_c   12.86574343
_cell_angle_alpha   78.59556960
_cell_angle_beta   101.40443040
_cell_angle_gamma   122.65909353
_symmetry_Int_Tables_number   1
_chemical_formula_structural   CsSbCl6
_chemical_formula_sum   'Cs2 Sb2 Cl12'
_cell_volume   551.91903745
_cell_formula_units_Z   2
loop_
 _symmetry_equiv_pos_site_id
 _symmetry_equiv_pos_as_xyz
  1  'x, y, z'
loop_
 _atom_site_type_symbol
 _atom_site_label
 _atom_site_symmetry_multiplicity
 _atom_site_fract_x
 _atom_site_fract_y
 _atom_site_fract_z
 _atom_site_occupancy
  Cs  Cs0  1  1.30444207  0.45884678  0.35413822  1.0
  Cs  Cs1  1  0.54115322  -0.30444207  0.85413822  1.0
  Sb  Sb2  1  0.92293425  0.57742140  0.60407745  1.0
  Sb  Sb3  1  0.42257860  0.07706575  0.10407745  1.0
  Cl  Cl4  1  0.86813801  0.86124428  0.49428298  1.0
  Cl  Cl5  1  0.13875572  0.13186199  -0.00571702  1.0
  Cl  Cl6  1  0.54493206  0.38302245  0.64475925  1.0
  Cl  Cl7  1  0.61697755  0.45506794  0.14475925  1.0
  Cl  Cl8  1  1.04611738  0.77848690  0.75798401  1.0
  Cl  Cl9  1  0.22151310  -0.04611738  0.25798401  1.0
  Cl  Cl10  1  0.62364356  0.20012087  0.95016967  1.0
  Cl  Cl11  1  0.79987913  0.37635644  0.45016967  1.0
  Cl  Cl12  1  1.22820141  0.69909876  0.06335519  1.0
  Cl  Cl13  1  0.30090124  -0.22820141  0.56335519  1.0
  Cl  Cl14  1  0.97756964  0.29353693  0.71393324  1.0
  Cl  Cl15  1  0.70646307  0.02243036  0.21393324  1.0
