# generated using pymatgen
data_K3Ta2Cu3Se8
_symmetry_space_group_name_H-M   'P 1'
_cell_length_a   12.82989388
_cell_length_b   12.82989388
_cell_length_c   15.06991214
_cell_angle_alpha   61.52313654
_cell_angle_beta   118.47686346
_cell_angle_gamma   154.07970822
_symmetry_Int_Tables_number   1
_chemical_formula_structural   K3Ta2Cu3Se8
_chemical_formula_sum   'K6 Ta4 Cu6 Se16'
_cell_volume   945.67309179
_cell_formula_units_Z   2
loop_
 _symmetry_equiv_pos_site_id
 _symmetry_equiv_pos_as_xyz
  1  'x, y, z'
loop_
 _atom_site_type_symbol
 _atom_site_label
 _atom_site_symmetry_multiplicity
 _atom_site_fract_x
 _atom_site_fract_y
 _atom_site_fract_z
 _atom_site_occupancy
  K  K0  1  0.65337232  0.25117942  0.10268007  1.0
  K  K1  1  0.74882058  -0.65337232  0.60268007  1.0
  K  K2  1  1.25117942  0.65337232  0.39731993  1.0
  K  K3  1  1.34662768  -0.25117942  0.89731993  1.0
  K  K4  1  0.00000000  -0.00000000  0.50000000  1.0
  K  K5  1  0.00000000  0.00000000  0.00000000  1.0
  Ta  Ta6  1  1.59262360  -0.16461765  0.22612211  1.0
  Ta  Ta7  1  1.16461765  -0.59262360  0.72612211  1.0
  Ta  Ta8  1  0.83538236  0.59262360  0.27387789  1.0
  Ta  Ta9  1  0.40737640  0.16461765  0.77387789  1.0
  Cu  Cu10  1  0.33393653  0.09519464  0.27363342  1.0
  Cu  Cu11  1  0.90480536  0.66606347  0.77363342  1.0
  Cu  Cu12  1  1.09519464  -0.66606347  0.22636658  1.0
  Cu  Cu13  1  1.66606347  -0.09519464  0.72636658  1.0
  Cu  Cu14  1  0.72194042  0.72194042  0.25000000  1.0
  Cu  Cu15  1  0.27805958  0.27805958  0.75000000  1.0
  Se  Se16  1  1.43945586  -0.48980349  0.34482228  1.0
  Se  Se17  1  1.48980349  -0.43945586  0.84482228  1.0
  Se  Se18  1  0.51019651  0.43945586  0.15517772  1.0
  Se  Se19  1  0.56054414  0.48980349  0.65517772  1.0
  Se  Se20  1  1.86730795  0.04458183  0.12836120  1.0
  Se  Se21  1  0.95541817  -0.86730795  0.62836120  1.0
  Se  Se22  1  1.04458183  0.86730795  0.37163880  1.0
  Se  Se23  1  0.13269205  -0.04458183  0.87163880  1.0
  Se  Se24  1  0.80884444  0.11546427  0.32245359  1.0
  Se  Se25  1  0.88453573  -0.80884444  0.82245359  1.0
  Se  Se26  1  1.11546427  0.80884444  0.17754641  1.0
  Se  Se27  1  1.19115556  -0.11546427  0.67754641  1.0
  Se  Se28  1  0.67235192  0.26048966  0.38516418  1.0
  Se  Se29  1  0.73951034  -0.67235192  0.88516418  1.0
  Se  Se30  1  1.26048966  0.67235192  0.11483582  1.0
  Se  Se31  1  1.32764808  -0.26048966  0.61483582  1.0
