# generated using pymatgen
data_Ca5Mg3(SiN4)2
_symmetry_space_group_name_H-M   'P 1'
_cell_length_a   8.58264721
_cell_length_b   8.58264721
_cell_length_c   10.42900495
_cell_angle_alpha   52.87998782
_cell_angle_beta   127.12001218
_cell_angle_gamma   121.84909467
_symmetry_Int_Tables_number   1
_chemical_formula_structural   Ca5Mg3(SiN4)2
_chemical_formula_sum   'Ca10 Mg6 Si4 N16'
_cell_volume   472.01357795
_cell_formula_units_Z   2
loop_
 _symmetry_equiv_pos_site_id
 _symmetry_equiv_pos_as_xyz
  1  'x, y, z'
loop_
 _atom_site_type_symbol
 _atom_site_label
 _atom_site_symmetry_multiplicity
 _atom_site_fract_x
 _atom_site_fract_y
 _atom_site_fract_z
 _atom_site_occupancy
  Ca  Ca0  1  0.58383523  0.37835315  0.97395319  1.0
  Ca  Ca1  1  1.41616477  -0.37835315  0.02604681  1.0
  Ca  Ca2  1  1.37835315  -0.41616477  0.52604681  1.0
  Ca  Ca3  1  0.62164685  0.41616477  0.47395319  1.0
  Ca  Ca4  1  0.38473085  0.11640805  0.27192082  1.0
  Ca  Ca5  1  1.61526915  -0.11640805  0.72807918  1.0
  Ca  Ca6  1  1.11640805  -0.61526915  0.22807918  1.0
  Ca  Ca7  1  0.88359195  0.61526915  0.77192082  1.0
  Ca  Ca8  1  0.03813463  0.03813463  0.75000000  1.0
  Ca  Ca9  1  0.96186537  0.96186537  0.25000000  1.0
  Mg  Mg10  1  1.17748344  0.80218517  0.62549056  1.0
  Mg  Mg11  1  0.82251656  -0.80218517  0.37450944  1.0
  Mg  Mg12  1  0.80218517  0.17748344  0.87450944  1.0
  Mg  Mg13  1  1.19781483  -0.17748344  0.12549056  1.0
  Mg  Mg14  1  0.50000000  -0.00000000  0.00000000  1.0
  Mg  Mg15  1  1.00000000  -0.50000000  0.50000000  1.0
  Si  Si16  1  0.84760659  -0.32342130  0.13339080  1.0
  Si  Si17  1  1.15239341  0.32342130  0.86660920  1.0
  Si  Si18  1  1.67657870  -0.15239341  0.36660920  1.0
  Si  Si19  1  0.32342130  0.15239341  0.63339080  1.0
  N  N20  1  0.27972852  0.13370029  0.99057769  1.0
  N  N21  1  1.72027148  -0.13370029  0.00942231  1.0
  N  N22  1  1.13370029  -0.72027148  0.50942231  1.0
  N  N23  1  0.86629971  0.72027148  0.49057769  1.0
  N  N24  1  0.33269698  0.10765242  0.48845933  1.0
  N  N25  1  1.66730302  -0.10765242  0.51154067  1.0
  N  N26  1  1.10765242  -0.66730302  0.01154067  1.0
  N  N27  1  0.89234758  0.66730302  0.98845933  1.0
  N  N28  1  0.56112755  0.30220342  0.74209200  1.0
  N  N29  1  1.43887245  -0.30220342  0.25790800  1.0
  N  N30  1  1.30220342  0.56112755  0.75790800  1.0
  N  N31  1  0.69779658  -0.56112755  0.24209200  1.0
  N  N32  1  0.25996832  -0.09373816  0.79868390  1.0
  N  N33  1  1.74003168  0.09373816  0.20131610  1.0
  N  N34  1  0.90626184  0.25996832  0.70131610  1.0
  N  N35  1  1.09373816  -0.25996832  0.29868390  1.0
