# generated using pymatgen
data_BaSiC
_symmetry_space_group_name_H-M   'P 1'
_cell_length_a   5.24426073
_cell_length_b   5.24426073
_cell_length_c   5.24426073
_cell_angle_alpha   125.33830408
_cell_angle_beta   125.33830408
_cell_angle_gamma   80.97843390
_symmetry_Int_Tables_number   1
_chemical_formula_structural   BaSiC
_chemical_formula_sum   'Ba1 Si1 C1'
_cell_volume   92.49016010
_cell_formula_units_Z   1
loop_
 _symmetry_equiv_pos_site_id
 _symmetry_equiv_pos_as_xyz
  1  'x, y, z'
loop_
 _atom_site_type_symbol
 _atom_site_label
 _atom_site_symmetry_multiplicity
 _atom_site_fract_x
 _atom_site_fract_y
 _atom_site_fract_z
 _atom_site_occupancy
  Ba  Ba0  1  -0.01005373  -0.01005373  -0.00000000  1.0
  Si  Si1  1  0.41695626  0.41695626  0.00000000  1.0
  C  C2  1  0.63109746  0.63109746  1.00000000  1.0
