# generated using pymatgen
data_Cs3LaN18
_symmetry_space_group_name_H-M   'P 1'
_cell_length_a   10.29864907
_cell_length_b   9.52358202
_cell_length_c   9.52257033
_cell_angle_alpha   102.13524016
_cell_angle_beta   109.35639267
_cell_angle_gamma   99.36844465
_symmetry_Int_Tables_number   1
_chemical_formula_structural   Cs3LaN18
_chemical_formula_sum   'Cs6 La2 N36'
_cell_volume   833.68401829
_cell_formula_units_Z   2
loop_
 _symmetry_equiv_pos_site_id
 _symmetry_equiv_pos_as_xyz
  1  'x, y, z'
loop_
 _atom_site_type_symbol
 _atom_site_label
 _atom_site_symmetry_multiplicity
 _atom_site_fract_x
 _atom_site_fract_y
 _atom_site_fract_z
 _atom_site_occupancy
  Cs  Cs0  1  -0.39584087  -0.46650385  -0.73534794  1.0
  Cs  Cs1  1  -0.60415913  -0.53349615  -0.26465206  1.0
  Cs  Cs2  1  -0.15944295  -0.90549524  -0.67518404  1.0
  Cs  Cs3  1  -0.84055705  -0.09450476  -0.32481596  1.0
  Cs  Cs4  1  -0.37047475  -0.91131806  -0.21939709  1.0
  Cs  Cs5  1  -0.62952525  -0.08868194  -0.78060291  1.0
  La  La6  1  -0.88054434  -0.60655734  -0.81758707  1.0
  La  La7  1  -0.11945566  -0.39344266  -0.18241293  1.0
  N  N8  1  -0.03446278  -0.88967689  -0.96551220  1.0
  N  N9  1  -0.96553722  -0.11032311  -0.03448780  1.0
  N  N10  1  -0.65208036  -0.77986257  -0.97163870  1.0
  N  N11  1  -0.34791964  -0.22013743  -0.02836130  1.0
  N  N12  1  -0.41220844  -0.20163676  -0.94702479  1.0
  N  N13  1  -0.58779156  -0.79836324  -0.05297521  1.0
  N  N14  1  -0.71910291  -0.47383118  -0.96370443  1.0
  N  N15  1  -0.28089709  -0.52616882  -0.03629557  1.0
  N  N16  1  -0.22191292  -0.58775228  -0.94865941  1.0
  N  N17  1  -0.77808708  -0.41224772  -0.05134059  1.0
  N  N18  1  -0.71494393  -0.76195206  -0.88778452  1.0
  N  N19  1  -0.28505607  -0.23804794  -0.11221548  1.0
  N  N20  1  -0.16322165  -0.64943263  -0.86090406  1.0
  N  N21  1  -0.83677835  -0.35056737  -0.13909594  1.0
  N  N22  1  -0.96276863  -0.36165641  -0.87058619  1.0
  N  N23  1  -0.03723137  -0.63834359  -0.12941381  1.0
  N  N24  1  -0.99341074  -0.27548316  -0.78303006  1.0
  N  N25  1  -0.00658926  -0.72451684  -0.21696994  1.0
  N  N26  1  -0.82804763  -0.75792520  -0.61872948  1.0
  N  N27  1  -0.17195237  -0.24207480  -0.38127052  1.0
  N  N28  1  -0.64703992  -0.41706132  -0.61860797  1.0
  N  N29  1  -0.35296008  -0.58293868  -0.38139203  1.0
  N  N30  1  -0.40325310  -0.77222485  -0.61098327  1.0
  N  N31  1  -0.59674690  -0.22777515  -0.38901673  1.0
  N  N32  1  -0.91990059  -0.47410492  -0.56117640  1.0
  N  N33  1  -0.08009941  -0.52589508  -0.43882360  1.0
  N  N34  1  -0.75371162  -0.82819006  -0.55771537  1.0
  N  N35  1  -0.24628838  -0.17180994  -0.44228463  1.0
  N  N36  1  -0.37764027  -0.67885845  -0.49648988  1.0
  N  N37  1  -0.62235973  -0.32114155  -0.50351012  1.0
  N  N38  1  -0.67975301  -0.89547811  -0.49267066  1.0
  N  N39  1  -0.32024699  -0.10452189  -0.50732934  1.0
  N  N40  1  -0.97655901  -0.80871825  -0.30121048  1.0
  N  N41  1  -0.02344099  -0.19128175  -0.69878952  1.0
  N  N42  1  -0.00000000  -0.50000000  -0.50000000  1.0
  N  N43  1  0.00000000  0.00000000  0.00000000  1.0
