# generated using pymatgen
data_Na2PdO6
_symmetry_space_group_name_H-M   'P 1'
_cell_length_a   6.01395090
_cell_length_b   6.01395090
_cell_length_c   3.71107060
_cell_angle_alpha   90.00000000
_cell_angle_beta   90.00000000
_cell_angle_gamma   120.00000000
_symmetry_Int_Tables_number   1
_chemical_formula_structural   Na2PdO6
_chemical_formula_sum   'Na2 Pd1 O6'
_cell_volume   116.23839479
_cell_formula_units_Z   1
loop_
 _symmetry_equiv_pos_site_id
 _symmetry_equiv_pos_as_xyz
  1  'x, y, z'
loop_
 _atom_site_type_symbol
 _atom_site_label
 _atom_site_symmetry_multiplicity
 _atom_site_fract_x
 _atom_site_fract_y
 _atom_site_fract_z
 _atom_site_occupancy
  Na  Na0  1  0.33333333  0.66666667  -0.00000000  1.0
  Na  Na1  1  0.66666667  0.33333333  -0.00000000  1.0
  Pd  Pd2  1  0.00000000  0.00000000  0.00000000  1.0
  O  O3  1  0.72919676  -0.00000000  0.69933404  1.0
  O  O4  1  0.27080324  0.27080324  0.69933404  1.0
  O  O5  1  0.00000000  0.72919676  0.69933404  1.0
  O  O6  1  0.27080324  0.00000000  0.30066596  1.0
  O  O7  1  0.72919676  0.72919676  0.30066596  1.0
  O  O8  1  -0.00000000  0.27080324  0.30066596  1.0
