# generated using pymatgen
data_NiPbO3
_symmetry_space_group_name_H-M   'P 1'
_cell_length_a   5.52764534
_cell_length_b   7.64045968
_cell_length_c   5.39725874
_cell_angle_alpha   90.00000000
_cell_angle_beta   90.00000000
_cell_angle_gamma   90.00000000
_symmetry_Int_Tables_number   1
_chemical_formula_structural   NiPbO3
_chemical_formula_sum   'Ni4 Pb4 O12'
_cell_volume   227.94648369
_cell_formula_units_Z   4
loop_
 _symmetry_equiv_pos_site_id
 _symmetry_equiv_pos_as_xyz
  1  'x, y, z'
loop_
 _atom_site_type_symbol
 _atom_site_label
 _atom_site_symmetry_multiplicity
 _atom_site_fract_x
 _atom_site_fract_y
 _atom_site_fract_z
 _atom_site_occupancy
  Ni  Ni0  1  0.50000000  0.00000000  0.50000000  1.0
  Ni  Ni1  1  0.50000000  0.50000000  0.50000000  1.0
  Ni  Ni2  1  0.00000000  0.00000000  0.00000000  1.0
  Ni  Ni3  1  0.00000000  0.50000000  0.00000000  1.0
  Pb  Pb4  1  0.04708206  0.75000000  0.51058600  1.0
  Pb  Pb5  1  0.54708206  0.75000000  0.98941400  1.0
  Pb  Pb6  1  0.95291794  0.25000000  0.48941400  1.0
  Pb  Pb7  1  0.45291794  0.25000000  0.01058600  1.0
  O  O8  1  0.29324386  0.95434375  0.79659856  1.0
  O  O9  1  0.29324386  0.54565625  0.79659856  1.0
  O  O10  1  0.79324386  0.95434375  0.70340144  1.0
  O  O11  1  0.79324386  0.54565625  0.70340144  1.0
  O  O12  1  0.70675614  0.45434375  0.20340144  1.0
  O  O13  1  0.70675614  0.04565625  0.20340144  1.0
  O  O14  1  0.20675614  0.45434375  0.29659856  1.0
  O  O15  1  0.20675614  0.04565625  0.29659856  1.0
  O  O16  1  0.96712357  0.75000000  0.08793956  1.0
  O  O17  1  0.46712357  0.75000000  0.41206044  1.0
  O  O18  1  0.03287643  0.25000000  0.91206044  1.0
  O  O19  1  0.53287643  0.25000000  0.58793956  1.0
