# generated using pymatgen
data_Ca4Sb2O
_symmetry_space_group_name_H-M   'P 1'
_cell_length_a   8.82912876
_cell_length_b   8.82912876
_cell_length_c   8.82912876
_cell_angle_alpha   149.13465393
_cell_angle_beta   149.13465393
_cell_angle_gamma   44.21314006
_symmetry_Int_Tables_number   1
_chemical_formula_structural   Ca4Sb2O
_chemical_formula_sum   'Ca4 Sb2 O1'
_cell_volume   180.61799267
_cell_formula_units_Z   1
loop_
 _symmetry_equiv_pos_site_id
 _symmetry_equiv_pos_as_xyz
  1  'x, y, z'
loop_
 _atom_site_type_symbol
 _atom_site_label
 _atom_site_symmetry_multiplicity
 _atom_site_fract_x
 _atom_site_fract_y
 _atom_site_fract_z
 _atom_site_occupancy
  Ca  Ca0  1  0.83459230  0.83459230  1.00000000  1.0
  Ca  Ca1  1  0.16540770  0.16540770  -0.00000000  1.0
  Ca  Ca2  1  0.50000000  0.00000000  0.50000000  1.0
  Ca  Ca3  1  0.00000000  0.50000000  0.50000000  1.0
  Sb  Sb4  1  0.63951071  0.63951071  1.00000000  1.0
  Sb  Sb5  1  0.36048929  0.36048929  -0.00000000  1.0
  O  O6  1  0.00000000  0.00000000  0.00000000  1.0
