# generated using pymatgen
data_NaBrO3
_symmetry_space_group_name_H-M   'P 1'
_cell_length_a   7.49499286
_cell_length_b   7.49499286
_cell_length_c   7.49499286
_cell_angle_alpha   90.00000000
_cell_angle_beta   90.00000000
_cell_angle_gamma   90.00000000
_symmetry_Int_Tables_number   1
_chemical_formula_structural   NaBrO3
_chemical_formula_sum   'Na4 Br4 O12'
_cell_volume   421.03060908
_cell_formula_units_Z   4
loop_
 _symmetry_equiv_pos_site_id
 _symmetry_equiv_pos_as_xyz
  1  'x, y, z'
loop_
 _atom_site_type_symbol
 _atom_site_label
 _atom_site_symmetry_multiplicity
 _atom_site_fract_x
 _atom_site_fract_y
 _atom_site_fract_z
 _atom_site_occupancy
  Na  Na0  1  0.68105285  1.18105285  0.31894715  1.0
  Na  Na1  1  1.18105285  0.31894715  0.68105285  1.0
  Na  Na2  1  0.31894715  0.68105285  1.18105285  1.0
  Na  Na3  1  -0.18105285  -0.18105285  -0.18105285  1.0
  Br  Br4  1  0.17248518  0.67248518  0.82751482  1.0
  Br  Br5  1  0.67248518  0.82751482  0.17248518  1.0
  Br  Br6  1  0.82751482  0.17248518  0.67248518  1.0
  Br  Br7  1  0.32751482  0.32751482  0.32751482  1.0
  O  O8  1  -0.06502273  0.29541549  0.06877249  1.0
  O  O9  1  0.93122751  0.43497727  0.20458451  1.0
  O  O10  1  0.79541549  0.43122751  0.06502273  1.0
  O  O11  1  0.43497727  0.20458451  0.93122751  1.0
  O  O12  1  0.43122751  0.06502273  0.79541549  1.0
  O  O13  1  0.29541549  0.06877249  -0.06502273  1.0
  O  O14  1  0.06502273  0.79541549  0.43122751  1.0
  O  O15  1  0.06877249  -0.06502273  0.29541549  1.0
  O  O16  1  0.20458451  0.93122751  0.43497727  1.0
  O  O17  1  0.56502273  0.70458451  0.56877249  1.0
  O  O18  1  0.56877249  0.56502273  0.70458451  1.0
  O  O19  1  0.70458451  0.56877249  0.56502273  1.0
