# generated using pymatgen
data_SrNiGe2
_symmetry_space_group_name_H-M   'P 1'
_cell_length_a   8.93796753
_cell_length_b   8.93796753
_cell_length_c   4.21634967
_cell_angle_alpha   90.00000000
_cell_angle_beta   90.00000000
_cell_angle_gamma   151.29579327
_symmetry_Int_Tables_number   1
_chemical_formula_structural   SrNiGe2
_chemical_formula_sum   'Sr2 Ni2 Ge4'
_cell_volume   161.77663926
_cell_formula_units_Z   2
loop_
 _symmetry_equiv_pos_site_id
 _symmetry_equiv_pos_as_xyz
  1  'x, y, z'
loop_
 _atom_site_type_symbol
 _atom_site_label
 _atom_site_symmetry_multiplicity
 _atom_site_fract_x
 _atom_site_fract_y
 _atom_site_fract_z
 _atom_site_occupancy
  Sr  Sr0  1  0.39228701  0.60771299  0.75000000  1.0
  Sr  Sr1  1  -0.39228701  0.39228701  0.25000000  1.0
  Ni  Ni2  1  0.18164886  0.81835114  0.75000000  1.0
  Ni  Ni3  1  -0.18164886  0.18164886  0.25000000  1.0
  Ge  Ge4  1  0.04349784  0.95650216  0.75000000  1.0
  Ge  Ge5  1  -0.04349784  0.04349784  0.25000000  1.0
  Ge  Ge6  1  -0.24965037  0.24965037  0.75000000  1.0
  Ge  Ge7  1  0.24965037  0.75034963  0.25000000  1.0
