# generated using pymatgen
data_Ta6Ni16Ge7
_symmetry_space_group_name_H-M   'P 1'
_cell_length_a   8.08512642
_cell_length_b   8.08512642
_cell_length_c   8.08512642
_cell_angle_alpha   60.00000000
_cell_angle_beta   60.00000000
_cell_angle_gamma   60.00000000
_symmetry_Int_Tables_number   1
_chemical_formula_structural   Ta6Ni16Ge7
_chemical_formula_sum   'Ta6 Ni16 Ge7'
_cell_volume   373.71923142
_cell_formula_units_Z   1
loop_
 _symmetry_equiv_pos_site_id
 _symmetry_equiv_pos_as_xyz
  1  'x, y, z'
loop_
 _atom_site_type_symbol
 _atom_site_label
 _atom_site_symmetry_multiplicity
 _atom_site_fract_x
 _atom_site_fract_y
 _atom_site_fract_z
 _atom_site_occupancy
  Ta  Ta0  1  -0.70061835  0.70061835  0.70061835  1.0
  Ta  Ta1  1  -0.29938165  0.29938165  0.70061835  1.0
  Ta  Ta2  1  0.70061835  0.70061835  -0.70061835  1.0
  Ta  Ta3  1  0.29938165  1.29938165  -0.29938165  1.0
  Ta  Ta4  1  0.29938165  -0.29938165  1.29938165  1.0
  Ta  Ta5  1  -0.29938165  0.29938165  0.29938165  1.0
  Ni  Ni6  1  0.88288663  0.88288663  -0.11711337  1.0
  Ni  Ni7  1  1.11711337  0.11711337  0.64865990  1.0
  Ni  Ni8  1  1.11711337  0.64865990  0.11711337  1.0
  Ni  Ni9  1  0.35134010  0.88288663  -0.11711337  1.0
  Ni  Ni10  1  1.64865990  0.11711337  0.11711337  1.0
  Ni  Ni11  1  0.88288663  0.35134010  -0.11711337  1.0
  Ni  Ni12  1  0.88288663  0.88288663  -0.64865990  1.0
  Ni  Ni13  1  1.11711337  0.11711337  0.11711337  1.0
  Ni  Ni14  1  0.66585687  0.66585687  -0.33414313  1.0
  Ni  Ni15  1  1.33414313  0.33414313  -0.00242938  1.0
  Ni  Ni16  1  1.33414313  -0.00242938  0.33414313  1.0
  Ni  Ni17  1  1.00242938  0.66585687  -0.33414313  1.0
  Ni  Ni18  1  0.99757062  0.33414313  0.33414313  1.0
  Ni  Ni19  1  0.66585687  1.00242938  -0.33414313  1.0
  Ni  Ni20  1  0.66585687  0.66585687  0.00242938  1.0
  Ni  Ni21  1  1.33414313  0.33414313  0.33414313  1.0
  Ge  Ge22  1  1.50000000  -0.00000000  0.00000000  1.0
  Ge  Ge23  1  1.00000000  0.50000000  -0.50000000  1.0
  Ge  Ge24  1  -0.00000000  1.50000000  0.00000000  1.0
  Ge  Ge25  1  0.50000000  1.00000000  -0.50000000  1.0
  Ge  Ge26  1  -0.00000000  0.00000000  0.50000000  1.0
  Ge  Ge27  1  0.50000000  -0.50000000  1.00000000  1.0
  Ge  Ge28  1  0.00000000  0.00000000  0.00000000  1.0
