# generated using pymatgen
data_Sc3Si3Ru
_symmetry_space_group_name_H-M   'P 1'
_cell_length_a   11.73353029
_cell_length_b   3.98221030
_cell_length_c   10.31901677
_cell_angle_alpha   90.00000000
_cell_angle_beta   90.00000000
_cell_angle_gamma   90.00000000
_symmetry_Int_Tables_number   1
_chemical_formula_structural   Sc3Si3Ru
_chemical_formula_sum   'Sc12 Si12 Ru4'
_cell_volume   482.16003337
_cell_formula_units_Z   4
loop_
 _symmetry_equiv_pos_site_id
 _symmetry_equiv_pos_as_xyz
  1  'x, y, z'
loop_
 _atom_site_type_symbol
 _atom_site_label
 _atom_site_symmetry_multiplicity
 _atom_site_fract_x
 _atom_site_fract_y
 _atom_site_fract_z
 _atom_site_occupancy
  Sc  Sc0  1  0.48105257  0.75000000  0.12301762  1.0
  Sc  Sc1  1  0.98105257  0.75000000  0.37698238  1.0
  Sc  Sc2  1  0.51894743  0.25000000  0.87698238  1.0
  Sc  Sc3  1  0.01894743  0.25000000  0.62301762  1.0
  Sc  Sc4  1  0.20164337  0.75000000  0.15967645  1.0
  Sc  Sc5  1  0.70164337  0.75000000  0.34032355  1.0
  Sc  Sc6  1  0.79835663  0.25000000  0.84032355  1.0
  Sc  Sc7  1  0.29835663  0.25000000  0.65967645  1.0
  Sc  Sc8  1  0.89547254  0.75000000  0.07811758  1.0
  Sc  Sc9  1  0.39547254  0.75000000  0.42188242  1.0
  Sc  Sc10  1  0.10452746  0.25000000  0.92188242  1.0
  Sc  Sc11  1  0.60452746  0.25000000  0.57811758  1.0
  Si  Si12  1  0.45513630  0.75000000  0.69403933  1.0
  Si  Si13  1  0.95513630  0.75000000  0.80596067  1.0
  Si  Si14  1  0.54486370  0.25000000  0.30596067  1.0
  Si  Si15  1  0.04486370  0.25000000  0.19403933  1.0
  Si  Si16  1  0.17755414  0.75000000  0.51547800  1.0
  Si  Si17  1  0.67755414  0.75000000  0.98452200  1.0
  Si  Si18  1  0.82244586  0.25000000  0.48452200  1.0
  Si  Si19  1  0.32244586  0.25000000  0.01547800  1.0
  Si  Si20  1  0.15744708  0.75000000  0.75201194  1.0
  Si  Si21  1  0.65744708  0.75000000  0.74798806  1.0
  Si  Si22  1  0.84255292  0.25000000  0.24798806  1.0
  Si  Si23  1  0.34255292  0.25000000  0.25201194  1.0
  Ru  Ru24  1  0.32278262  0.75000000  0.88978298  1.0
  Ru  Ru25  1  0.82278262  0.75000000  0.61021702  1.0
  Ru  Ru26  1  0.67721738  0.25000000  0.11021702  1.0
  Ru  Ru27  1  0.17721738  0.25000000  0.38978298  1.0
