# generated using pymatgen
data_Zn(PO2)2
_symmetry_space_group_name_H-M   'P 1'
_cell_length_a   6.64221504
_cell_length_b   5.50393242
_cell_length_c   8.19323104
_cell_angle_alpha   90.00000000
_cell_angle_beta   90.00000000
_cell_angle_gamma   90.00000000
_symmetry_Int_Tables_number   1
_chemical_formula_structural   Zn(PO2)2
_chemical_formula_sum   'Zn2 P4 O8'
_cell_volume   299.53062053
_cell_formula_units_Z   2
loop_
 _symmetry_equiv_pos_site_id
 _symmetry_equiv_pos_as_xyz
  1  'x, y, z'
loop_
 _atom_site_type_symbol
 _atom_site_label
 _atom_site_symmetry_multiplicity
 _atom_site_fract_x
 _atom_site_fract_y
 _atom_site_fract_z
 _atom_site_occupancy
  Zn  Zn0  1  0.00000000  0.00000000  0.00000000  1.0
  Zn  Zn1  1  0.50000000  0.00000000  0.00000000  1.0
  P  P2  1  0.75000000  0.50000000  0.14535281  1.0
  P  P3  1  0.25000000  0.50000000  0.85464719  1.0
  P  P4  1  0.75000000  0.00000000  0.66060840  1.0
  P  P5  1  0.25000000  0.00000000  0.33939160  1.0
  O  O6  1  0.75000000  0.72978097  0.03744884  1.0
  O  O7  1  0.75000000  0.27021903  0.03744884  1.0
  O  O8  1  0.25000000  0.72978097  0.96255116  1.0
  O  O9  1  0.25000000  0.27021903  0.96255116  1.0
  O  O10  1  0.44386045  0.00000000  0.23704706  1.0
  O  O11  1  0.94386045  0.00000000  0.76295294  1.0
  O  O12  1  0.55613955  0.00000000  0.76295294  1.0
  O  O13  1  0.05613955  0.00000000  0.23704706  1.0
