# generated using pymatgen
data_AsPO4
_symmetry_space_group_name_H-M   'P 1'
_cell_length_a   8.70303656
_cell_length_b   5.05794408
_cell_length_c   7.88743766
_cell_angle_alpha   90.00000000
_cell_angle_beta   90.00000000
_cell_angle_gamma   90.00000000
_symmetry_Int_Tables_number   1
_chemical_formula_structural   AsPO4
_chemical_formula_sum   'As4 P4 O16'
_cell_volume   347.20084377
_cell_formula_units_Z   4
loop_
 _symmetry_equiv_pos_site_id
 _symmetry_equiv_pos_as_xyz
  1  'x, y, z'
loop_
 _atom_site_type_symbol
 _atom_site_label
 _atom_site_symmetry_multiplicity
 _atom_site_fract_x
 _atom_site_fract_y
 _atom_site_fract_z
 _atom_site_occupancy
  As  As0  1  0.27888845  0.75000000  0.17498064  1.0
  As  As1  1  0.77888845  0.75000000  0.32501936  1.0
  As  As2  1  0.72111155  0.25000000  0.82501936  1.0
  As  As3  1  0.22111155  0.25000000  0.67498064  1.0
  P  P4  1  0.40100965  0.75000000  0.80807853  1.0
  P  P5  1  0.90100965  0.75000000  0.69192147  1.0
  P  P6  1  0.59899035  0.25000000  0.19192147  1.0
  P  P7  1  0.09899035  0.25000000  0.30807853  1.0
  O  O8  1  0.37663059  0.99785238  0.68956299  1.0
  O  O9  1  0.37663059  0.50214762  0.68956299  1.0
  O  O10  1  0.87663059  0.99785238  0.81043701  1.0
  O  O11  1  0.87663059  0.50214762  0.81043701  1.0
  O  O12  1  0.62336941  0.49785238  0.31043701  1.0
  O  O13  1  0.62336941  0.00214762  0.31043701  1.0
  O  O14  1  0.12336941  0.49785238  0.18956299  1.0
  O  O15  1  0.12336941  0.00214762  0.18956299  1.0
  O  O16  1  0.26213457  0.75000000  0.94023161  1.0
  O  O17  1  0.76213457  0.75000000  0.55976839  1.0
  O  O18  1  0.73786543  0.25000000  0.05976839  1.0
  O  O19  1  0.23786543  0.25000000  0.44023161  1.0
  O  O20  1  0.05880982  0.75000000  0.61497289  1.0
  O  O21  1  0.55880982  0.75000000  0.88502711  1.0
  O  O22  1  0.94119018  0.25000000  0.38502711  1.0
  O  O23  1  0.44119018  0.25000000  0.11497289  1.0
