# generated using pymatgen
data_CsLiN2
_symmetry_space_group_name_H-M   'P 1'
_cell_length_a   6.32984424
_cell_length_b   6.32984424
_cell_length_c   5.19345061
_cell_angle_alpha   79.40357362
_cell_angle_beta   100.59642638
_cell_angle_gamma   66.75821702
_symmetry_Int_Tables_number   1
_chemical_formula_structural   CsLiN2
_chemical_formula_sum   'Cs2 Li2 N4'
_cell_volume   180.20288006
_cell_formula_units_Z   2
loop_
 _symmetry_equiv_pos_site_id
 _symmetry_equiv_pos_as_xyz
  1  'x, y, z'
loop_
 _atom_site_type_symbol
 _atom_site_label
 _atom_site_symmetry_multiplicity
 _atom_site_fract_x
 _atom_site_fract_y
 _atom_site_fract_z
 _atom_site_occupancy
  Cs  Cs0  1  0.84492783  0.84492783  0.75000000  1.0
  Cs  Cs1  1  1.15507217  0.15507217  0.25000000  1.0
  Li  Li2  1  1.47836912  0.47836912  0.75000000  1.0
  Li  Li3  1  0.52163088  0.52163088  0.25000000  1.0
  N  N4  1  1.39025121  -0.22887032  0.88519017  1.0
  N  N5  1  1.22887032  0.60974879  0.38519017  1.0
  N  N6  1  0.77112968  0.39025121  0.61480983  1.0
  N  N7  1  1.60974879  0.22887032  0.11480983  1.0
