# generated using pymatgen
data_Ba6TbSc(BO3)6
_symmetry_space_group_name_H-M   'P 1'
_cell_length_a   8.14856905
_cell_length_b   8.14856905
_cell_length_c   8.14856905
_cell_angle_alpha   105.73662242
_cell_angle_beta   105.73662242
_cell_angle_gamma   105.73662242
_symmetry_Int_Tables_number   1
_chemical_formula_structural   Ba6TbSc(BO3)6
_chemical_formula_sum   'Ba6 Tb1 Sc1 B6 O18'
_cell_volume   465.25536474
_cell_formula_units_Z   1
loop_
 _symmetry_equiv_pos_site_id
 _symmetry_equiv_pos_as_xyz
  1  'x, y, z'
loop_
 _atom_site_type_symbol
 _atom_site_label
 _atom_site_symmetry_multiplicity
 _atom_site_fract_x
 _atom_site_fract_y
 _atom_site_fract_z
 _atom_site_occupancy
  Ba  Ba0  1  0.76581391  0.66441077  0.15237331  1.0
  Ba  Ba1  1  1.33558923  -0.15237331  0.23418609  1.0
  Ba  Ba2  1  0.84762669  0.23418609  0.33558923  1.0
  Ba  Ba3  1  1.23418609  0.33558923  -0.15237331  1.0
  Ba  Ba4  1  0.66441077  1.15237331  -0.23418609  1.0
  Ba  Ba5  1  1.15237331  0.76581391  -0.33558923  1.0
  Tb  Tb6  1  0.50000000  0.50000000  0.50000000  1.0
  Sc  Sc7  1  0.00000000  0.00000000  0.00000000  1.0
  B  B8  1  1.55069206  0.79517483  -0.12535668  1.0
  B  B9  1  1.20482517  0.12535668  -0.55069206  1.0
  B  B10  1  1.12535668  -0.55069206  0.20482517  1.0
  B  B11  1  0.44930794  0.20482517  0.12535668  1.0
  B  B12  1  0.79517483  0.87464332  0.55069206  1.0
  B  B13  1  0.87464332  1.55069206  -0.20482517  1.0
  O  O14  1  0.72557995  0.92691591  -0.01062898  1.0
  O  O15  1  1.07308409  0.01062898  -0.72557995  1.0
  O  O16  1  1.01062898  -0.72557995  0.07308409  1.0
  O  O17  1  0.27442005  0.07308409  0.01062898  1.0
  O  O18  1  0.92691591  0.98937102  -0.27442005  1.0
  O  O19  1  0.98937102  0.72557995  -0.07308409  1.0
  O  O20  1  1.48905420  0.76603598  -0.31245815  1.0
  O  O21  1  1.23396402  0.31245815  -0.48905420  1.0
  O  O22  1  1.31245815  -0.48905420  0.23396402  1.0
  O  O23  1  0.51094580  0.23396402  0.31245815  1.0
  O  O24  1  0.76603598  0.68754185  0.48905420  1.0
  O  O25  1  0.68754185  1.48905420  -0.23396402  1.0
  O  O26  1  0.56130839  0.29664817  0.05318813  1.0
  O  O27  1  0.70335183  0.94681187  0.43869161  1.0
  O  O28  1  0.94681187  1.43869161  -0.29664817  1.0
  O  O29  1  1.43869161  0.70335183  -0.05318813  1.0
  O  O30  1  1.29664817  0.05318813  -0.43869161  1.0
  O  O31  1  1.05318813  -0.43869161  0.29664817  1.0
