# generated using pymatgen
data_Nb5Ga3
_symmetry_space_group_name_H-M   'P 1'
_cell_length_a   7.74876202
_cell_length_b   7.74876202
_cell_length_c   7.74876202
_cell_angle_alpha   96.16378643
_cell_angle_beta   96.16378643
_cell_angle_gamma   141.74454917
_symmetry_Int_Tables_number   1
_chemical_formula_structural   Nb5Ga3
_chemical_formula_sum   'Nb10 Ga6'
_cell_volume   272.17073886
_cell_formula_units_Z   2
loop_
 _symmetry_equiv_pos_site_id
 _symmetry_equiv_pos_as_xyz
  1  'x, y, z'
loop_
 _atom_site_type_symbol
 _atom_site_label
 _atom_site_symmetry_multiplicity
 _atom_site_fract_x
 _atom_site_fract_y
 _atom_site_fract_z
 _atom_site_occupancy
  Nb  Nb0  1  0.27870892  0.42408063  0.70278955  1.0
  Nb  Nb1  1  1.22129108  0.92408063  1.14537170  1.0
  Nb  Nb2  1  0.92408063  0.77870892  1.70278955  1.0
  Nb  Nb3  1  0.57591937  1.27870892  0.85462830  1.0
  Nb  Nb4  1  0.77870892  1.07591937  0.85462830  1.0
  Nb  Nb5  1  0.72129108  0.57591937  1.29721045  1.0
  Nb  Nb6  1  1.42408063  0.72129108  1.14537170  1.0
  Nb  Nb7  1  0.07591937  0.22129108  0.29721045  1.0
  Nb  Nb8  1  0.75000000  1.25000000  0.50000000  1.0
  Nb  Nb9  1  0.25000000  0.75000000  0.50000000  1.0
  Ga  Ga10  1  0.83459372  0.33459372  1.16918745  1.0
  Ga  Ga11  1  0.66540628  0.83459372  0.50000000  1.0
  Ga  Ga12  1  1.33459372  1.16540628  1.50000000  1.0
  Ga  Ga13  1  0.16540628  0.66540628  0.83081255  1.0
  Ga  Ga14  1  0.25000000  0.25000000  -0.00000000  1.0
  Ga  Ga15  1  0.75000000  0.75000000  -0.00000000  1.0
