# generated using pymatgen
data_CuH8C4(N5O3)2
_symmetry_space_group_name_H-M   'P 1'
_cell_length_a   8.83959876
_cell_length_b   6.89770231
_cell_length_c   5.55706223
_cell_angle_alpha   105.58501422
_cell_angle_beta   97.52867482
_cell_angle_gamma   88.82375816
_symmetry_Int_Tables_number   1
_chemical_formula_structural   CuH8C4(N5O3)2
_chemical_formula_sum   'Cu1 H8 C4 N10 O6'
_cell_volume   323.52077224
_cell_formula_units_Z   1
loop_
 _symmetry_equiv_pos_site_id
 _symmetry_equiv_pos_as_xyz
  1  'x, y, z'
loop_
 _atom_site_type_symbol
 _atom_site_label
 _atom_site_symmetry_multiplicity
 _atom_site_fract_x
 _atom_site_fract_y
 _atom_site_fract_z
 _atom_site_occupancy
  Cu  Cu0  1  0.50000000  0.00000000  -0.50000000  1.0
  H  H1  1  0.33981355  0.82477706  -1.01441332  1.0
  H  H2  1  0.66018645  0.17522294  0.01441332  1.0
  H  H3  1  0.20224180  0.80521598  -0.87308792  1.0
  H  H4  1  0.79775820  0.19478402  -0.12691208  1.0
  H  H5  1  0.30540277  0.54707718  -0.71717913  1.0
  H  H6  1  0.69459723  0.45292282  -0.28282087  1.0
  H  H7  1  0.86663789  0.46321350  -0.40563429  1.0
  H  H8  1  0.13336211  0.53678650  -0.59436571  1.0
  C  C9  1  0.80807908  0.75215794  -0.60746663  1.0
  C  C10  1  0.19192091  0.24784206  -0.39253337  1.0
  C  C11  1  0.70799597  0.67397664  -0.46367018  1.0
  C  C12  1  0.29200403  0.32602336  -0.53632982  1.0
  N  N13  1  0.88832173  0.93312844  -0.83729189  1.0
  N  N14  1  0.11167827  0.06687156  -0.16270811  1.0
  N  N15  1  0.99478491  0.80694886  -0.79070779  1.0
  N  N16  1  0.00521509  0.19305114  -0.20929221  1.0
  N  N17  1  0.77068804  0.90027337  -0.72338020  1.0
  N  N18  1  0.22931196  0.09972663  -0.27661980  1.0
  N  N19  1  0.94980042  0.69469654  -0.65099457  1.0
  N  N20  1  0.05019958  0.30530346  -0.34900543  1.0
  N  N21  1  0.75965191  0.52013183  -0.37844987  1.0
  N  N22  1  0.24034809  0.47986817  -0.62155013  1.0
  O  O23  1  0.31286844  0.78020467  -0.87226036  1.0
  O  O24  1  0.68713156  0.21979533  -0.12773964  1.0
  O  O25  1  0.57858781  0.75022585  -0.42561119  1.0
  O  O26  1  0.42141219  0.24977415  -0.57438881  1.0
  O  O27  1  0.35422847  0.99541649  -0.26352463  1.0
  O  O28  1  0.64577153  0.00458351  -0.73647537  1.0
