# generated using pymatgen
data_Sr4PdO6
_symmetry_space_group_name_H-M   'P 1'
_cell_length_a   6.93374220
_cell_length_b   6.93374220
_cell_length_c   6.93374220
_cell_angle_alpha   90.15196133
_cell_angle_beta   90.15196133
_cell_angle_gamma   90.15196133
_symmetry_Int_Tables_number   1
_chemical_formula_structural   Sr4PdO6
_chemical_formula_sum   'Sr8 Pd2 O12'
_cell_volume   333.34848152
_cell_formula_units_Z   2
loop_
 _symmetry_equiv_pos_site_id
 _symmetry_equiv_pos_as_xyz
  1  'x, y, z'
loop_
 _atom_site_type_symbol
 _atom_site_label
 _atom_site_symmetry_multiplicity
 _atom_site_fract_x
 _atom_site_fract_y
 _atom_site_fract_z
 _atom_site_occupancy
  Sr  Sr0  1  0.87988896  1.25000000  -0.37988896  1.0
  Sr  Sr1  1  1.37988896  0.12011104  -0.25000000  1.0
  Sr  Sr2  1  0.75000000  0.37988896  0.12011104  1.0
  Sr  Sr3  1  1.25000000  0.62011104  -0.12011104  1.0
  Sr  Sr4  1  1.12011104  -0.25000000  0.37988896  1.0
  Sr  Sr5  1  0.62011104  0.87988896  0.25000000  1.0
  Sr  Sr6  1  0.25000000  0.25000000  0.25000000  1.0
  Sr  Sr7  1  0.75000000  0.75000000  0.75000000  1.0
  Pd  Pd8  1  0.50000000  0.50000000  0.50000000  1.0
  Pd  Pd9  1  0.00000000  0.00000000  0.00000000  1.0
  O  O10  1  1.21452167  0.42807720  -0.44273039  1.0
  O  O11  1  0.71452167  1.05726961  -0.07192280  1.0
  O  O12  1  0.94273039  0.07192280  0.28547833  1.0
  O  O13  1  1.44273039  -0.21452167  0.57192280  1.0
  O  O14  1  1.57192280  0.44273039  -0.21452167  1.0
  O  O15  1  1.07192280  0.28547833  -0.05726961  1.0
  O  O16  1  0.78547833  0.57192280  0.44273039  1.0
  O  O17  1  1.28547833  -0.05726961  0.07192280  1.0
  O  O18  1  0.55726961  1.21452167  -0.57192280  1.0
  O  O19  1  1.05726961  0.92807720  -0.28547833  1.0
  O  O20  1  0.92807720  0.71452167  0.05726961  1.0
  O  O21  1  0.42807720  0.55726961  0.21452167  1.0
