# generated using pymatgen
data_Y3(CuGe)4
_symmetry_space_group_name_H-M   'P 1'
_cell_length_a   8.01470084
_cell_length_b   8.01470084
_cell_length_c   8.01470084
_cell_angle_alpha   149.58676538
_cell_angle_beta   130.79323161
_cell_angle_gamma   58.95387649
_symmetry_Int_Tables_number   1
_chemical_formula_structural   Y3(CuGe)4
_chemical_formula_sum   'Y3 Cu4 Ge4'
_cell_volume   195.77593198
_cell_formula_units_Z   1
loop_
 _symmetry_equiv_pos_site_id
 _symmetry_equiv_pos_as_xyz
  1  'x, y, z'
loop_
 _atom_site_type_symbol
 _atom_site_label
 _atom_site_symmetry_multiplicity
 _atom_site_fract_x
 _atom_site_fract_y
 _atom_site_fract_z
 _atom_site_occupancy
  Y  Y0  1  0.62989556  0.12989556  0.50000000  1.0
  Y  Y1  1  0.37010444  0.87010444  0.50000000  1.0
  Y  Y2  1  0.00000000  0.00000000  0.00000000  1.0
  Cu  Cu3  1  0.35808831  0.66885265  0.68923566  1.0
  Cu  Cu4  1  1.02038301  0.33114735  0.68923566  1.0
  Cu  Cu5  1  0.97961699  0.66885265  1.31076434  1.0
  Cu  Cu6  1  0.64191169  0.33114735  0.31076434  1.0
  Ge  Ge7  1  0.78286463  0.78286463  1.00000000  1.0
  Ge  Ge8  1  0.21713537  0.21713537  -0.00000000  1.0
  Ge  Ge9  1  0.30841292  0.50000000  0.80841292  1.0
  Ge  Ge10  1  0.69158708  0.50000000  1.19158708  1.0
