# generated using pymatgen
data_Cs2LiAsO4
_symmetry_space_group_name_H-M   'P 1'
_cell_length_a   6.97069991
_cell_length_b   6.97069991
_cell_length_c   8.34029300
_cell_angle_alpha   90.00000000
_cell_angle_beta   90.00000000
_cell_angle_gamma   128.53054016
_symmetry_Int_Tables_number   1
_chemical_formula_structural   Cs2LiAsO4
_chemical_formula_sum   'Cs4 Li2 As2 O8'
_cell_volume   317.02551363
_cell_formula_units_Z   2
loop_
 _symmetry_equiv_pos_site_id
 _symmetry_equiv_pos_as_xyz
  1  'x, y, z'
loop_
 _atom_site_type_symbol
 _atom_site_label
 _atom_site_symmetry_multiplicity
 _atom_site_fract_x
 _atom_site_fract_y
 _atom_site_fract_z
 _atom_site_occupancy
  Cs  Cs0  1  0.10481083  0.89518917  0.05768677  1.0
  Cs  Cs1  1  -0.10481083  0.10481083  0.55768677  1.0
  Cs  Cs2  1  -0.43176727  0.43176727  0.70205447  1.0
  Cs  Cs3  1  0.43176727  0.56823273  0.20205447  1.0
  Li  Li4  1  0.29214156  0.70785844  0.78406172  1.0
  Li  Li5  1  -0.29214156  0.29214156  0.28406172  1.0
  As  As6  1  0.19853567  0.80146433  0.50025283  1.0
  As  As7  1  -0.19853567  0.19853567  0.00025283  1.0
  O  O8  1  0.07426049  0.39591616  0.89437168  1.0
  O  O9  1  0.39591616  1.07426049  0.39437168  1.0
  O  O10  1  0.60408384  0.92573951  0.89437168  1.0
  O  O11  1  -0.07426049  0.60408384  0.39437168  1.0
  O  O12  1  0.13799179  0.86200821  0.68948375  1.0
  O  O13  1  -0.13799179  0.13799179  0.18948375  1.0
  O  O14  1  0.33511650  0.66488350  0.54361708  1.0
  O  O15  1  -0.33511650  0.33511650  0.04361708  1.0
