# generated using pymatgen
data_La11In9Ni4
_symmetry_space_group_name_H-M   'P 1'
_cell_length_a   13.61765574
_cell_length_b   13.61765574
_cell_length_c   3.85448794
_cell_angle_alpha   90.00000000
_cell_angle_beta   90.00000000
_cell_angle_gamma   112.42805541
_symmetry_Int_Tables_number   1
_chemical_formula_structural   La11In9Ni4
_chemical_formula_sum   'La11 In9 Ni4'
_cell_volume   660.71204036
_cell_formula_units_Z   1
loop_
 _symmetry_equiv_pos_site_id
 _symmetry_equiv_pos_as_xyz
  1  'x, y, z'
loop_
 _atom_site_type_symbol
 _atom_site_label
 _atom_site_symmetry_multiplicity
 _atom_site_fract_x
 _atom_site_fract_y
 _atom_site_fract_z
 _atom_site_occupancy
  La  La0  1  -0.07792055  1.58244473  0.00000000  1.0
  La  La1  1  0.58244473  0.92207945  0.00000000  1.0
  La  La2  1  -0.58244473  1.07792055  0.00000000  1.0
  La  La3  1  0.07792055  0.41755527  0.00000000  1.0
  La  La4  1  0.16118399  0.83881601  0.00000000  1.0
  La  La5  1  -0.16118399  1.16118399  0.00000000  1.0
  La  La6  1  0.37455533  0.62544467  0.00000000  1.0
  La  La7  1  -0.37455533  1.37455533  0.00000000  1.0
  La  La8  1  0.68640584  0.68640584  0.00000000  1.0
  La  La9  1  0.31359416  0.31359416  0.00000000  1.0
  La  La10  1  0.00000000  0.00000000  0.00000000  1.0
  In  In11  1  0.16355039  0.63385233  0.50000000  1.0
  In  In12  1  -0.36614767  1.16355039  0.50000000  1.0
  In  In13  1  0.36614767  0.83644961  0.50000000  1.0
  In  In14  1  -0.16355039  1.36614767  0.50000000  1.0
  In  In15  1  -0.08242921  1.77930253  0.50000000  1.0
  In  In16  1  0.77930253  0.91757079  0.50000000  1.0
  In  In17  1  -0.77930253  1.08242921  0.50000000  1.0
  In  In18  1  0.08242921  0.22069747  0.50000000  1.0
  In  In19  1  0.50000000  0.50000000  0.50000000  1.0
  Ni  Ni20  1  -0.24376241  1.55356181  0.50000000  1.0
  Ni  Ni21  1  0.55356181  0.75623759  0.50000000  1.0
  Ni  Ni22  1  -0.55356181  1.24376241  0.50000000  1.0
  Ni  Ni23  1  0.24376241  0.44643819  0.50000000  1.0
