# generated using pymatgen
data_RbLi2Ga2(BO3)3
_symmetry_space_group_name_H-M   'P 1'
_cell_length_a   6.46579552
_cell_length_b   4.99588105
_cell_length_c   12.92448809
_cell_angle_alpha   90.00000000
_cell_angle_beta   92.69912906
_cell_angle_gamma   90.00000000
_symmetry_Int_Tables_number   1
_chemical_formula_structural   RbLi2Ga2(BO3)3
_chemical_formula_sum   'Rb2 Li4 Ga4 B6 O18'
_cell_volume   417.02810828
_cell_formula_units_Z   2
loop_
 _symmetry_equiv_pos_site_id
 _symmetry_equiv_pos_as_xyz
  1  'x, y, z'
loop_
 _atom_site_type_symbol
 _atom_site_label
 _atom_site_symmetry_multiplicity
 _atom_site_fract_x
 _atom_site_fract_y
 _atom_site_fract_z
 _atom_site_occupancy
  Rb  Rb0  1  0.50000000  0.78870609  0.25000000  1.0
  Rb  Rb1  1  0.50000000  0.21129391  0.75000000  1.0
  Li  Li2  1  0.99756352  0.83005933  0.36585197  1.0
  Li  Li3  1  0.99756352  0.16994067  0.86585197  1.0
  Li  Li4  1  0.00243648  0.83005933  0.13414803  1.0
  Li  Li5  1  0.00243648  0.16994067  0.63414803  1.0
  Ga  Ga6  1  0.73429737  0.31553510  0.06357277  1.0
  Ga  Ga7  1  0.73429737  0.68446490  0.56357277  1.0
  Ga  Ga8  1  0.26570263  0.31553510  0.43642723  1.0
  Ga  Ga9  1  0.26570263  0.68446490  0.93642723  1.0
  B  B10  1  0.69164434  0.81834441  0.95895223  1.0
  B  B11  1  0.69164434  0.18165559  0.45895223  1.0
  B  B12  1  0.30835566  0.81834441  0.54104777  1.0
  B  B13  1  0.30835566  0.18165559  0.04104777  1.0
  B  B14  1  0.00000000  0.33672512  0.25000000  1.0
  B  B15  1  0.00000000  0.66327488  0.75000000  1.0
  O  O16  1  0.90201392  0.81967129  0.67116219  1.0
  O  O17  1  0.90201392  0.18032871  0.17116219  1.0
  O  O18  1  0.09798608  0.81967129  0.82883781  1.0
  O  O19  1  0.09798608  0.18032871  0.32883781  1.0
  O  O20  1  0.79831944  0.67002215  0.03465136  1.0
  O  O21  1  0.79831944  0.32997785  0.53465136  1.0
  O  O22  1  0.20168056  0.67002215  0.46534864  1.0
  O  O23  1  0.20168056  0.32997785  0.96534864  1.0
  O  O24  1  0.74470300  0.91203477  0.44841193  1.0
  O  O25  1  0.74470301  0.08796523  0.94841193  1.0
  O  O26  1  0.25529699  0.91203477  0.05158807  1.0
  O  O27  1  0.25529700  0.08796523  0.55158807  1.0
  O  O28  1  0.53828240  0.70739278  0.89507408  1.0
  O  O29  1  0.53828240  0.29260722  0.39507408  1.0
  O  O30  1  0.46171760  0.70739278  0.60492592  1.0
  O  O31  1  0.46171760  0.29260722  0.10492592  1.0
  O  O32  1  0.00000000  0.60463080  0.25000000  1.0
  O  O33  1  0.00000000  0.39536920  0.75000000  1.0
