# generated using pymatgen
data_As2Se3
_symmetry_space_group_name_H-M   'P 1'
_cell_length_a   7.46834458
_cell_length_b   7.46834458
_cell_length_c   9.65999354
_cell_angle_alpha   86.21440923
_cell_angle_beta   93.78559077
_cell_angle_gamma   150.71313409
_symmetry_Int_Tables_number   1
_chemical_formula_structural   As2Se3
_chemical_formula_sum   'As4 Se6'
_cell_volume   262.95590909
_cell_formula_units_Z   2
loop_
 _symmetry_equiv_pos_site_id
 _symmetry_equiv_pos_as_xyz
  1  'x, y, z'
loop_
 _atom_site_type_symbol
 _atom_site_label
 _atom_site_symmetry_multiplicity
 _atom_site_fract_x
 _atom_site_fract_y
 _atom_site_fract_z
 _atom_site_occupancy
  As  As0  1  0.79351164  0.20648836  0.86078276  1.0
  As  As1  1  0.20648836  -0.20648836  0.13921724  1.0
  As  As2  1  0.62777207  0.37222793  0.43876851  1.0
  As  As3  1  0.37222793  -0.37222793  0.56123149  1.0
  Se  Se4  1  0.95119721  0.04880279  0.70361862  1.0
  Se  Se5  1  0.04880279  -0.04880279  0.29638138  1.0
  Se  Se6  1  0.77668092  0.22331908  0.33368170  1.0
  Se  Se7  1  0.22331908  -0.22331908  0.66631830  1.0
  Se  Se8  1  0.63590175  0.36409825  0.97458693  1.0
  Se  Se9  1  0.36409825  -0.36409825  0.02541307  1.0
