# generated using pymatgen
data_RbCdC3(SN)3
_symmetry_space_group_name_H-M   'P 1'
_cell_length_a   5.81651488
_cell_length_b   13.80465622
_cell_length_c   13.92594441
_cell_angle_alpha   90.00000000
_cell_angle_beta   111.85708355
_cell_angle_gamma   90.00000000
_symmetry_Int_Tables_number   1
_chemical_formula_structural   RbCdC3(SN)3
_chemical_formula_sum   'Rb4 Cd4 C12 S12 N12'
_cell_volume   1037.80333820
_cell_formula_units_Z   4
loop_
 _symmetry_equiv_pos_site_id
 _symmetry_equiv_pos_as_xyz
  1  'x, y, z'
loop_
 _atom_site_type_symbol
 _atom_site_label
 _atom_site_symmetry_multiplicity
 _atom_site_fract_x
 _atom_site_fract_y
 _atom_site_fract_z
 _atom_site_occupancy
  Rb  Rb0  1  0.38848291  0.21028051  0.28660743  1.0
  Rb  Rb1  1  0.38848291  0.28971949  0.78660743  1.0
  Rb  Rb2  1  0.61151709  0.71028051  0.21339257  1.0
  Rb  Rb3  1  0.61151709  0.78971949  0.71339257  1.0
  Cd  Cd4  1  0.50000000  0.50000000  -0.00000000  1.0
  Cd  Cd5  1  0.50000000  0.00000000  0.50000000  1.0
  Cd  Cd6  1  0.00000000  0.50000000  0.50000000  1.0
  Cd  Cd7  1  0.00000000  0.00000000  0.00000000  1.0
  C  C8  1  0.98482130  0.12674113  0.49117629  1.0
  C  C9  1  0.98482130  0.37325887  0.99117629  1.0
  C  C10  1  0.01517870  0.62674113  0.00882371  1.0
  C  C11  1  0.01517870  0.87325887  0.50882371  1.0
  C  C12  1  0.84422108  0.44487234  0.24315729  1.0
  C  C13  1  0.84422108  0.05512766  0.74315729  1.0
  C  C14  1  0.15577892  0.94487234  0.25684271  1.0
  C  C15  1  0.15577892  0.55512766  0.75684271  1.0
  C  C16  1  0.56376470  0.09714593  0.08746053  1.0
  C  C17  1  0.56376470  0.40285407  0.58746053  1.0
  C  C18  1  0.43623530  0.59714593  0.41253947  1.0
  C  C19  1  0.43623530  0.90285407  0.91253947  1.0
  S  S20  1  0.96716833  0.37012744  0.34053154  1.0
  S  S21  1  0.96716833  0.12987256  0.84053154  1.0
  S  S22  1  0.03283167  0.87012744  0.15946846  1.0
  S  S23  1  0.03283167  0.62987256  0.65946846  1.0
  S  S24  1  0.80530203  0.14971240  0.07665676  1.0
  S  S25  1  0.80530203  0.35028760  0.57665676  1.0
  S  S26  1  0.19469797  0.64971240  0.42334324  1.0
  S  S27  1  0.19469797  0.85028760  0.92334324  1.0
  S  S28  1  0.73057731  0.83205430  0.46850246  1.0
  S  S29  1  0.73057731  0.66794570  0.96850246  1.0
  S  S30  1  0.26942269  0.33205430  0.03149754  1.0
  S  S31  1  0.26942269  0.16794570  0.53149754  1.0
  N  N32  1  0.77701811  0.09965840  0.46050303  1.0
  N  N33  1  0.77701811  0.40034160  0.96050303  1.0
  N  N34  1  0.22298189  0.59965840  0.03949697  1.0
  N  N35  1  0.22298189  0.90034160  0.53949697  1.0
  N  N36  1  0.75526517  0.49916116  0.17351190  1.0
  N  N37  1  0.75526517  0.00083884  0.67351190  1.0
  N  N38  1  0.24473483  0.99916116  0.32648810  1.0
  N  N39  1  0.24473483  0.50083884  0.82648810  1.0
  N  N40  1  0.61333859  0.93763682  0.90371954  1.0
  N  N41  1  0.61333859  0.56236318  0.40371954  1.0
  N  N42  1  0.38666141  0.43763682  0.59628046  1.0
  N  N43  1  0.38666141  0.06236318  0.09628046  1.0
