# generated using pymatgen
data_Gd5SbPd2
_symmetry_space_group_name_H-M   'P 1'
_cell_length_a   8.76325612
_cell_length_b   8.76325612
_cell_length_c   8.76325612
_cell_angle_alpha   125.90634094
_cell_angle_beta   125.90634094
_cell_angle_gamma   80.04212960
_symmetry_Int_Tables_number   1
_chemical_formula_structural   Gd5SbPd2
_chemical_formula_sum   'Gd10 Sb2 Pd4'
_cell_volume   426.24752663
_cell_formula_units_Z   2
loop_
 _symmetry_equiv_pos_site_id
 _symmetry_equiv_pos_as_xyz
  1  'x, y, z'
loop_
 _atom_site_type_symbol
 _atom_site_label
 _atom_site_symmetry_multiplicity
 _atom_site_fract_x
 _atom_site_fract_y
 _atom_site_fract_z
 _atom_site_occupancy
  Gd  Gd0  1  0.00000000  0.00000000  0.00000000  1.0
  Gd  Gd1  1  0.50000000  0.50000000  1.00000000  1.0
  Gd  Gd2  1  1.20022770  0.70022770  1.18399671  1.0
  Gd  Gd3  1  0.48376901  0.98376901  1.18399671  1.0
  Gd  Gd4  1  1.01623099  1.20022770  1.50000000  1.0
  Gd  Gd5  1  0.29977230  0.48376901  0.50000000  1.0
  Gd  Gd6  1  0.70022770  0.51623099  0.50000000  1.0
  Gd  Gd7  1  0.98376901  0.79977230  1.50000000  1.0
  Gd  Gd8  1  0.51623099  1.01623099  0.81600329  1.0
  Gd  Gd9  1  0.79977230  0.29977230  0.81600329  1.0
  Sb  Sb10  1  0.75000000  0.75000000  1.00000000  1.0
  Sb  Sb11  1  0.25000000  0.25000000  -0.00000000  1.0
  Pd  Pd12  1  0.86639511  0.36639511  1.23279023  1.0
  Pd  Pd13  1  0.63360489  0.86639511  1.50000000  1.0
  Pd  Pd14  1  0.36639511  0.13360489  0.50000000  1.0
  Pd  Pd15  1  0.13360489  0.63360489  0.76720977  1.0
