# generated using pymatgen
data_Ba5(TiN3)2
_symmetry_space_group_name_H-M   'P 1'
_cell_length_a   6.59898873
_cell_length_b   9.90694492
_cell_length_c   9.65838595
_cell_angle_alpha   65.49230201
_cell_angle_beta   68.59977123
_cell_angle_gamma   78.14196422
_symmetry_Int_Tables_number   1
_chemical_formula_structural   Ba5(TiN3)2
_chemical_formula_sum   'Ba10 Ti4 N12'
_cell_volume   533.83215397
_cell_formula_units_Z   2
loop_
 _symmetry_equiv_pos_site_id
 _symmetry_equiv_pos_as_xyz
  1  'x, y, z'
loop_
 _atom_site_type_symbol
 _atom_site_label
 _atom_site_symmetry_multiplicity
 _atom_site_fract_x
 _atom_site_fract_y
 _atom_site_fract_z
 _atom_site_occupancy
  Ba  Ba0  1  0.18641794  -0.95177526  0.77693294  1.0
  Ba  Ba1  1  -0.18641794  -0.04822474  0.22306706  1.0
  Ba  Ba2  1  0.20129262  -0.55338292  0.63403606  1.0
  Ba  Ba3  1  -0.20129262  -0.44661708  0.36596394  1.0
  Ba  Ba4  1  -0.33544247  -0.12625503  0.91041904  1.0
  Ba  Ba5  1  0.33544247  -0.87374497  0.08958096  1.0
  Ba  Ba6  1  -0.74081040  -0.39622392  0.94751376  1.0
  Ba  Ba7  1  0.74081040  -0.60377608  0.05248624  1.0
  Ba  Ba8  1  -0.29011757  -0.86047220  0.48494758  1.0
  Ba  Ba9  1  0.29011757  -0.13952780  0.51505242  1.0
  Ti  Ti10  1  0.20678550  -0.69240186  0.34672067  1.0
  Ti  Ti11  1  -0.20678550  -0.30759814  0.65327933  1.0
  Ti  Ti12  1  -0.27350827  -0.70891263  0.74277057  1.0
  Ti  Ti13  1  0.27350827  -0.29108737  0.25722943  1.0
  N  N14  1  0.42204225  -0.84894752  0.33558276  1.0
  N  N15  1  -0.42204225  -0.15105248  0.66441724  1.0
  N  N16  1  -0.19923143  -0.82494938  0.93378075  1.0
  N  N17  1  0.19923143  -0.17505062  0.06621925  1.0
  N  N18  1  -0.05448963  -0.33209977  0.80012938  1.0
  N  N19  1  0.05448963  -0.66790023  0.19987062  1.0
  N  N20  1  -0.01899075  -0.72780634  0.56341640  1.0
  N  N21  1  0.01899075  -0.27219366  0.43658360  1.0
  N  N22  1  -0.33423539  -0.49796334  0.71890050  1.0
  N  N23  1  0.33423539  -0.50203666  0.28109950  1.0
  N  N24  1  -0.51329691  -0.79292008  0.74416560  1.0
  N  N25  1  0.51329691  -0.20707992  0.25583440  1.0
