# generated using pymatgen
data_Y2SiP4O15
_symmetry_space_group_name_H-M   'P 1'
_cell_length_a   7.08202531
_cell_length_b   16.53986960
_cell_length_c   5.53625921
_cell_angle_alpha   90.00000000
_cell_angle_beta   90.00000000
_cell_angle_gamma   90.00000000
_symmetry_Int_Tables_number   1
_chemical_formula_structural   Y2SiP4O15
_chemical_formula_sum   'Y4 Si2 P8 O30'
_cell_volume   648.49401402
_cell_formula_units_Z   2
loop_
 _symmetry_equiv_pos_site_id
 _symmetry_equiv_pos_as_xyz
  1  'x, y, z'
loop_
 _atom_site_type_symbol
 _atom_site_label
 _atom_site_symmetry_multiplicity
 _atom_site_fract_x
 _atom_site_fract_y
 _atom_site_fract_z
 _atom_site_occupancy
  Y  Y0  1  0.40543573  0.78353378  0.86686122  1.0
  Y  Y1  1  0.59456427  0.21646622  0.86686122  1.0
  Y  Y2  1  0.09456427  0.28353378  0.13313878  1.0
  Y  Y3  1  0.90543573  0.71646622  0.13313878  1.0
  Si  Si4  1  0.50000000  0.50000000  0.46471988  1.0
  Si  Si5  1  0.00000000  0.00000000  0.53528012  1.0
  P  P6  1  0.91153739  0.83046996  0.68862398  1.0
  P  P7  1  0.08846261  0.16953004  0.68862398  1.0
  P  P8  1  0.58846261  0.33046996  0.31137602  1.0
  P  P9  1  0.41153739  0.66953004  0.31137602  1.0
  P  P10  1  0.13543896  0.42674303  0.64656954  1.0
  P  P11  1  0.86456104  0.57325697  0.64656954  1.0
  P  P12  1  0.36456104  0.92674303  0.35343046  1.0
  P  P13  1  0.63543896  0.07325697  0.35343046  1.0
  O  O14  1  0.33615332  0.46979045  0.65220756  1.0
  O  O15  1  0.66384668  0.53020955  0.65220756  1.0
  O  O16  1  0.16384668  0.96979045  0.34779244  1.0
  O  O17  1  0.83615332  0.03020955  0.34779244  1.0
  O  O18  1  0.07267116  0.07252026  0.71450664  1.0
  O  O19  1  0.92732884  0.92747974  0.71450664  1.0
  O  O20  1  0.42732884  0.57252026  0.28549336  1.0
  O  O21  1  0.57267116  0.42747974  0.28549336  1.0
  O  O22  1  0.07666220  0.79284438  0.83620253  1.0
  O  O23  1  0.92333780  0.20715562  0.83620253  1.0
  O  O24  1  0.42333780  0.29284438  0.16379747  1.0
  O  O25  1  0.57666220  0.70715562  0.16379747  1.0
  O  O26  1  0.91266746  0.81173531  0.41975224  1.0
  O  O27  1  0.08733254  0.18826469  0.41975224  1.0
  O  O28  1  0.58733254  0.31173531  0.58024776  1.0
  O  O29  1  0.41266746  0.68826469  0.58024776  1.0
  O  O30  1  0.73470992  0.80206472  0.82934882  1.0
  O  O31  1  0.26529008  0.19793528  0.82934882  1.0
  O  O32  1  0.76529008  0.30206472  0.17065118  1.0
  O  O33  1  0.23470992  0.69793528  0.17065118  1.0
  O  O34  1  0.12388699  0.36816429  0.43936589  1.0
  O  O35  1  0.87611301  0.63183571  0.43936589  1.0
  O  O36  1  0.37611301  0.86816429  0.56063411  1.0
  O  O37  1  0.62388699  0.13183571  0.56063411  1.0
  O  O38  1  0.09355047  0.39430208  0.89476763  1.0
  O  O39  1  0.90644953  0.60569792  0.89476763  1.0
  O  O40  1  0.40644953  0.89430208  0.10523237  1.0
  O  O41  1  0.59355047  0.10569792  0.10523237  1.0
  O  O42  1  0.00000000  0.50000000  0.57411237  1.0
  O  O43  1  0.50000000  0.00000000  0.42588763  1.0
