# generated using pymatgen
data_RbH2CN5
_symmetry_space_group_name_H-M   'P 1'
_cell_length_a   8.16292559
_cell_length_b   6.51727321
_cell_length_c   9.55283821
_cell_angle_alpha   90.00000000
_cell_angle_beta   90.00000000
_cell_angle_gamma   90.00000000
_symmetry_Int_Tables_number   1
_chemical_formula_structural   RbH2CN5
_chemical_formula_sum   'Rb4 H8 C4 N20'
_cell_volume   508.21114800
_cell_formula_units_Z   4
loop_
 _symmetry_equiv_pos_site_id
 _symmetry_equiv_pos_as_xyz
  1  'x, y, z'
loop_
 _atom_site_type_symbol
 _atom_site_label
 _atom_site_symmetry_multiplicity
 _atom_site_fract_x
 _atom_site_fract_y
 _atom_site_fract_z
 _atom_site_occupancy
  Rb  Rb0  1  0.98261375  0.75000000  0.72629971  1.0
  Rb  Rb1  1  0.48261375  0.75000000  0.77370029  1.0
  Rb  Rb2  1  0.01738625  0.25000000  0.27370029  1.0
  Rb  Rb3  1  0.51738625  0.25000000  0.22629971  1.0
  H  H4  1  0.75926179  0.88340824  0.41910681  1.0
  H  H5  1  0.75926179  0.61659176  0.41910681  1.0
  H  H6  1  0.25926179  0.88340824  0.08089319  1.0
  H  H7  1  0.25926179  0.61659176  0.08089319  1.0
  H  H8  1  0.24073821  0.38340824  0.58089319  1.0
  H  H9  1  0.24073821  0.11659176  0.58089319  1.0
  H  H10  1  0.74073821  0.38340824  0.91910681  1.0
  H  H11  1  0.74073821  0.11659176  0.91910681  1.0
  C  C12  1  0.78594553  0.75000000  0.22933703  1.0
  C  C13  1  0.28594553  0.75000000  0.27066297  1.0
  C  C14  1  0.21405447  0.25000000  0.77066297  1.0
  C  C15  1  0.71405447  0.25000000  0.72933703  1.0
  N  N16  1  0.79738672  0.75000000  0.37230517  1.0
  N  N17  1  0.29738672  0.75000000  0.12769483  1.0
  N  N18  1  0.20261328  0.25000000  0.62769483  1.0
  N  N19  1  0.70261328  0.25000000  0.87230517  1.0
  N  N20  1  0.77814925  0.85051944  0.01661979  1.0
  N  N21  1  0.77814925  0.64948056  0.01661979  1.0
  N  N22  1  0.27814925  0.85051944  0.48338021  1.0
  N  N23  1  0.27814925  0.64948056  0.48338021  1.0
  N  N24  1  0.22185075  0.35051944  0.98338021  1.0
  N  N25  1  0.22185075  0.14948056  0.98338021  1.0
  N  N26  1  0.72185075  0.35051944  0.51661979  1.0
  N  N27  1  0.72185075  0.14948056  0.51661979  1.0
  N  N28  1  0.78307256  0.92143662  0.14983705  1.0
  N  N29  1  0.78307256  0.57856338  0.14983705  1.0
  N  N30  1  0.28307256  0.92143662  0.35016295  1.0
  N  N31  1  0.28307256  0.57856338  0.35016295  1.0
  N  N32  1  0.21692744  0.42143662  0.85016295  1.0
  N  N33  1  0.21692744  0.07856338  0.85016295  1.0
  N  N34  1  0.71692744  0.42143662  0.64983705  1.0
  N  N35  1  0.71692744  0.07856338  0.64983705  1.0
