# generated using pymatgen
data_K3Mo2Br9
_symmetry_space_group_name_H-M   'P 1'
_cell_length_a   7.80040923
_cell_length_b   7.80040923
_cell_length_c   17.29274121
_cell_angle_alpha   90.00000000
_cell_angle_beta   90.00000000
_cell_angle_gamma   120.00000000
_symmetry_Int_Tables_number   1
_chemical_formula_structural   K3Mo2Br9
_chemical_formula_sum   'K6 Mo4 Br18'
_cell_volume   911.23260181
_cell_formula_units_Z   2
loop_
 _symmetry_equiv_pos_site_id
 _symmetry_equiv_pos_as_xyz
  1  'x, y, z'
loop_
 _atom_site_type_symbol
 _atom_site_label
 _atom_site_symmetry_multiplicity
 _atom_site_fract_x
 _atom_site_fract_y
 _atom_site_fract_z
 _atom_site_occupancy
  K  K0  1  0.33333333  0.66666667  0.93890797  1.0
  K  K1  1  0.33333333  0.66666667  0.56109203  1.0
  K  K2  1  0.66666667  0.33333333  0.43890797  1.0
  K  K3  1  0.66666667  0.33333333  0.06109203  1.0
  K  K4  1  0.00000000  0.00000000  0.25000000  1.0
  K  K5  1  0.00000000  0.00000000  0.75000000  1.0
  Mo  Mo6  1  0.33333333  0.66666667  0.31777129  1.0
  Mo  Mo7  1  0.33333333  0.66666667  0.18222871  1.0
  Mo  Mo8  1  0.66666667  0.33333333  0.81777129  1.0
  Mo  Mo9  1  0.66666667  0.33333333  0.68222871  1.0
  Br  Br10  1  0.11495743  0.75662452  0.40298453  1.0
  Br  Br11  1  0.11495743  0.75662452  0.09701547  1.0
  Br  Br12  1  0.75662452  0.64166709  0.90298453  1.0
  Br  Br13  1  0.75662452  0.64166709  0.59701547  1.0
  Br  Br14  1  0.64166709  0.88504257  0.40298453  1.0
  Br  Br15  1  0.64166709  0.88504257  0.09701547  1.0
  Br  Br16  1  0.24337548  0.35833291  0.40298453  1.0
  Br  Br17  1  0.24337548  0.35833291  0.09701547  1.0
  Br  Br18  1  0.88504257  0.24337548  0.90298453  1.0
  Br  Br19  1  0.88504257  0.24337548  0.59701547  1.0
  Br  Br20  1  0.35833291  0.11495743  0.90298453  1.0
  Br  Br21  1  0.35833291  0.11495743  0.59701547  1.0
  Br  Br22  1  0.57548436  0.56546980  0.25000000  1.0
  Br  Br23  1  0.56546980  0.98998544  0.75000000  1.0
  Br  Br24  1  0.98998544  0.42451564  0.25000000  1.0
  Br  Br25  1  0.43453020  0.01001456  0.25000000  1.0
  Br  Br26  1  0.42451564  0.43453020  0.75000000  1.0
  Br  Br27  1  0.01001456  0.57548436  0.75000000  1.0
