# generated using pymatgen
data_BaLa4CoCu4O13
_symmetry_space_group_name_H-M   'P 1'
_cell_length_a   8.64245599
_cell_length_b   8.64245599
_cell_length_c   3.91733339
_cell_angle_alpha   90.00000000
_cell_angle_beta   90.00000000
_cell_angle_gamma   90.00000000
_symmetry_Int_Tables_number   1
_chemical_formula_structural   BaLa4CoCu4O13
_chemical_formula_sum   'Ba1 La4 Co1 Cu4 O13'
_cell_volume   292.59364374
_cell_formula_units_Z   1
loop_
 _symmetry_equiv_pos_site_id
 _symmetry_equiv_pos_as_xyz
  1  'x, y, z'
loop_
 _atom_site_type_symbol
 _atom_site_label
 _atom_site_symmetry_multiplicity
 _atom_site_fract_x
 _atom_site_fract_y
 _atom_site_fract_z
 _atom_site_occupancy
  Ba  Ba0  1  0.50000000  0.50000000  0.50000000  1.0
  La  La1  1  0.71456489  0.87574601  0.50000000  1.0
  La  La2  1  0.87574601  0.28543511  0.50000000  1.0
  La  La3  1  0.28543511  0.12425399  0.50000000  1.0
  La  La4  1  0.12425399  0.71456489  0.50000000  1.0
  Co  Co5  1  0.00000000  0.00000000  0.00000000  1.0
  Cu  Cu6  1  0.83050824  0.59099055  0.00000000  1.0
  Cu  Cu7  1  0.59099055  0.16949176  -0.00000000  1.0
  Cu  Cu8  1  0.16949176  0.40900945  -0.00000000  1.0
  Cu  Cu9  1  0.40900945  0.83050824  -0.00000000  1.0
  O  O10  1  0.84296444  0.59033478  0.50000000  1.0
  O  O11  1  0.59033478  0.15703556  0.50000000  1.0
  O  O12  1  0.15703556  0.40966522  0.50000000  1.0
  O  O13  1  0.40966522  0.84296444  0.50000000  1.0
  O  O14  1  0.94848731  0.78012657  0.00000000  1.0
  O  O15  1  0.78012657  0.05151269  -0.00000000  1.0
  O  O16  1  0.05151269  0.21987343  0.00000000  1.0
  O  O17  1  0.21987343  0.94848731  -0.00000000  1.0
  O  O18  1  0.60633546  0.73475260  0.00000000  1.0
  O  O19  1  0.73475260  0.39366454  -0.00000000  1.0
  O  O20  1  0.39366454  0.26524740  0.00000000  1.0
  O  O21  1  0.26524740  0.60633546  -0.00000000  1.0
  O  O22  1  0.00000000  0.00000000  0.50000000  1.0
