# generated using pymatgen
data_AgCN3O2
_symmetry_space_group_name_H-M   'P 1'
_cell_length_a   5.76555347
_cell_length_b   12.11320083
_cell_length_c   6.23240777
_cell_angle_alpha   90.00000000
_cell_angle_beta   90.00000000
_cell_angle_gamma   90.00000000
_symmetry_Int_Tables_number   1
_chemical_formula_structural   AgCN3O2
_chemical_formula_sum   'Ag4 C4 N12 O8'
_cell_volume   435.26704020
_cell_formula_units_Z   4
loop_
 _symmetry_equiv_pos_site_id
 _symmetry_equiv_pos_as_xyz
  1  'x, y, z'
loop_
 _atom_site_type_symbol
 _atom_site_label
 _atom_site_symmetry_multiplicity
 _atom_site_fract_x
 _atom_site_fract_y
 _atom_site_fract_z
 _atom_site_occupancy
  Ag  Ag0  1  1.03159964  0.25765255  0.25000000  1.0
  Ag  Ag1  1  1.03159964  0.24234745  0.75000000  1.0
  Ag  Ag2  1  -0.03159964  0.75765255  0.25000000  1.0
  Ag  Ag3  1  -0.03159964  0.74234745  0.75000000  1.0
  C  C4  1  0.82818913  0.00829373  0.25000000  1.0
  C  C5  1  0.82818913  0.49170627  0.75000000  1.0
  C  C6  1  0.17181087  0.50829373  0.25000000  1.0
  C  C7  1  0.17181087  0.99170627  0.75000000  1.0
  N  N8  1  0.90314408  0.09794220  0.25000000  1.0
  N  N9  1  0.90314408  0.40205780  0.75000000  1.0
  N  N10  1  0.09685592  0.59794220  0.25000000  1.0
  N  N11  1  0.09685592  0.90205780  0.75000000  1.0
  N  N12  1  0.76196730  0.90463577  0.25000000  1.0
  N  N13  1  0.76196730  0.59536423  0.75000000  1.0
  N  N14  1  0.23803270  0.40463577  0.25000000  1.0
  N  N15  1  0.23803270  0.09536423  0.75000000  1.0
  N  N16  1  0.47948366  0.39092873  0.25000000  1.0
  N  N17  1  0.47948366  0.10907127  0.75000000  1.0
  N  N18  1  0.52051634  0.89092873  0.25000000  1.0
  N  N19  1  0.52051634  0.60907127  0.75000000  1.0
  O  O20  1  0.60484161  0.47338984  0.25000000  1.0
  O  O21  1  0.60484161  0.02661016  0.75000000  1.0
  O  O22  1  0.39515839  0.97338984  0.25000000  1.0
  O  O23  1  0.39515839  0.52661016  0.75000000  1.0
  O  O24  1  0.54646911  0.29410325  0.25000000  1.0
  O  O25  1  0.54646911  0.20589675  0.75000000  1.0
  O  O26  1  0.45353089  0.79410325  0.25000000  1.0
  O  O27  1  0.45353089  0.70589675  0.75000000  1.0
