# generated using pymatgen
data_Cd2As3Br
_symmetry_space_group_name_H-M   'P 1'
_cell_length_a   6.40227371
_cell_length_b   6.40227371
_cell_length_c   8.17463029
_cell_angle_alpha   82.74448299
_cell_angle_beta   97.25551701
_cell_angle_gamma   82.38832526
_symmetry_Int_Tables_number   1
_chemical_formula_structural   Cd2As3Br
_chemical_formula_sum   'Cd4 As6 Br2'
_cell_volume   325.95496289
_cell_formula_units_Z   2
loop_
 _symmetry_equiv_pos_site_id
 _symmetry_equiv_pos_as_xyz
  1  'x, y, z'
loop_
 _atom_site_type_symbol
 _atom_site_label
 _atom_site_symmetry_multiplicity
 _atom_site_fract_x
 _atom_site_fract_y
 _atom_site_fract_z
 _atom_site_occupancy
  Cd  Cd0  1  0.83867878  -0.13977917  0.50091730  1.0
  Cd  Cd1  1  1.13977917  0.16132122  0.00091730  1.0
  Cd  Cd2  1  1.36422064  0.33466161  0.41939729  1.0
  Cd  Cd3  1  0.66533839  -0.36422064  0.91939729  1.0
  As  As4  1  1.83192937  0.07405810  0.18132336  1.0
  As  As5  1  0.92594190  -0.83192937  0.68132336  1.0
  As  As6  1  1.54257194  0.03856000  0.96017589  1.0
  As  As7  1  0.96144000  -0.54257194  0.46017589  1.0
  As  As8  1  1.57802818  0.32792425  0.73901565  1.0
  As  As9  1  0.67207575  -0.57802818  0.23901565  1.0
  Br  Br10  1  0.39001235  -0.11398352  0.46017050  1.0
  Br  Br11  1  1.11398352  0.60998765  0.96017050  1.0
