# generated using pymatgen
data_Tb(FeP3)4
_symmetry_space_group_name_H-M   'P 1'
_cell_length_a   6.74265217
_cell_length_b   6.74265217
_cell_length_c   6.74265217
_cell_angle_alpha   109.47122063
_cell_angle_beta   109.47122063
_cell_angle_gamma   109.47122063
_symmetry_Int_Tables_number   1
_chemical_formula_structural   Tb(FeP3)4
_chemical_formula_sum   'Tb1 Fe4 P12'
_cell_volume   235.97738175
_cell_formula_units_Z   1
loop_
 _symmetry_equiv_pos_site_id
 _symmetry_equiv_pos_as_xyz
  1  'x, y, z'
loop_
 _atom_site_type_symbol
 _atom_site_label
 _atom_site_symmetry_multiplicity
 _atom_site_fract_x
 _atom_site_fract_y
 _atom_site_fract_z
 _atom_site_occupancy
  Tb  Tb0  1  0.00000000  0.00000000  0.00000000  1.0
  Fe  Fe1  1  0.50000000  1.00000000  1.00000000  1.0
  Fe  Fe2  1  0.50000000  0.50000000  0.50000000  1.0
  Fe  Fe3  1  1.00000000  1.00000000  0.50000000  1.0
  Fe  Fe4  1  1.00000000  0.50000000  1.00000000  1.0
  P  P5  1  0.84949440  1.35115725  1.20065164  1.0
  P  P6  1  0.84949440  0.64884275  0.49833715  1.0
  P  P7  1  0.15050560  0.35115725  0.50166285  1.0
  P  P8  1  0.15050560  0.64884275  0.79934836  1.0
  P  P9  1  0.49833715  0.84949440  0.64884275  1.0
  P  P10  1  1.20065164  0.84949440  1.35115725  1.0
  P  P11  1  0.64884275  0.79934836  0.15050560  1.0
  P  P12  1  0.64884275  0.49833715  0.84949440  1.0
  P  P13  1  0.79934836  0.15050560  0.64884275  1.0
  P  P14  1  0.50166285  0.15050560  0.35115725  1.0
  P  P15  1  0.35115725  0.50166285  0.15050560  1.0
  P  P16  1  1.35115725  1.20065164  0.84949440  1.0
