# generated using pymatgen
data_GeO2
_symmetry_space_group_name_H-M   'P 1'
_cell_length_a   5.08665355
_cell_length_b   5.08665355
_cell_length_c   5.76536672
_cell_angle_alpha   90.00000000
_cell_angle_beta   90.00000000
_cell_angle_gamma   120.00000000
_symmetry_Int_Tables_number   1
_chemical_formula_structural   GeO2
_chemical_formula_sum   'Ge3 O6'
_cell_volume   129.18791446
_cell_formula_units_Z   3
loop_
 _symmetry_equiv_pos_site_id
 _symmetry_equiv_pos_as_xyz
  1  'x, y, z'
loop_
 _atom_site_type_symbol
 _atom_site_label
 _atom_site_symmetry_multiplicity
 _atom_site_fract_x
 _atom_site_fract_y
 _atom_site_fract_z
 _atom_site_occupancy
  Ge  Ge0  1  0.45525841  0.45525841  -0.00000000  1.0
  Ge  Ge1  1  -0.00000000  0.54474159  0.66666667  1.0
  Ge  Ge2  1  0.54474159  0.00000000  0.33333333  1.0
  O  O3  1  0.70148369  0.60264963  0.75815705  1.0
  O  O4  1  0.60264963  0.70148369  0.24184295  1.0
  O  O5  1  0.90116594  0.29851631  0.42482372  1.0
  O  O6  1  0.39735037  0.09883406  0.09149038  1.0
  O  O7  1  0.29851631  0.90116594  0.57517628  1.0
  O  O8  1  0.09883406  0.39735037  0.90850962  1.0
