# generated using pymatgen
data_Rh2O3
_symmetry_space_group_name_H-M   'P 1'
_cell_length_a   5.54879261
_cell_length_b   5.54879261
_cell_length_c   5.54879261
_cell_angle_alpha   55.63878529
_cell_angle_beta   55.63878529
_cell_angle_gamma   55.63878528
_symmetry_Int_Tables_number   1
_chemical_formula_structural   Rh2O3
_chemical_formula_sum   'Rh4 O6'
_cell_volume   108.57858484
_cell_formula_units_Z   2
loop_
 _symmetry_equiv_pos_site_id
 _symmetry_equiv_pos_as_xyz
  1  'x, y, z'
loop_
 _atom_site_type_symbol
 _atom_site_label
 _atom_site_symmetry_multiplicity
 _atom_site_fract_x
 _atom_site_fract_y
 _atom_site_fract_z
 _atom_site_occupancy
  Rh  Rh0  1  0.65071272  0.65071272  -0.34928728  1.0
  Rh  Rh1  1  0.34928728  0.34928728  0.34928728  1.0
  Rh  Rh2  1  1.15071272  0.15071272  0.15071272  1.0
  Rh  Rh3  1  0.84928728  -0.15071272  -0.15071272  1.0
  O  O4  1  1.04975014  0.45024986  -0.25000000  1.0
  O  O5  1  1.45024986  -0.25000000  0.04975014  1.0
  O  O6  1  0.75000000  0.04975014  0.45024986  1.0
  O  O7  1  0.95024986  -0.45024986  0.25000000  1.0
  O  O8  1  0.54975014  0.25000000  -0.04975014  1.0
  O  O9  1  0.25000000  0.95024986  -0.45024986  1.0
