# generated using pymatgen
data_VPO5
_symmetry_space_group_name_H-M   'P 1'
_cell_length_a   7.44940687
_cell_length_b   7.14463853
_cell_length_c   8.03316960
_cell_angle_alpha   90.00000000
_cell_angle_beta   123.87443214
_cell_angle_gamma   90.00000000
_symmetry_Int_Tables_number   1
_chemical_formula_structural   VPO5
_chemical_formula_sum   'V4 P4 O20'
_cell_volume   354.97975008
_cell_formula_units_Z   4
loop_
 _symmetry_equiv_pos_site_id
 _symmetry_equiv_pos_as_xyz
  1  'x, y, z'
loop_
 _atom_site_type_symbol
 _atom_site_label
 _atom_site_symmetry_multiplicity
 _atom_site_fract_x
 _atom_site_fract_y
 _atom_site_fract_z
 _atom_site_occupancy
  V  V0  1  0.75021518  0.77095252  0.29563820  1.0
  V  V1  1  0.75021518  0.72904748  0.79563820  1.0
  V  V2  1  0.24978482  0.27095252  0.20436180  1.0
  V  V3  1  0.24978482  0.22904748  0.70436180  1.0
  P  P4  1  0.75170184  0.38752368  0.50604354  1.0
  P  P5  1  0.75170184  0.11247632  1.00604354  1.0
  P  P6  1  0.24829816  0.88752368  -0.00604354  1.0
  P  P7  1  0.24829816  0.61247632  0.49395646  1.0
  O  O8  1  0.95036441  0.24191794  0.09992718  1.0
  O  O9  1  0.95036441  0.25808206  0.59992718  1.0
  O  O10  1  0.04963559  0.74191794  0.40007282  1.0
  O  O11  1  0.04963559  0.75808206  0.90007282  1.0
  O  O12  1  0.75387434  0.85457064  0.47942575  1.0
  O  O13  1  0.75387434  0.64542936  0.97942575  1.0
  O  O14  1  0.24612566  0.35457064  0.02057425  1.0
  O  O15  1  0.24612566  0.14542936  0.52057425  1.0
  O  O16  1  0.74238246  0.51513429  0.34310320  1.0
  O  O17  1  0.74238246  -0.01513429  0.84310320  1.0
  O  O18  1  0.25761754  1.01513429  0.15689680  1.0
  O  O19  1  0.25761754  0.48486571  0.65689680  1.0
  O  O20  1  0.75951708  0.99399477  0.17106858  1.0
  O  O21  1  0.75951708  0.50600523  0.67106858  1.0
  O  O22  1  0.24048292  0.49399477  0.32893142  1.0
  O  O23  1  0.24048292  0.00600523  0.82893142  1.0
  O  O24  1  0.54963667  0.25908988  0.40498981  1.0
  O  O25  1  0.54963667  0.24091012  0.90498981  1.0
  O  O26  1  0.45036333  0.75908988  0.09501019  1.0
  O  O27  1  0.45036333  0.74091012  0.59501019  1.0
