# generated using pymatgen
data_CaCoBP2H5O11
_symmetry_space_group_name_H-M   'P 1'
_cell_length_a   6.63842446
_cell_length_b   8.91145797
_cell_length_c   7.91392977
_cell_angle_alpha   69.53700025
_cell_angle_beta   74.33485969
_cell_angle_gamma   84.20579927
_symmetry_Int_Tables_number   1
_chemical_formula_structural   CaCoBP2H5O11
_chemical_formula_sum   'Ca2 Co2 B2 P4 H10 O22'
_cell_volume   422.32647980
_cell_formula_units_Z   2
loop_
 _symmetry_equiv_pos_site_id
 _symmetry_equiv_pos_as_xyz
  1  'x, y, z'
loop_
 _atom_site_type_symbol
 _atom_site_label
 _atom_site_symmetry_multiplicity
 _atom_site_fract_x
 _atom_site_fract_y
 _atom_site_fract_z
 _atom_site_occupancy
  H  H0  1  -0.77246386  -0.61275670  -0.36239645  1.0
  H  H1  1  -0.22753614  -0.38724330  -0.63760355  1.0
  H  H2  1  -0.76894829  -0.32055501  -0.55588693  1.0
  H  H3  1  -0.23105171  -0.67944499  -0.44411307  1.0
  H  H4  1  -0.66061870  -0.88971357  -0.36259292  1.0
  H  H5  1  -0.33938130  -0.11028643  -0.63740708  1.0
  H  H6  1  -0.57762935  -0.61302686  -0.27339457  1.0
  H  H7  1  -0.42237065  -0.38697314  -0.72660543  1.0
  H  H8  1  -0.41116397  -0.87882748  -0.42410966  1.0
  H  H9  1  -0.58883603  -0.12117252  -0.57589034  1.0
  P  P10  1  -0.94008451  -0.93415439  -0.78749438  1.0
  P  P11  1  -0.05991549  -0.06584561  -0.21250562  1.0
  P  P12  1  -0.70464189  -0.54895281  -0.76399926  1.0
  P  P13  1  -0.29535811  -0.45104719  -0.23600074  1.0
  B  B14  1  -0.96091511  -0.79083721  -0.51779017  1.0
  B  B15  1  -0.03908489  -0.20916279  -0.48220983  1.0
  Co  Co16  1  -0.17291728  -0.59695119  -0.82504311  1.0
  Co  Co17  1  -0.82708272  -0.40304881  -0.17495689  1.0
  Ca  Ca18  1  -0.41620633  -0.84202014  -0.94859378  1.0
  Ca  Ca19  1  -0.58379367  -0.15797986  -0.05140622  1.0
  O  O20  1  -0.95369522  -0.89554958  -0.32660005  1.0
  O  O21  1  -0.04630478  -0.10445042  -0.67339995  1.0
  O  O22  1  -0.86391888  -0.87553328  -0.64925645  1.0
  O  O23  1  -0.13608112  -0.12446672  -0.35074355  1.0
  O  O24  1  -0.82791533  -0.65101423  -0.55558884  1.0
  O  O25  1  -0.17208467  -0.34898577  -0.44441116  1.0
  O  O26  1  -0.82689215  -0.26246028  -0.46625594  1.0
  O  O27  1  -0.17310785  -0.73753972  -0.53374406  1.0
  O  O28  1  -0.72975997  -0.59004338  -0.26366351  1.0
  O  O29  1  -0.27024003  -0.40995662  -0.73633649  1.0
  O  O30  1  -0.74266640  -0.95307648  -0.93179824  1.0
  O  O31  1  -0.25733360  -0.04692352  -0.06820176  1.0
  O  O32  1  -0.66130356  -0.38298446  -0.75863886  1.0
  O  O33  1  -0.33869644  -0.61701554  -0.24136114  1.0
  O  O34  1  -0.53196543  -0.93118397  -0.32424538  1.0
  O  O35  1  -0.46803457  -0.06881603  -0.67575462  1.0
  O  O36  1  -0.49898628  -0.63960455  -0.81572745  1.0
  O  O37  1  -0.50101372  -0.36039545  -0.18427255  1.0
  O  O38  1  -0.10818176  -0.81913022  -0.86578623  1.0
  O  O39  1  -0.89181824  -0.18086978  -0.13421377  1.0
  O  O40  1  -0.85277973  -0.53512919  -0.89175160  1.0
  O  O41  1  -0.14722027  -0.46487081  -0.10824840  1.0
