# generated using pymatgen
data_Li6ZnO4
_symmetry_space_group_name_H-M   'P 1'
_cell_length_a   6.56321362
_cell_length_b   6.56321362
_cell_length_c   4.67303297
_cell_angle_alpha   90.00000000
_cell_angle_beta   90.00000000
_cell_angle_gamma   90.00000000
_symmetry_Int_Tables_number   1
_chemical_formula_structural   Li6ZnO4
_chemical_formula_sum   'Li12 Zn2 O8'
_cell_volume   201.29450766
_cell_formula_units_Z   2
loop_
 _symmetry_equiv_pos_site_id
 _symmetry_equiv_pos_as_xyz
  1  'x, y, z'
loop_
 _atom_site_type_symbol
 _atom_site_label
 _atom_site_symmetry_multiplicity
 _atom_site_fract_x
 _atom_site_fract_y
 _atom_site_fract_z
 _atom_site_occupancy
  Li  Li0  1  0.28253080  0.71746920  0.50000000  1.0
  Li  Li1  1  0.71746920  0.71746920  0.50000000  1.0
  Li  Li2  1  0.28253080  0.28253080  0.50000000  1.0
  Li  Li3  1  0.71746920  0.28253080  0.50000000  1.0
  Li  Li4  1  0.21746920  0.78253080  0.00000000  1.0
  Li  Li5  1  0.78253080  0.78253080  0.00000000  1.0
  Li  Li6  1  0.21746920  0.21746920  0.00000000  1.0
  Li  Li7  1  0.78253080  0.21746920  0.00000000  1.0
  Li  Li8  1  0.00000000  0.50000000  0.04358128  1.0
  Li  Li9  1  0.00000000  0.50000000  0.54358128  1.0
  Li  Li10  1  0.50000000  0.00000000  0.45641872  1.0
  Li  Li11  1  0.50000000  0.00000000  0.95641872  1.0
  Zn  Zn12  1  0.00000000  0.00000000  0.50000000  1.0
  Zn  Zn13  1  0.50000000  0.50000000  0.00000000  1.0
  O  O14  1  0.23605801  0.50000000  0.78199058  1.0
  O  O15  1  0.76394199  0.50000000  0.78199058  1.0
  O  O16  1  0.00000000  0.73605801  0.28199058  1.0
  O  O17  1  0.00000000  0.26394199  0.28199058  1.0
  O  O18  1  0.26394199  0.00000000  0.71800942  1.0
  O  O19  1  0.73605801  0.00000000  0.71800942  1.0
  O  O20  1  0.50000000  0.76394199  0.21800942  1.0
  O  O21  1  0.50000000  0.23605801  0.21800942  1.0
