# generated using pymatgen
data_CuBiSCl2
_symmetry_space_group_name_H-M   'P 1'
_cell_length_a   6.86078013
_cell_length_b   6.86078013
_cell_length_c   8.45637629
_cell_angle_alpha   90.00000000
_cell_angle_beta   90.00000000
_cell_angle_gamma   145.40553478
_symmetry_Int_Tables_number   1
_chemical_formula_structural   CuBiSCl2
_chemical_formula_sum   'Cu2 Bi2 S2 Cl4'
_cell_volume   225.99525920
_cell_formula_units_Z   2
loop_
 _symmetry_equiv_pos_site_id
 _symmetry_equiv_pos_as_xyz
  1  'x, y, z'
loop_
 _atom_site_type_symbol
 _atom_site_label
 _atom_site_symmetry_multiplicity
 _atom_site_fract_x
 _atom_site_fract_y
 _atom_site_fract_z
 _atom_site_occupancy
  Cu  Cu0  1  0.00000000  0.00000000  0.00000000  1.0
  Cu  Cu1  1  0.00000000  0.00000000  0.50000000  1.0
  Bi  Bi2  1  -0.29711812  0.29711812  0.75000000  1.0
  Bi  Bi3  1  0.29711812  0.70288188  0.25000000  1.0
  S  S4  1  0.06459195  0.93540805  0.75000000  1.0
  S  S5  1  -0.06459195  0.06459195  0.25000000  1.0
  Cl  Cl6  1  0.35057425  0.64942575  0.93588353  1.0
  Cl  Cl7  1  0.35057425  0.64942575  0.56411647  1.0
  Cl  Cl8  1  -0.35057425  0.35057425  0.43588353  1.0
  Cl  Cl9  1  -0.35057425  0.35057425  0.06411647  1.0
