# generated using pymatgen
data_B
_symmetry_space_group_name_H-M   'P 1'
_cell_length_a   8.99504416
_cell_length_b   8.99504416
_cell_length_c   6.35658983
_cell_angle_alpha   90.00000000
_cell_angle_beta   90.00000000
_cell_angle_gamma   90.00000000
_symmetry_Int_Tables_number   1
_chemical_formula_structural   B
_chemical_formula_sum   B48
_cell_volume   514.31689181
_cell_formula_units_Z   48
loop_
 _symmetry_equiv_pos_site_id
 _symmetry_equiv_pos_as_xyz
  1  'x, y, z'
loop_
 _atom_site_type_symbol
 _atom_site_label
 _atom_site_symmetry_multiplicity
 _atom_site_fract_x
 _atom_site_fract_y
 _atom_site_fract_z
 _atom_site_occupancy
  B  B0  1  0.30847722  0.45204014  0.39027791  1.0
  B  B1  1  0.30847722  0.54795986  0.60972209  1.0
  B  B2  1  0.80847722  0.95204014  0.10972209  1.0
  B  B3  1  0.80847722  0.04795986  0.89027791  1.0
  B  B4  1  0.45204014  0.30847722  0.39027791  1.0
  B  B5  1  0.45204014  0.69152278  0.60972209  1.0
  B  B6  1  0.95204014  0.80847722  0.10972209  1.0
  B  B7  1  0.95204014  0.19152278  0.89027791  1.0
  B  B8  1  0.69152278  0.45204014  0.60972209  1.0
  B  B9  1  0.69152278  0.54795986  0.39027791  1.0
  B  B10  1  0.19152278  0.95204014  0.89027791  1.0
  B  B11  1  0.19152278  0.04795986  0.10972209  1.0
  B  B12  1  0.54795986  0.30847722  0.60972209  1.0
  B  B13  1  0.54795986  0.69152278  0.39027791  1.0
  B  B14  1  0.04795986  0.80847722  0.89027791  1.0
  B  B15  1  0.04795986  0.19152278  0.10972209  1.0
  B  B16  1  1.04052531  0.19019762  0.37087996  1.0
  B  B17  1  1.04052531  0.80980238  0.62912004  1.0
  B  B18  1  0.54052531  0.69019762  0.12912004  1.0
  B  B19  1  0.54052531  0.30980238  0.87087996  1.0
  B  B20  1  0.19019762  1.04052531  0.37087996  1.0
  B  B21  1  0.19019762  -0.04052531  0.62912004  1.0
  B  B22  1  0.69019762  0.54052531  0.12912004  1.0
  B  B23  1  0.69019762  0.45947469  0.87087996  1.0
  B  B24  1  -0.04052531  0.19019762  0.62912004  1.0
  B  B25  1  -0.04052531  0.80980238  0.37087996  1.0
  B  B26  1  0.45947469  0.69019762  0.87087996  1.0
  B  B27  1  0.45947469  0.30980238  0.12912004  1.0
  B  B28  1  0.80980238  1.04052531  0.62912004  1.0
  B  B29  1  0.80980238  -0.04052531  0.37087996  1.0
  B  B30  1  0.30980238  0.54052531  0.87087996  1.0
  B  B31  1  0.30980238  0.45947469  0.12912004  1.0
  B  B32  1  0.15312364  0.84687636  0.41848675  1.0
  B  B33  1  0.15312364  0.15312364  0.58151325  1.0
  B  B34  1  0.65312364  0.34687636  0.08151325  1.0
  B  B35  1  0.65312364  0.65312364  0.91848675  1.0
  B  B36  1  0.84687636  0.15312364  0.41848675  1.0
  B  B37  1  0.84687636  0.84687636  0.58151325  1.0
  B  B38  1  0.34687636  0.65312364  0.08151325  1.0
  B  B39  1  0.34687636  0.34687636  0.91848675  1.0
  B  B40  1  0.00000000  0.00000000  0.26435819  1.0
  B  B41  1  0.00000000  0.00000000  0.73564181  1.0
  B  B42  1  0.50000000  0.50000000  0.23564181  1.0
  B  B43  1  0.50000000  0.50000000  0.76435819  1.0
  B  B44  1  0.25000000  0.75000000  0.25000000  1.0
  B  B45  1  0.25000000  0.25000000  0.75000000  1.0
  B  B46  1  0.75000000  0.25000000  0.25000000  1.0
  B  B47  1  0.75000000  0.75000000  0.75000000  1.0
