# generated using pymatgen
data_PH9C6(N5O2)2
_symmetry_space_group_name_H-M   'P 1'
_cell_length_a   9.03450617
_cell_length_b   9.03450617
_cell_length_c   9.03450617
_cell_angle_alpha   68.95883500
_cell_angle_beta   68.95883500
_cell_angle_gamma   68.95883500
_symmetry_Int_Tables_number   1
_chemical_formula_structural   PH9C6(N5O2)2
_chemical_formula_sum   'P2 H18 C12 N20 O8'
_cell_volume   619.53588874
_cell_formula_units_Z   2
loop_
 _symmetry_equiv_pos_site_id
 _symmetry_equiv_pos_as_xyz
  1  'x, y, z'
loop_
 _atom_site_type_symbol
 _atom_site_label
 _atom_site_symmetry_multiplicity
 _atom_site_fract_x
 _atom_site_fract_y
 _atom_site_fract_z
 _atom_site_occupancy
  P  P0  1  1.19834662  1.19834662  0.19834662  1.0
  P  P1  1  0.69834662  0.69834662  -0.30165338  1.0
  H  H2  1  0.26651322  0.92010774  -0.67618984  1.0
  H  H3  1  0.76651322  0.82381016  -0.57989226  1.0
  H  H4  1  0.42010774  0.76651322  -0.17618984  1.0
  H  H5  1  0.92010774  0.32381016  -0.73348678  1.0
  H  H6  1  0.82381016  0.42010774  -0.23348678  1.0
  H  H7  1  0.32381016  0.26651322  -0.07989226  1.0
  H  H8  1  1.31475102  1.15560324  0.47663769  1.0
  H  H9  1  0.81475102  0.97663769  -0.34439676  1.0
  H  H10  1  0.65560324  0.81475102  -0.02336231  1.0
  H  H11  1  1.15560324  1.47663769  0.31475102  1.0
  H  H12  1  0.97663769  0.65560324  -0.18524898  1.0
  H  H13  1  1.47663769  1.31475102  0.15560324  1.0
  H  H14  1  0.95345260  0.05478331  -0.52664784  1.0
  H  H15  1  0.45345260  0.97335216  -0.44521669  1.0
  H  H16  1  0.55478331  0.45345260  -0.02664784  1.0
  H  H17  1  1.05478331  -0.52664784  -0.04654740  1.0
  H  H18  1  0.97335216  0.55478331  -0.54654740  1.0
  H  H19  1  0.47335216  -0.04654740  0.05478331  1.0
  C  C20  1  0.54390771  0.73346241  -0.78049547  1.0
  C  C21  1  1.04390771  1.71950453  0.23346241  1.0
  C  C22  1  1.23346241  1.04390771  0.71950453  1.0
  C  C23  1  0.73346241  0.21950453  -0.45609229  1.0
  C  C24  1  1.71950453  1.23346241  0.04390771  1.0
  C  C25  1  0.21950453  0.54390771  -0.26653759  1.0
  C  C26  1  0.87614535  -0.02044388  0.14790672  1.0
  C  C27  1  0.37614535  0.64790672  -0.52044388  1.0
  C  C28  1  0.47955612  0.37614535  -0.35209328  1.0
  C  C29  1  0.97955612  0.14790672  -0.12385465  1.0
  C  C30  1  0.64790672  0.47955612  -0.62385465  1.0
  C  C31  1  1.14790672  -0.12385465  -0.02044388  1.0
  N  N32  1  0.16812659  0.73612164  -0.90561950  1.0
  N  N33  1  0.66812659  0.59438050  -0.76387836  1.0
  N  N34  1  0.23612164  0.66812659  -0.40561950  1.0
  N  N35  1  0.73612164  0.09438050  -0.83187341  1.0
  N  N36  1  0.59438050  0.23612164  -0.33187341  1.0
  N  N37  1  0.09438050  0.16812659  -0.26387836  1.0
  N  N38  1  0.90169269  -0.16079149  0.26546135  1.0
  N  N39  1  0.40169269  0.76546135  -0.66079149  1.0
  N  N40  1  0.33920851  0.40169269  -0.23453865  1.0
  N  N41  1  0.83920851  0.26546135  -0.09830731  1.0
  N  N42  1  0.76546135  0.33920851  -0.59830731  1.0
  N  N43  1  1.26546135  -0.09830731  -0.16079149  1.0
  N  N44  1  0.84601750  0.07600556  -0.43709544  1.0
  N  N45  1  1.34601750  1.06290456  0.57600556  1.0
  N  N46  1  1.57600556  1.34601750  0.06290456  1.0
  N  N47  1  1.07600556  -0.43709544  -0.15398250  1.0
  N  N48  1  1.06290456  1.57600556  0.34601750  1.0
  N  N49  1  0.56290456  -0.15398250  0.07600556  1.0
  N  N50  1  0.00078030  0.00078030  0.00078030  1.0
  N  N51  1  0.50078030  0.50078030  -0.49921970  1.0
  O  O52  1  1.16425349  1.02834559  0.31157643  1.0
  O  O53  1  0.66425349  0.81157643  -0.47165441  1.0
  O  O54  1  0.52834559  0.66425349  -0.18842357  1.0
  O  O55  1  1.02834559  1.31157643  0.16425349  1.0
  O  O56  1  0.81157643  0.52834559  -0.33574651  1.0
  O  O57  1  1.31157643  1.16425349  0.02834559  1.0
  O  O58  1  1.27248470  1.27248470  0.27248470  1.0
  O  O59  1  0.77248470  0.77248470  -0.22751530  1.0
