# generated using pymatgen
data_TbGeIr
_symmetry_space_group_name_H-M   'P 1'
_cell_length_a   6.93274288
_cell_length_b   4.33405457
_cell_length_c   7.58494168
_cell_angle_alpha   90.00000000
_cell_angle_beta   90.00000000
_cell_angle_gamma   90.00000000
_symmetry_Int_Tables_number   1
_chemical_formula_structural   TbGeIr
_chemical_formula_sum   'Tb4 Ge4 Ir4'
_cell_volume   227.90387777
_cell_formula_units_Z   4
loop_
 _symmetry_equiv_pos_site_id
 _symmetry_equiv_pos_as_xyz
  1  'x, y, z'
loop_
 _atom_site_type_symbol
 _atom_site_label
 _atom_site_symmetry_multiplicity
 _atom_site_fract_x
 _atom_site_fract_y
 _atom_site_fract_z
 _atom_site_occupancy
  Tb  Tb0  1  -0.00246889  0.75000000  0.69246523  1.0
  Tb  Tb1  1  0.49753111  0.75000000  0.80753477  1.0
  Tb  Tb2  1  1.00246889  0.25000000  0.30753477  1.0
  Tb  Tb3  1  0.50246889  0.25000000  0.19246523  1.0
  Ge  Ge4  1  0.70630969  0.75000000  0.39236004  1.0
  Ge  Ge5  1  0.20630969  0.75000000  0.10763996  1.0
  Ge  Ge6  1  0.29369031  0.25000000  0.60763996  1.0
  Ge  Ge7  1  0.79369031  0.25000000  0.89236004  1.0
  Ir  Ir8  1  0.83737608  0.75000000  0.06823504  1.0
  Ir  Ir9  1  0.33737608  0.75000000  0.43176496  1.0
  Ir  Ir10  1  0.16262392  0.25000000  0.93176496  1.0
  Ir  Ir11  1  0.66262392  0.25000000  0.56823504  1.0
