# generated using pymatgen
data_K4SnSb2F14
_symmetry_space_group_name_H-M   'P 1'
_cell_length_a   6.83475950
_cell_length_b   7.85807700
_cell_length_c   7.59115829
_cell_angle_alpha   91.87695747
_cell_angle_beta   113.95850608
_cell_angle_gamma   92.04038906
_symmetry_Int_Tables_number   1
_chemical_formula_structural   K4SnSb2F14
_chemical_formula_sum   'K4 Sn1 Sb2 F14'
_cell_volume   371.84428065
_cell_formula_units_Z   1
loop_
 _symmetry_equiv_pos_site_id
 _symmetry_equiv_pos_as_xyz
  1  'x, y, z'
loop_
 _atom_site_type_symbol
 _atom_site_label
 _atom_site_symmetry_multiplicity
 _atom_site_fract_x
 _atom_site_fract_y
 _atom_site_fract_z
 _atom_site_occupancy
  K  K0  1  -0.84999005  -0.41051222  -0.23270198  1.0
  K  K1  1  -0.15000995  -0.58948778  -0.76729802  1.0
  K  K2  1  -0.72079948  -0.85875035  -0.95599344  1.0
  K  K3  1  -0.27920052  -0.14124965  -0.04400656  1.0
  Sn  Sn4  1  0.00000000  -0.00000000  -0.50000000  1.0
  Sb  Sb5  1  -0.60964378  -0.31970353  -0.68991100  1.0
  Sb  Sb6  1  -0.39035622  -0.68029647  -0.31008900  1.0
  F  F7  1  -0.95083170  -0.93570883  -0.73442660  1.0
  F  F8  1  -0.04916830  -0.06429117  -0.26557340  1.0
  F  F9  1  -0.92245021  -0.33310039  -0.86871396  1.0
  F  F10  1  -0.07754979  -0.66689961  -0.13128604  1.0
  F  F11  1  -0.83628813  -0.78635463  -0.35656490  1.0
  F  F12  1  -0.16371187  -0.21364537  -0.64343510  1.0
  F  F13  1  -0.72527162  -0.50909433  -0.55685208  1.0
  F  F14  1  -0.27472838  -0.49090567  -0.44314792  1.0
  F  F15  1  -0.60352843  -0.18618374  -0.92779824  1.0
  F  F16  1  -0.39647157  -0.81381626  -0.07220176  1.0
  F  F17  1  -0.57548221  -0.51999452  -0.84204865  1.0
  F  F18  1  -0.42451779  -0.48000548  -0.15795135  1.0
  F  F19  1  -0.26951805  -0.87027209  -0.59739831  1.0
  F  F20  1  -0.73048195  -0.12972791  -0.40260169  1.0
