# generated using pymatgen
data_CsCO
_symmetry_space_group_name_H-M   'P 1'
_cell_length_a   7.51133214
_cell_length_b   7.51133214
_cell_length_c   7.51133214
_cell_angle_alpha   145.72247226
_cell_angle_beta   145.72247226
_cell_angle_gamma   49.25916922
_symmetry_Int_Tables_number   1
_chemical_formula_structural   CsCO
_chemical_formula_sum   'Cs2 C2 O2'
_cell_volume   133.81552630
_cell_formula_units_Z   2
loop_
 _symmetry_equiv_pos_site_id
 _symmetry_equiv_pos_as_xyz
  1  'x, y, z'
loop_
 _atom_site_type_symbol
 _atom_site_label
 _atom_site_symmetry_multiplicity
 _atom_site_fract_x
 _atom_site_fract_y
 _atom_site_fract_z
 _atom_site_occupancy
  Cs  Cs0  1  0.63838137  0.63838137  1.00000000  1.0
  Cs  Cs1  1  0.36161863  0.36161863  -0.00000000  1.0
  C  C2  1  0.95442723  0.95442723  1.00000000  1.0
  C  C3  1  0.04557277  0.04557277  -0.00000000  1.0
  O  O4  1  0.85900896  0.85900896  1.00000000  1.0
  O  O5  1  0.14099104  0.14099104  -0.00000000  1.0
