# generated using pymatgen
data_Pr(BIr)2
_symmetry_space_group_name_H-M   'P 1'
_cell_length_a   7.06688948
_cell_length_b   6.09723591
_cell_length_c   5.55694758
_cell_angle_alpha   74.49484680
_cell_angle_beta   56.24170854
_cell_angle_gamma   49.26344466
_symmetry_Int_Tables_number   1
_chemical_formula_structural   Pr(BIr)2
_chemical_formula_sum   'Pr2 B4 Ir4'
_cell_volume   149.10131001
_cell_formula_units_Z   2
loop_
 _symmetry_equiv_pos_site_id
 _symmetry_equiv_pos_as_xyz
  1  'x, y, z'
loop_
 _atom_site_type_symbol
 _atom_site_label
 _atom_site_symmetry_multiplicity
 _atom_site_fract_x
 _atom_site_fract_y
 _atom_site_fract_z
 _atom_site_occupancy
  Pr  Pr0  1  0.50000000  -0.50000000  0.50000000  1.0
  Pr  Pr1  1  0.75000000  0.75000000  0.75000000  1.0
  B  B2  1  0.81902165  -0.81902165  0.81902165  1.0
  B  B3  1  1.43097835  0.06902165  0.43097835  1.0
  B  B4  1  0.18097835  -0.18097835  0.18097835  1.0
  B  B5  1  1.06902165  0.43097835  0.06902165  1.0
  Ir  Ir6  1  0.87009574  0.87009574  -0.87009574  1.0
  Ir  Ir7  1  0.12990426  0.12990426  -0.12990426  1.0
  Ir  Ir8  1  1.37990426  0.37990426  0.12009574  1.0
  Ir  Ir9  1  0.12009574  0.12009574  1.37990426  1.0
