# generated using pymatgen
data_H4NF
_symmetry_space_group_name_H-M   'P 1'
_cell_length_a   4.45041912
_cell_length_b   4.45041912
_cell_length_c   7.22110079
_cell_angle_alpha   90.00000000
_cell_angle_beta   90.00000000
_cell_angle_gamma   120.00000000
_symmetry_Int_Tables_number   1
_chemical_formula_structural   H4NF
_chemical_formula_sum   'H8 N2 F2'
_cell_volume   123.86136557
_cell_formula_units_Z   2
loop_
 _symmetry_equiv_pos_site_id
 _symmetry_equiv_pos_as_xyz
  1  'x, y, z'
loop_
 _atom_site_type_symbol
 _atom_site_label
 _atom_site_symmetry_multiplicity
 _atom_site_fract_x
 _atom_site_fract_y
 _atom_site_fract_z
 _atom_site_occupancy
  H  H0  1  0.92384567  0.46192284  0.45087059  1.0
  H  H1  1  0.46192284  0.92384567  0.95087059  1.0
  H  H2  1  0.46192284  0.53807716  0.95087059  1.0
  H  H3  1  0.53807716  0.46192284  0.45087059  1.0
  H  H4  1  0.53807716  0.07615433  0.45087059  1.0
  H  H5  1  0.07615433  0.53807716  0.95087059  1.0
  H  H6  1  0.33333333  0.66666667  0.14484082  1.0
  H  H7  1  0.66666667  0.33333333  0.64484082  1.0
  N  N8  1  0.33333333  0.66666667  -0.00073404  1.0
  N  N9  1  0.66666667  0.33333333  0.49926596  1.0
  F  F10  1  0.33333333  0.66666667  0.37578144  1.0
  F  F11  1  0.66666667  0.33333333  0.87578144  1.0
