# generated using pymatgen
data_Ce(CrB3)2
_symmetry_space_group_name_H-M   'P 1'
_cell_length_a   5.50672131
_cell_length_b   5.50672131
_cell_length_c   5.50672131
_cell_angle_alpha   147.60982409
_cell_angle_beta   107.27982734
_cell_angle_gamma   81.86774834
_symmetry_Int_Tables_number   1
_chemical_formula_structural   Ce(CrB3)2
_chemical_formula_sum   'Ce1 Cr2 B6'
_cell_volume   83.43864457
_cell_formula_units_Z   1
loop_
 _symmetry_equiv_pos_site_id
 _symmetry_equiv_pos_as_xyz
  1  'x, y, z'
loop_
 _atom_site_type_symbol
 _atom_site_label
 _atom_site_symmetry_multiplicity
 _atom_site_fract_x
 _atom_site_fract_y
 _atom_site_fract_z
 _atom_site_occupancy
  Ce  Ce0  1  0.00000000  0.00000000  0.00000000  1.0
  Cr  Cr1  1  0.65455232  0.15455232  0.50000000  1.0
  Cr  Cr2  1  1.34544768  0.84544768  0.50000000  1.0
  B  B3  1  0.45949177  0.69654636  0.76294541  1.0
  B  B4  1  1.06639906  1.30345364  0.76294541  1.0
  B  B5  1  0.93360094  0.69654636  1.23705459  1.0
  B  B6  1  1.54050823  1.30345364  1.23705459  1.0
  B  B7  1  0.35803582  0.50000000  0.85803582  1.0
  B  B8  1  0.64196418  0.50000000  1.14196418  1.0
