# generated using pymatgen
data_Cd(PO4)2
_symmetry_space_group_name_H-M   'P 1'
_cell_length_a   11.57879357
_cell_length_b   11.57879357
_cell_length_c   5.59917890
_cell_angle_alpha   90.00000000
_cell_angle_beta   90.00000000
_cell_angle_gamma   120.00000000
_symmetry_Int_Tables_number   1
_chemical_formula_structural   Cd(PO4)2
_chemical_formula_sum   'Cd3 P6 O24'
_cell_volume   650.10214393
_cell_formula_units_Z   3
loop_
 _symmetry_equiv_pos_site_id
 _symmetry_equiv_pos_as_xyz
  1  'x, y, z'
loop_
 _atom_site_type_symbol
 _atom_site_label
 _atom_site_symmetry_multiplicity
 _atom_site_fract_x
 _atom_site_fract_y
 _atom_site_fract_z
 _atom_site_occupancy
  O  O0  1  0.92080299  0.56249650  0.32116064  1.0
  O  O1  1  0.56249650  0.64169351  0.67883936  1.0
  O  O2  1  0.64169351  0.07919701  0.32116064  1.0
  O  O3  1  0.43750350  0.35830649  0.32116064  1.0
  O  O4  1  0.07919701  0.43750350  0.67883936  1.0
  O  O5  1  0.35830649  0.92080299  0.67883936  1.0
  O  O6  1  0.67737993  0.46479170  0.43911985  1.0
  O  O7  1  0.46479170  0.78741176  0.56088015  1.0
  O  O8  1  0.78741176  0.32262007  0.43911985  1.0
  O  O9  1  0.53520830  0.21258824  0.43911985  1.0
  O  O10  1  0.32262007  0.53520830  0.56088015  1.0
  O  O11  1  0.21258824  0.67737993  0.56088015  1.0
  O  O12  1  0.74621984  0.61565721  -0.01352864  1.0
  O  O13  1  0.61565721  0.86943737  1.01352864  1.0
  O  O14  1  0.86943737  0.25378016  -0.01352864  1.0
  O  O15  1  0.38434279  0.13056263  -0.01352864  1.0
  O  O16  1  0.25378016  0.38434279  1.01352864  1.0
  O  O17  1  0.13056263  0.74621984  1.01352864  1.0
  O  O18  1  0.34069640  0.84399210  0.23506196  1.0
  O  O19  1  0.84399210  0.50329570  0.76493804  1.0
  O  O20  1  0.50329570  0.65930360  0.23506196  1.0
  O  O21  1  0.15600790  0.49670430  0.23506196  1.0
  O  O22  1  0.65930360  0.15600790  0.76493804  1.0
  O  O23  1  0.49670430  0.34069640  0.76493804  1.0
  P  P24  1  0.34470748  0.81831588  0.50000276  1.0
  P  P25  1  0.81831588  0.47360839  0.49999724  1.0
  P  P26  1  0.47360839  0.65529252  0.50000276  1.0
  P  P27  1  0.18168412  0.52639161  0.50000276  1.0
  P  P28  1  0.65529252  0.18168412  0.49999724  1.0
  P  P29  1  0.52639161  0.34470748  0.49999724  1.0
  Cd  Cd30  1  0.50000000  0.50000000  0.00000000  1.0
  Cd  Cd31  1  0.50000000  0.00000000  0.00000000  1.0
  Cd  Cd32  1  -0.00000000  0.50000000  0.00000000  1.0
