# generated using pymatgen
data_CaZn2(PO5)2
_symmetry_space_group_name_H-M   'P 1'
_cell_length_a   9.60646691
_cell_length_b   9.60646691
_cell_length_c   6.77840193
_cell_angle_alpha   72.27056095
_cell_angle_beta   107.72943905
_cell_angle_gamma   133.52851603
_symmetry_Int_Tables_number   1
_chemical_formula_structural   CaZn2(PO5)2
_chemical_formula_sum   'Ca2 Zn4 P4 O20'
_cell_volume   427.90631932
_cell_formula_units_Z   2
loop_
 _symmetry_equiv_pos_site_id
 _symmetry_equiv_pos_as_xyz
  1  'x, y, z'
loop_
 _atom_site_type_symbol
 _atom_site_label
 _atom_site_symmetry_multiplicity
 _atom_site_fract_x
 _atom_site_fract_y
 _atom_site_fract_z
 _atom_site_occupancy
  O  O0  1  0.86311207  0.00991248  0.39199287  1.0
  O  O1  1  0.99008752  0.13688793  0.89199287  1.0
  O  O2  1  1.00991248  0.86311207  0.10800713  1.0
  O  O3  1  0.13688793  -0.00991248  0.60800713  1.0
  O  O4  1  0.71375072  0.16840273  0.26556447  1.0
  O  O5  1  0.83159727  0.28624928  0.76556447  1.0
  O  O6  1  1.16840273  0.71375072  0.23443553  1.0
  O  O7  1  0.28624928  -0.16840273  0.73443553  1.0
  O  O8  1  0.42936676  0.13669084  0.46672285  1.0
  O  O9  1  0.86330916  0.57063324  0.96672285  1.0
  O  O10  1  1.13669084  0.42936676  0.03327715  1.0
  O  O11  1  0.57063324  -0.13669084  0.53327715  1.0
  O  O12  1  1.41755089  0.46217299  0.45698851  1.0
  O  O13  1  0.53782701  -0.41755089  0.95698851  1.0
  O  O14  1  0.46217299  0.41755089  0.04301149  1.0
  O  O15  1  0.58244911  0.53782701  0.54301149  1.0
  O  O16  1  0.54759500  -0.14886365  0.14553753  1.0
  O  O17  1  1.14886365  0.45240500  0.64553753  1.0
  O  O18  1  0.85113635  0.54759500  0.35446247  1.0
  O  O19  1  0.45240500  0.14886365  0.85446247  1.0
  Zn  Zn20  1  0.70411809  0.27640516  0.46746140  1.0
  Zn  Zn21  1  0.72359484  0.29588191  0.96746140  1.0
  Zn  Zn22  1  1.27640516  0.70411809  0.03253860  1.0
  Zn  Zn23  1  0.29588191  -0.27640516  0.53253860  1.0
  P  P24  1  0.67002108  -0.03131023  0.33010915  1.0
  P  P25  1  1.03131023  0.32997892  0.83010915  1.0
  P  P26  1  0.96868977  0.67002108  0.16989085  1.0
  P  P27  1  0.32997892  0.03131023  0.66989085  1.0
  Ca  Ca28  1  0.10969959  0.10969959  0.25000000  1.0
  Ca  Ca29  1  0.89030041  0.89030041  0.75000000  1.0
