# generated using pymatgen
data_Li2EuGeS4
_symmetry_space_group_name_H-M   'P 1'
_cell_length_a   6.02516570
_cell_length_b   6.02516570
_cell_length_c   6.02516570
_cell_angle_alpha   114.19568496
_cell_angle_beta   114.19568496
_cell_angle_gamma   100.38672889
_symmetry_Int_Tables_number   1
_chemical_formula_structural   Li2EuGeS4
_chemical_formula_sum   'Li2 Eu1 Ge1 S4'
_cell_volume   165.27644702
_cell_formula_units_Z   1
loop_
 _symmetry_equiv_pos_site_id
 _symmetry_equiv_pos_as_xyz
  1  'x, y, z'
loop_
 _atom_site_type_symbol
 _atom_site_label
 _atom_site_symmetry_multiplicity
 _atom_site_fract_x
 _atom_site_fract_y
 _atom_site_fract_z
 _atom_site_occupancy
  Li  Li0  1  0.75000000  1.25000000  0.50000000  1.0
  Li  Li1  1  1.25000000  0.75000000  0.50000000  1.0
  Eu  Eu2  1  0.50000000  0.50000000  -0.00000000  1.0
  Ge  Ge3  1  -0.00000000  -0.00000000  -0.00000000  1.0
  S  S4  1  0.96713642  0.96713642  0.60155304  1.0
  S  S5  1  1.03286358  0.63441662  1.00000000  1.0
  S  S6  1  0.63441662  1.03286358  1.00000000  1.0
  S  S7  1  0.36558338  0.36558338  0.39844696  1.0
