# generated using pymatgen
data_RbV3O8
_symmetry_space_group_name_H-M   'P 1'
_cell_length_a   5.10990935
_cell_length_b   8.68509250
_cell_length_c   8.26155410
_cell_angle_alpha   90.00000000
_cell_angle_beta   99.83560651
_cell_angle_gamma   90.00000000
_symmetry_Int_Tables_number   1
_chemical_formula_structural   RbV3O8
_chemical_formula_sum   'Rb2 V6 O16'
_cell_volume   361.25904441
_cell_formula_units_Z   2
loop_
 _symmetry_equiv_pos_site_id
 _symmetry_equiv_pos_as_xyz
  1  'x, y, z'
loop_
 _atom_site_type_symbol
 _atom_site_label
 _atom_site_symmetry_multiplicity
 _atom_site_fract_x
 _atom_site_fract_y
 _atom_site_fract_z
 _atom_site_occupancy
  Rb  Rb0  1  0.54882885  0.25000000  0.44895828  1.0
  Rb  Rb1  1  0.45117115  0.75000000  0.55104172  1.0
  V  V2  1  0.05230887  0.44138195  0.82486723  1.0
  V  V3  1  0.05230887  0.05861805  0.82486723  1.0
  V  V4  1  0.94769113  0.94138195  0.17513277  1.0
  V  V5  1  0.94769113  0.55861805  0.17513277  1.0
  V  V6  1  0.58412300  0.25000000  0.94315607  1.0
  V  V7  1  0.41587700  0.75000000  0.05684393  1.0
  O  O8  1  0.92145215  0.94792479  0.67637186  1.0
  O  O9  1  0.92145215  0.55207521  0.67637186  1.0
  O  O10  1  0.07854785  0.44792479  0.32362814  1.0
  O  O11  1  0.07854785  0.05207521  0.32362814  1.0
  O  O12  1  0.82795795  0.40975248  0.99714737  1.0
  O  O13  1  0.82795795  0.09024752  0.99714737  1.0
  O  O14  1  0.17204205  0.90975248  0.00285263  1.0
  O  O15  1  0.17204205  0.59024752  0.00285263  1.0
  O  O16  1  0.37311624  0.39431134  0.79547981  1.0
  O  O17  1  0.37311624  0.10568866  0.79547981  1.0
  O  O18  1  0.62688376  0.89431134  0.20452019  1.0
  O  O19  1  0.62688376  0.60568866  0.20452019  1.0
  O  O20  1  0.91046828  0.25000000  0.75818873  1.0
  O  O21  1  0.08953172  0.75000000  0.24181127  1.0
  O  O22  1  0.42788124  0.25000000  0.09468350  1.0
  O  O23  1  0.57211876  0.75000000  0.90531650  1.0
