# generated using pymatgen
data_BaSr2AlO4F
_symmetry_space_group_name_H-M   'P 1'
_cell_length_a   7.50081250
_cell_length_b   7.50081250
_cell_length_c   7.50081250
_cell_angle_alpha   124.66019804
_cell_angle_beta   124.66019804
_cell_angle_gamma   82.10162081
_symmetry_Int_Tables_number   1
_chemical_formula_structural   BaSr2AlO4F
_chemical_formula_sum   'Ba2 Sr4 Al2 O8 F2'
_cell_volume   274.51800301
_cell_formula_units_Z   2
loop_
 _symmetry_equiv_pos_site_id
 _symmetry_equiv_pos_as_xyz
  1  'x, y, z'
loop_
 _atom_site_type_symbol
 _atom_site_label
 _atom_site_symmetry_multiplicity
 _atom_site_fract_x
 _atom_site_fract_y
 _atom_site_fract_z
 _atom_site_occupancy
  Ba  Ba0  1  0.75000000  0.75000000  1.00000000  1.0
  Ba  Ba1  1  0.25000000  0.25000000  -0.00000000  1.0
  Sr  Sr2  1  0.66950936  0.16950936  0.83901872  1.0
  Sr  Sr3  1  0.83049064  0.66950936  1.50000000  1.0
  Sr  Sr4  1  0.16950936  0.33049064  0.50000000  1.0
  Sr  Sr5  1  0.33049064  0.83049064  1.16098128  1.0
  Al  Al6  1  0.25000000  0.75000000  0.50000000  1.0
  Al  Al7  1  0.75000000  0.25000000  0.50000000  1.0
  O  O8  1  0.99251039  0.49251039  0.77710703  1.0
  O  O9  1  0.28459665  0.78459665  0.77710703  1.0
  O  O10  1  1.21540335  0.99251039  1.50000000  1.0
  O  O11  1  0.50748961  0.28459665  0.50000000  1.0
  O  O12  1  0.49251039  0.71540335  0.50000000  1.0
  O  O13  1  0.78459665  1.00748961  1.50000000  1.0
  O  O14  1  0.71540335  1.21540335  1.22289297  1.0
  O  O15  1  1.00748961  0.50748961  1.22289297  1.0
  F  F16  1  0.00000000  0.00000000  0.00000000  1.0
  F  F17  1  0.50000000  0.50000000  1.00000000  1.0
