# generated using pymatgen
data_AgHgAsS3
_symmetry_space_group_name_H-M   'P 1'
_cell_length_a   6.67371702
_cell_length_b   6.67371702
_cell_length_c   7.90218855
_cell_angle_alpha   78.28782899
_cell_angle_beta   101.71217101
_cell_angle_gamma   61.13776047
_symmetry_Int_Tables_number   1
_chemical_formula_structural   AgHgAsS3
_chemical_formula_sum   'Ag2 Hg2 As2 S6'
_cell_volume   282.61509495
_cell_formula_units_Z   2
loop_
 _symmetry_equiv_pos_site_id
 _symmetry_equiv_pos_as_xyz
  1  'x, y, z'
loop_
 _atom_site_type_symbol
 _atom_site_label
 _atom_site_symmetry_multiplicity
 _atom_site_fract_x
 _atom_site_fract_y
 _atom_site_fract_z
 _atom_site_occupancy
  Ag  Ag0  1  1.95364092  -0.00534081  0.46383804  1.0
  Ag  Ag1  1  1.00534081  -0.95364092  0.96383804  1.0
  Hg  Hg2  1  1.31846239  0.29976564  0.50253472  1.0
  Hg  Hg3  1  0.70023436  -0.31846239  0.00253472  1.0
  As  As4  1  0.63999420  -0.36028484  0.50159512  1.0
  As  As5  1  1.36028484  0.36000580  1.00159512  1.0
  S  S6  1  0.41252693  -0.38145118  0.12782343  1.0
  S  S7  1  1.38145118  0.58747307  0.62782343  1.0
  S  S8  1  1.15838441  0.28097359  0.18809185  1.0
  S  S9  1  0.71902641  -0.15838441  0.68809185  1.0
  S  S10  1  1.74687547  0.01382190  0.14911683  1.0
  S  S11  1  0.98617810  -0.74687547  0.64911683  1.0
