# generated using pymatgen
data_KPtNCl3O
_symmetry_space_group_name_H-M   'P 1'
_cell_length_a   9.96262453
_cell_length_b   9.96262453
_cell_length_c   7.88707219
_cell_angle_alpha   90.00000000
_cell_angle_beta   90.00000000
_cell_angle_gamma   152.59911184
_symmetry_Int_Tables_number   1
_chemical_formula_structural   KPtNCl3O
_chemical_formula_sum   'K2 Pt2 N2 Cl6 O2'
_cell_volume   360.26555431
_cell_formula_units_Z   2
loop_
 _symmetry_equiv_pos_site_id
 _symmetry_equiv_pos_as_xyz
  1  'x, y, z'
loop_
 _atom_site_type_symbol
 _atom_site_label
 _atom_site_symmetry_multiplicity
 _atom_site_fract_x
 _atom_site_fract_y
 _atom_site_fract_z
 _atom_site_occupancy
  N  N0  1  -0.24303486  0.24303486  0.67171812  1.0
  N  N1  1  0.24303486  0.75696514  0.17171812  1.0
  Cl  Cl2  1  -0.08351188  0.08351188  0.31792143  1.0
  Cl  Cl3  1  0.08351188  0.91648812  0.81792143  1.0
  Cl  Cl4  1  -0.25309877  0.25309877  0.29995524  1.0
  Cl  Cl5  1  0.25309877  0.74690123  0.79995524  1.0
  Cl  Cl6  1  -0.09068753  0.09068753  0.73394500  1.0
  Cl  Cl7  1  0.09068753  0.90931247  0.23394500  1.0
  O  O8  1  -0.48712426  0.48712426  0.26517571  1.0
  O  O9  1  0.48712426  0.51287574  0.76517571  1.0
  Pt  Pt10  1  -0.17341795  0.17341795  0.52247530  1.0
  Pt  Pt11  1  0.17341795  0.82658205  1.02247530  1.0
  K  K12  1  0.40176919  0.59823081  0.04230920  1.0
  K  K13  1  -0.40176919  0.40176919  0.54230920  1.0
