# generated using pymatgen
data_BaTl4
_symmetry_space_group_name_H-M   'P 1'
_cell_length_a   6.92952918
_cell_length_b   6.92952918
_cell_length_c   10.79388121
_cell_angle_alpha   66.20315207
_cell_angle_beta   113.79684793
_cell_angle_gamma   133.40745883
_symmetry_Int_Tables_number   1
_chemical_formula_structural   BaTl4
_chemical_formula_sum   'Ba2 Tl8'
_cell_volume   338.25965321
_cell_formula_units_Z   2
loop_
 _symmetry_equiv_pos_site_id
 _symmetry_equiv_pos_as_xyz
  1  'x, y, z'
loop_
 _atom_site_type_symbol
 _atom_site_label
 _atom_site_symmetry_multiplicity
 _atom_site_fract_x
 _atom_site_fract_y
 _atom_site_fract_z
 _atom_site_occupancy
  Ba  Ba0  1  0.81727392  -0.81727392  0.28935663  1.0
  Ba  Ba1  1  0.18272608  -0.18272608  0.71064337  1.0
  Tl  Tl2  1  0.88272253  -0.88272253  0.68939835  1.0
  Tl  Tl3  1  0.11727747  -0.11727747  0.31060165  1.0
  Tl  Tl4  1  0.84271616  0.15728384  0.96127988  1.0
  Tl  Tl5  1  1.15728384  -0.15728384  0.03872012  1.0
  Tl  Tl6  1  0.60253240  0.39746760  0.45702143  1.0
  Tl  Tl7  1  1.39746760  -0.39746760  0.54297857  1.0
  Tl  Tl8  1  0.54529255  0.45470745  0.87958251  1.0
  Tl  Tl9  1  1.45470745  -0.45470745  0.12041749  1.0
