# generated using pymatgen
data_KNO2
_symmetry_space_group_name_H-M   'P 1'
_cell_length_a   4.76821292
_cell_length_b   4.76821292
_cell_length_c   6.35024189
_cell_angle_alpha   48.85295433
_cell_angle_beta   131.14704567
_cell_angle_gamma   104.27770288
_symmetry_Int_Tables_number   1
_chemical_formula_structural   KNO2
_chemical_formula_sum   'K1 N1 O2'
_cell_volume   77.32240355
_cell_formula_units_Z   1
loop_
 _symmetry_equiv_pos_site_id
 _symmetry_equiv_pos_as_xyz
  1  'x, y, z'
loop_
 _atom_site_type_symbol
 _atom_site_label
 _atom_site_symmetry_multiplicity
 _atom_site_fract_x
 _atom_site_fract_y
 _atom_site_fract_z
 _atom_site_occupancy
  K  K0  1  -0.01914436  0.01914436  -0.01989786  1.0
  N  N1  1  0.98709900  -0.98709900  0.52116917  1.0
  O  O2  1  0.79908083  -0.16496454  0.40936435  1.0
  O  O3  1  1.16496454  0.20091917  0.40936435  1.0
