# generated using pymatgen
data_As2PbO6
_symmetry_space_group_name_H-M   'P 1'
_cell_length_a   5.01243080
_cell_length_b   5.01243080
_cell_length_c   5.56245323
_cell_angle_alpha   90.00000000
_cell_angle_beta   90.00000000
_cell_angle_gamma   120.00000000
_symmetry_Int_Tables_number   1
_chemical_formula_structural   As2PbO6
_chemical_formula_sum   'As2 Pb1 O6'
_cell_volume   121.03020909
_cell_formula_units_Z   1
loop_
 _symmetry_equiv_pos_site_id
 _symmetry_equiv_pos_as_xyz
  1  'x, y, z'
loop_
 _atom_site_type_symbol
 _atom_site_label
 _atom_site_symmetry_multiplicity
 _atom_site_fract_x
 _atom_site_fract_y
 _atom_site_fract_z
 _atom_site_occupancy
  As  As0  1  0.33333333  0.66666667  0.50000000  1.0
  As  As1  1  0.66666667  0.33333333  0.50000000  1.0
  Pb  Pb2  1  0.00000000  0.00000000  0.00000000  1.0
  O  O3  1  0.61533998  0.61533998  0.30780844  1.0
  O  O4  1  0.61533998  -0.00000000  0.69219156  1.0
  O  O5  1  0.00000000  0.61533998  0.69219156  1.0
  O  O6  1  -0.00000000  0.38466002  0.30780844  1.0
  O  O7  1  0.38466002  0.38466002  0.69219156  1.0
  O  O8  1  0.38466002  0.00000000  0.30780844  1.0
