# generated using pymatgen
data_Cs2Al(H2N)2
_symmetry_space_group_name_H-M   'P 1'
_cell_length_a   7.73237546
_cell_length_b   7.73237546
_cell_length_c   10.77758305
_cell_angle_alpha   90.00000000
_cell_angle_beta   90.00000000
_cell_angle_gamma   90.00000000
_symmetry_Int_Tables_number   1
_chemical_formula_structural   Cs2Al(H2N)2
_chemical_formula_sum   'Cs8 Al4 H16 N8'
_cell_volume   644.38770578
_cell_formula_units_Z   4
loop_
 _symmetry_equiv_pos_site_id
 _symmetry_equiv_pos_as_xyz
  1  'x, y, z'
loop_
 _atom_site_type_symbol
 _atom_site_label
 _atom_site_symmetry_multiplicity
 _atom_site_fract_x
 _atom_site_fract_y
 _atom_site_fract_z
 _atom_site_occupancy
  Cs  Cs0  1  0.31469796  0.29229813  0.69466771  1.0
  Cs  Cs1  1  0.81469796  0.79229813  0.30533229  1.0
  Cs  Cs2  1  0.29229813  0.68530204  0.30533229  1.0
  Cs  Cs3  1  0.79229813  0.18530204  0.69466771  1.0
  Cs  Cs4  1  0.68530204  0.70770187  0.69466771  1.0
  Cs  Cs5  1  0.18530204  0.20770187  0.30533229  1.0
  Cs  Cs6  1  0.70770187  0.31469796  0.30533229  1.0
  Cs  Cs7  1  0.20770187  0.81469796  0.69466771  1.0
  Al  Al8  1  0.25000000  0.75000000  0.00000000  1.0
  Al  Al9  1  0.75000000  0.25000000  0.00000000  1.0
  Al  Al10  1  0.75000000  0.75000000  0.00000000  1.0
  Al  Al11  1  0.25000000  0.25000000  0.00000000  1.0
  H  H12  1  0.49738957  0.87537378  0.49756901  1.0
  H  H13  1  0.99738957  0.37537378  0.50243099  1.0
  H  H14  1  0.87537378  0.50261043  0.50243099  1.0
  H  H15  1  0.37537378  0.00261043  0.49756901  1.0
  H  H16  1  0.50261043  0.12462622  0.49756901  1.0
  H  H17  1  0.00261043  0.62462622  0.50243099  1.0
  H  H18  1  0.12462622  0.49738957  0.50243099  1.0
  H  H19  1  0.62462622  0.99738957  0.49756901  1.0
  H  H20  1  0.90041312  -0.01636094  0.93458590  1.0
  H  H21  1  0.40041312  0.48363906  0.06541410  1.0
  H  H22  1  -0.01636094  0.09958688  0.06541410  1.0
  H  H23  1  0.48363906  0.59958688  0.93458590  1.0
  H  H24  1  0.09958688  0.01636094  0.93458590  1.0
  H  H25  1  0.59958688  0.51636094  0.06541410  1.0
  H  H26  1  0.01636094  0.90041312  0.06541410  1.0
  H  H27  1  0.51636094  0.40041312  0.93458590  1.0
  N  N28  1  0.47983529  0.73227565  0.93719103  1.0
  N  N29  1  0.97983529  0.23227565  0.06280897  1.0
  N  N30  1  0.73227565  0.52016471  0.06280897  1.0
  N  N31  1  0.23227565  0.02016471  0.93719103  1.0
  N  N32  1  0.52016471  0.26772435  0.93719103  1.0
  N  N33  1  0.02016471  0.76772435  0.06280897  1.0
  N  N34  1  0.26772435  0.47983529  0.06280897  1.0
  N  N35  1  0.76772435  0.97983529  0.93719103  1.0
