# generated using pymatgen
data_SNF
_symmetry_space_group_name_H-M   'P 1'
_cell_length_a   9.75711874
_cell_length_b   9.75711874
_cell_length_c   4.67972753
_cell_angle_alpha   90.00000000
_cell_angle_beta   90.00000000
_cell_angle_gamma   90.00000000
_symmetry_Int_Tables_number   1
_chemical_formula_structural   SNF
_chemical_formula_sum   'S8 N8 F8'
_cell_volume   445.51645350
_cell_formula_units_Z   8
loop_
 _symmetry_equiv_pos_site_id
 _symmetry_equiv_pos_as_xyz
  1  'x, y, z'
loop_
 _atom_site_type_symbol
 _atom_site_label
 _atom_site_symmetry_multiplicity
 _atom_site_fract_x
 _atom_site_fract_y
 _atom_site_fract_z
 _atom_site_occupancy
  S  S0  1  0.47859439  0.29820539  0.42937078  1.0
  S  S1  1  0.02140561  0.79820539  0.07062922  1.0
  S  S2  1  0.70179461  0.47859439  0.57062922  1.0
  S  S3  1  0.79820539  0.97859439  0.92937078  1.0
  S  S4  1  0.52140561  0.70179461  0.42937078  1.0
  S  S5  1  0.97859439  0.20179461  0.07062922  1.0
  S  S6  1  0.29820539  0.52140561  0.57062922  1.0
  S  S7  1  0.20179461  0.02140561  0.92937078  1.0
  N  N8  1  0.11186053  0.12284404  0.14783884  1.0
  N  N9  1  0.38813947  0.62284404  0.35216116  1.0
  N  N10  1  0.87715596  0.11186053  0.85216116  1.0
  N  N11  1  0.62284404  0.61186053  0.64783884  1.0
  N  N12  1  0.88813947  0.87715596  0.14783884  1.0
  N  N13  1  0.61186053  0.37715596  0.35216116  1.0
  N  N14  1  0.12284404  0.88813947  0.85216116  1.0
  N  N15  1  0.37715596  0.38813947  0.64783884  1.0
  F  F16  1  0.18796474  0.48091293  0.31109580  1.0
  F  F17  1  0.31203526  0.98091293  0.18890420  1.0
  F  F18  1  0.51908707  0.18796474  0.68890420  1.0
  F  F19  1  0.98091293  0.68796474  0.81109580  1.0
  F  F20  1  0.81203526  0.51908707  0.31109580  1.0
  F  F21  1  0.68796474  0.01908707  0.18890420  1.0
  F  F22  1  0.48091293  0.81203526  0.68890420  1.0
  F  F23  1  0.01908707  0.31203526  0.81109580  1.0
