# generated using pymatgen
data_LuF3
_symmetry_space_group_name_H-M   'P 1'
_cell_length_a   6.76786582
_cell_length_b   6.76786582
_cell_length_c   6.93347879
_cell_angle_alpha   90.00000000
_cell_angle_beta   90.00000000
_cell_angle_gamma   120.00000000
_symmetry_Int_Tables_number   1
_chemical_formula_structural   LuF3
_chemical_formula_sum   'Lu6 F18'
_cell_volume   275.03331444
_cell_formula_units_Z   6
loop_
 _symmetry_equiv_pos_site_id
 _symmetry_equiv_pos_as_xyz
  1  'x, y, z'
loop_
 _atom_site_type_symbol
 _atom_site_label
 _atom_site_symmetry_multiplicity
 _atom_site_fract_x
 _atom_site_fract_y
 _atom_site_fract_z
 _atom_site_occupancy
  Lu  Lu0  1  0.65325439  0.65325439  0.25000000  1.0
  Lu  Lu1  1  0.65325439  0.00000000  0.75000000  1.0
  Lu  Lu2  1  0.00000000  0.65325439  0.75000000  1.0
  Lu  Lu3  1  -0.00000000  0.34674561  0.25000000  1.0
  Lu  Lu4  1  0.34674561  0.34674561  0.75000000  1.0
  Lu  Lu5  1  0.34674561  -0.00000000  0.25000000  1.0
  F  F6  1  0.92835963  0.62404135  0.07736504  1.0
  F  F7  1  0.92835963  0.30431828  0.57736504  1.0
  F  F8  1  0.62404135  0.92835963  0.42263496  1.0
  F  F9  1  0.62404135  0.69568172  0.92263496  1.0
  F  F10  1  0.69568172  0.62404135  0.57736504  1.0
  F  F11  1  0.69568172  0.07164037  0.07736504  1.0
  F  F12  1  0.37595865  0.07164037  0.57736504  1.0
  F  F13  1  0.37595865  0.30431828  0.07736504  1.0
  F  F14  1  0.07164037  0.69568172  0.42263496  1.0
  F  F15  1  0.07164037  0.37595865  0.92263496  1.0
  F  F16  1  0.30431828  0.92835963  0.92263496  1.0
  F  F17  1  0.30431828  0.37595865  0.42263496  1.0
  F  F18  1  0.33333333  0.66666667  0.18464717  1.0
  F  F19  1  0.33333333  0.66666667  0.68464717  1.0
  F  F20  1  0.66666667  0.33333333  0.31535283  1.0
  F  F21  1  0.66666667  0.33333333  0.81535283  1.0
  F  F22  1  -0.00000000  0.00000000  0.25000000  1.0
  F  F23  1  0.00000000  -0.00000000  0.75000000  1.0
