# generated using pymatgen
data_RbMgH3
_symmetry_space_group_name_H-M   'P 1'
_cell_length_a   5.92722472
_cell_length_b   5.92722472
_cell_length_c   14.36919103
_cell_angle_alpha   90.00000000
_cell_angle_beta   90.00000000
_cell_angle_gamma   120.00000000
_symmetry_Int_Tables_number   1
_chemical_formula_structural   RbMgH3
_chemical_formula_sum   'Rb6 Mg6 H18'
_cell_volume   437.18548692
_cell_formula_units_Z   6
loop_
 _symmetry_equiv_pos_site_id
 _symmetry_equiv_pos_as_xyz
  1  'x, y, z'
loop_
 _atom_site_type_symbol
 _atom_site_label
 _atom_site_symmetry_multiplicity
 _atom_site_fract_x
 _atom_site_fract_y
 _atom_site_fract_z
 _atom_site_occupancy
  Rb  Rb0  1  0.33333333  0.66666667  0.40475964  1.0
  Rb  Rb1  1  0.33333333  0.66666667  0.09524036  1.0
  Rb  Rb2  1  0.66666667  0.33333333  0.90475964  1.0
  Rb  Rb3  1  0.66666667  0.33333333  0.59524036  1.0
  Rb  Rb4  1  0.00000000  0.00000000  0.25000000  1.0
  Rb  Rb5  1  0.00000000  0.00000000  0.75000000  1.0
  Mg  Mg6  1  0.33333333  0.66666667  0.84567602  1.0
  Mg  Mg7  1  0.33333333  0.66666667  0.65432398  1.0
  Mg  Mg8  1  0.66666667  0.33333333  0.34567602  1.0
  Mg  Mg9  1  0.66666667  0.33333333  0.15432398  1.0
  Mg  Mg10  1  0.00000000  0.00000000  0.50000000  1.0
  Mg  Mg11  1  0.00000000  0.00000000  0.00000000  1.0
  H  H12  1  0.16599650  0.83400350  0.92013112  1.0
  H  H13  1  0.16599650  0.83400350  0.57986888  1.0
  H  H14  1  0.16599650  0.33199299  0.92013112  1.0
  H  H15  1  0.16599650  0.33199299  0.57986888  1.0
  H  H16  1  0.83400350  0.16599650  0.42013112  1.0
  H  H17  1  0.83400350  0.16599650  0.07986888  1.0
  H  H18  1  0.83400350  0.66800701  0.42013112  1.0
  H  H19  1  0.83400350  0.66800701  0.07986888  1.0
  H  H20  1  0.66800701  0.83400350  0.92013112  1.0
  H  H21  1  0.66800701  0.83400350  0.57986888  1.0
  H  H22  1  0.33199299  0.16599650  0.42013112  1.0
  H  H23  1  0.33199299  0.16599650  0.07986888  1.0
  H  H24  1  0.52382804  0.47617196  0.25000000  1.0
  H  H25  1  0.52382804  0.04765608  0.25000000  1.0
  H  H26  1  0.47617196  0.52382804  0.75000000  1.0
  H  H27  1  0.47617196  0.95234392  0.75000000  1.0
  H  H28  1  0.95234392  0.47617196  0.25000000  1.0
  H  H29  1  0.04765608  0.52382804  0.75000000  1.0
