# generated using pymatgen
data_La2Te4O11
_symmetry_space_group_name_H-M   'P 1'
_cell_length_a   7.01807055
_cell_length_b   7.01807055
_cell_length_c   16.88942775
_cell_angle_alpha   76.98343653
_cell_angle_beta   103.01656347
_cell_angle_gamma   134.53817666
_symmetry_Int_Tables_number   1
_chemical_formula_structural   La2Te4O11
_chemical_formula_sum   'La4 Te8 O22'
_cell_volume   574.98492611
_cell_formula_units_Z   2
loop_
 _symmetry_equiv_pos_site_id
 _symmetry_equiv_pos_as_xyz
  1  'x, y, z'
loop_
 _atom_site_type_symbol
 _atom_site_label
 _atom_site_symmetry_multiplicity
 _atom_site_fract_x
 _atom_site_fract_y
 _atom_site_fract_z
 _atom_site_occupancy
  La  La0  1  1.63154082  -0.13159736  0.46068169  1.0
  La  La1  1  1.13159736  0.36845918  0.96068169  1.0
  La  La2  1  0.86840264  -0.36845918  0.03931831  1.0
  La  La3  1  0.36845918  0.13159736  0.53931831  1.0
  Te  Te4  1  0.65857157  -0.10487286  0.79986502  1.0
  Te  Te5  1  1.10487286  -0.65857157  0.29986502  1.0
  Te  Te6  1  0.89512714  0.65857157  0.70013498  1.0
  Te  Te7  1  1.34142843  0.10487286  0.20013498  1.0
  Te  Te8  1  0.34991142  0.08228201  0.87397179  1.0
  Te  Te9  1  0.91771799  0.65008858  0.37397179  1.0
  Te  Te10  1  1.08228201  -0.65008858  0.62602821  1.0
  Te  Te11  1  1.65008858  -0.08228201  0.12602821  1.0
  O  O12  1  1.89957571  -0.05736763  0.89741866  1.0
  O  O13  1  1.05736763  -0.89957571  0.39741866  1.0
  O  O14  1  0.94263237  0.89957571  0.60258134  1.0
  O  O15  1  0.10042429  0.05736763  0.10258134  1.0
  O  O16  1  1.75141298  0.16945942  0.55308247  1.0
  O  O17  1  0.83054058  -0.75141298  0.05308247  1.0
  O  O18  1  1.16945942  0.75141298  0.94691753  1.0
  O  O19  1  0.24858702  -0.16945942  0.44691753  1.0
  O  O20  1  0.68629597  0.17381321  0.87067606  1.0
  O  O21  1  0.82618679  -0.68629597  0.37067606  1.0
  O  O22  1  1.17381321  0.68629597  0.62932394  1.0
  O  O23  1  1.31370403  -0.17381321  0.12932394  1.0
  O  O24  1  0.60285194  0.29916652  0.67081460  1.0
  O  O25  1  0.70083348  -0.60285194  0.17081460  1.0
  O  O26  1  1.29916652  0.60285194  0.82918540  1.0
  O  O27  1  1.39714806  -0.29916652  0.32918540  1.0
  O  O28  1  0.45837660  0.31679868  0.95188758  1.0
  O  O29  1  0.68320132  0.54162340  0.45188758  1.0
  O  O30  1  1.31679868  -0.54162340  0.54811242  1.0
  O  O31  1  1.54162340  -0.31679868  0.04811242  1.0
  O  O32  1  0.63059532  0.63059532  0.75000000  1.0
  O  O33  1  0.36940468  0.36940468  0.25000000  1.0
