# generated using pymatgen
data_Sr6Mg7H26
_symmetry_space_group_name_H-M   'P 1'
_cell_length_a   9.52273374
_cell_length_b   9.52273374
_cell_length_c   11.58235990
_cell_angle_alpha   53.71067212
_cell_angle_beta   126.28932788
_cell_angle_gamma   145.56345382
_symmetry_Int_Tables_number   1
_chemical_formula_structural   Sr6Mg7H26
_chemical_formula_sum   'Sr6 Mg7 H26'
_cell_volume   466.18431576
_cell_formula_units_Z   1
loop_
 _symmetry_equiv_pos_site_id
 _symmetry_equiv_pos_as_xyz
  1  'x, y, z'
loop_
 _atom_site_type_symbol
 _atom_site_label
 _atom_site_symmetry_multiplicity
 _atom_site_fract_x
 _atom_site_fract_y
 _atom_site_fract_z
 _atom_site_occupancy
  Sr  Sr0  1  0.85092736  -0.85092736  0.34541738  1.0
  Sr  Sr1  1  0.14907264  -0.14907264  0.65458262  1.0
  Sr  Sr2  1  0.65979223  0.34020777  0.40307949  1.0
  Sr  Sr3  1  1.34020777  -0.34020777  0.59692051  1.0
  Sr  Sr4  1  0.64429518  0.35570482  0.90679740  1.0
  Sr  Sr5  1  1.35570482  -0.35570482  0.09320260  1.0
  Mg  Mg6  1  0.98353443  -0.98353443  0.71999335  1.0
  Mg  Mg7  1  0.01646557  -0.01646557  0.28000665  1.0
  Mg  Mg8  1  0.77844653  0.22155347  0.79046580  1.0
  Mg  Mg9  1  1.22155347  -0.22155347  0.20953420  1.0
  Mg  Mg10  1  0.74374433  0.74374433  -0.00000000  1.0
  Mg  Mg11  1  0.25625567  0.25625567  0.00000000  1.0
  Mg  Mg12  1  0.50000000  0.50000000  0.50000000  1.0
  H  H13  1  1.71155944  -0.26285579  0.82021338  1.0
  H  H14  1  1.26285579  -0.71155944  0.82021338  1.0
  H  H15  1  0.73714421  0.71155944  0.17978662  1.0
  H  H16  1  0.28844056  0.26285579  0.17978662  1.0
  H  H17  1  1.72433126  -0.21736068  0.58074540  1.0
  H  H18  1  1.21736068  -0.72433126  0.58074540  1.0
  H  H19  1  0.78263932  0.72433126  0.41925460  1.0
  H  H20  1  0.27566874  0.21736068  0.41925460  1.0
  H  H21  1  0.51267639  0.00379421  0.88100359  1.0
  H  H22  1  0.99620579  0.48732361  0.88100359  1.0
  H  H23  1  1.00379421  -0.48732361  0.11899641  1.0
  H  H24  1  1.48732361  -0.00379421  0.11899641  1.0
  H  H25  1  0.51698295  0.01456131  0.64570453  1.0
  H  H26  1  0.98543869  0.48301705  0.64570453  1.0
  H  H27  1  1.01456131  -0.48301705  0.35429547  1.0
  H  H28  1  1.48301705  -0.01456131  0.35429547  1.0
  H  H29  1  0.91214154  0.08785846  0.92361376  1.0
  H  H30  1  1.08785846  -0.08785846  0.07638624  1.0
  H  H31  1  0.88576440  -0.88576440  0.17275971  1.0
  H  H32  1  0.11423560  -0.11423560  0.82724029  1.0
  H  H33  1  0.84918595  -0.84918595  0.57628839  1.0
  H  H34  1  0.15081405  -0.15081405  0.42371161  1.0
  H  H35  1  0.62858173  0.37141827  0.67075733  1.0
  H  H36  1  1.37141827  -0.37141827  0.32924267  1.0
  H  H37  1  0.40647112  -0.40647112  0.92348195  1.0
  H  H38  1  0.59352888  -0.59352888  0.07651805  1.0
