# generated using pymatgen
data_Na5SnP3
_symmetry_space_group_name_H-M   'P 1'
_cell_length_a   8.36250471
_cell_length_b   7.49172659
_cell_length_c   15.74863580
_cell_angle_alpha   90.00000000
_cell_angle_beta   121.69342555
_cell_angle_gamma   90.00000000
_symmetry_Int_Tables_number   1
_chemical_formula_structural   Na5SnP3
_chemical_formula_sum   'Na20 Sn4 P12'
_cell_volume   839.50862105
_cell_formula_units_Z   4
loop_
 _symmetry_equiv_pos_site_id
 _symmetry_equiv_pos_as_xyz
  1  'x, y, z'
loop_
 _atom_site_type_symbol
 _atom_site_label
 _atom_site_symmetry_multiplicity
 _atom_site_fract_x
 _atom_site_fract_y
 _atom_site_fract_z
 _atom_site_occupancy
  Na  Na0  1  0.59306218  0.49591650  0.75977064  1.0
  Na  Na1  1  0.59306218  0.00408350  0.25977064  1.0
  Na  Na2  1  0.40693782  0.99591650  0.74022936  1.0
  Na  Na3  1  0.40693782  0.50408350  0.24022936  1.0
  Na  Na4  1  0.08864696  0.54035937  0.91105349  1.0
  Na  Na5  1  0.08864696  0.95964063  0.41105349  1.0
  Na  Na6  1  0.91135304  0.04035937  0.58894651  1.0
  Na  Na7  1  0.91135304  0.45964063  0.08894651  1.0
  Na  Na8  1  0.50439229  0.16070661  0.58215089  1.0
  Na  Na9  1  0.50439229  0.33929339  0.08215089  1.0
  Na  Na10  1  0.49560771  0.66070661  0.91784911  1.0
  Na  Na11  1  0.49560771  0.83929339  0.41784911  1.0
  Na  Na12  1  0.24749265  0.02229504  0.91212684  1.0
  Na  Na13  1  0.24749265  0.47770496  0.41212684  1.0
  Na  Na14  1  0.75250735  0.52229504  0.58787316  1.0
  Na  Na15  1  0.75250735  0.97770496  0.08787316  1.0
  Na  Na16  1  0.18496055  0.35729950  0.75750201  1.0
  Na  Na17  1  0.18496055  0.14270050  0.25750201  1.0
  Na  Na18  1  0.81503945  0.85729950  0.74249799  1.0
  Na  Na19  1  0.81503945  0.64270050  0.24249799  1.0
  Sn  Sn20  1  0.83869912  0.14728396  0.91063380  1.0
  Sn  Sn21  1  0.83869912  0.35271604  0.41063380  1.0
  Sn  Sn22  1  0.16130088  0.64728396  0.58936620  1.0
  Sn  Sn23  1  0.16130088  0.85271604  0.08936620  1.0
  P  P24  1  0.56160271  0.26746919  0.91764073  1.0
  P  P25  1  0.56160271  0.23253081  0.41764073  1.0
  P  P26  1  0.43839729  0.76746919  0.58235927  1.0
  P  P27  1  0.43839729  0.73253081  0.08235927  1.0
  P  P28  1  0.16533389  0.29788565  0.57086562  1.0
  P  P29  1  0.16533389  0.20211435  0.07086562  1.0
  P  P30  1  0.83466611  0.79788565  0.92913438  1.0
  P  P31  1  0.83466611  0.70211435  0.42913438  1.0
  P  P32  1  0.86152956  0.24508059  0.76339354  1.0
  P  P33  1  0.86152956  0.25491941  0.26339354  1.0
  P  P34  1  0.13847044  0.74508059  0.73660646  1.0
  P  P35  1  0.13847044  0.75491941  0.23660646  1.0
