# generated using pymatgen
data_Rb2CuBr3
_symmetry_space_group_name_H-M   'P 1'
_cell_length_a   13.37708514
_cell_length_b   4.49205225
_cell_length_c   13.78684505
_cell_angle_alpha   90.00000000
_cell_angle_beta   90.00000000
_cell_angle_gamma   90.00000000
_symmetry_Int_Tables_number   1
_chemical_formula_structural   Rb2CuBr3
_chemical_formula_sum   'Rb8 Cu4 Br12'
_cell_volume   828.45931432
_cell_formula_units_Z   4
loop_
 _symmetry_equiv_pos_site_id
 _symmetry_equiv_pos_as_xyz
  1  'x, y, z'
loop_
 _atom_site_type_symbol
 _atom_site_label
 _atom_site_symmetry_multiplicity
 _atom_site_fract_x
 _atom_site_fract_y
 _atom_site_fract_z
 _atom_site_occupancy
  Rb  Rb0  1  0.98846148  0.75000000  0.67660276  1.0
  Rb  Rb1  1  0.48846148  0.75000000  0.82339724  1.0
  Rb  Rb2  1  0.01153852  0.25000000  0.32339724  1.0
  Rb  Rb3  1  0.51153852  0.25000000  0.17660276  1.0
  Rb  Rb4  1  0.82424911  0.75000000  0.02359971  1.0
  Rb  Rb5  1  0.32424911  0.75000000  0.47640029  1.0
  Rb  Rb6  1  0.17575089  0.25000000  0.97640029  1.0
  Rb  Rb7  1  0.67575089  0.25000000  0.52359971  1.0
  Cu  Cu8  1  0.74258838  0.75000000  0.31091133  1.0
  Cu  Cu9  1  0.24258838  0.75000000  0.18908867  1.0
  Cu  Cu10  1  0.25741162  0.25000000  0.68908867  1.0
  Cu  Cu11  1  0.75741162  0.25000000  0.81091133  1.0
  Br  Br12  1  0.86256813  0.75000000  0.44685710  1.0
  Br  Br13  1  0.36256813  0.75000000  0.05314290  1.0
  Br  Br14  1  0.13743187  0.25000000  0.55314290  1.0
  Br  Br15  1  0.63743187  0.25000000  0.94685710  1.0
  Br  Br16  1  0.72896955  0.75000000  0.72129542  1.0
  Br  Br17  1  0.22896955  0.75000000  0.77870458  1.0
  Br  Br18  1  0.27103045  0.25000000  0.27870458  1.0
  Br  Br19  1  0.77103045  0.25000000  0.22129542  1.0
  Br  Br20  1  0.56515109  0.75000000  0.36180389  1.0
  Br  Br21  1  0.06515109  0.75000000  0.13819611  1.0
  Br  Br22  1  0.43484891  0.25000000  0.63819611  1.0
  Br  Br23  1  0.93484891  0.25000000  0.86180389  1.0
