# generated using pymatgen
data_Cr2NiS4
_symmetry_space_group_name_H-M   'P 1'
_cell_length_a   6.34815808
_cell_length_b   6.34815808
_cell_length_c   5.91769771
_cell_angle_alpha   63.77763339
_cell_angle_beta   116.22236661
_cell_angle_gamma   148.77476383
_symmetry_Int_Tables_number   1
_chemical_formula_structural   Cr2NiS4
_chemical_formula_sum   'Cr2 Ni1 S4'
_cell_volume   109.84928465
_cell_formula_units_Z   1
loop_
 _symmetry_equiv_pos_site_id
 _symmetry_equiv_pos_as_xyz
  1  'x, y, z'
loop_
 _atom_site_type_symbol
 _atom_site_label
 _atom_site_symmetry_multiplicity
 _atom_site_fract_x
 _atom_site_fract_y
 _atom_site_fract_z
 _atom_site_occupancy
  Cr  Cr0  1  0.73616053  -0.73616053  0.71884500  1.0
  Cr  Cr1  1  1.26383947  -0.26383947  0.28115500  1.0
  Ni  Ni2  1  0.00000000  0.00000000  0.00000000  1.0
  S  S3  1  0.63317976  -0.63317976  0.97659024  1.0
  S  S4  1  1.36682024  -0.36682024  0.02340976  1.0
  S  S5  1  0.87968213  -0.87968213  0.55199148  1.0
  S  S6  1  1.12031787  -0.12031787  0.44800852  1.0
