# generated using pymatgen
data_Al(ClO2)3
_symmetry_space_group_name_H-M   'P 1'
_cell_length_a   7.38204720
_cell_length_b   7.38204720
_cell_length_c   7.38204720
_cell_angle_alpha   99.18453479
_cell_angle_beta   99.18453479
_cell_angle_gamma   99.18453479
_symmetry_Int_Tables_number   1
_chemical_formula_structural   Al(ClO2)3
_chemical_formula_sum   'Al2 Cl6 O12'
_cell_volume   384.89702334
_cell_formula_units_Z   2
loop_
 _symmetry_equiv_pos_site_id
 _symmetry_equiv_pos_as_xyz
  1  'x, y, z'
loop_
 _atom_site_type_symbol
 _atom_site_label
 _atom_site_symmetry_multiplicity
 _atom_site_fract_x
 _atom_site_fract_y
 _atom_site_fract_z
 _atom_site_occupancy
  Al  Al0  1  0.50000000  0.50000000  0.50000000  1.0
  Al  Al1  1  0.00000000  0.00000000  0.00000000  1.0
  Cl  Cl2  1  1.05743284  0.25000000  0.44256716  1.0
  Cl  Cl3  1  0.55743284  0.94256716  -0.25000000  1.0
  Cl  Cl4  1  0.75000000  0.55743284  -0.05743284  1.0
  Cl  Cl5  1  1.25000000  0.44256716  0.05743284  1.0
  Cl  Cl6  1  0.94256716  0.75000000  -0.44256716  1.0
  Cl  Cl7  1  1.44256716  0.05743284  0.25000000  1.0
  O  O8  1  1.25601421  -0.46340005  0.39705396  1.0
  O  O9  1  0.75601421  0.89705396  0.03659995  1.0
  O  O10  1  1.10294604  -0.03659995  0.24398579  1.0
  O  O11  1  0.60294604  0.74398579  0.46340005  1.0
  O  O12  1  1.46340005  0.60294604  -0.25601421  1.0
  O  O13  1  0.96340005  0.24398579  0.10294604  1.0
  O  O14  1  0.74398579  1.46340005  -0.39705396  1.0
  O  O15  1  1.24398579  0.10294604  -0.03659995  1.0
  O  O16  1  1.39705396  0.25601421  -0.46340005  1.0
  O  O17  1  0.89705396  1.03659995  -0.24398579  1.0
  O  O18  1  1.03659995  0.75601421  -0.10294604  1.0
  O  O19  1  0.53659995  0.39705396  0.25601421  1.0
