# generated using pymatgen
data_Tb(ClO)3
_symmetry_space_group_name_H-M   'P 1'
_cell_length_a   11.82270055
_cell_length_b   8.24073202
_cell_length_c   7.19692756
_cell_angle_alpha   90.00000000
_cell_angle_beta   90.00000000
_cell_angle_gamma   90.00000000
_symmetry_Int_Tables_number   1
_chemical_formula_structural   Tb(ClO)3
_chemical_formula_sum   'Tb4 Cl12 O12'
_cell_volume   701.18014946
_cell_formula_units_Z   4
loop_
 _symmetry_equiv_pos_site_id
 _symmetry_equiv_pos_as_xyz
  1  'x, y, z'
loop_
 _atom_site_type_symbol
 _atom_site_label
 _atom_site_symmetry_multiplicity
 _atom_site_fract_x
 _atom_site_fract_y
 _atom_site_fract_z
 _atom_site_occupancy
  Tb  Tb0  1  0.50806266  0.25000000  0.09977171  1.0
  Tb  Tb1  1  0.00806266  0.25000000  0.40022829  1.0
  Tb  Tb2  1  0.49193734  0.75000000  0.90022829  1.0
  Tb  Tb3  1  0.99193734  0.75000000  0.59977171  1.0
  Cl  Cl4  1  0.77001019  0.25000000  0.45864169  1.0
  Cl  Cl5  1  0.27001019  0.25000000  1.04135831  1.0
  Cl  Cl6  1  0.22998981  0.75000000  0.54135831  1.0
  Cl  Cl7  1  0.72998981  0.75000000  -0.04135831  1.0
  Cl  Cl8  1  0.92437004  0.94950984  0.31654513  1.0
  Cl  Cl9  1  0.92437004  0.55049016  0.31654513  1.0
  Cl  Cl10  1  0.42437004  0.94950984  0.18345487  1.0
  Cl  Cl11  1  0.42437004  0.55049016  0.18345487  1.0
  Cl  Cl12  1  0.07562996  0.44950984  0.68345487  1.0
  Cl  Cl13  1  0.07562996  0.05049016  0.68345487  1.0
  Cl  Cl14  1  0.57562996  0.44950984  0.81654513  1.0
  Cl  Cl15  1  0.57562996  0.05049016  0.81654513  1.0
  O  O16  1  1.01917916  0.25000000  0.10672527  1.0
  O  O17  1  0.51917916  0.25000000  0.39327473  1.0
  O  O18  1  -0.01917916  0.75000000  0.89327473  1.0
  O  O19  1  0.48082084  0.75000000  0.60672527  1.0
  O  O20  1  0.65753640  0.38158969  0.22999449  1.0
  O  O21  1  0.65753640  0.11841031  0.22999449  1.0
  O  O22  1  0.15753640  0.38158969  0.27000551  1.0
  O  O23  1  0.15753640  0.11841031  0.27000551  1.0
  O  O24  1  0.34246360  0.88158969  0.77000551  1.0
  O  O25  1  0.34246360  0.61841031  0.77000551  1.0
  O  O26  1  0.84246360  0.88158969  0.72999449  1.0
  O  O27  1  0.84246360  0.61841031  0.72999449  1.0
