# generated using pymatgen
data_PbS
_symmetry_space_group_name_H-M   'P 1'
_cell_length_a   8.04240966
_cell_length_b   8.04240966
_cell_length_c   4.00135226
_cell_angle_alpha   90.00000000
_cell_angle_beta   90.00000000
_cell_angle_gamma   105.57916143
_symmetry_Int_Tables_number   1
_chemical_formula_structural   PbS
_chemical_formula_sum   'Pb4 S4'
_cell_volume   249.30031957
_cell_formula_units_Z   4
loop_
 _symmetry_equiv_pos_site_id
 _symmetry_equiv_pos_as_xyz
  1  'x, y, z'
loop_
 _atom_site_type_symbol
 _atom_site_label
 _atom_site_symmetry_multiplicity
 _atom_site_fract_x
 _atom_site_fract_y
 _atom_site_fract_z
 _atom_site_occupancy
  Pb  Pb0  1  0.70088078  0.75454055  0.00000000  1.0
  Pb  Pb1  1  0.24545945  0.29911922  0.00000000  1.0
  Pb  Pb2  1  0.22439821  0.77560179  0.50000000  1.0
  Pb  Pb3  1  -0.26636184  1.26636184  0.00000000  1.0
  S  S4  1  0.60681147  0.96479629  0.50000000  1.0
  S  S5  1  0.03520371  0.39318853  0.50000000  1.0
  S  S6  1  0.35941612  0.64058388  0.00000000  1.0
  S  S7  1  -0.43080791  1.43080791  0.50000000  1.0
