# generated using pymatgen
data_Yb2S3
_symmetry_space_group_name_H-M   'P 1'
_cell_length_a   10.90919232
_cell_length_b   10.90919232
_cell_length_c   10.90919232
_cell_angle_alpha   109.47122063
_cell_angle_beta   109.47122063
_cell_angle_gamma   109.47122063
_symmetry_Int_Tables_number   1
_chemical_formula_structural   Yb2S3
_chemical_formula_sum   'Yb16 S24'
_cell_volume   999.43810577
_cell_formula_units_Z   8
loop_
 _symmetry_equiv_pos_site_id
 _symmetry_equiv_pos_as_xyz
  1  'x, y, z'
loop_
 _atom_site_type_symbol
 _atom_site_label
 _atom_site_symmetry_multiplicity
 _atom_site_fract_x
 _atom_site_fract_y
 _atom_site_fract_z
 _atom_site_occupancy
  Yb  Yb0  1  1.70337560  1.45337560  1.25000000  1.0
  Yb  Yb1  1  1.20337560  0.95337560  1.25000000  1.0
  Yb  Yb2  1  0.75000000  0.79662440  0.04662440  1.0
  Yb  Yb3  1  0.25000000  1.20337560  0.95337560  1.0
  Yb  Yb4  1  0.25000000  0.70337560  0.45337560  1.0
  Yb  Yb5  1  0.75000000  1.29662440  0.54662440  1.0
  Yb  Yb6  1  1.45337560  1.25000000  1.70337560  1.0
  Yb  Yb7  1  0.95337560  0.25000000  1.20337560  1.0
  Yb  Yb8  1  0.04662440  0.75000000  0.79662440  1.0
  Yb  Yb9  1  0.54662440  0.75000000  0.29662440  1.0
  Yb  Yb10  1  0.29662440  0.54662440  0.75000000  1.0
  Yb  Yb11  1  0.79662440  1.04662440  0.75000000  1.0
  Yb  Yb12  1  1.00000000  0.50000000  1.00000000  1.0
  Yb  Yb13  1  0.50000000  0.50000000  0.50000000  1.0
  Yb  Yb14  1  1.00000000  1.00000000  1.50000000  1.0
  Yb  Yb15  1  1.50000000  1.00000000  1.00000000  1.0
  S  S16  1  0.55418731  0.54373947  0.77686681  1.0
  S  S17  1  1.05418731  0.27732050  1.01044784  1.0
  S  S18  1  0.26687266  0.77732050  0.72313319  1.0
  S  S19  1  0.76687266  1.04373947  0.48955216  1.0
  S  S20  1  0.51044784  1.23312734  0.95626053  1.0
  S  S21  1  1.01044784  1.05418731  0.27732050  1.0
  S  S22  1  0.77686681  0.55418731  0.54373947  1.0
  S  S23  1  1.27686681  0.73312734  1.22267950  1.0
  S  S24  1  0.77732050  0.72313319  0.26687266  1.0
  S  S25  1  1.27732050  1.01044784  1.05418731  1.0
  S  S26  1  0.95626053  0.51044784  1.23312734  1.0
  S  S27  1  1.45626053  1.22313319  1.44581269  1.0
  S  S28  1  1.73312734  1.22267950  1.27686681  1.0
  S  S29  1  1.23312734  0.95626053  1.51044784  1.0
  S  S30  1  1.44581269  1.45626053  1.22313319  1.0
  S  S31  1  0.94581269  1.72267950  0.98955216  1.0
  S  S32  1  1.22313319  1.44581269  1.45626053  1.0
  S  S33  1  0.72313319  1.26687266  0.77732050  1.0
  S  S34  1  1.48955216  0.76687266  1.04373947  1.0
  S  S35  1  0.98955216  0.94581269  1.72267950  1.0
  S  S36  1  1.04373947  1.48955216  0.76687266  1.0
  S  S37  1  0.54373947  0.77686681  0.55418731  1.0
  S  S38  1  1.22267950  1.27686681  1.73312734  1.0
  S  S39  1  0.72267950  0.98955216  0.94581269  1.0
