# generated using pymatgen
data_KMnP(OF)3
_symmetry_space_group_name_H-M   'P 1'
_cell_length_a   5.49536875
_cell_length_b   12.94462093
_cell_length_c   7.83495169
_cell_angle_alpha   90.00000000
_cell_angle_beta   113.87888439
_cell_angle_gamma   90.00000000
_symmetry_Int_Tables_number   1
_chemical_formula_structural   KMnP(OF)3
_chemical_formula_sum   'K4 Mn4 P4 O12 F12'
_cell_volume   509.63616419
_cell_formula_units_Z   4
loop_
 _symmetry_equiv_pos_site_id
 _symmetry_equiv_pos_as_xyz
  1  'x, y, z'
loop_
 _atom_site_type_symbol
 _atom_site_label
 _atom_site_symmetry_multiplicity
 _atom_site_fract_x
 _atom_site_fract_y
 _atom_site_fract_z
 _atom_site_occupancy
  K  K0  1  0.34434968  0.20076201  0.30433747  1.0
  K  K1  1  0.34434968  0.29923799  0.80433747  1.0
  K  K2  1  0.65565032  0.70076201  0.19566253  1.0
  K  K3  1  0.65565032  0.79923799  0.69566253  1.0
  Mn  Mn4  1  0.00000000  0.50000000  0.00000000  1.0
  Mn  Mn5  1  -0.00000000  0.00000000  0.50000000  1.0
  Mn  Mn6  1  0.50000000  0.50000000  0.50000000  1.0
  Mn  Mn7  1  0.50000000  0.00000000  0.00000000  1.0
  P  P8  1  0.87478284  0.39446236  0.31502617  1.0
  P  P9  1  0.87478284  0.10553764  0.81502617  1.0
  P  P10  1  0.12521716  0.89446236  0.18497383  1.0
  P  P11  1  0.12521716  0.60553764  0.68497383  1.0
  O  O12  1  0.83290017  0.88347104  0.05642915  1.0
  O  O13  1  0.83290017  0.61652896  0.55642915  1.0
  O  O14  1  0.16709983  0.38347104  0.44357085  1.0
  O  O15  1  0.16709983  0.11652896  0.94357085  1.0
  O  O16  1  0.80899438  0.47517432  0.15799484  1.0
  O  O17  1  0.80899438  0.02482568  0.65799484  1.0
  O  O18  1  0.19100562  0.97517432  0.34200516  1.0
  O  O19  1  0.19100562  0.52482568  0.84200516  1.0
  O  O20  1  0.68662694  0.39939720  0.41586375  1.0
  O  O21  1  0.68662694  0.10060280  0.91586375  1.0
  O  O22  1  0.31337306  0.89939720  0.08413625  1.0
  O  O23  1  0.31337306  0.60060280  0.58413625  1.0
  F  F24  1  0.86469062  0.86822123  0.46153907  1.0
  F  F25  1  0.86469062  0.63177877  0.96153907  1.0
  F  F26  1  0.13530938  0.36822123  0.03846093  1.0
  F  F27  1  0.13530938  0.13177877  0.53846093  1.0
  F  F28  1  0.78841889  0.28516886  0.20698645  1.0
  F  F29  1  0.78841889  0.21483114  0.70698645  1.0
  F  F30  1  0.21158111  0.78516886  0.29301355  1.0
  F  F31  1  0.21158111  0.71483114  0.79301355  1.0
  F  F32  1  0.66188612  0.05399742  0.24238474  1.0
  F  F33  1  0.66188612  0.44600258  0.74238474  1.0
  F  F34  1  0.33811388  0.55399742  0.25761526  1.0
  F  F35  1  0.33811388  0.94600258  0.75761526  1.0
