# generated using pymatgen
data_CsPH4(NO)2
_symmetry_space_group_name_H-M   'P 1'
_cell_length_a   5.67512012
_cell_length_b   5.67512012
_cell_length_c   15.88765473
_cell_angle_alpha   90.00000000
_cell_angle_beta   90.00000000
_cell_angle_gamma   90.00000000
_symmetry_Int_Tables_number   1
_chemical_formula_structural   CsPH4(NO)2
_chemical_formula_sum   'Cs4 P4 H16 N8 O8'
_cell_volume   511.69351165
_cell_formula_units_Z   4
loop_
 _symmetry_equiv_pos_site_id
 _symmetry_equiv_pos_as_xyz
  1  'x, y, z'
loop_
 _atom_site_type_symbol
 _atom_site_label
 _atom_site_symmetry_multiplicity
 _atom_site_fract_x
 _atom_site_fract_y
 _atom_site_fract_z
 _atom_site_occupancy
  Cs  Cs0  1  0.36253860  0.63746140  0.25000000  1.0
  Cs  Cs1  1  0.86253860  0.86253860  0.50000000  1.0
  Cs  Cs2  1  0.63746140  0.36253860  0.75000000  1.0
  Cs  Cs3  1  0.13746140  0.13746140  0.00000000  1.0
  P  P4  1  0.90731110  0.09268890  0.25000000  1.0
  P  P5  1  0.40731110  0.40731110  0.50000000  1.0
  P  P6  1  0.09268890  0.90731110  0.75000000  1.0
  P  P7  1  0.59268890  0.59268890  0.00000000  1.0
  H  H8  1  0.28078015  0.72933227  0.86146982  1.0
  H  H9  1  0.78078015  0.77066773  0.88853018  1.0
  H  H10  1  0.27066773  0.71921985  0.63853018  1.0
  H  H11  1  0.77066773  0.78078015  0.11146982  1.0
  H  H12  1  0.71921985  0.27066773  0.36146982  1.0
  H  H13  1  0.21921985  0.22933227  0.38853018  1.0
  H  H14  1  0.72933227  0.28078015  0.13853018  1.0
  H  H15  1  0.22933227  0.21921985  0.61146982  1.0
  H  H16  1  -0.03020299  0.62093246  0.05893928  1.0
  H  H17  1  0.46979701  0.87906754  0.69106072  1.0
  H  H18  1  0.37906754  0.03020299  0.44106072  1.0
  H  H19  1  0.87906754  0.46979701  0.30893928  1.0
  H  H20  1  0.03020299  0.37906754  0.55893928  1.0
  H  H21  1  0.53020299  0.12093246  0.19106072  1.0
  H  H22  1  0.62093246  -0.03020299  0.94106072  1.0
  H  H23  1  0.12093246  0.53020299  0.80893928  1.0
  N  N24  1  0.12808364  0.70302789  0.82771108  1.0
  N  N25  1  0.62808364  0.79697211  0.92228892  1.0
  N  N26  1  0.29697211  0.87191636  0.67228892  1.0
  N  N27  1  0.79697211  0.62808364  0.07771108  1.0
  N  N28  1  0.87191636  0.29697211  0.32771108  1.0
  N  N29  1  0.37191636  0.20302789  0.42228892  1.0
  N  N30  1  0.70302789  0.12808364  0.17228892  1.0
  N  N31  1  0.20302789  0.37191636  0.57771108  1.0
  O  O32  1  0.35496682  0.63936316  0.04131868  1.0
  O  O33  1  0.85496682  0.86063684  0.70868132  1.0
  O  O34  1  0.36063684  0.64503318  0.45868132  1.0
  O  O35  1  0.86063684  0.85496682  0.29131868  1.0
  O  O36  1  0.64503318  0.36063684  0.54131868  1.0
  O  O37  1  0.14503318  0.13936316  0.20868132  1.0
  O  O38  1  0.63936316  0.35496682  0.95868132  1.0
  O  O39  1  0.13936316  0.14503318  0.79131868  1.0
