# generated using pymatgen
data_K3Ge4Au
_symmetry_space_group_name_H-M   'P 1'
_cell_length_a   6.69705650
_cell_length_b   12.16521293
_cell_length_c   6.17984015
_cell_angle_alpha   90.00000000
_cell_angle_beta   90.00000000
_cell_angle_gamma   90.00000000
_symmetry_Int_Tables_number   1
_chemical_formula_structural   K3Ge4Au
_chemical_formula_sum   'K6 Ge8 Au2'
_cell_volume   503.47848821
_cell_formula_units_Z   2
loop_
 _symmetry_equiv_pos_site_id
 _symmetry_equiv_pos_as_xyz
  1  'x, y, z'
loop_
 _atom_site_type_symbol
 _atom_site_label
 _atom_site_symmetry_multiplicity
 _atom_site_fract_x
 _atom_site_fract_y
 _atom_site_fract_z
 _atom_site_occupancy
  K  K0  1  0.50000000  0.26258696  0.83114102  1.0
  K  K1  1  0.50000000  0.73741304  0.83114102  1.0
  K  K2  1  0.00000000  0.23741304  0.16885898  1.0
  K  K3  1  0.00000000  0.76258696  0.16885898  1.0
  K  K4  1  0.50000000  0.50000000  0.42473913  1.0
  K  K5  1  0.00000000  0.00000000  0.57526087  1.0
  Ge  Ge6  1  0.79308890  0.50000000  0.94334361  1.0
  Ge  Ge7  1  0.20691110  0.50000000  0.94334361  1.0
  Ge  Ge8  1  0.70691110  0.00000000  0.05665639  1.0
  Ge  Ge9  1  0.29308890  0.00000000  0.05665639  1.0
  Ge  Ge10  1  0.50000000  0.88545440  0.32735520  1.0
  Ge  Ge11  1  0.50000000  0.11454560  0.32735520  1.0
  Ge  Ge12  1  0.00000000  0.61454560  0.67264480  1.0
  Ge  Ge13  1  0.00000000  0.38545440  0.67264480  1.0
  Au  Au14  1  0.50000000  0.00000000  0.68977930  1.0
  Au  Au15  1  0.00000000  0.50000000  0.31022070  1.0
