# generated using pymatgen
data_NaSi2Pd3
_symmetry_space_group_name_H-M   'P 1'
_cell_length_a   6.71638233
_cell_length_b   6.71638233
_cell_length_c   6.71638233
_cell_angle_alpha   116.32651933
_cell_angle_beta   85.57762325
_cell_angle_gamma   129.31788055
_symmetry_Int_Tables_number   1
_chemical_formula_structural   NaSi2Pd3
_chemical_formula_sum   'Na2 Si4 Pd6'
_cell_volume   200.79525592
_cell_formula_units_Z   2
loop_
 _symmetry_equiv_pos_site_id
 _symmetry_equiv_pos_as_xyz
  1  'x, y, z'
loop_
 _atom_site_type_symbol
 _atom_site_label
 _atom_site_symmetry_multiplicity
 _atom_site_fract_x
 _atom_site_fract_y
 _atom_site_fract_z
 _atom_site_occupancy
  Na  Na0  1  0.00355320  0.00355320  -0.00000000  1.0
  Na  Na1  1  0.06480052  0.56480052  0.50000000  1.0
  Si  Si2  1  1.25985813  1.44897874  0.81087939  1.0
  Si  Si3  1  1.63809935  1.44897874  1.18912061  1.0
  Si  Si4  1  0.73804383  1.08141988  0.65662395  1.0
  Si  Si5  1  1.42479593  1.08141988  1.34337605  1.0
  Pd  Pd6  1  1.02405621  0.97589077  1.45064787  1.0
  Pd  Pd7  1  0.52524290  0.97589077  0.95183456  1.0
  Pd  Pd8  1  1.02405621  0.57340833  1.04816544  1.0
  Pd  Pd9  1  0.52524290  0.57340833  0.54935213  1.0
  Pd  Pd10  1  0.51962542  1.30135585  0.78173043  1.0
  Pd  Pd11  1  0.51962542  0.73789499  0.21826957  1.0
