# generated using pymatgen
data_YAsO2
_symmetry_space_group_name_H-M   'P 1'
_cell_length_a   7.33127798
_cell_length_b   7.33127798
_cell_length_c   7.33127798
_cell_angle_alpha   127.48609511
_cell_angle_beta   127.48609511
_cell_angle_gamma   77.45902529
_symmetry_Int_Tables_number   1
_chemical_formula_structural   YAsO2
_chemical_formula_sum   'Y4 As4 O8'
_cell_volume   240.64635066
_cell_formula_units_Z   4
loop_
 _symmetry_equiv_pos_site_id
 _symmetry_equiv_pos_as_xyz
  1  'x, y, z'
loop_
 _atom_site_type_symbol
 _atom_site_label
 _atom_site_symmetry_multiplicity
 _atom_site_fract_x
 _atom_site_fract_y
 _atom_site_fract_z
 _atom_site_occupancy
  Y  Y0  1  0.37500000  0.62500000  0.75000000  1.0
  Y  Y1  1  0.87500000  0.62500000  1.25000000  1.0
  Y  Y2  1  0.37500000  1.12500000  0.75000000  1.0
  Y  Y3  1  0.37500000  0.62500000  0.25000000  1.0
  As  As4  1  0.87500000  0.12500000  0.75000000  1.0
  As  As5  1  0.37500000  0.12500000  0.25000000  1.0
  As  As6  1  0.87500000  0.62500000  0.75000000  1.0
  As  As7  1  0.87500000  1.12500000  1.25000000  1.0
  O  O8  1  1.17041018  0.91347982  1.74306167  1.0
  O  O9  1  0.57958186  0.82265149  1.24306167  1.0
  O  O10  1  1.08652018  0.82958186  1.25693037  1.0
  O  O11  1  1.17734851  1.42041018  1.75693037  1.0
  O  O12  1  0.17041814  0.42734851  0.25693833  1.0
  O  O13  1  0.57958982  0.33652018  0.75693833  1.0
  O  O14  1  0.57265149  0.82958982  0.74306963  1.0
  O  O15  1  0.66347982  0.42041814  0.24306963  1.0
