# generated using pymatgen
data_BaReH7
_symmetry_space_group_name_H-M   'P 1'
_cell_length_a   3.67069189
_cell_length_b   10.02710996
_cell_length_c   4.92002597
_cell_angle_alpha   90.00000000
_cell_angle_beta   79.66932058
_cell_angle_gamma   90.00000000
_symmetry_Int_Tables_number   1
_chemical_formula_structural   BaReH7
_chemical_formula_sum   'Ba2 Re2 H14'
_cell_volume   178.15299840
_cell_formula_units_Z   2
loop_
 _symmetry_equiv_pos_site_id
 _symmetry_equiv_pos_as_xyz
  1  'x, y, z'
loop_
 _atom_site_type_symbol
 _atom_site_label
 _atom_site_symmetry_multiplicity
 _atom_site_fract_x
 _atom_site_fract_y
 _atom_site_fract_z
 _atom_site_occupancy
  Ba  Ba0  1  0.00000000  0.00000000  0.00000000  1.0
  Ba  Ba1  1  0.00000000  0.50000000  0.00000000  1.0
  Re  Re2  1  0.57412658  0.75000000  0.53852806  1.0
  Re  Re3  1  0.42587342  0.25000000  0.46147194  1.0
  H  H4  1  0.50812357  0.75000000  0.89078954  1.0
  H  H5  1  0.49187643  0.25000000  0.10921046  1.0
  H  H6  1  0.60298812  0.58520122  0.62652200  1.0
  H  H7  1  0.39701188  0.08520122  0.37347800  1.0
  H  H8  1  0.39701188  0.41479878  0.37347800  1.0
  H  H9  1  0.60298812  0.91479878  0.62652200  1.0
  H  H10  1  0.45936520  0.64854389  0.29065249  1.0
  H  H11  1  0.54063480  0.14854389  0.70934751  1.0
  H  H12  1  0.54063480  0.35145611  0.70934751  1.0
  H  H13  1  0.45936520  0.85145611  0.29065249  1.0
  H  H14  1  0.02768335  0.75000000  0.64667756  1.0
  H  H15  1  0.97231665  0.25000000  0.35332244  1.0
  H  H16  1  0.92322138  0.75000000  0.27035077  1.0
  H  H17  1  0.07677862  0.25000000  0.72964923  1.0
