# generated using pymatgen
data_GdCuTe2
_symmetry_space_group_name_H-M   'P 1'
_cell_length_a   4.25194133
_cell_length_b   4.25194133
_cell_length_c   6.79124553
_cell_angle_alpha   90.00000000
_cell_angle_beta   90.00000000
_cell_angle_gamma   120.00000000
_symmetry_Int_Tables_number   1
_chemical_formula_structural   GdCuTe2
_chemical_formula_sum   'Gd1 Cu1 Te2'
_cell_volume   106.32970028
_cell_formula_units_Z   1
loop_
 _symmetry_equiv_pos_site_id
 _symmetry_equiv_pos_as_xyz
  1  'x, y, z'
loop_
 _atom_site_type_symbol
 _atom_site_label
 _atom_site_symmetry_multiplicity
 _atom_site_fract_x
 _atom_site_fract_y
 _atom_site_fract_z
 _atom_site_occupancy
  Gd  Gd0  1  0.00000000  0.00000000  0.00000000  1.0
  Cu  Cu1  1  0.00000000  0.00000000  0.50000000  1.0
  Te  Te2  1  0.33333333  0.66666667  0.28010981  1.0
  Te  Te3  1  0.66666667  0.33333333  0.71989019  1.0
