# generated using pymatgen
data_K2SnBi
_symmetry_space_group_name_H-M   'P 1'
_cell_length_a   6.85957867
_cell_length_b   13.59208684
_cell_length_c   6.64694596
_cell_angle_alpha   90.00000000
_cell_angle_beta   90.00000000
_cell_angle_gamma   90.00000000
_symmetry_Int_Tables_number   1
_chemical_formula_structural   K2SnBi
_chemical_formula_sum   'K8 Sn4 Bi4'
_cell_volume   619.73457996
_cell_formula_units_Z   4
loop_
 _symmetry_equiv_pos_site_id
 _symmetry_equiv_pos_as_xyz
  1  'x, y, z'
loop_
 _atom_site_type_symbol
 _atom_site_label
 _atom_site_symmetry_multiplicity
 _atom_site_fract_x
 _atom_site_fract_y
 _atom_site_fract_z
 _atom_site_occupancy
  K  K0  1  0.84113993  0.49272330  0.75000000  1.0
  K  K1  1  0.84113993  0.00727670  0.25000000  1.0
  K  K2  1  0.15886007  0.99272330  0.75000000  1.0
  K  K3  1  0.15886007  0.50727670  0.25000000  1.0
  K  K4  1  0.38546539  0.66686265  0.75000000  1.0
  K  K5  1  0.38546539  0.83313735  0.25000000  1.0
  K  K6  1  0.61453461  0.16686265  0.75000000  1.0
  K  K7  1  0.61453461  0.33313735  0.25000000  1.0
  Sn  Sn8  1  0.90489379  0.75000000  0.00000000  1.0
  Sn  Sn9  1  0.90489379  0.75000000  0.50000000  1.0
  Sn  Sn10  1  0.09510621  0.25000000  0.00000000  1.0
  Sn  Sn11  1  0.09510621  0.25000000  0.50000000  1.0
  Bi  Bi12  1  0.65949256  0.89388089  0.75000000  1.0
  Bi  Bi13  1  0.65949256  0.60611911  0.25000000  1.0
  Bi  Bi14  1  0.34050744  0.39388089  0.75000000  1.0
  Bi  Bi15  1  0.34050744  0.10611911  0.25000000  1.0
