# generated using pymatgen
data_MgP2(H4O5)2
_symmetry_space_group_name_H-M   'P 1'
_cell_length_a   5.36060720
_cell_length_b   10.03966009
_cell_length_c   8.64823889
_cell_angle_alpha   90.00000000
_cell_angle_beta   123.56291466
_cell_angle_gamma   90.00000000
_symmetry_Int_Tables_number   1
_chemical_formula_structural   MgP2(H4O5)2
_chemical_formula_sum   'Mg2 P4 H16 O20'
_cell_volume   387.83878945
_cell_formula_units_Z   2
loop_
 _symmetry_equiv_pos_site_id
 _symmetry_equiv_pos_as_xyz
  1  'x, y, z'
loop_
 _atom_site_type_symbol
 _atom_site_label
 _atom_site_symmetry_multiplicity
 _atom_site_fract_x
 _atom_site_fract_y
 _atom_site_fract_z
 _atom_site_occupancy
  Mg  Mg0  1  0.00000000  0.00000000  0.00000000  1.0
  Mg  Mg1  1  0.00000000  0.50000000  0.50000000  1.0
  P  P2  1  0.09515306  0.78458595  0.33932278  1.0
  P  P3  1  0.09515306  0.71541405  0.83932278  1.0
  P  P4  1  0.90484694  0.21541405  0.66067722  1.0
  P  P5  1  0.90484694  0.28458595  0.16067722  1.0
  H  H6  1  0.40483262  0.92450111  0.83596521  1.0
  H  H7  1  0.40483262  0.57549889  0.33596521  1.0
  H  H8  1  0.59516738  0.07549889  0.16403479  1.0
  H  H9  1  0.59516738  0.42450111  0.66403479  1.0
  H  H10  1  0.41709258  0.04833874  0.73205844  1.0
  H  H11  1  0.41709258  0.45166126  0.23205844  1.0
  H  H12  1  0.58290742  0.95166126  0.26794156  1.0
  H  H13  1  0.58290742  0.54833874  0.76794156  1.0
  H  H14  1  0.44795975  0.88902781  0.60048224  1.0
  H  H15  1  0.44795975  0.61097219  0.10048224  1.0
  H  H16  1  0.55204025  0.11097219  0.39951776  1.0
  H  H17  1  0.55204025  0.38902781  0.89951776  1.0
  H  H18  1  0.88133165  0.77853830  0.49167532  1.0
  H  H19  1  0.88133165  0.72146170  0.99167532  1.0
  H  H20  1  0.11866835  0.22146170  0.50832468  1.0
  H  H21  1  0.11866835  0.27853830  0.00832468  1.0
  O  O22  1  0.53075719  0.96572368  0.79567717  1.0
  O  O23  1  0.53075719  0.53427632  0.29567717  1.0
  O  O24  1  0.46924281  0.03427632  0.20432283  1.0
  O  O25  1  0.46924281  0.46572368  0.70432283  1.0
  O  O26  1  0.98969963  0.83430989  0.14504578  1.0
  O  O27  1  0.98969963  0.66569011  0.64504578  1.0
  O  O28  1  0.01030037  0.16569011  0.85495422  1.0
  O  O29  1  0.01030037  0.33430989  0.35495422  1.0
  O  O30  1  0.12759116  0.63306161  0.36300983  1.0
  O  O31  1  0.12759116  0.86693839  0.86300983  1.0
  O  O32  1  0.87240884  0.36693839  0.63699017  1.0
  O  O33  1  0.87240884  0.13306161  0.13699017  1.0
  O  O34  1  0.40485767  0.85583807  0.47820290  1.0
  O  O35  1  0.40485767  0.64416193  0.97820290  1.0
  O  O36  1  0.59514233  0.14416193  0.52179710  1.0
  O  O37  1  0.59514233  0.35583807  0.02179710  1.0
  O  O38  1  0.86016774  0.83403051  0.38614293  1.0
  O  O39  1  0.86016774  0.66596949  0.88614293  1.0
  O  O40  1  0.13983226  0.16596949  0.61385707  1.0
  O  O41  1  0.13983226  0.33403051  0.11385707  1.0
