# generated using pymatgen
data_VPb2O2F5
_symmetry_space_group_name_H-M   'P 1'
_cell_length_a   5.95427762
_cell_length_b   8.37879968
_cell_length_c   7.39765399
_cell_angle_alpha   65.93383110
_cell_angle_beta   70.60424322
_cell_angle_gamma   67.85479923
_symmetry_Int_Tables_number   1
_chemical_formula_structural   VPb2O2F5
_chemical_formula_sum   'V2 Pb4 O4 F10'
_cell_volume   305.10546891
_cell_formula_units_Z   2
loop_
 _symmetry_equiv_pos_site_id
 _symmetry_equiv_pos_as_xyz
  1  'x, y, z'
loop_
 _atom_site_type_symbol
 _atom_site_label
 _atom_site_symmetry_multiplicity
 _atom_site_fract_x
 _atom_site_fract_y
 _atom_site_fract_z
 _atom_site_occupancy
  V  V0  1  -0.29674188  0.90475406  -0.68944926  1.0
  V  V1  1  0.29674188  0.09524594  -0.31055074  1.0
  Pb  Pb2  1  0.38337849  0.61078929  -0.75941420  1.0
  Pb  Pb3  1  -0.38337849  0.38921071  -0.24058580  1.0
  Pb  Pb4  1  -0.07149709  0.76030298  -0.20853549  1.0
  Pb  Pb5  1  0.07149709  0.23969702  -0.79146451  1.0
  O  O6  1  -0.00335154  0.90572718  -0.76068757  1.0
  O  O7  1  0.00335154  0.09427282  -0.23931243  1.0
  O  O8  1  -0.32662667  0.79834235  -0.82272868  1.0
  O  O9  1  0.32662667  0.20165765  -0.17727132  1.0
  F  F10  1  0.26944777  0.59630243  -0.40496461  1.0
  F  F11  1  -0.26944777  0.40369757  -0.59503539  1.0
  F  F12  1  0.22368644  0.50837975  -0.98086095  1.0
  F  F13  1  -0.22368644  0.49162025  -0.01913905  1.0
  F  F14  1  0.57917035  0.14622050  -0.85250133  1.0
  F  F15  1  -0.57917035  0.85377950  -0.14749867  1.0
  F  F16  1  -0.24977123  0.69911977  -0.44946098  1.0
  F  F17  1  0.24977123  0.30088023  -0.55053902  1.0
  F  F18  1  -0.66351568  0.96009460  -0.52955301  1.0
  F  F19  1  0.66351568  0.03990540  -0.47044699  1.0
