# generated using pymatgen
data_V2P2H2O11
_symmetry_space_group_name_H-M   'P 1'
_cell_length_a   7.34694473
_cell_length_b   9.34844644
_cell_length_c   6.25688392
_cell_angle_alpha   90.00000000
_cell_angle_beta   90.00000000
_cell_angle_gamma   90.00000000
_symmetry_Int_Tables_number   1
_chemical_formula_structural   V2P2H2O11
_chemical_formula_sum   'V4 P4 H4 O22'
_cell_volume   429.73855014
_cell_formula_units_Z   2
loop_
 _symmetry_equiv_pos_site_id
 _symmetry_equiv_pos_as_xyz
  1  'x, y, z'
loop_
 _atom_site_type_symbol
 _atom_site_label
 _atom_site_symmetry_multiplicity
 _atom_site_fract_x
 _atom_site_fract_y
 _atom_site_fract_z
 _atom_site_occupancy
  V  V0  1  0.28714045  0.50000000  1.03145733  1.0
  V  V1  1  0.71285955  0.50000000  1.03145733  1.0
  V  V2  1  0.21285955  0.00000000  -0.03145733  1.0
  V  V3  1  0.78714045  0.00000000  -0.03145733  1.0
  P  P4  1  0.50000000  0.76132884  0.77492419  1.0
  P  P5  1  0.50000000  0.23867116  0.77492419  1.0
  P  P6  1  0.00000000  0.73867116  0.22507581  1.0
  P  P7  1  -0.00000000  0.26132884  0.22507581  1.0
  H  H8  1  0.50000000  0.41308694  0.39246040  1.0
  H  H9  1  0.50000000  0.58691306  0.39246040  1.0
  H  H10  1  0.00000000  0.08691306  0.60753960  1.0
  H  H11  1  0.00000000  0.91308694  0.60753960  1.0
  O  O12  1  0.50000000  0.71375073  0.54874585  1.0
  O  O13  1  0.50000000  0.28624927  0.54874585  1.0
  O  O14  1  -0.00000000  0.78624927  0.45125415  1.0
  O  O15  1  -0.00000000  0.21375073  0.45125415  1.0
  O  O16  1  0.32714511  0.85429761  0.82960225  1.0
  O  O17  1  0.67285489  0.85429761  0.82960225  1.0
  O  O18  1  0.32714511  0.14570239  0.82960225  1.0
  O  O19  1  0.67285489  0.14570239  0.82960225  1.0
  O  O20  1  0.17285489  0.64570239  0.17039775  1.0
  O  O21  1  0.82714511  0.64570239  0.17039775  1.0
  O  O22  1  0.17285489  0.35429761  0.17039775  1.0
  O  O23  1  0.82714511  0.35429761  0.17039775  1.0
  O  O24  1  0.50000000  0.63606746  0.94873840  1.0
  O  O25  1  0.50000000  0.36393254  0.94873840  1.0
  O  O26  1  0.00000000  0.86393254  0.05126160  1.0
  O  O27  1  0.00000000  0.13606746  0.05126160  1.0
  O  O28  1  0.19527380  0.50000000  0.80403716  1.0
  O  O29  1  0.80472620  0.50000000  0.80403716  1.0
  O  O30  1  0.30472620  0.00000000  0.19596284  1.0
  O  O31  1  0.69527380  0.00000000  0.19596284  1.0
  O  O32  1  0.50000000  0.50000000  0.29413694  1.0
  O  O33  1  0.00000000  0.00000000  0.70586306  1.0
