# generated using pymatgen
data_In2CuSe4
_symmetry_space_group_name_H-M   'P 1'
_cell_length_a   7.09941516
_cell_length_b   7.09941516
_cell_length_c   7.09941516
_cell_angle_alpha   132.59992826
_cell_angle_beta   132.59992826
_cell_angle_gamma   69.28313991
_symmetry_Int_Tables_number   1
_chemical_formula_structural   In2CuSe4
_chemical_formula_sum   'In2 Cu1 Se4'
_cell_volume   190.24903596
_cell_formula_units_Z   1
loop_
 _symmetry_equiv_pos_site_id
 _symmetry_equiv_pos_as_xyz
  1  'x, y, z'
loop_
 _atom_site_type_symbol
 _atom_site_label
 _atom_site_symmetry_multiplicity
 _atom_site_fract_x
 _atom_site_fract_y
 _atom_site_fract_z
 _atom_site_occupancy
  In  In0  1  0.50000000  0.50000000  1.00000000  1.0
  In  In1  1  0.75000000  0.25000000  0.50000000  1.0
  Cu  Cu2  1  0.00000000  0.00000000  0.00000000  1.0
  Se  Se3  1  1.13011640  1.07779529  1.46608262  1.0
  Se  Se4  1  0.61171267  0.66403378  0.53391738  1.0
  Se  Se5  1  0.33596622  0.86988360  0.94767889  1.0
  Se  Se6  1  0.92220471  0.38828733  1.05232111  1.0
