# generated using pymatgen
data_VAsO5
_symmetry_space_group_name_H-M   'P 1'
_cell_length_a   8.17589440
_cell_length_b   6.41088722
_cell_length_c   7.54098056
_cell_angle_alpha   90.00000000
_cell_angle_beta   90.00000000
_cell_angle_gamma   90.00000000
_symmetry_Int_Tables_number   1
_chemical_formula_structural   VAsO5
_chemical_formula_sum   'V4 As4 O20'
_cell_volume   395.25851222
_cell_formula_units_Z   4
loop_
 _symmetry_equiv_pos_site_id
 _symmetry_equiv_pos_as_xyz
  1  'x, y, z'
loop_
 _atom_site_type_symbol
 _atom_site_label
 _atom_site_symmetry_multiplicity
 _atom_site_fract_x
 _atom_site_fract_y
 _atom_site_fract_z
 _atom_site_occupancy
  V  V0  1  0.17738815  0.75000000  0.22706245  1.0
  V  V1  1  0.67738815  0.75000000  0.27293755  1.0
  V  V2  1  0.82261185  0.25000000  0.77293755  1.0
  V  V3  1  0.32261185  0.25000000  0.72706245  1.0
  As  As4  1  0.37985870  0.75000000  0.60870448  1.0
  As  As5  1  0.87985870  0.75000000  0.89129552  1.0
  As  As6  1  0.62014130  0.25000000  0.39129552  1.0
  As  As7  1  0.12014130  0.25000000  0.10870448  1.0
  O  O8  1  0.37486689  0.96148484  0.75007108  1.0
  O  O9  1  0.37486689  0.53851516  0.75007108  1.0
  O  O10  1  0.87486689  0.96148484  0.74992892  1.0
  O  O11  1  0.87486689  0.53851516  0.74992892  1.0
  O  O12  1  0.62513311  0.46148484  0.24992892  1.0
  O  O13  1  0.62513311  0.03851516  0.24992892  1.0
  O  O14  1  0.12513311  0.46148484  0.25007108  1.0
  O  O15  1  0.12513311  0.03851516  0.25007108  1.0
  O  O16  1  0.35961204  0.75000000  0.15706339  1.0
  O  O17  1  0.85961204  0.75000000  0.34293661  1.0
  O  O18  1  0.64038796  0.25000000  0.84293661  1.0
  O  O19  1  0.14038796  0.25000000  0.65706339  1.0
  O  O20  1  0.20674430  0.75000000  0.47219527  1.0
  O  O21  1  0.70674430  0.75000000  1.02780473  1.0
  O  O22  1  0.79325570  0.25000000  0.52780473  1.0
  O  O23  1  0.29325570  0.25000000  -0.02780473  1.0
  O  O24  1  0.06467400  0.75000000  1.00305380  1.0
  O  O25  1  0.56467400  0.75000000  0.49694620  1.0
  O  O26  1  0.93532600  0.25000000  -0.00305380  1.0
  O  O27  1  0.43532600  0.25000000  0.50305380  1.0
