# generated using pymatgen
data_V2NiSe4
_symmetry_space_group_name_H-M   'P 1'
_cell_length_a   6.69371761
_cell_length_b   6.69371761
_cell_length_c   6.18162827
_cell_angle_alpha   64.08130688
_cell_angle_beta   115.91869312
_cell_angle_gamma   150.67709068
_symmetry_Int_Tables_number   1
_chemical_formula_structural   V2NiSe4
_chemical_formula_sum   'V2 Ni1 Se4'
_cell_volume   121.00869097
_cell_formula_units_Z   1
loop_
 _symmetry_equiv_pos_site_id
 _symmetry_equiv_pos_as_xyz
  1  'x, y, z'
loop_
 _atom_site_type_symbol
 _atom_site_label
 _atom_site_symmetry_multiplicity
 _atom_site_fract_x
 _atom_site_fract_y
 _atom_site_fract_z
 _atom_site_occupancy
  V  V0  1  0.74545556  -0.74545556  0.68633231  1.0
  V  V1  1  1.25454444  -0.25454444  0.31366769  1.0
  Ni  Ni2  1  0.00000000  0.00000000  0.00000000  1.0
  Se  Se3  1  0.63955526  -0.63955526  0.97842282  1.0
  Se  Se4  1  1.36044474  -0.36044474  0.02157718  1.0
  Se  Se5  1  0.89531803  -0.89531803  0.55343303  1.0
  Se  Se6  1  1.10468197  -0.10468197  0.44656697  1.0
