# generated using pymatgen
data_NbGeIr
_symmetry_space_group_name_H-M   'P 1'
_cell_length_a   6.49727794
_cell_length_b   3.91916190
_cell_length_c   7.45864287
_cell_angle_alpha   90.00000000
_cell_angle_beta   90.00000000
_cell_angle_gamma   90.00000000
_symmetry_Int_Tables_number   1
_chemical_formula_structural   NbGeIr
_chemical_formula_sum   'Nb4 Ge4 Ir4'
_cell_volume   189.92601800
_cell_formula_units_Z   4
loop_
 _symmetry_equiv_pos_site_id
 _symmetry_equiv_pos_as_xyz
  1  'x, y, z'
loop_
 _atom_site_type_symbol
 _atom_site_label
 _atom_site_symmetry_multiplicity
 _atom_site_fract_x
 _atom_site_fract_y
 _atom_site_fract_z
 _atom_site_occupancy
  Nb  Nb0  1  0.97364685  0.75000000  0.67926037  1.0
  Nb  Nb1  1  0.47364685  0.75000000  0.82073963  1.0
  Nb  Nb2  1  0.02635315  0.25000000  0.32073963  1.0
  Nb  Nb3  1  0.52635315  0.25000000  0.17926037  1.0
  Ge  Ge4  1  0.74149608  0.75000000  0.37701117  1.0
  Ge  Ge5  1  0.24149608  0.75000000  0.12298883  1.0
  Ge  Ge6  1  0.25850392  0.25000000  0.62298883  1.0
  Ge  Ge7  1  0.75850392  0.25000000  0.87701117  1.0
  Ir  Ir8  1  0.85628366  0.75000000  0.06155579  1.0
  Ir  Ir9  1  0.35628366  0.75000000  0.43844421  1.0
  Ir  Ir10  1  0.14371634  0.25000000  0.93844421  1.0
  Ir  Ir11  1  0.64371634  0.25000000  0.56155579  1.0
