# generated using pymatgen
data_AlV4C3
_symmetry_space_group_name_H-M   'P 1'
_cell_length_a   2.91760868
_cell_length_b   2.91760868
_cell_length_c   22.77122418
_cell_angle_alpha   90.00000000
_cell_angle_beta   90.00000000
_cell_angle_gamma   120.00000000
_symmetry_Int_Tables_number   1
_chemical_formula_structural   AlV4C3
_chemical_formula_sum   'Al2 V8 C6'
_cell_volume   167.86922831
_cell_formula_units_Z   2
loop_
 _symmetry_equiv_pos_site_id
 _symmetry_equiv_pos_as_xyz
  1  'x, y, z'
loop_
 _atom_site_type_symbol
 _atom_site_label
 _atom_site_symmetry_multiplicity
 _atom_site_fract_x
 _atom_site_fract_y
 _atom_site_fract_z
 _atom_site_occupancy
  Al  Al0  1  0.33333333  0.66666667  0.25000000  1.0
  Al  Al1  1  0.66666667  0.33333333  0.75000000  1.0
  V  V2  1  0.33333333  0.66666667  0.44565326  1.0
  V  V3  1  0.33333333  0.66666667  0.05434674  1.0
  V  V4  1  0.66666667  0.33333333  0.94565326  1.0
  V  V5  1  0.66666667  0.33333333  0.55434674  1.0
  V  V6  1  0.00000000  0.00000000  0.34563289  1.0
  V  V7  1  0.00000000  0.00000000  0.15436711  1.0
  V  V8  1  0.00000000  0.00000000  0.84563289  1.0
  V  V9  1  0.00000000  0.00000000  0.65436711  1.0
  C  C10  1  0.33333333  0.66666667  0.89236436  1.0
  C  C11  1  0.33333333  0.66666667  0.60763564  1.0
  C  C12  1  0.66666667  0.33333333  0.39236436  1.0
  C  C13  1  0.66666667  0.33333333  0.10763564  1.0
  C  C14  1  0.00000000  0.00000000  0.50000000  1.0
  C  C15  1  0.00000000  0.00000000  0.00000000  1.0
