# generated using pymatgen
data_LaNb8O14
_symmetry_space_group_name_H-M   'P 1'
_cell_length_a   9.21544984
_cell_length_b   10.35871799
_cell_length_c   6.00431884
_cell_angle_alpha   90.00000000
_cell_angle_beta   90.00000000
_cell_angle_gamma   90.00000000
_symmetry_Int_Tables_number   1
_chemical_formula_structural   LaNb8O14
_chemical_formula_sum   'La2 Nb16 O28'
_cell_volume   573.17375422
_cell_formula_units_Z   2
loop_
 _symmetry_equiv_pos_site_id
 _symmetry_equiv_pos_as_xyz
  1  'x, y, z'
loop_
 _atom_site_type_symbol
 _atom_site_label
 _atom_site_symmetry_multiplicity
 _atom_site_fract_x
 _atom_site_fract_y
 _atom_site_fract_z
 _atom_site_occupancy
  La  La0  1  0.50000000  0.50000000  0.50000000  1.0
  La  La1  1  0.00000000  0.00000000  0.50000000  1.0
  Nb  Nb2  1  0.37392820  0.92354410  0.73145467  1.0
  Nb  Nb3  1  0.37392820  0.92354410  0.26854533  1.0
  Nb  Nb4  1  0.87392820  0.57645590  0.73145467  1.0
  Nb  Nb5  1  0.87392820  0.57645590  0.26854533  1.0
  Nb  Nb6  1  0.62607180  0.07645590  0.73145467  1.0
  Nb  Nb7  1  0.62607180  0.07645590  0.26854533  1.0
  Nb  Nb8  1  0.12607180  0.42354410  0.73145467  1.0
  Nb  Nb9  1  0.12607180  0.42354410  0.26854533  1.0
  Nb  Nb10  1  0.11988303  0.66437449  0.50000000  1.0
  Nb  Nb11  1  0.61988303  0.83562551  0.50000000  1.0
  Nb  Nb12  1  0.88011697  0.33562551  0.50000000  1.0
  Nb  Nb13  1  0.38011697  0.16437449  0.50000000  1.0
  Nb  Nb14  1  0.38588264  0.66507010  0.00000000  1.0
  Nb  Nb15  1  0.88588264  0.83492990  0.00000000  1.0
  Nb  Nb16  1  0.61411736  0.33492990  -0.00000000  1.0
  Nb  Nb17  1  0.11411736  0.16507010  0.00000000  1.0
  O  O18  1  0.49639456  0.74689803  0.74441346  1.0
  O  O19  1  0.49639456  0.74689803  0.25558654  1.0
  O  O20  1  0.99639456  0.75310197  0.74441346  1.0
  O  O21  1  0.99639456  0.75310197  0.25558654  1.0
  O  O22  1  0.50360544  0.25310197  0.74441346  1.0
  O  O23  1  0.50360544  0.25310197  0.25558654  1.0
  O  O24  1  0.00360544  0.24689803  0.74441346  1.0
  O  O25  1  0.00360544  0.24689803  0.25558654  1.0
  O  O26  1  0.26629207  0.58344497  0.74021917  1.0
  O  O27  1  0.26629207  0.58344497  0.25978083  1.0
  O  O28  1  0.76629207  0.91655503  0.74021917  1.0
  O  O29  1  0.76629207  0.91655503  0.25978083  1.0
  O  O30  1  0.73370793  0.41655503  0.74021917  1.0
  O  O31  1  0.73370793  0.41655503  0.25978083  1.0
  O  O32  1  0.23370793  0.08344497  0.74021917  1.0
  O  O33  1  0.23370793  0.08344497  0.25978083  1.0
  O  O34  1  0.22892797  0.85341811  0.50000000  1.0
  O  O35  1  0.72892797  0.64658189  0.50000000  1.0
  O  O36  1  0.77107203  0.14658189  0.50000000  1.0
  O  O37  1  0.27107203  0.35341811  0.50000000  1.0
  O  O38  1  0.26564566  0.82007805  -0.00000000  1.0
  O  O39  1  0.76564566  0.67992195  -0.00000000  1.0
  O  O40  1  0.73435434  0.17992195  -0.00000000  1.0
  O  O41  1  0.23435434  0.32007805  0.00000000  1.0
  O  O42  1  0.50000000  0.00000000  0.00000000  1.0
  O  O43  1  0.00000000  0.50000000  0.00000000  1.0
  O  O44  1  0.50000000  0.50000000  0.00000000  1.0
  O  O45  1  0.00000000  0.00000000  0.00000000  1.0
