# generated using pymatgen
data_CrBr2
_symmetry_space_group_name_H-M   'P 1'
_cell_length_a   4.18054446
_cell_length_b   4.18054446
_cell_length_c   7.01443167
_cell_angle_alpha   85.28416563
_cell_angle_beta   94.71583437
_cell_angle_gamma   128.24826826
_symmetry_Int_Tables_number   1
_chemical_formula_structural   CrBr2
_chemical_formula_sum   'Cr1 Br2'
_cell_volume   95.87223012
_cell_formula_units_Z   1
loop_
 _symmetry_equiv_pos_site_id
 _symmetry_equiv_pos_as_xyz
  1  'x, y, z'
loop_
 _atom_site_type_symbol
 _atom_site_label
 _atom_site_symmetry_multiplicity
 _atom_site_fract_x
 _atom_site_fract_y
 _atom_site_fract_z
 _atom_site_occupancy
  Cr  Cr0  1  0.00000000  0.00000000  0.00000000  1.0
  Br  Br1  1  0.35951365  -0.35951365  0.78541756  1.0
  Br  Br2  1  0.64048635  0.35951365  0.21458244  1.0
