# generated using pymatgen
data_HfO3F4
_symmetry_space_group_name_H-M   'P 1'
_cell_length_a   6.85347117
_cell_length_b   10.39998518
_cell_length_c   6.86253830
_cell_angle_alpha   90.00000000
_cell_angle_beta   109.81554449
_cell_angle_gamma   90.00000000
_symmetry_Int_Tables_number   1
_chemical_formula_structural   HfO3F4
_chemical_formula_sum   'Hf4 O12 F16'
_cell_volume   460.17205977
_cell_formula_units_Z   4
loop_
 _symmetry_equiv_pos_site_id
 _symmetry_equiv_pos_as_xyz
  1  'x, y, z'
loop_
 _atom_site_type_symbol
 _atom_site_label
 _atom_site_symmetry_multiplicity
 _atom_site_fract_x
 _atom_site_fract_y
 _atom_site_fract_z
 _atom_site_occupancy
  O  O0  1  0.77432233  0.83519366  0.44362881  1.0
  O  O1  1  0.77432233  0.66480634  0.94362881  1.0
  O  O2  1  0.22567767  0.33519366  0.05637119  1.0
  O  O3  1  0.22567767  0.16480634  0.55637119  1.0
  O  O4  1  0.78286918  0.25434439  0.50187018  1.0
  O  O5  1  0.78286918  0.24565561  1.00187018  1.0
  O  O6  1  0.21713082  0.75434439  -0.00187018  1.0
  O  O7  1  0.21713082  0.74565561  0.49812982  1.0
  O  O8  1  0.24625813  0.15202657  0.24219612  1.0
  O  O9  1  0.24625813  0.34797343  0.74219612  1.0
  O  O10  1  0.75374187  0.65202657  0.25780388  1.0
  O  O11  1  0.75374187  0.84797343  0.75780388  1.0
  F  F12  1  0.99805959  0.90866565  0.10826686  1.0
  F  F13  1  0.99805959  0.59133435  0.60826686  1.0
  F  F14  1  0.00194041  0.40866565  0.39173314  1.0
  F  F15  1  0.00194041  0.09133435  0.89173314  1.0
  F  F16  1  0.44899930  0.39011786  0.48961526  1.0
  F  F17  1  0.44899930  0.10988214  0.98961526  1.0
  F  F18  1  0.55100070  0.89011786  0.01038474  1.0
  F  F19  1  0.55100070  0.60988214  0.51038474  1.0
  F  F20  1  0.57003850  0.41383002  0.16749285  1.0
  F  F21  1  0.57003850  0.08616998  0.66749285  1.0
  F  F22  1  0.42996150  0.91383002  0.33250715  1.0
  F  F23  1  0.42996150  0.58616998  0.83250715  1.0
  F  F24  1  0.84405569  0.10088299  0.24112253  1.0
  F  F25  1  0.84405569  0.39911701  0.74112253  1.0
  F  F26  1  0.15594431  0.60088299  0.25887747  1.0
  F  F27  1  0.15594431  0.89911701  0.75887747  1.0
  Hf  Hf28  1  0.73175334  0.46716480  0.44816444  1.0
  Hf  Hf29  1  0.73175334  0.03283520  0.94816444  1.0
  Hf  Hf30  1  0.26824666  0.96716480  0.05183556  1.0
  Hf  Hf31  1  0.26824666  0.53283520  0.55183556  1.0
