# generated using pymatgen
data_VH4NO3
_symmetry_space_group_name_H-M   'P 1'
_cell_length_a   4.82959495
_cell_length_b   12.04380945
_cell_length_c   5.91854342
_cell_angle_alpha   90.00000000
_cell_angle_beta   90.00000000
_cell_angle_gamma   90.00000000
_symmetry_Int_Tables_number   1
_chemical_formula_structural   VH4NO3
_chemical_formula_sum   'V4 H16 N4 O12'
_cell_volume   344.26226563
_cell_formula_units_Z   4
loop_
 _symmetry_equiv_pos_site_id
 _symmetry_equiv_pos_as_xyz
  1  'x, y, z'
loop_
 _atom_site_type_symbol
 _atom_site_label
 _atom_site_symmetry_multiplicity
 _atom_site_fract_x
 _atom_site_fract_y
 _atom_site_fract_z
 _atom_site_occupancy
  V  V0  1  0.96408258  0.82310614  0.25000000  1.0
  V  V1  1  0.96408258  0.67689386  0.75000000  1.0
  V  V2  1  0.03591742  0.32310614  0.25000000  1.0
  V  V3  1  0.03591742  0.17689386  0.75000000  1.0
  H  H4  1  0.56334627  0.13071677  0.39017790  1.0
  H  H5  1  0.56334627  0.13071677  0.10982210  1.0
  H  H6  1  0.56334627  0.36928323  0.89017790  1.0
  H  H7  1  0.56334627  0.36928323  0.60982210  1.0
  H  H8  1  0.43665373  0.63071677  0.39017790  1.0
  H  H9  1  0.43665373  0.63071677  0.10982210  1.0
  H  H10  1  0.43665373  0.86928323  0.89017790  1.0
  H  H11  1  0.43665373  0.86928323  0.60982210  1.0
  H  H12  1  0.74971054  0.03335368  0.25000000  1.0
  H  H13  1  0.74971054  0.46664632  0.75000000  1.0
  H  H14  1  0.25028946  0.53335368  0.25000000  1.0
  H  H15  1  0.25028946  0.96664632  0.75000000  1.0
  H  H16  1  0.39016150  0.02825163  0.25000000  1.0
  H  H17  1  0.39016150  0.47174837  0.75000000  1.0
  H  H18  1  0.60983850  0.52825163  0.25000000  1.0
  H  H19  1  0.60983850  0.97174837  0.75000000  1.0
  N  N20  1  0.56550022  0.07993451  0.25000000  1.0
  N  N21  1  0.56550022  0.42006549  0.75000000  1.0
  N  N22  1  0.43449978  0.57993451  0.25000000  1.0
  N  N23  1  0.43449978  0.92006549  0.75000000  1.0
  O  O24  1  0.92908180  0.45514408  0.25000000  1.0
  O  O25  1  0.92908180  0.04485592  0.75000000  1.0
  O  O26  1  0.07091820  0.95514408  0.25000000  1.0
  O  O27  1  0.07091820  0.54485592  0.75000000  1.0
  O  O28  1  0.37514954  0.32540243  0.25000000  1.0
  O  O29  1  0.37514954  0.17459757  0.75000000  1.0
  O  O30  1  0.62485046  0.82540243  0.25000000  1.0
  O  O31  1  0.62485046  0.67459757  0.75000000  1.0
  O  O32  1  0.91974850  0.25000000  0.50000000  1.0
  O  O33  1  0.91974850  0.25000000  0.00000000  1.0
  O  O34  1  0.08025150  0.75000000  0.50000000  1.0
  O  O35  1  0.08025150  0.75000000  0.00000000  1.0
