# generated using pymatgen
data_K2Hg3S4
_symmetry_space_group_name_H-M   'P 1'
_cell_length_a   10.80360960
_cell_length_b   6.72629258
_cell_length_c   13.82861472
_cell_angle_alpha   90.00000000
_cell_angle_beta   90.00000000
_cell_angle_gamma   90.00000000
_symmetry_Int_Tables_number   1
_chemical_formula_structural   K2Hg3S4
_chemical_formula_sum   'K8 Hg12 S16'
_cell_volume   1004.90108138
_cell_formula_units_Z   4
loop_
 _symmetry_equiv_pos_site_id
 _symmetry_equiv_pos_as_xyz
  1  'x, y, z'
loop_
 _atom_site_type_symbol
 _atom_site_label
 _atom_site_symmetry_multiplicity
 _atom_site_fract_x
 _atom_site_fract_y
 _atom_site_fract_z
 _atom_site_occupancy
  K  K0  1  0.62022486  0.76498944  0.00171505  1.0
  K  K1  1  0.62022486  0.23501056  0.50171505  1.0
  K  K2  1  0.12022486  0.26498944  0.49828495  1.0
  K  K3  1  0.12022486  0.73501056  0.99828495  1.0
  K  K4  1  0.37977514  0.76498944  0.49828495  1.0
  K  K5  1  0.37977514  0.23501056  0.99828495  1.0
  K  K6  1  0.87977514  0.26498944  0.00171505  1.0
  K  K7  1  0.87977514  0.73501056  0.50171505  1.0
  Hg  Hg8  1  0.00000000  0.90322183  0.25000000  1.0
  Hg  Hg9  1  0.00000000  0.09677817  0.75000000  1.0
  Hg  Hg10  1  0.50000000  0.40322183  0.25000000  1.0
  Hg  Hg11  1  0.50000000  0.59677817  0.75000000  1.0
  Hg  Hg12  1  0.65601214  0.90177277  0.25901181  1.0
  Hg  Hg13  1  0.65601214  0.09822723  0.75901181  1.0
  Hg  Hg14  1  0.15601214  0.40177277  0.24098819  1.0
  Hg  Hg15  1  0.15601214  0.59822723  0.74098819  1.0
  Hg  Hg16  1  0.34398786  0.90177277  0.24098819  1.0
  Hg  Hg17  1  0.34398786  0.09822723  0.74098819  1.0
  Hg  Hg18  1  0.84398786  0.40177277  0.25901181  1.0
  Hg  Hg19  1  0.84398786  0.59822723  0.75901181  1.0
  S  S20  1  0.86606336  0.66172937  0.14214979  1.0
  S  S21  1  0.86606336  0.33827063  0.64214979  1.0
  S  S22  1  0.36606336  0.16172937  0.35785021  1.0
  S  S23  1  0.36606336  0.83827063  0.85785021  1.0
  S  S24  1  0.13393664  0.66172937  0.35785021  1.0
  S  S25  1  0.13393664  0.33827063  0.85785021  1.0
  S  S26  1  0.63393664  0.16172937  0.14214979  1.0
  S  S27  1  0.63393664  0.83827063  0.64214979  1.0
  S  S28  1  0.62794606  0.62844356  0.36801897  1.0
  S  S29  1  0.62794606  0.37155644  0.86801897  1.0
  S  S30  1  0.12794606  0.12844356  0.13198103  1.0
  S  S31  1  0.12794606  0.87155644  0.63198103  1.0
  S  S32  1  0.37205394  0.62844356  0.13198103  1.0
  S  S33  1  0.37205394  0.37155644  0.63198103  1.0
  S  S34  1  0.87205394  0.12844356  0.36801897  1.0
  S  S35  1  0.87205394  0.87155644  0.86801897  1.0
