# generated using pymatgen
data_AgIO3
_symmetry_space_group_name_H-M   'P 1'
_cell_length_a   15.49112216
_cell_length_b   7.11749080
_cell_length_c   5.92450012
_cell_angle_alpha   90.00000000
_cell_angle_beta   90.00000000
_cell_angle_gamma   90.00000000
_symmetry_Int_Tables_number   1
_chemical_formula_structural   AgIO3
_chemical_formula_sum   'Ag8 I8 O24'
_cell_volume   653.22305733
_cell_formula_units_Z   8
loop_
 _symmetry_equiv_pos_site_id
 _symmetry_equiv_pos_as_xyz
  1  'x, y, z'
loop_
 _atom_site_type_symbol
 _atom_site_label
 _atom_site_symmetry_multiplicity
 _atom_site_fract_x
 _atom_site_fract_y
 _atom_site_fract_z
 _atom_site_occupancy
  Ag  Ag0  1  0.20421484  0.86805561  0.16710422  1.0
  Ag  Ag1  1  0.70421484  0.13194439  0.16710422  1.0
  Ag  Ag2  1  0.79578516  0.13194439  0.66710422  1.0
  Ag  Ag3  1  0.29578516  0.86805561  0.66710422  1.0
  Ag  Ag4  1  0.19912563  0.39807924  0.17445211  1.0
  Ag  Ag5  1  0.69912563  0.60192076  0.17445211  1.0
  Ag  Ag6  1  0.80087437  0.60192076  0.67445211  1.0
  Ag  Ag7  1  0.30087437  0.39807924  0.67445211  1.0
  I  I8  1  0.41236587  0.63612985  0.19378472  1.0
  I  I9  1  0.91236587  0.36387015  0.19378472  1.0
  I  I10  1  0.58763413  0.36387015  0.69378472  1.0
  I  I11  1  0.08763413  0.63612985  0.69378472  1.0
  I  I12  1  0.91076174  0.86930853  0.25975015  1.0
  I  I13  1  0.41076174  0.13069147  0.25975015  1.0
  I  I14  1  0.08923826  0.13069147  0.75975015  1.0
  I  I15  1  0.58923826  0.86930853  0.75975015  1.0
  O  O16  1  0.43245144  0.92629011  0.46275506  1.0
  O  O17  1  0.93245144  0.07370989  0.46275506  1.0
  O  O18  1  0.56754856  0.07370989  0.96275506  1.0
  O  O19  1  0.06754856  0.92629011  0.96275506  1.0
  O  O20  1  0.30292248  0.62647972  0.34564654  1.0
  O  O21  1  0.80292248  0.37352028  0.34564654  1.0
  O  O22  1  0.69707752  0.37352028  0.84564654  1.0
  O  O23  1  0.19707752  0.62647972  0.84564654  1.0
  O  O24  1  0.11829282  0.84216324  0.50111376  1.0
  O  O25  1  0.61829282  0.15783676  0.50111376  1.0
  O  O26  1  0.88170718  0.15783676  0.00111376  1.0
  O  O27  1  0.38170718  0.84216324  0.00111376  1.0
  O  O28  1  0.10663667  0.42899213  0.49440239  1.0
  O  O29  1  0.60663667  0.57100787  0.49440239  1.0
  O  O30  1  0.89336333  0.57100787  0.99440239  1.0
  O  O31  1  0.39336333  0.42899213  0.99440239  1.0
  O  O32  1  0.93659697  0.66807352  0.46749473  1.0
  O  O33  1  0.43659697  0.33192648  0.46749473  1.0
  O  O34  1  0.06340303  0.33192648  0.96749473  1.0
  O  O35  1  0.56340303  0.66807352  0.96749473  1.0
  O  O36  1  0.78980095  0.86163387  0.30709632  1.0
  O  O37  1  0.28980095  0.13836613  0.30709632  1.0
  O  O38  1  0.21019905  0.13836613  0.80709632  1.0
  O  O39  1  0.71019905  0.86163387  0.80709632  1.0
