# generated using pymatgen
data_Rb2LaI5
_symmetry_space_group_name_H-M   'P 1'
_cell_length_a   15.03184647
_cell_length_b   10.16774584
_cell_length_c   9.55234868
_cell_angle_alpha   90.00000000
_cell_angle_beta   90.00000000
_cell_angle_gamma   90.00000000
_symmetry_Int_Tables_number   1
_chemical_formula_structural   Rb2LaI5
_chemical_formula_sum   'Rb8 La4 I20'
_cell_volume   1459.98091939
_cell_formula_units_Z   4
loop_
 _symmetry_equiv_pos_site_id
 _symmetry_equiv_pos_as_xyz
  1  'x, y, z'
loop_
 _atom_site_type_symbol
 _atom_site_label
 _atom_site_symmetry_multiplicity
 _atom_site_fract_x
 _atom_site_fract_y
 _atom_site_fract_z
 _atom_site_occupancy
  Rb  Rb0  1  0.67170591  0.99385073  0.43199510  1.0
  Rb  Rb1  1  0.67170591  0.50614927  0.43199510  1.0
  Rb  Rb2  1  0.17170591  0.99385073  0.06800490  1.0
  Rb  Rb3  1  0.17170591  0.50614927  0.06800490  1.0
  Rb  Rb4  1  0.32829409  0.49385073  0.56800490  1.0
  Rb  Rb5  1  0.32829409  0.00614927  0.56800490  1.0
  Rb  Rb6  1  0.82829409  0.49385073  0.93199510  1.0
  Rb  Rb7  1  0.82829409  0.00614927  0.93199510  1.0
  La  La8  1  0.99459465  0.25000000  0.42371917  1.0
  La  La9  1  0.49459465  0.25000000  0.07628083  1.0
  La  La10  1  0.00540535  0.75000000  0.57628083  1.0
  La  La11  1  0.50540535  0.75000000  0.92371917  1.0
  I  I12  1  0.99121721  0.25000000  0.08024916  1.0
  I  I13  1  0.49121721  0.25000000  0.41975084  1.0
  I  I14  1  0.00878279  0.75000000  0.91975084  1.0
  I  I15  1  0.50878279  0.75000000  0.58024916  1.0
  I  I16  1  0.92941690  0.95368433  0.33176197  1.0
  I  I17  1  0.92941690  0.54631567  0.33176197  1.0
  I  I18  1  0.42941690  0.95368433  0.16823803  1.0
  I  I19  1  0.42941690  0.54631567  0.16823803  1.0
  I  I20  1  0.07058310  0.45368433  0.66823803  1.0
  I  I21  1  0.07058310  0.04631567  0.66823803  1.0
  I  I22  1  0.57058310  0.45368433  0.83176197  1.0
  I  I23  1  0.57058310  0.04631567  0.83176197  1.0
  I  I24  1  0.81702748  0.25000000  0.61410545  1.0
  I  I25  1  0.31702748  0.25000000  0.88589455  1.0
  I  I26  1  0.18297252  0.75000000  0.38589455  1.0
  I  I27  1  0.68297252  0.75000000  0.11410545  1.0
  I  I28  1  0.70338302  0.25000000  0.15255994  1.0
  I  I29  1  0.20338302  0.25000000  0.34744006  1.0
  I  I30  1  0.29661698  0.75000000  0.84744006  1.0
  I  I31  1  0.79661698  0.75000000  0.65255994  1.0
