# generated using pymatgen
data_Li2ZnSiO4
_symmetry_space_group_name_H-M   'P 1'
_cell_length_a   6.11279883
_cell_length_b   5.45289019
_cell_length_c   5.02105853
_cell_angle_alpha   90.00000000
_cell_angle_beta   90.00000000
_cell_angle_gamma   90.00000000
_symmetry_Int_Tables_number   1
_chemical_formula_structural   Li2ZnSiO4
_chemical_formula_sum   'Li4 Zn2 Si2 O8'
_cell_volume   167.36403547
_cell_formula_units_Z   2
loop_
 _symmetry_equiv_pos_site_id
 _symmetry_equiv_pos_as_xyz
  1  'x, y, z'
loop_
 _atom_site_type_symbol
 _atom_site_label
 _atom_site_symmetry_multiplicity
 _atom_site_fract_x
 _atom_site_fract_y
 _atom_site_fract_z
 _atom_site_occupancy
  Li  Li0  1  0.24924767  0.16602722  0.00269426  1.0
  Li  Li1  1  0.74924767  0.83397278  0.50269426  1.0
  Li  Li2  1  0.75075233  0.16602722  0.00269426  1.0
  Li  Li3  1  0.25075233  0.83397278  0.50269426  1.0
  Zn  Zn4  1  0.50000000  0.65707860  0.00446428  1.0
  Zn  Zn5  1  0.00000000  0.34292140  0.50446428  1.0
  Si  Si6  1  0.50000000  0.32691871  0.50789068  1.0
  Si  Si7  1  0.00000000  0.67308129  0.00789068  1.0
  O  O8  1  0.27986187  0.18058757  0.39812640  1.0
  O  O9  1  0.77986187  0.81941243  0.89812640  1.0
  O  O10  1  0.72013813  0.18058757  0.39812640  1.0
  O  O11  1  0.22013813  0.81941243  0.89812640  1.0
  O  O12  1  0.50000000  0.32463194  0.83676648  1.0
  O  O13  1  -0.00000000  0.67536806  0.33676648  1.0
  O  O14  1  0.50000000  0.61531429  0.40173723  1.0
  O  O15  1  0.00000000  0.38468571  0.90173723  1.0
