# generated using pymatgen
data_FeCu4BiPbS6
_symmetry_space_group_name_H-M   'P 1'
_cell_length_a   3.89978168
_cell_length_b   10.81424236
_cell_length_c   12.15676474
_cell_angle_alpha   90.00000000
_cell_angle_beta   90.00000000
_cell_angle_gamma   90.00000000
_symmetry_Int_Tables_number   1
_chemical_formula_structural   FeCu4BiPbS6
_chemical_formula_sum   'Fe2 Cu8 Bi2 Pb2 S12'
_cell_volume   512.68947831
_cell_formula_units_Z   2
loop_
 _symmetry_equiv_pos_site_id
 _symmetry_equiv_pos_as_xyz
  1  'x, y, z'
loop_
 _atom_site_type_symbol
 _atom_site_label
 _atom_site_symmetry_multiplicity
 _atom_site_fract_x
 _atom_site_fract_y
 _atom_site_fract_z
 _atom_site_occupancy
  Fe  Fe0  1  0.00000000  0.79266669  0.89056416  1.0
  Fe  Fe1  1  0.00000000  0.20733331  0.39056416  1.0
  S  S2  1  0.50000000  0.86743008  0.54249853  1.0
  S  S3  1  0.50000000  0.13256992  0.04249853  1.0
  S  S4  1  0.50000000  0.48206165  0.60582902  1.0
  S  S5  1  0.50000000  0.51793835  0.10582902  1.0
  S  S6  1  0.00000000  0.38758977  0.85861829  1.0
  S  S7  1  0.00000000  0.61241023  0.35861829  1.0
  S  S8  1  0.50000000  0.68937213  0.83928088  1.0
  S  S9  1  0.50000000  0.31062787  0.33928088  1.0
  S  S10  1  0.00000000  0.82307788  0.07593370  1.0
  S  S11  1  0.00000000  0.17692212  0.57593370  1.0
  S  S12  1  0.00000000  0.97586036  0.80169398  1.0
  S  S13  1  0.00000000  0.02413964  0.30169398  1.0
  Cu  Cu14  1  0.50000000  0.87296189  0.73464709  1.0
  Cu  Cu15  1  0.50000000  0.12703811  0.23464709  1.0
  Cu  Cu16  1  0.50000000  0.71501641  0.03343649  1.0
  Cu  Cu17  1  0.50000000  0.28498359  0.53343649  1.0
  Cu  Cu18  1  0.50000000  0.48120916  0.79332797  1.0
  Cu  Cu19  1  0.50000000  0.51879084  0.29332797  1.0
  Cu  Cu20  1  0.00000000  0.98171967  0.49175353  1.0
  Cu  Cu21  1  0.00000000  0.01828033  -0.00824647  1.0
  Bi  Bi22  1  0.00000000  0.65341318  0.57147193  1.0
  Bi  Bi23  1  0.00000000  0.34658682  0.07147193  1.0
  Pb  Pb24  1  0.50000000  0.80866169  0.29004442  1.0
  Pb  Pb25  1  0.50000000  0.19133831  0.79004442  1.0
