# generated using pymatgen
data_NaCd4P3
_symmetry_space_group_name_H-M   'P 1'
_cell_length_a   11.56907038
_cell_length_b   11.56907038
_cell_length_c   11.56907038
_cell_angle_alpha   21.81103773
_cell_angle_beta   21.81103773
_cell_angle_gamma   21.81103773
_symmetry_Int_Tables_number   1
_chemical_formula_structural   NaCd4P3
_chemical_formula_sum   'Na1 Cd4 P3'
_cell_volume   187.35442270
_cell_formula_units_Z   1
loop_
 _symmetry_equiv_pos_site_id
 _symmetry_equiv_pos_as_xyz
  1  'x, y, z'
loop_
 _atom_site_type_symbol
 _atom_site_label
 _atom_site_symmetry_multiplicity
 _atom_site_fract_x
 _atom_site_fract_y
 _atom_site_fract_z
 _atom_site_occupancy
  Na  Na0  1  0.50000000  0.50000000  -0.50000000  1.0
  Cd  Cd1  1  0.90217143  -0.09782857  -0.09782857  1.0
  Cd  Cd2  1  0.09782857  0.09782857  0.09782857  1.0
  Cd  Cd3  1  0.70041004  -0.29958996  -0.29958996  1.0
  Cd  Cd4  1  0.29958996  0.29958996  0.29958996  1.0
  P  P5  1  0.77764604  -0.22235396  -0.22235396  1.0
  P  P6  1  0.22235396  0.22235396  0.22235396  1.0
  P  P7  1  0.00000000  0.00000000  -0.00000000  1.0
