# generated using pymatgen
data_La3BWO9
_symmetry_space_group_name_H-M   'P 1'
_cell_length_a   8.91191339
_cell_length_b   8.91191339
_cell_length_c   5.66976331
_cell_angle_alpha   90.00000000
_cell_angle_beta   90.00000000
_cell_angle_gamma   120.00000000
_symmetry_Int_Tables_number   1
_chemical_formula_structural   La3BWO9
_chemical_formula_sum   'La6 B2 W2 O18'
_cell_volume   389.97563611
_cell_formula_units_Z   2
loop_
 _symmetry_equiv_pos_site_id
 _symmetry_equiv_pos_as_xyz
  1  'x, y, z'
loop_
 _atom_site_type_symbol
 _atom_site_label
 _atom_site_symmetry_multiplicity
 _atom_site_fract_x
 _atom_site_fract_y
 _atom_site_fract_z
 _atom_site_occupancy
  La  La0  1  0.72252302  0.64083255  0.17778292  1.0
  La  La1  1  0.64083255  0.91830953  0.67778292  1.0
  La  La2  1  0.91830953  0.27747698  0.17778292  1.0
  La  La3  1  0.35916745  0.08169047  0.17778292  1.0
  La  La4  1  0.27747698  0.35916745  0.67778292  1.0
  La  La5  1  0.08169047  0.72252302  0.67778292  1.0
  B  B6  1  0.00000000  0.00000000  0.01456305  1.0
  B  B7  1  0.00000000  0.00000000  0.51456305  1.0
  W  W8  1  0.33333333  0.66666667  0.13859628  1.0
  W  W9  1  0.66666667  0.33333333  0.63859628  1.0
  O  O10  1  0.04554947  0.87261375  0.02158940  1.0
  O  O11  1  0.87261375  0.82706428  0.52158940  1.0
  O  O12  1  0.82706428  0.95445053  0.02158940  1.0
  O  O13  1  0.12738625  0.17293572  0.02158940  1.0
  O  O14  1  0.95445053  0.12738625  0.52158940  1.0
  O  O15  1  0.17293572  0.04554947  0.52158940  1.0
  O  O16  1  0.26995667  0.79724290  0.34078228  1.0
  O  O17  1  0.79724290  0.52728623  0.84078228  1.0
  O  O18  1  0.52728624  0.73004333  0.34078228  1.0
  O  O19  1  0.20275710  0.47271376  0.34078228  1.0
  O  O20  1  0.73004333  0.20275710  0.84078228  1.0
  O  O21  1  0.47271376  0.26995667  0.84078228  1.0
  O  O22  1  0.85900839  0.47828236  0.41959229  1.0
  O  O23  1  0.47828236  0.61927398  0.91959229  1.0
  O  O24  1  0.61927398  0.14099161  0.41959229  1.0
  O  O25  1  0.52171764  0.38072602  0.41959229  1.0
  O  O26  1  0.14099161  0.52171764  0.91959229  1.0
  O  O27  1  0.38072602  0.85900839  0.91959229  1.0
