# generated using pymatgen
data_K3Nb3Si2O13
_symmetry_space_group_name_H-M   'P 1'
_cell_length_a   9.21062208
_cell_length_b   9.21062208
_cell_length_c   7.86286451
_cell_angle_alpha   90.00000000
_cell_angle_beta   90.00000000
_cell_angle_gamma   120.00000000
_symmetry_Int_Tables_number   1
_chemical_formula_structural   K3Nb3Si2O13
_chemical_formula_sum   'K6 Nb6 Si4 O26'
_cell_volume   577.68268367
_cell_formula_units_Z   2
loop_
 _symmetry_equiv_pos_site_id
 _symmetry_equiv_pos_as_xyz
  1  'x, y, z'
loop_
 _atom_site_type_symbol
 _atom_site_label
 _atom_site_symmetry_multiplicity
 _atom_site_fract_x
 _atom_site_fract_y
 _atom_site_fract_z
 _atom_site_occupancy
  K  K0  1  0.40355286  0.40355286  0.50000000  1.0
  K  K1  1  -0.00000000  0.59644714  0.50000000  1.0
  K  K2  1  0.59644714  0.00000000  0.50000000  1.0
  K  K3  1  0.39000603  0.39000603  0.00000000  1.0
  K  K4  1  -0.00000000  0.60999397  0.00000000  1.0
  K  K5  1  0.60999397  0.00000000  0.00000000  1.0
  Nb  Nb6  1  0.76305873  0.76305873  0.74955714  1.0
  Nb  Nb7  1  0.76305873  0.76305873  0.25044286  1.0
  Nb  Nb8  1  0.00000000  0.23694127  0.74955714  1.0
  Nb  Nb9  1  0.00000000  0.23694127  0.25044286  1.0
  Nb  Nb10  1  0.23694127  0.00000000  0.74955714  1.0
  Nb  Nb11  1  0.23694127  0.00000000  0.25044286  1.0
  Si  Si12  1  0.33333333  0.66666667  0.78954436  1.0
  Si  Si13  1  0.33333333  0.66666667  0.21045564  1.0
  Si  Si14  1  0.66666667  0.33333333  0.78954436  1.0
  Si  Si15  1  0.66666667  0.33333333  0.21045564  1.0
  O  O16  1  0.30259794  0.81750528  0.72775910  1.0
  O  O17  1  0.30259794  0.81750528  0.27224090  1.0
  O  O18  1  0.81750528  0.30259794  0.72775910  1.0
  O  O19  1  0.81750528  0.30259794  0.27224090  1.0
  O  O20  1  0.51490734  0.69740206  0.72775910  1.0
  O  O21  1  0.51490734  0.69740206  0.27224090  1.0
  O  O22  1  0.18249472  0.48509266  0.72775910  1.0
  O  O23  1  0.18249472  0.48509266  0.27224090  1.0
  O  O24  1  0.69740206  0.51490734  0.72775910  1.0
  O  O25  1  0.69740206  0.51490734  0.27224090  1.0
  O  O26  1  0.48509266  0.18249472  0.72775910  1.0
  O  O27  1  0.48509266  0.18249472  0.27224090  1.0
  O  O28  1  0.17322235  0.17322235  0.76585521  1.0
  O  O29  1  0.17322235  0.17322235  0.23414479  1.0
  O  O30  1  -0.00000000  0.82677765  0.76585521  1.0
  O  O31  1  -0.00000000  0.82677765  0.23414479  1.0
  O  O32  1  0.82677765  0.00000000  0.76585521  1.0
  O  O33  1  0.82677765  0.00000000  0.23414479  1.0
  O  O34  1  0.76983290  0.76983290  0.50000000  1.0
  O  O35  1  0.00000000  0.23016710  0.50000000  1.0
  O  O36  1  0.23016710  0.00000000  0.50000000  1.0
  O  O37  1  0.73005192  0.73005192  0.00000000  1.0
  O  O38  1  -0.00000000  0.26994808  0.00000000  1.0
  O  O39  1  0.26994808  0.00000000  0.00000000  1.0
  O  O40  1  0.33333333  0.66666667  0.00000000  1.0
  O  O41  1  0.66666667  0.33333333  0.00000000  1.0
