# generated using pymatgen
data_Li2TeSe3
_symmetry_space_group_name_H-M   'P 1'
_cell_length_a   5.62600980
_cell_length_b   12.09533849
_cell_length_c   8.28080129
_cell_angle_alpha   90.00000000
_cell_angle_beta   92.53461122
_cell_angle_gamma   90.00000000
_symmetry_Int_Tables_number   1
_chemical_formula_structural   Li2TeSe3
_chemical_formula_sum   'Li8 Te4 Se12'
_cell_volume   562.94477403
_cell_formula_units_Z   4
loop_
 _symmetry_equiv_pos_site_id
 _symmetry_equiv_pos_as_xyz
  1  'x, y, z'
loop_
 _atom_site_type_symbol
 _atom_site_label
 _atom_site_symmetry_multiplicity
 _atom_site_fract_x
 _atom_site_fract_y
 _atom_site_fract_z
 _atom_site_occupancy
  Li  Li0  1  0.23897709  0.27464308  0.65263673  1.0
  Li  Li1  1  0.23897709  0.22535692  0.15263673  1.0
  Li  Li2  1  0.76102291  0.77464308  0.84736327  1.0
  Li  Li3  1  0.76102291  0.72535692  0.34736327  1.0
  Li  Li4  1  0.73693375  0.40938071  0.87005030  1.0
  Li  Li5  1  0.73693375  0.09061929  0.37005030  1.0
  Li  Li6  1  0.26306625  0.90938071  0.62994970  1.0
  Li  Li7  1  0.26306625  0.59061929  0.12994970  1.0
  Te  Te8  1  0.21531338  0.58551009  0.68383557  1.0
  Te  Te9  1  0.21531338  0.91448991  0.18383557  1.0
  Te  Te10  1  0.78468662  0.08551009  0.81616443  1.0
  Te  Te11  1  0.78468662  0.41448991  0.31616443  1.0
  Se  Se12  1  0.23989836  0.09664870  0.87640602  1.0
  Se  Se13  1  0.23989836  0.40335130  0.37640602  1.0
  Se  Se14  1  0.76010164  0.59664870  0.62359398  1.0
  Se  Se15  1  0.76010164  0.90335130  0.12359398  1.0
  Se  Se16  1  0.27208994  0.75025862  0.88089632  1.0
  Se  Se17  1  0.27208994  0.74974138  0.38089632  1.0
  Se  Se18  1  0.72791006  0.25025862  0.61910368  1.0
  Se  Se19  1  0.72791006  0.24974138  0.11910368  1.0
  Se  Se20  1  0.24474205  0.42367401  0.88018742  1.0
  Se  Se21  1  0.24474205  0.07632599  0.38018742  1.0
  Se  Se22  1  0.75525795  0.92367401  0.61981258  1.0
  Se  Se23  1  0.75525795  0.57632599  0.11981258  1.0
