# generated using pymatgen
data_Rb3BiSe3
_symmetry_space_group_name_H-M   'P 1'
_cell_length_a   10.37074370
_cell_length_b   10.37074370
_cell_length_c   10.37074370
_cell_angle_alpha   90.00000000
_cell_angle_beta   90.00000000
_cell_angle_gamma   90.00000000
_symmetry_Int_Tables_number   1
_chemical_formula_structural   Rb3BiSe3
_chemical_formula_sum   'Rb12 Bi4 Se12'
_cell_volume   1115.39759456
_cell_formula_units_Z   4
loop_
 _symmetry_equiv_pos_site_id
 _symmetry_equiv_pos_as_xyz
  1  'x, y, z'
loop_
 _atom_site_type_symbol
 _atom_site_label
 _atom_site_symmetry_multiplicity
 _atom_site_fract_x
 _atom_site_fract_y
 _atom_site_fract_z
 _atom_site_occupancy
  Rb  Rb0  1  0.43877134  0.93877134  0.56122866  1.0
  Rb  Rb1  1  0.93877134  0.56122866  0.43877134  1.0
  Rb  Rb2  1  0.56122866  0.43877134  0.93877134  1.0
  Rb  Rb3  1  0.06122866  0.06122866  0.06122866  1.0
  Rb  Rb4  1  0.93046240  0.43046240  0.06953760  1.0
  Rb  Rb5  1  0.43046240  0.06953760  0.93046240  1.0
  Rb  Rb6  1  0.06953760  0.93046240  0.43046240  1.0
  Rb  Rb7  1  0.56953760  0.56953760  0.56953760  1.0
  Rb  Rb8  1  0.67708521  0.17708521  0.32291479  1.0
  Rb  Rb9  1  0.17708521  0.32291479  0.67708521  1.0
  Rb  Rb10  1  0.32291479  0.67708521  0.17708521  1.0
  Rb  Rb11  1  0.82291479  0.82291479  0.82291479  1.0
  Bi  Bi12  1  0.22142815  0.72142815  0.77857185  1.0
  Bi  Bi13  1  0.72142815  0.77857185  0.22142815  1.0
  Bi  Bi14  1  0.77857185  0.22142815  0.72142815  1.0
  Bi  Bi15  1  0.27857185  0.27857185  0.27857185  1.0
  Se  Se16  1  0.46826634  0.74798549  0.85515730  1.0
  Se  Se17  1  0.96826634  0.75201451  0.14484270  1.0
  Se  Se18  1  0.24798549  0.64484270  0.53173366  1.0
  Se  Se19  1  0.74798549  0.85515730  0.46826634  1.0
  Se  Se20  1  0.14484270  0.96826634  0.75201451  1.0
  Se  Se21  1  0.64484270  0.53173366  0.24798549  1.0
  Se  Se22  1  0.53173366  0.24798549  0.64484270  1.0
  Se  Se23  1  0.03173366  0.25201451  0.35515730  1.0
  Se  Se24  1  0.75201451  0.14484270  0.96826634  1.0
  Se  Se25  1  0.25201451  0.35515730  0.03173366  1.0
  Se  Se26  1  0.85515730  0.46826634  0.74798549  1.0
  Se  Se27  1  0.35515730  0.03173366  0.25201451  1.0
