# generated using pymatgen
data_Rb
_symmetry_space_group_name_H-M   'P 1'
_cell_length_a   12.52855290
_cell_length_b   9.18059912
_cell_length_c   9.20036081
_cell_angle_alpha   85.93830002
_cell_angle_beta   46.96472108
_cell_angle_gamma   47.09697890
_symmetry_Int_Tables_number   1
_chemical_formula_structural   Rb
_chemical_formula_sum   Rb4
_cell_volume   383.92756899
_cell_formula_units_Z   4
loop_
 _symmetry_equiv_pos_site_id
 _symmetry_equiv_pos_as_xyz
  1  'x, y, z'
loop_
 _atom_site_type_symbol
 _atom_site_label
 _atom_site_symmetry_multiplicity
 _atom_site_fract_x
 _atom_site_fract_y
 _atom_site_fract_z
 _atom_site_occupancy
  Rb  Rb0  1  0.61925527  0.61925527  0.88074473  1.0
  Rb  Rb1  1  0.63074473  0.63074473  -0.63074473  1.0
  Rb  Rb2  1  0.88074473  0.88074473  0.61925527  1.0
  Rb  Rb3  1  0.36925527  1.36925527  -0.36925527  1.0
