# generated using pymatgen
data_Cs2LiCrCl6
_symmetry_space_group_name_H-M   'P 1'
_cell_length_a   7.35696054
_cell_length_b   7.35696054
_cell_length_c   6.14332867
_cell_angle_alpha   90.00000000
_cell_angle_beta   90.00000000
_cell_angle_gamma   120.00000000
_symmetry_Int_Tables_number   1
_chemical_formula_structural   Cs2LiCrCl6
_chemical_formula_sum   'Cs2 Li1 Cr1 Cl6'
_cell_volume   287.95938426
_cell_formula_units_Z   1
loop_
 _symmetry_equiv_pos_site_id
 _symmetry_equiv_pos_as_xyz
  1  'x, y, z'
loop_
 _atom_site_type_symbol
 _atom_site_label
 _atom_site_symmetry_multiplicity
 _atom_site_fract_x
 _atom_site_fract_y
 _atom_site_fract_z
 _atom_site_occupancy
  Cs  Cs0  1  0.33333333  0.66666667  0.25980009  1.0
  Cs  Cs1  1  0.66666667  0.33333333  0.74019991  1.0
  Li  Li2  1  0.00000000  0.00000000  0.00000000  1.0
  Cr  Cr3  1  0.00000000  0.00000000  0.50000000  1.0
  Cl  Cl4  1  0.30062661  0.15031330  0.27219336  1.0
  Cl  Cl5  1  0.15031330  0.30062661  0.72780664  1.0
  Cl  Cl6  1  0.15031330  0.84968670  0.72780664  1.0
  Cl  Cl7  1  0.84968670  0.15031330  0.27219336  1.0
  Cl  Cl8  1  0.84968670  0.69937339  0.27219336  1.0
  Cl  Cl9  1  0.69937339  0.84968670  0.72780664  1.0
