# generated using pymatgen
data_CsAsO4
_symmetry_space_group_name_H-M   'P 1'
_cell_length_a   7.47924843
_cell_length_b   7.47924843
_cell_length_c   7.47924843
_cell_angle_alpha   106.34469842
_cell_angle_beta   106.34469842
_cell_angle_gamma   115.92340387
_symmetry_Int_Tables_number   1
_chemical_formula_structural   CsAsO4
_chemical_formula_sum   'Cs2 As2 O8'
_cell_volume   318.97431064
_cell_formula_units_Z   2
loop_
 _symmetry_equiv_pos_site_id
 _symmetry_equiv_pos_as_xyz
  1  'x, y, z'
loop_
 _atom_site_type_symbol
 _atom_site_label
 _atom_site_symmetry_multiplicity
 _atom_site_fract_x
 _atom_site_fract_y
 _atom_site_fract_z
 _atom_site_occupancy
  Cs  Cs0  1  0.00000000  0.00000000  0.00000000  1.0
  Cs  Cs1  1  0.75000000  1.25000000  0.50000000  1.0
  As  As2  1  0.50000000  0.50000000  0.00000000  1.0
  As  As3  1  1.25000000  0.75000000  0.50000000  1.0
  O  O4  1  1.23154602  0.59394614  0.63758997  1.0
  O  O5  1  0.51845398  0.65604395  -0.13759988  1.0
  O  O6  1  0.34394614  1.48154602  1.13758997  1.0
  O  O7  1  1.40605386  2.04364383  1.63759988  1.0
  O  O8  1  0.79364383  0.65605386  1.13759988  1.0
  O  O9  1  0.95635617  1.59395605  1.36241003  1.0
  O  O10  1  1.40604395  0.76845398  0.36240012  1.0
  O  O11  1  1.34395605  1.20635617  0.86241003  1.0
