# generated using pymatgen
data_HfSe3
_symmetry_space_group_name_H-M   'P 1'
_cell_length_a   5.44646693
_cell_length_b   3.74932015
_cell_length_c   10.07746983
_cell_angle_alpha   90.00000000
_cell_angle_beta   97.19192006
_cell_angle_gamma   90.00000000
_symmetry_Int_Tables_number   1
_chemical_formula_structural   HfSe3
_chemical_formula_sum   'Hf2 Se6'
_cell_volume   204.16839798
_cell_formula_units_Z   2
loop_
 _symmetry_equiv_pos_site_id
 _symmetry_equiv_pos_as_xyz
  1  'x, y, z'
loop_
 _atom_site_type_symbol
 _atom_site_label
 _atom_site_symmetry_multiplicity
 _atom_site_fract_x
 _atom_site_fract_y
 _atom_site_fract_z
 _atom_site_occupancy
  Hf  Hf0  1  0.71572519  0.25000000  0.85194555  1.0
  Hf  Hf1  1  0.28427481  0.75000000  0.14805445  1.0
  Se  Se2  1  0.23831592  0.25000000  0.94972083  1.0
  Se  Se3  1  0.76168408  0.75000000  0.05027917  1.0
  Se  Se4  1  0.54127705  0.25000000  0.30929023  1.0
  Se  Se5  1  0.45872295  0.75000000  0.69070977  1.0
  Se  Se6  1  0.10279143  0.25000000  0.30968456  1.0
  Se  Se7  1  0.89720857  0.75000000  0.69031544  1.0
