# generated using pymatgen
data_YGa4Ni
_symmetry_space_group_name_H-M   'P 1'
_cell_length_a   7.93522157
_cell_length_b   7.93522157
_cell_length_c   6.60013661
_cell_angle_alpha   90.00000000
_cell_angle_beta   90.00000000
_cell_angle_gamma   150.01247171
_symmetry_Int_Tables_number   1
_chemical_formula_structural   YGa4Ni
_chemical_formula_sum   'Y2 Ga8 Ni2'
_cell_volume   207.71949904
_cell_formula_units_Z   2
loop_
 _symmetry_equiv_pos_site_id
 _symmetry_equiv_pos_as_xyz
  1  'x, y, z'
loop_
 _atom_site_type_symbol
 _atom_site_label
 _atom_site_symmetry_multiplicity
 _atom_site_fract_x
 _atom_site_fract_y
 _atom_site_fract_z
 _atom_site_occupancy
  Y  Y0  1  -0.61908790  0.61908790  0.25000000  1.0
  Y  Y1  1  -0.38091210  1.38091210  0.75000000  1.0
  Ga  Ga2  1  -0.81431709  0.81431709  0.44896056  1.0
  Ga  Ga3  1  -0.81431709  0.81431709  0.05103944  1.0
  Ga  Ga4  1  -0.18568291  1.18568291  0.94896056  1.0
  Ga  Ga5  1  -0.18568291  1.18568291  0.55103944  1.0
  Ga  Ga6  1  -0.42928495  1.42928495  0.25000000  1.0
  Ga  Ga7  1  -0.57071505  0.57071505  0.75000000  1.0
  Ga  Ga8  1  0.00000000  0.00000000  0.50000000  1.0
  Ga  Ga9  1  0.00000000  0.00000000  0.00000000  1.0
  Ni  Ni10  1  -0.27614615  1.27614615  0.25000000  1.0
  Ni  Ni11  1  -0.72385385  0.72385385  0.75000000  1.0
