# generated using pymatgen
data_LaGe2Pd
_symmetry_space_group_name_H-M   'P 1'
_cell_length_a   9.04762699
_cell_length_b   9.04762699
_cell_length_c   4.44697745
_cell_angle_alpha   90.00000000
_cell_angle_beta   90.00000000
_cell_angle_gamma   151.84335265
_symmetry_Int_Tables_number   1
_chemical_formula_structural   LaGe2Pd
_chemical_formula_sum   'La2 Ge4 Pd2'
_cell_volume   171.77872112
_cell_formula_units_Z   2
loop_
 _symmetry_equiv_pos_site_id
 _symmetry_equiv_pos_as_xyz
  1  'x, y, z'
loop_
 _atom_site_type_symbol
 _atom_site_label
 _atom_site_symmetry_multiplicity
 _atom_site_fract_x
 _atom_site_fract_y
 _atom_site_fract_z
 _atom_site_occupancy
  La  La0  1  -0.60838392  0.60838392  0.25000000  1.0
  La  La1  1  -0.39161608  1.39161608  0.75000000  1.0
  Ge  Ge2  1  -0.96388906  0.96388906  0.25000000  1.0
  Ge  Ge3  1  -0.03611094  1.03611094  0.75000000  1.0
  Ge  Ge4  1  -0.24887394  1.24887394  0.25000000  1.0
  Ge  Ge5  1  -0.75112606  0.75112606  0.75000000  1.0
  Pd  Pd6  1  -0.82280360  0.82280360  0.25000000  1.0
  Pd  Pd7  1  -0.17719640  1.17719640  0.75000000  1.0
