# generated using pymatgen
data_LaMn2SbO6
_symmetry_space_group_name_H-M   'P 1'
_cell_length_a   7.90430281
_cell_length_b   7.90430281
_cell_length_c   8.17070122
_cell_angle_alpha   90.00000000
_cell_angle_beta   90.00000000
_cell_angle_gamma   90.00000000
_symmetry_Int_Tables_number   1
_chemical_formula_structural   LaMn2SbO6
_chemical_formula_sum   'La4 Mn8 Sb4 O24'
_cell_volume   510.48909527
_cell_formula_units_Z   4
loop_
 _symmetry_equiv_pos_site_id
 _symmetry_equiv_pos_as_xyz
  1  'x, y, z'
loop_
 _atom_site_type_symbol
 _atom_site_label
 _atom_site_symmetry_multiplicity
 _atom_site_fract_x
 _atom_site_fract_y
 _atom_site_fract_z
 _atom_site_occupancy
  La  La0  1  0.50000000  0.00000000  0.47641033  1.0
  La  La1  1  0.50000000  0.00000000  0.97641033  1.0
  La  La2  1  0.00000000  0.50000000  0.02358967  1.0
  La  La3  1  0.00000000  0.50000000  0.52358967  1.0
  Mn  Mn4  1  0.50000000  0.50000000  0.50000000  1.0
  Mn  Mn5  1  0.00000000  0.00000000  0.00000000  1.0
  Mn  Mn6  1  0.00000000  0.00000000  0.50000000  1.0
  Mn  Mn7  1  0.50000000  0.50000000  0.00000000  1.0
  Mn  Mn8  1  0.75000000  0.75000000  0.75000000  1.0
  Mn  Mn9  1  0.25000000  0.25000000  0.75000000  1.0
  Mn  Mn10  1  0.25000000  0.75000000  0.25000000  1.0
  Mn  Mn11  1  0.75000000  0.25000000  0.25000000  1.0
  Sb  Sb12  1  0.25000000  0.75000000  0.75000000  1.0
  Sb  Sb13  1  0.75000000  0.25000000  0.75000000  1.0
  Sb  Sb14  1  0.25000000  0.25000000  0.25000000  1.0
  Sb  Sb15  1  0.75000000  0.75000000  0.25000000  1.0
  O  O16  1  0.67832757  0.69941644  0.01611617  1.0
  O  O17  1  0.32167243  0.30058356  0.01611617  1.0
  O  O18  1  0.19941644  0.82167243  0.51611617  1.0
  O  O19  1  0.80058356  0.17832757  0.51611617  1.0
  O  O20  1  0.82167243  0.80058356  0.48388383  1.0
  O  O21  1  0.17832757  0.19941644  0.48388383  1.0
  O  O22  1  0.30058356  0.67832757  0.98388383  1.0
  O  O23  1  0.69941644  0.32167243  0.98388383  1.0
  O  O24  1  0.29475966  0.51186819  0.66290099  1.0
  O  O25  1  0.70524034  0.48813181  0.66290099  1.0
  O  O26  1  0.01186819  0.20524034  0.16290099  1.0
  O  O27  1  0.98813181  0.79475966  0.16290099  1.0
  O  O28  1  0.20524034  0.98813181  0.83709901  1.0
  O  O29  1  0.79475966  0.01186819  0.83709901  1.0
  O  O30  1  0.48813181  0.29475966  0.33709901  1.0
  O  O31  1  0.51186819  0.70524034  0.33709901  1.0
  O  O32  1  0.18254728  0.49572546  0.27891945  1.0
  O  O33  1  0.81745272  0.50427454  0.27891945  1.0
  O  O34  1  0.99572546  0.31745272  0.77891945  1.0
  O  O35  1  0.00427454  0.68254728  0.77891945  1.0
  O  O36  1  0.31745272  0.00427454  0.22108055  1.0
  O  O37  1  0.68254728  0.99572546  0.22108055  1.0
  O  O38  1  0.50427454  0.18254728  0.72108055  1.0
  O  O39  1  0.49572546  0.81745272  0.72108055  1.0
