# generated using pymatgen
data_CrRe4(Ni2Mo3)2
_symmetry_space_group_name_H-M   'P 1'
_cell_length_a   9.29045367
_cell_length_b   9.29045367
_cell_length_c   4.82082533
_cell_angle_alpha   90.00000000
_cell_angle_beta   90.00000000
_cell_angle_gamma   90.00000000
_symmetry_Int_Tables_number   1
_chemical_formula_structural   CrRe4(Ni2Mo3)2
_chemical_formula_sum   'Cr2 Re8 Ni8 Mo12'
_cell_volume   416.09762822
_cell_formula_units_Z   2
loop_
 _symmetry_equiv_pos_site_id
 _symmetry_equiv_pos_as_xyz
  1  'x, y, z'
loop_
 _atom_site_type_symbol
 _atom_site_label
 _atom_site_symmetry_multiplicity
 _atom_site_fract_x
 _atom_site_fract_y
 _atom_site_fract_z
 _atom_site_occupancy
  Cr  Cr0  1  0.50000000  0.50000000  0.50000000  1.0
  Cr  Cr1  1  0.00000000  0.00000000  0.00000000  1.0
  Re  Re2  1  0.37032895  0.96375927  0.50000000  1.0
  Re  Re3  1  0.62967105  0.03624073  0.50000000  1.0
  Re  Re4  1  0.12967105  0.46375927  0.00000000  1.0
  Re  Re5  1  0.87032895  0.53624073  0.00000000  1.0
  Re  Re6  1  0.96375927  0.37032895  0.50000000  1.0
  Re  Re7  1  0.03624073  0.62967105  0.50000000  1.0
  Re  Re8  1  0.46375927  0.12967105  0.00000000  1.0
  Re  Re9  1  0.53624073  0.87032895  0.00000000  1.0
  Ni  Ni10  1  0.43328006  0.24335655  0.50000000  1.0
  Ni  Ni11  1  0.56671994  0.75664345  0.50000000  1.0
  Ni  Ni12  1  0.06671994  0.74335655  0.00000000  1.0
  Ni  Ni13  1  0.93328006  0.25664345  0.00000000  1.0
  Ni  Ni14  1  0.24335655  0.43328006  0.50000000  1.0
  Ni  Ni15  1  0.75664345  0.56671994  0.50000000  1.0
  Ni  Ni16  1  0.74335655  0.06671994  0.00000000  1.0
  Ni  Ni17  1  0.25664345  0.93328006  0.00000000  1.0
  Mo  Mo18  1  0.10445169  0.89554831  0.50000000  1.0
  Mo  Mo19  1  0.89554831  0.10445169  0.50000000  1.0
  Mo  Mo20  1  0.39554831  0.39554831  0.00000000  1.0
  Mo  Mo21  1  0.60445169  0.60445169  0.00000000  1.0
  Mo  Mo22  1  0.31761545  0.68238455  0.25172196  1.0
  Mo  Mo23  1  0.68238455  0.31761545  0.25172196  1.0
  Mo  Mo24  1  0.18238455  0.18238455  0.75172196  1.0
  Mo  Mo25  1  0.81761545  0.81761545  0.75172196  1.0
  Mo  Mo26  1  0.68238455  0.31761545  0.74827804  1.0
  Mo  Mo27  1  0.31761545  0.68238455  0.74827804  1.0
  Mo  Mo28  1  0.81761545  0.81761545  0.24827804  1.0
  Mo  Mo29  1  0.18238455  0.18238455  0.24827804  1.0
