# generated using pymatgen
data_Cr2AgBiO8
_symmetry_space_group_name_H-M   'P 1'
_cell_length_a   6.94896133
_cell_length_b   6.94896133
_cell_length_c   6.94896133
_cell_angle_alpha   136.75386144
_cell_angle_beta   136.75386144
_cell_angle_gamma   62.81698195
_symmetry_Int_Tables_number   1
_chemical_formula_structural   Cr2AgBiO8
_chemical_formula_sum   'Cr2 Ag1 Bi1 O8'
_cell_volume   155.55433153
_cell_formula_units_Z   1
loop_
 _symmetry_equiv_pos_site_id
 _symmetry_equiv_pos_as_xyz
  1  'x, y, z'
loop_
 _atom_site_type_symbol
 _atom_site_label
 _atom_site_symmetry_multiplicity
 _atom_site_fract_x
 _atom_site_fract_y
 _atom_site_fract_z
 _atom_site_occupancy
  Cr  Cr0  1  0.25000000  0.75000000  0.50000000  1.0
  Cr  Cr1  1  0.00000000  0.00000000  0.00000000  1.0
  Ag  Ag2  1  0.50000000  0.50000000  1.00000000  1.0
  Bi  Bi3  1  0.75000000  0.25000000  0.50000000  1.0
  O  O4  1  0.45569513  1.06732029  0.87371502  1.0
  O  O5  1  0.93267971  0.80639474  1.38837485  1.0
  O  O6  1  1.19360526  0.58198011  1.12628498  1.0
  O  O7  1  0.41801989  0.54430487  0.61162515  1.0
  O  O8  1  0.31875932  0.95707654  1.11742516  1.0
  O  O9  1  1.04292346  1.16034862  1.36168278  1.0
  O  O10  1  0.83965138  0.20133416  0.88257484  1.0
  O  O11  1  0.79866584  0.68124068  0.63831722  1.0
