# generated using pymatgen
data_VP4
_symmetry_space_group_name_H-M   'P 1'
_cell_length_a   6.09727267
_cell_length_b   6.09727267
_cell_length_c   5.84295490
_cell_angle_alpha   81.32116887
_cell_angle_beta   98.67883113
_cell_angle_gamma   51.14617375
_symmetry_Int_Tables_number   1
_chemical_formula_structural   VP4
_chemical_formula_sum   'V2 P8'
_cell_volume   158.48911779
_cell_formula_units_Z   2
loop_
 _symmetry_equiv_pos_site_id
 _symmetry_equiv_pos_as_xyz
  1  'x, y, z'
loop_
 _atom_site_type_symbol
 _atom_site_label
 _atom_site_symmetry_multiplicity
 _atom_site_fract_x
 _atom_site_fract_y
 _atom_site_fract_z
 _atom_site_occupancy
  V  V0  1  0.93785330  0.93785330  0.25000000  1.0
  V  V1  1  1.06214670  0.06214670  0.75000000  1.0
  P  P2  1  1.36425156  -0.18453574  0.17630434  1.0
  P  P3  1  1.18453574  0.63574844  0.67630434  1.0
  P  P4  1  0.81546426  0.36425156  0.32369566  1.0
  P  P5  1  1.63574844  0.18453574  0.82369566  1.0
  P  P6  1  1.50412555  0.05199461  0.30999574  1.0
  P  P7  1  0.94800539  0.49587445  0.80999574  1.0
  P  P8  1  1.05199461  0.50412555  0.19000426  1.0
  P  P9  1  1.49587445  -0.05199461  0.69000426  1.0
