# generated using pymatgen
data_RbNb2PS10
_symmetry_space_group_name_H-M   'P 1'
_cell_length_a   7.66850535
_cell_length_b   8.05438163
_cell_length_c   13.08724399
_cell_angle_alpha   90.00000000
_cell_angle_beta   111.36454208
_cell_angle_gamma   90.00000000
_symmetry_Int_Tables_number   1
_chemical_formula_structural   RbNb2PS10
_chemical_formula_sum   'Rb2 Nb4 P2 S20'
_cell_volume   752.78694222
_cell_formula_units_Z   2
loop_
 _symmetry_equiv_pos_site_id
 _symmetry_equiv_pos_as_xyz
  1  'x, y, z'
loop_
 _atom_site_type_symbol
 _atom_site_label
 _atom_site_symmetry_multiplicity
 _atom_site_fract_x
 _atom_site_fract_y
 _atom_site_fract_z
 _atom_site_occupancy
  Rb  Rb0  1  0.19826193  0.50345867  0.30900666  1.0
  Rb  Rb1  1  0.19826193  0.49654133  0.80900666  1.0
  Nb  Nb2  1  0.73629238  0.94350331  0.04152875  1.0
  Nb  Nb3  1  0.73629238  0.05649669  0.54152875  1.0
  Nb  Nb4  1  0.73442195  0.94335140  0.33053537  1.0
  Nb  Nb5  1  0.73442195  0.05664860  0.83053537  1.0
  P  P6  1  0.59684024  0.61958422  0.15530157  1.0
  P  P7  1  0.59684024  0.38041578  0.65530157  1.0
  S  S8  1  -0.01498142  0.87918788  0.51046283  1.0
  S  S9  1  -0.01498142  0.12081212  0.01046283  1.0
  S  S10  1  0.97785922  0.95730279  0.23775221  1.0
  S  S11  1  0.97785922  0.04269721  0.73775221  1.0
  S  S12  1  0.79476425  0.84462895  0.69871482  1.0
  S  S13  1  0.79476425  0.15537105  0.19871482  1.0
  S  S14  1  0.76756050  0.62524230  0.06403407  1.0
  S  S15  1  0.76756050  0.37475770  0.56403407  1.0
  S  S16  1  0.75499278  0.62266091  0.32202312  1.0
  S  S17  1  0.75499278  0.37733909  0.82202312  1.0
  S  S18  1  0.48527138  0.87877317  0.85497238  1.0
  S  S19  1  0.48527138  0.12122683  0.35497238  1.0
  S  S20  1  0.49062143  0.86395286  0.13333728  1.0
  S  S21  1  0.49062143  0.13604714  0.63333728  1.0
  S  S22  1  0.48292469  0.88304618  0.41014492  1.0
  S  S23  1  0.48292469  0.11695382  0.91014492  1.0
  S  S24  1  0.40590791  0.43966396  0.11065636  1.0
  S  S25  1  0.40590791  0.56033604  0.61065636  1.0
  S  S26  1  0.98236276  0.87858691  0.96592967  1.0
  S  S27  1  0.98236276  0.12141309  0.46592967  1.0
