# generated using pymatgen
data_LaNb2CuClO7
_symmetry_space_group_name_H-M   'P 1'
_cell_length_a   7.83316843
_cell_length_b   7.84939185
_cell_length_c   11.80621695
_cell_angle_alpha   90.00000000
_cell_angle_beta   90.00000000
_cell_angle_gamma   90.00000000
_symmetry_Int_Tables_number   1
_chemical_formula_structural   LaNb2CuClO7
_chemical_formula_sum   'La4 Nb8 Cu4 Cl4 O28'
_cell_volume   725.91243262
_cell_formula_units_Z   4
loop_
 _symmetry_equiv_pos_site_id
 _symmetry_equiv_pos_as_xyz
  1  'x, y, z'
loop_
 _atom_site_type_symbol
 _atom_site_label
 _atom_site_symmetry_multiplicity
 _atom_site_fract_x
 _atom_site_fract_y
 _atom_site_fract_z
 _atom_site_occupancy
  La  La0  1  0.50006128  0.76072230  0.00000000  1.0
  La  La1  1  0.00006128  0.73927770  0.00000000  1.0
  La  La2  1  0.49993872  0.23927770  0.00000000  1.0
  La  La3  1  0.99993872  0.26072230  0.00000000  1.0
  Nb  Nb4  1  0.25170157  0.50001533  0.80876213  1.0
  Nb  Nb5  1  0.25170157  0.50001533  0.19123787  1.0
  Nb  Nb6  1  0.75170157  -0.00001533  0.80876213  1.0
  Nb  Nb7  1  0.75170157  -0.00001533  0.19123787  1.0
  Nb  Nb8  1  0.74829843  0.49998467  0.80876213  1.0
  Nb  Nb9  1  0.74829843  0.49998467  0.19123787  1.0
  Nb  Nb10  1  0.24829843  0.00001533  0.80876213  1.0
  Nb  Nb11  1  0.24829843  0.00001533  0.19123787  1.0
  Cu  Cu12  1  0.23099225  0.00592186  0.50000000  1.0
  Cu  Cu13  1  0.73099225  0.49407814  0.50000000  1.0
  Cu  Cu14  1  0.76900775  0.99407814  0.50000000  1.0
  Cu  Cu15  1  0.26900775  0.50592186  0.50000000  1.0
  Cl  Cl16  1  0.42046771  0.76860601  0.50000000  1.0
  Cl  Cl17  1  0.92046771  0.73139399  0.50000000  1.0
  Cl  Cl18  1  0.57953229  0.23139399  0.50000000  1.0
  Cl  Cl19  1  0.07953229  0.26860601  0.50000000  1.0
  O  O20  1  0.27850139  0.50054288  0.65847102  1.0
  O  O21  1  0.27850139  0.50054288  0.34152898  1.0
  O  O22  1  0.77850139  0.99945712  0.65847102  1.0
  O  O23  1  0.77850139  0.99945712  0.34152898  1.0
  O  O24  1  0.72149861  0.49945712  0.65847102  1.0
  O  O25  1  0.72149861  0.49945712  0.34152898  1.0
  O  O26  1  0.22149861  0.00054288  0.65847102  1.0
  O  O27  1  0.22149861  0.00054288  0.34152898  1.0
  O  O28  1  0.24984021  0.75004484  0.84598919  1.0
  O  O29  1  0.24984021  0.75004484  0.15401081  1.0
  O  O30  1  0.74984021  0.74995516  0.84598919  1.0
  O  O31  1  0.74984021  0.74995516  0.15401081  1.0
  O  O32  1  0.75015979  0.24995516  0.84598919  1.0
  O  O33  1  0.75015979  0.24995516  0.15401081  1.0
  O  O34  1  0.25015979  0.25004484  0.84598919  1.0
  O  O35  1  0.25015979  0.25004484  0.15401081  1.0
  O  O36  1  0.20664434  0.50005861  0.00000000  1.0
  O  O37  1  0.70664434  -0.00005861  0.00000000  1.0
  O  O38  1  0.79335566  0.49994139  0.00000000  1.0
  O  O39  1  0.29335566  0.00005861  0.00000000  1.0
  O  O40  1  0.50000000  0.00000000  0.81902804  1.0
  O  O41  1  0.50000000  0.00000000  0.18097196  1.0
  O  O42  1  0.00000000  0.50000000  0.81902804  1.0
  O  O43  1  0.00000000  0.50000000  0.18097196  1.0
  O  O44  1  0.50000000  0.50000000  0.86339931  1.0
  O  O45  1  0.50000000  0.50000000  0.13660069  1.0
  O  O46  1  0.00000000  0.00000000  0.86339931  1.0
  O  O47  1  0.00000000  0.00000000  0.13660069  1.0
