# generated using pymatgen
data_NaZnAs(H2O3)2
_symmetry_space_group_name_H-M   'P 1'
_cell_length_a   6.22234057
_cell_length_b   5.79154133
_cell_length_c   8.06208315
_cell_angle_alpha   86.18568737
_cell_angle_beta   88.32723026
_cell_angle_gamma   91.26964053
_symmetry_Int_Tables_number   1
_chemical_formula_structural   NaZnAs(H2O3)2
_chemical_formula_sum   'Na2 Zn2 As2 H8 O12'
_cell_volume   289.68112130
_cell_formula_units_Z   2
loop_
 _symmetry_equiv_pos_site_id
 _symmetry_equiv_pos_as_xyz
  1  'x, y, z'
loop_
 _atom_site_type_symbol
 _atom_site_label
 _atom_site_symmetry_multiplicity
 _atom_site_fract_x
 _atom_site_fract_y
 _atom_site_fract_z
 _atom_site_occupancy
  Na  Na0  1  -0.50000000  -0.50000000  -0.00000000  1.0
  Na  Na1  1  0.00000000  0.00000000  0.00000000  1.0
  Zn  Zn2  1  -0.75089079  -0.69958055  -0.39096230  1.0
  Zn  Zn3  1  -0.24910921  -0.30041945  -0.60903770  1.0
  As  As4  1  -0.74540639  -0.18777784  -0.61494431  1.0
  As  As5  1  -0.25459361  -0.81222216  -0.38505569  1.0
  H  H6  1  -0.39965238  -0.94929763  -0.84583686  1.0
  H  H7  1  -0.60034762  -0.05070237  -0.15416314  1.0
  H  H8  1  -0.79612287  -0.74819719  -0.76624923  1.0
  H  H9  1  -0.20387713  -0.25180281  -0.23375077  1.0
  H  H10  1  -0.38819822  -0.86796940  -1.03760959  1.0
  H  H11  1  -0.61180178  -0.13203060  0.03760959  1.0
  H  H12  1  -0.90491935  -0.53343670  -0.84768424  1.0
  H  H13  1  -0.09508065  -0.46656330  -0.15231576  1.0
  O  O14  1  -0.75470746  -0.89508791  -0.58135881  1.0
  O  O15  1  -0.24529254  -0.10491209  -0.41864119  1.0
  O  O16  1  -0.32548079  -0.84066093  -0.92984477  1.0
  O  O17  1  -0.67451921  -0.15933907  -0.07015523  1.0
  O  O18  1  -0.82200274  -0.66831837  -0.87742739  1.0
  O  O19  1  -0.17799726  -0.33168163  -0.12257261  1.0
  O  O20  1  -0.73319745  -0.36177418  -0.43486597  1.0
  O  O21  1  -0.26680255  -0.63822582  -0.56513403  1.0
  O  O22  1  -0.51214346  -0.21754397  -0.74347960  1.0
  O  O23  1  -0.48785654  -0.78245603  -0.25652040  1.0
  O  O24  1  -0.96637397  -0.25131741  -0.73617262  1.0
  O  O25  1  -0.03362603  -0.74868259  -0.26382738  1.0
