# generated using pymatgen
data_Ca10(Al2Ge3)3
_symmetry_space_group_name_H-M   'P 1'
_cell_length_a   10.69769477
_cell_length_b   10.69769477
_cell_length_c   10.69769477
_cell_angle_alpha   81.37181842
_cell_angle_beta   81.37181842
_cell_angle_gamma   81.37181842
_symmetry_Int_Tables_number   1
_chemical_formula_structural   Ca10(Al2Ge3)3
_chemical_formula_sum   'Ca20 Al12 Ge18'
_cell_volume   1186.47168549
_cell_formula_units_Z   2
loop_
 _symmetry_equiv_pos_site_id
 _symmetry_equiv_pos_as_xyz
  1  'x, y, z'
loop_
 _atom_site_type_symbol
 _atom_site_label
 _atom_site_symmetry_multiplicity
 _atom_site_fract_x
 _atom_site_fract_y
 _atom_site_fract_z
 _atom_site_occupancy
  Ca  Ca0  1  1.15701076  1.15701076  0.44736560  1.0
  Ca  Ca1  1  1.15701076  1.44736560  0.15701076  1.0
  Ca  Ca2  1  0.55263440  0.84298924  -0.15701076  1.0
  Ca  Ca3  1  0.84298924  0.55263440  -0.15701076  1.0
  Ca  Ca4  1  0.84298924  0.84298924  -0.44736560  1.0
  Ca  Ca5  1  1.44736560  1.15701076  0.15701076  1.0
  Ca  Ca6  1  0.20661024  0.50000000  -0.20661024  1.0
  Ca  Ca7  1  0.20661024  0.79338976  -0.50000000  1.0
  Ca  Ca8  1  0.50000000  0.20661024  -0.20661024  1.0
  Ca  Ca9  1  0.50000000  0.79338976  -0.79338976  1.0
  Ca  Ca10  1  0.79338976  0.50000000  -0.79338976  1.0
  Ca  Ca11  1  0.79338976  0.20661024  -0.50000000  1.0
  Ca  Ca12  1  0.70735038  -0.00000000  0.29264962  1.0
  Ca  Ca13  1  0.70735038  -0.70735038  0.00000000  1.0
  Ca  Ca14  1  -0.00000000  0.70735038  -0.70735038  1.0
  Ca  Ca15  1  -0.00000000  0.29264962  -0.29264962  1.0
  Ca  Ca16  1  1.29264962  -0.00000000  -0.29264962  1.0
  Ca  Ca17  1  0.29264962  -0.29264962  0.00000000  1.0
  Ca  Ca18  1  0.50000000  0.50000000  -0.50000000  1.0
  Ca  Ca19  1  0.00000000  0.00000000  0.00000000  1.0
  Al  Al20  1  0.53053214  0.53053214  -0.18329379  1.0
  Al  Al21  1  0.53053214  0.81670621  -0.46946786  1.0
  Al  Al22  1  0.18329379  0.46946786  -0.53053214  1.0
  Al  Al23  1  0.46946786  0.18329379  -0.53053214  1.0
  Al  Al24  1  0.46946786  0.46946786  -0.81670621  1.0
  Al  Al25  1  0.81670621  0.53053214  -0.46946786  1.0
  Al  Al26  1  0.21477113  0.21477113  0.00115459  1.0
  Al  Al27  1  0.21477113  1.00115459  -0.78522887  1.0
  Al  Al28  1  0.99884541  -0.21477113  -0.21477113  1.0
  Al  Al29  1  0.78522887  -0.00115459  -0.21477113  1.0
  Al  Al30  1  0.78522887  -0.21477113  -0.00115459  1.0
  Al  Al31  1  1.00115459  0.21477113  -0.78522887  1.0
  Ge  Ge32  1  0.29567315  0.29567315  -0.38202379  1.0
  Ge  Ge33  1  0.29567315  0.61797621  -0.70432685  1.0
  Ge  Ge34  1  0.38202379  0.70432685  -0.29567315  1.0
  Ge  Ge35  1  0.70432685  0.38202379  -0.29567315  1.0
  Ge  Ge36  1  0.70432685  0.70432685  -0.61797621  1.0
  Ge  Ge37  1  0.61797621  0.29567315  -0.70432685  1.0
  Ge  Ge38  1  0.39118422  0.39118422  -0.01301767  1.0
  Ge  Ge39  1  0.39118422  0.98698233  -0.60881578  1.0
  Ge  Ge40  1  1.01301767  -0.39118422  -0.39118422  1.0
  Ge  Ge41  1  0.60881578  0.01301767  -0.39118422  1.0
  Ge  Ge42  1  0.60881578  -0.39118422  0.01301767  1.0
  Ge  Ge43  1  0.98698233  0.39118422  -0.60881578  1.0
  Ge  Ge44  1  1.01312945  1.01312945  0.68544060  1.0
  Ge  Ge45  1  1.01312945  1.68544060  0.01312945  1.0
  Ge  Ge46  1  1.31455940  -0.01312945  -0.01312945  1.0
  Ge  Ge47  1  0.98687055  0.31455940  -0.01312945  1.0
  Ge  Ge48  1  0.98687055  -0.01312945  0.31455940  1.0
  Ge  Ge49  1  1.68544060  1.01312945  0.01312945  1.0
