# generated using pymatgen
data_Ba3NaOs2O9
_symmetry_space_group_name_H-M   'P 1'
_cell_length_a   5.96431600
_cell_length_b   5.96431600
_cell_length_c   14.46201548
_cell_angle_alpha   90.00000000
_cell_angle_beta   90.00000000
_cell_angle_gamma   120.00000000
_symmetry_Int_Tables_number   1
_chemical_formula_structural   Ba3NaOs2O9
_chemical_formula_sum   'Ba6 Na2 Os4 O18'
_cell_volume   445.53388973
_cell_formula_units_Z   2
loop_
 _symmetry_equiv_pos_site_id
 _symmetry_equiv_pos_as_xyz
  1  'x, y, z'
loop_
 _atom_site_type_symbol
 _atom_site_label
 _atom_site_symmetry_multiplicity
 _atom_site_fract_x
 _atom_site_fract_y
 _atom_site_fract_z
 _atom_site_occupancy
  O  O0  1  0.50878452  0.49121548  0.25000000  1.0
  O  O1  1  0.50878452  0.01756904  0.25000000  1.0
  O  O2  1  0.49121548  0.50878452  0.75000000  1.0
  O  O3  1  0.49121548  0.98243096  0.75000000  1.0
  O  O4  1  0.98243096  0.49121548  0.25000000  1.0
  O  O5  1  0.01756904  0.50878452  0.75000000  1.0
  O  O6  1  0.18043496  0.81956504  0.90816276  1.0
  O  O7  1  0.18043496  0.81956504  0.59183724  1.0
  O  O8  1  0.18043496  0.36086992  0.90816276  1.0
  O  O9  1  0.18043496  0.36086992  0.59183724  1.0
  O  O10  1  0.81956504  0.18043496  0.40816276  1.0
  O  O11  1  0.81956504  0.18043496  0.09183724  1.0
  O  O12  1  0.81956504  0.63913008  0.40816276  1.0
  O  O13  1  0.81956504  0.63913008  0.09183724  1.0
  O  O14  1  0.63913008  0.81956504  0.90816276  1.0
  O  O15  1  0.63913008  0.81956504  0.59183724  1.0
  O  O16  1  0.36086992  0.18043496  0.40816276  1.0
  O  O17  1  0.36086992  0.18043496  0.09183724  1.0
  Os  Os18  1  0.33333333  0.66666667  0.83731994  1.0
  Os  Os19  1  0.33333333  0.66666667  0.66268006  1.0
  Os  Os20  1  0.66666667  0.33333333  0.33731994  1.0
  Os  Os21  1  0.66666667  0.33333333  0.16268006  1.0
  Ba  Ba22  1  0.33333333  0.66666667  0.41110660  1.0
  Ba  Ba23  1  0.33333333  0.66666667  0.08889340  1.0
  Ba  Ba24  1  0.66666667  0.33333333  0.91110660  1.0
  Ba  Ba25  1  0.66666667  0.33333333  0.58889340  1.0
  Ba  Ba26  1  0.00000000  0.00000000  0.25000000  1.0
  Ba  Ba27  1  0.00000000  0.00000000  0.75000000  1.0
  Na  Na28  1  0.00000000  0.00000000  0.50000000  1.0
  Na  Na29  1  0.00000000  0.00000000  0.00000000  1.0
