# generated using pymatgen
data_NiB
_symmetry_space_group_name_H-M   'P 1'
_cell_length_a   3.96502251
_cell_length_b   3.96502251
_cell_length_c   2.98061279
_cell_angle_alpha   90.00000000
_cell_angle_beta   90.00000000
_cell_angle_gamma   136.33324047
_symmetry_Int_Tables_number   1
_chemical_formula_structural   NiB
_chemical_formula_sum   'Ni2 B2'
_cell_volume   32.35468671
_cell_formula_units_Z   2
loop_
 _symmetry_equiv_pos_site_id
 _symmetry_equiv_pos_as_xyz
  1  'x, y, z'
loop_
 _atom_site_type_symbol
 _atom_site_label
 _atom_site_symmetry_multiplicity
 _atom_site_fract_x
 _atom_site_fract_y
 _atom_site_fract_z
 _atom_site_occupancy
  Ni  Ni0  1  -0.64700910  0.64700910  0.25000000  1.0
  Ni  Ni1  1  -0.35299090  1.35299090  0.75000000  1.0
  B  B2  1  -0.93333168  0.93333168  0.25000000  1.0
  B  B3  1  -0.06666832  1.06666832  0.75000000  1.0
