# generated using pymatgen
data_BaH6C2S2N2O3
_symmetry_space_group_name_H-M   'P 1'
_cell_length_a   8.38319649
_cell_length_b   8.38319649
_cell_length_c   13.75362681
_cell_angle_alpha   81.36274367
_cell_angle_beta   98.63725633
_cell_angle_gamma   148.82397490
_symmetry_Int_Tables_number   1
_chemical_formula_structural   BaH6C2S2N2O3
_chemical_formula_sum   'Ba2 H12 C4 S4 N4 O6'
_cell_volume   494.24798687
_cell_formula_units_Z   2
loop_
 _symmetry_equiv_pos_site_id
 _symmetry_equiv_pos_as_xyz
  1  'x, y, z'
loop_
 _atom_site_type_symbol
 _atom_site_label
 _atom_site_symmetry_multiplicity
 _atom_site_fract_x
 _atom_site_fract_y
 _atom_site_fract_z
 _atom_site_occupancy
  Ba  Ba0  1  0.13122631  -0.13122631  0.26807880  1.0
  Ba  Ba1  1  0.86877369  0.13122631  0.73192120  1.0
  H  H2  1  0.86732619  0.79021611  0.62289324  1.0
  H  H3  1  0.20978389  0.13267381  0.62289324  1.0
  H  H4  1  0.79021611  -0.13267381  0.37710676  1.0
  H  H5  1  1.13267381  0.20978389  0.37710676  1.0
  H  H6  1  0.95869871  0.69854513  0.02539311  1.0
  H  H7  1  0.30145487  0.04130129  0.02539311  1.0
  H  H8  1  0.69854513  -0.04130129  0.97460689  1.0
  H  H9  1  1.04130129  0.30145487  0.97460689  1.0
  H  H10  1  0.21938468  -0.21938468  0.70841630  1.0
  H  H11  1  0.78061532  0.21938468  0.29158370  1.0
  H  H12  1  0.77430220  0.22569780  0.17844291  1.0
  H  H13  1  0.22569780  -0.22569780  0.82155709  1.0
  C  C14  1  0.34705171  -0.34705171  0.50482774  1.0
  C  C15  1  0.65294829  0.34705171  0.49517226  1.0
  C  C16  1  0.45753111  -0.45753111  0.15106984  1.0
  C  C17  1  0.54246889  0.45753111  0.84893016  1.0
  S  S18  1  0.35848762  -0.35848762  0.10094523  1.0
  S  S19  1  0.64151238  0.35848762  0.89905477  1.0
  S  S20  1  0.35006329  -0.35006329  0.38594599  1.0
  S  S21  1  0.64993671  0.35006329  0.61405401  1.0
  N  N22  1  0.34473824  -0.34473824  0.59042457  1.0
  N  N23  1  0.65526176  0.34473824  0.40957543  1.0
  N  N24  1  0.52864157  0.47135843  0.18915606  1.0
  N  N25  1  0.47135843  -0.47135843  0.81084394  1.0
  O  O26  1  0.00364518  -0.00364518  0.63425015  1.0
  O  O27  1  0.99635482  0.00364518  0.36574985  1.0
  O  O28  1  0.13345474  -0.13345474  0.07026791  1.0
  O  O29  1  0.86654526  0.13345474  0.92973209  1.0
  O  O30  1  0.73979677  0.26020323  0.23088029  1.0
  O  O31  1  0.26020323  -0.26020323  0.76911971  1.0
