# generated using pymatgen
data_KLiYbF5
_symmetry_space_group_name_H-M   'P 1'
_cell_length_a   6.54842922
_cell_length_b   11.86631389
_cell_length_c   6.34358263
_cell_angle_alpha   90.00000000
_cell_angle_beta   114.39481701
_cell_angle_gamma   90.00000000
_symmetry_Int_Tables_number   1
_chemical_formula_structural   KLiYbF5
_chemical_formula_sum   'K4 Li4 Yb4 F20'
_cell_volume   448.92411429
_cell_formula_units_Z   4
loop_
 _symmetry_equiv_pos_site_id
 _symmetry_equiv_pos_as_xyz
  1  'x, y, z'
loop_
 _atom_site_type_symbol
 _atom_site_label
 _atom_site_symmetry_multiplicity
 _atom_site_fract_x
 _atom_site_fract_y
 _atom_site_fract_z
 _atom_site_occupancy
  K  K0  1  0.94617688  0.84963060  0.46391861  1.0
  K  K1  1  0.94617688  0.65036940  0.96391861  1.0
  K  K2  1  0.05382312  0.34963060  0.03608139  1.0
  K  K3  1  0.05382312  0.15036940  0.53608139  1.0
  Li  Li4  1  0.55577740  0.24719584  0.46321039  1.0
  Li  Li5  1  0.55577740  0.25280416  0.96321039  1.0
  Li  Li6  1  0.44422260  0.74719584  0.03678961  1.0
  Li  Li7  1  0.44422260  0.75280416  0.53678961  1.0
  Yb  Yb8  1  0.68058187  0.49784803  0.32134414  1.0
  Yb  Yb9  1  0.68058187  0.00215197  0.82134414  1.0
  Yb  Yb10  1  0.31941813  0.99784803  0.17865586  1.0
  Yb  Yb11  1  0.31941813  0.50215197  0.67865586  1.0
  F  F12  1  0.95678124  0.00970870  0.17217170  1.0
  F  F13  1  0.95678124  0.49029130  0.67217170  1.0
  F  F14  1  0.04321876  0.50970870  0.32782830  1.0
  F  F15  1  0.04321876  0.99029130  0.82782830  1.0
  F  F16  1  0.71818445  0.30564474  0.28107721  1.0
  F  F17  1  0.71818445  0.19435526  0.78107721  1.0
  F  F18  1  0.28181555  0.80564474  0.21892279  1.0
  F  F19  1  0.28181555  0.69435526  0.71892279  1.0
  F  F20  1  0.66298838  0.03193786  0.45341909  1.0
  F  F21  1  0.66298838  0.46806214  0.95341909  1.0
  F  F22  1  0.33701162  0.53193786  0.04658091  1.0
  F  F23  1  0.33701162  0.96806214  0.54658091  1.0
  F  F24  1  0.45955956  0.39644589  0.46060178  1.0
  F  F25  1  0.45955956  0.10355411  0.96060178  1.0
  F  F26  1  0.54044044  0.89644589  0.03939822  1.0
  F  F27  1  0.54044044  0.60355411  0.53939822  1.0
  F  F28  1  0.29107610  0.17416930  0.27551169  1.0
  F  F29  1  0.29107610  0.32583070  0.77551169  1.0
  F  F30  1  0.70892390  0.67416930  0.22448831  1.0
  F  F31  1  0.70892390  0.82583070  0.72448831  1.0
