# generated using pymatgen
data_Nd2Ni2Pb
_symmetry_space_group_name_H-M   'P 1'
_cell_length_a   7.58180168
_cell_length_b   7.58180168
_cell_length_c   3.76285168
_cell_angle_alpha   90.00000000
_cell_angle_beta   90.00000000
_cell_angle_gamma   148.37923473
_symmetry_Int_Tables_number   1
_chemical_formula_structural   Nd2Ni2Pb
_chemical_formula_sum   'Nd2 Ni2 Pb1'
_cell_volume   113.40632818
_cell_formula_units_Z   1
loop_
 _symmetry_equiv_pos_site_id
 _symmetry_equiv_pos_as_xyz
  1  'x, y, z'
loop_
 _atom_site_type_symbol
 _atom_site_label
 _atom_site_symmetry_multiplicity
 _atom_site_fract_x
 _atom_site_fract_y
 _atom_site_fract_z
 _atom_site_occupancy
  Nd  Nd0  1  0.35839881  0.64160119  0.50000000  1.0
  Nd  Nd1  1  -0.35839881  0.35839881  0.50000000  1.0
  Ni  Ni2  1  0.20071182  0.79928818  0.00000000  1.0
  Ni  Ni3  1  -0.20071182  0.20071182  0.00000000  1.0
  Pb  Pb4  1  0.00000000  0.00000000  0.00000000  1.0
