# generated using pymatgen
data_Zr4AlNi2
_symmetry_space_group_name_H-M   'P 1'
_cell_length_a   9.28446559
_cell_length_b   9.28446559
_cell_length_c   9.28446559
_cell_angle_alpha   60.00000000
_cell_angle_beta   60.00000000
_cell_angle_gamma   60.00000000
_symmetry_Int_Tables_number   1
_chemical_formula_structural   Zr4AlNi2
_chemical_formula_sum   'Zr16 Al4 Ni8'
_cell_volume   565.92090216
_cell_formula_units_Z   4
loop_
 _symmetry_equiv_pos_site_id
 _symmetry_equiv_pos_as_xyz
  1  'x, y, z'
loop_
 _atom_site_type_symbol
 _atom_site_label
 _atom_site_symmetry_multiplicity
 _atom_site_fract_x
 _atom_site_fract_y
 _atom_site_fract_z
 _atom_site_occupancy
  Zr  Zr0  1  0.62500000  0.62500000  1.12500000  1.0
  Zr  Zr1  1  0.62500000  1.12500000  0.62500000  1.0
  Zr  Zr2  1  1.12500000  0.62500000  0.62500000  1.0
  Zr  Zr3  1  0.62500000  0.62500000  0.62500000  1.0
  Zr  Zr4  1  1.47703504  0.47703504  0.02296496  1.0
  Zr  Zr5  1  1.02296496  0.47703504  0.02296496  1.0
  Zr  Zr6  1  1.47703504  0.02296496  0.02296496  1.0
  Zr  Zr7  1  1.02296496  0.02296496  0.47703504  1.0
  Zr  Zr8  1  1.47703504  0.02296496  0.47703504  1.0
  Zr  Zr9  1  1.02296496  0.47703504  0.47703504  1.0
  Zr  Zr10  1  0.77296496  0.77296496  -0.77296496  1.0
  Zr  Zr11  1  1.22703504  -0.22703504  0.22703504  1.0
  Zr  Zr12  1  -0.22703504  0.22703504  0.22703504  1.0
  Zr  Zr13  1  0.22703504  0.22703504  -0.22703504  1.0
  Zr  Zr14  1  0.77296496  -0.77296496  0.77296496  1.0
  Zr  Zr15  1  -0.77296496  0.77296496  0.77296496  1.0
  Al  Al16  1  0.12500000  0.12500000  1.62500000  1.0
  Al  Al17  1  0.12500000  0.62500000  1.12500000  1.0
  Al  Al18  1  1.62500000  0.12500000  0.12500000  1.0
  Al  Al19  1  1.12500000  0.12500000  0.12500000  1.0
  Ni  Ni20  1  0.82478865  -0.17521135  0.52563406  1.0
  Ni  Ni21  1  0.82478865  -0.47436594  0.82478865  1.0
  Ni  Ni22  1  0.52563406  0.82478865  0.82478865  1.0
  Ni  Ni23  1  0.82478865  0.82478865  0.82478865  1.0
  Ni  Ni24  1  1.42521135  0.42521135  -0.27563406  1.0
  Ni  Ni25  1  1.42521135  -0.27563406  0.42521135  1.0
  Ni  Ni26  1  0.72436594  0.42521135  0.42521135  1.0
  Ni  Ni27  1  1.42521135  0.42521135  0.42521135  1.0
