# generated using pymatgen
data_AlAu
_symmetry_space_group_name_H-M   'P 1'
_cell_length_a   6.35892860
_cell_length_b   3.43773174
_cell_length_c   6.40867021
_cell_angle_alpha   90.00000000
_cell_angle_beta   92.44294694
_cell_angle_gamma   90.00000000
_symmetry_Int_Tables_number   1
_chemical_formula_structural   AlAu
_chemical_formula_sum   'Al4 Au4'
_cell_volume   139.96806940
_cell_formula_units_Z   4
loop_
 _symmetry_equiv_pos_site_id
 _symmetry_equiv_pos_as_xyz
  1  'x, y, z'
loop_
 _atom_site_type_symbol
 _atom_site_label
 _atom_site_symmetry_multiplicity
 _atom_site_fract_x
 _atom_site_fract_y
 _atom_site_fract_z
 _atom_site_occupancy
  Al  Al0  1  0.41978575  0.25000000  0.81947444  1.0
  Al  Al1  1  0.58021425  0.75000000  0.18052556  1.0
  Al  Al2  1  0.05194919  0.25000000  0.32113045  1.0
  Al  Al3  1  0.94805081  0.75000000  0.67886955  1.0
  Au  Au4  1  0.80863290  0.25000000  0.97830574  1.0
  Au  Au5  1  0.19136710  0.75000000  0.02169426  1.0
  Au  Au6  1  0.68764232  0.25000000  0.50312714  1.0
  Au  Au7  1  0.31235768  0.75000000  0.49687286  1.0
