# generated using pymatgen
data_Na3BO3
_symmetry_space_group_name_H-M   'P 1'
_cell_length_a   5.73870751
_cell_length_b   7.55667445
_cell_length_c   9.72299523
_cell_angle_alpha   90.00000000
_cell_angle_beta   123.35609368
_cell_angle_gamma   90.00000000
_symmetry_Int_Tables_number   1
_chemical_formula_structural   Na3BO3
_chemical_formula_sum   'Na12 B4 O12'
_cell_volume   352.18550457
_cell_formula_units_Z   4
loop_
 _symmetry_equiv_pos_site_id
 _symmetry_equiv_pos_as_xyz
  1  'x, y, z'
loop_
 _atom_site_type_symbol
 _atom_site_label
 _atom_site_symmetry_multiplicity
 _atom_site_fract_x
 _atom_site_fract_y
 _atom_site_fract_z
 _atom_site_occupancy
  Na  Na0  1  0.90306271  0.78232735  0.27763339  1.0
  Na  Na1  1  0.90306271  0.71767265  0.77763339  1.0
  Na  Na2  1  0.09693729  0.28232735  0.22236661  1.0
  Na  Na3  1  0.09693729  0.21767265  0.72236661  1.0
  Na  Na4  1  0.70885045  0.47329993  0.45660465  1.0
  Na  Na5  1  0.70885045  0.02670007  0.95660465  1.0
  Na  Na6  1  0.29114955  0.97329993  0.04339535  1.0
  Na  Na7  1  0.29114955  0.52670007  0.54339535  1.0
  Na  Na8  1  0.44776222  0.35106147  0.06862449  1.0
  Na  Na9  1  0.44776222  0.14893853  0.56862449  1.0
  Na  Na10  1  0.55223778  0.85106147  0.43137551  1.0
  Na  Na11  1  0.55223778  0.64893853  0.93137551  1.0
  B  B12  1  0.77635960  0.16247886  0.34558457  1.0
  B  B13  1  0.77635960  0.33752114  0.84558457  1.0
  B  B14  1  0.22364040  0.66247886  0.15441543  1.0
  B  B15  1  0.22364040  0.83752114  0.65441543  1.0
  O  O16  1  0.98974906  0.76707308  0.04934517  1.0
  O  O17  1  0.98974906  0.73292692  0.54934517  1.0
  O  O18  1  0.01025094  0.26707308  0.45065483  1.0
  O  O19  1  0.01025094  0.23292692  0.95065483  1.0
  O  O20  1  0.74840233  0.08583001  0.20652660  1.0
  O  O21  1  0.74840233  0.41416999  0.70652660  1.0
  O  O22  1  0.25159767  0.58583001  0.29347340  1.0
  O  O23  1  0.25159767  0.91416999  0.79347340  1.0
  O  O24  1  0.55974775  0.14826239  0.37128282  1.0
  O  O25  1  0.55974775  0.35173761  0.87128282  1.0
  O  O26  1  0.44025225  0.64826239  0.12871718  1.0
  O  O27  1  0.44025225  0.85173761  0.62871718  1.0
