# generated using pymatgen
data_RbFeP2O7
_symmetry_space_group_name_H-M   'P 1'
_cell_length_a   7.65032711
_cell_length_b   10.19069740
_cell_length_c   8.43166778
_cell_angle_alpha   90.00000000
_cell_angle_beta   105.85084142
_cell_angle_gamma   90.00000000
_symmetry_Int_Tables_number   1
_chemical_formula_structural   RbFeP2O7
_chemical_formula_sum   'Rb4 Fe4 P8 O28'
_cell_volume   632.35599081
_cell_formula_units_Z   4
loop_
 _symmetry_equiv_pos_site_id
 _symmetry_equiv_pos_as_xyz
  1  'x, y, z'
loop_
 _atom_site_type_symbol
 _atom_site_label
 _atom_site_symmetry_multiplicity
 _atom_site_fract_x
 _atom_site_fract_y
 _atom_site_fract_z
 _atom_site_occupancy
  Fe  Fe0  1  0.76181534  0.40008128  0.24162725  1.0
  Fe  Fe1  1  0.76181534  0.09991872  0.74162725  1.0
  Fe  Fe2  1  0.23818466  0.90008128  0.25837275  1.0
  Fe  Fe3  1  0.23818466  0.59991872  0.75837275  1.0
  O  O4  1  0.84915577  0.41316443  0.48470929  1.0
  O  O5  1  0.84915577  0.08683557  0.98470929  1.0
  O  O6  1  0.15084423  0.91316443  0.01529071  1.0
  O  O7  1  0.15084423  0.58683557  0.51529071  1.0
  O  O8  1  0.67268155  0.05378629  0.19552721  1.0
  O  O9  1  0.67268155  0.44621371  0.69552721  1.0
  O  O10  1  0.32731845  0.55378629  0.30447279  1.0
  O  O11  1  0.32731845  0.94621371  0.80447279  1.0
  O  O12  1  0.67894762  0.10363002  0.49083004  1.0
  O  O13  1  0.67894762  0.39636998  0.99083004  1.0
  O  O14  1  0.32105238  0.60363002  0.00916996  1.0
  O  O15  1  0.32105238  0.89636998  0.50916996  1.0
  O  O16  1  0.55862529  0.27781091  0.26274401  1.0
  O  O17  1  0.55862529  0.22218909  0.76274401  1.0
  O  O18  1  0.44137471  0.77781091  0.23725599  1.0
  O  O19  1  0.44137471  0.72218909  0.73725599  1.0
  O  O20  1  0.99303704  0.49747129  0.22770834  1.0
  O  O21  1  0.99303704  0.00252871  0.72770834  1.0
  O  O22  1  0.00696296  0.99747129  0.27229166  1.0
  O  O23  1  0.00696296  0.50252871  0.77229166  1.0
  O  O24  1  0.37528819  0.07395194  0.26825344  1.0
  O  O25  1  0.37528819  0.42604806  0.76825344  1.0
  O  O26  1  0.62471181  0.57395194  0.23174656  1.0
  O  O27  1  0.62471181  0.92604806  0.73174656  1.0
  O  O28  1  0.91501234  0.23505989  0.23901303  1.0
  O  O29  1  0.91501234  0.26494011  0.73901303  1.0
  O  O30  1  0.08498766  0.73505989  0.26098697  1.0
  O  O31  1  0.08498766  0.76494011  0.76098697  1.0
  Rb  Rb32  1  0.81328323  0.81413890  0.44887897  1.0
  Rb  Rb33  1  0.81328323  0.68586110  0.94887897  1.0
  Rb  Rb34  1  0.18671677  0.31413890  0.05112103  1.0
  Rb  Rb35  1  0.18671677  0.18586110  0.55112103  1.0
  P  P36  1  0.86893138  0.09557070  0.16876394  1.0
  P  P37  1  0.86893138  0.40442930  0.66876394  1.0
  P  P38  1  0.13106862  0.59557070  0.33123606  1.0
  P  P39  1  0.13106862  0.90442930  0.83123606  1.0
  P  P40  1  0.56808482  0.13180174  0.31366458  1.0
  P  P41  1  0.56808482  0.36819826  0.81366458  1.0
  P  P42  1  0.43191518  0.63180174  0.18633542  1.0
  P  P43  1  0.43191518  0.86819826  0.68633542  1.0
