# generated using pymatgen
data_CaCd2Cu9
_symmetry_space_group_name_H-M   'P 1'
_cell_length_a   8.43054846
_cell_length_b   8.43054846
_cell_length_c   5.08032216
_cell_angle_alpha   90.00000000
_cell_angle_beta   90.00000000
_cell_angle_gamma   90.00000000
_symmetry_Int_Tables_number   1
_chemical_formula_structural   CaCd2Cu9
_chemical_formula_sum   'Ca2 Cd4 Cu18'
_cell_volume   361.07956591
_cell_formula_units_Z   2
loop_
 _symmetry_equiv_pos_site_id
 _symmetry_equiv_pos_as_xyz
  1  'x, y, z'
loop_
 _atom_site_type_symbol
 _atom_site_label
 _atom_site_symmetry_multiplicity
 _atom_site_fract_x
 _atom_site_fract_y
 _atom_site_fract_z
 _atom_site_occupancy
  Ca  Ca0  1  0.50000000  0.50000000  0.00000000  1.0
  Ca  Ca1  1  0.00000000  0.00000000  0.00000000  1.0
  Cd  Cd2  1  0.87761783  0.62238217  0.00000000  1.0
  Cd  Cd3  1  0.37761783  0.87761783  0.00000000  1.0
  Cd  Cd4  1  0.12238217  0.37761783  0.00000000  1.0
  Cd  Cd5  1  0.62238217  0.12238217  0.00000000  1.0
  Cu  Cu6  1  0.32242278  0.17757722  0.75300489  1.0
  Cu  Cu7  1  0.32242278  0.17757722  0.24699511  1.0
  Cu  Cu8  1  0.82242278  0.32242278  0.75300489  1.0
  Cu  Cu9  1  0.82242278  0.32242278  0.24699511  1.0
  Cu  Cu10  1  0.67757722  0.82242278  0.75300489  1.0
  Cu  Cu11  1  0.67757722  0.82242278  0.24699511  1.0
  Cu  Cu12  1  0.17757722  0.67757722  0.75300489  1.0
  Cu  Cu13  1  0.17757722  0.67757722  0.24699511  1.0
  Cu  Cu14  1  0.43628637  0.70590514  0.50000000  1.0
  Cu  Cu15  1  0.93628637  0.79409486  0.50000000  1.0
  Cu  Cu16  1  0.29409486  0.43628637  0.50000000  1.0
  Cu  Cu17  1  0.79409486  0.06371363  0.50000000  1.0
  Cu  Cu18  1  0.56371363  0.29409486  0.50000000  1.0
  Cu  Cu19  1  0.06371363  0.20590514  0.50000000  1.0
  Cu  Cu20  1  0.70590514  0.56371363  0.50000000  1.0
  Cu  Cu21  1  0.20590514  0.93628637  0.50000000  1.0
  Cu  Cu22  1  0.50000000  0.00000000  0.50000000  1.0
  Cu  Cu23  1  0.00000000  0.50000000  0.50000000  1.0
