# generated using pymatgen
data_Tl3PbCl5
_symmetry_space_group_name_H-M   'P 1'
_cell_length_a   8.63231988
_cell_length_b   8.63231988
_cell_length_c   15.27302096
_cell_angle_alpha   90.00000000
_cell_angle_beta   90.00000000
_cell_angle_gamma   90.00000000
_symmetry_Int_Tables_number   1
_chemical_formula_structural   Tl3PbCl5
_chemical_formula_sum   'Tl12 Pb4 Cl20'
_cell_volume   1138.09888542
_cell_formula_units_Z   4
loop_
 _symmetry_equiv_pos_site_id
 _symmetry_equiv_pos_as_xyz
  1  'x, y, z'
loop_
 _atom_site_type_symbol
 _atom_site_label
 _atom_site_symmetry_multiplicity
 _atom_site_fract_x
 _atom_site_fract_y
 _atom_site_fract_z
 _atom_site_occupancy
  Tl  Tl0  1  0.98441189  0.80673712  0.70632267  1.0
  Tl  Tl1  1  0.80673712  0.01558811  0.45632267  1.0
  Tl  Tl2  1  0.01558811  0.19326288  0.20632267  1.0
  Tl  Tl3  1  0.19326288  0.98441189  0.95632267  1.0
  Tl  Tl4  1  0.81422567  0.61616996  0.97151786  1.0
  Tl  Tl5  1  0.61616996  0.18577433  0.72151786  1.0
  Tl  Tl6  1  0.18577433  0.38383004  0.47151786  1.0
  Tl  Tl7  1  0.38383004  0.81422567  0.22151786  1.0
  Tl  Tl8  1  0.32876367  0.87879688  0.52428687  1.0
  Tl  Tl9  1  0.87879688  0.67123633  0.27428687  1.0
  Tl  Tl10  1  0.67123633  0.12120312  0.02428687  1.0
  Tl  Tl11  1  0.12120312  0.32876367  0.77428687  1.0
  Pb  Pb12  1  0.71376423  0.49371455  0.53253087  1.0
  Pb  Pb13  1  0.49371455  0.28623577  0.28253087  1.0
  Pb  Pb14  1  0.28623577  0.50628545  0.03253087  1.0
  Pb  Pb15  1  0.50628545  0.71376423  0.78253087  1.0
  Cl  Cl16  1  0.98314322  0.68329389  0.49850686  1.0
  Cl  Cl17  1  0.68329389  0.01685678  0.24850686  1.0
  Cl  Cl18  1  0.01685678  0.31670611  -0.00149314  1.0
  Cl  Cl19  1  0.31670611  0.98314322  0.74850686  1.0
  Cl  Cl20  1  0.77465852  0.94345202  0.84983988  1.0
  Cl  Cl21  1  0.94345202  0.22534148  0.59983988  1.0
  Cl  Cl22  1  0.22534148  0.05654798  0.34983988  1.0
  Cl  Cl23  1  0.05654798  0.77465852  0.09983988  1.0
  Cl  Cl24  1  0.78875785  0.51708253  0.75719015  1.0
  Cl  Cl25  1  0.51708253  0.21124215  0.50719015  1.0
  Cl  Cl26  1  0.21124215  0.48291747  0.25719015  1.0
  Cl  Cl27  1  0.48291747  0.78875785  0.00719015  1.0
  Cl  Cl28  1  0.64447578  0.82959370  0.62520020  1.0
  Cl  Cl29  1  0.82959370  0.35552422  0.37520020  1.0
  Cl  Cl30  1  0.35552422  0.17040630  0.12520020  1.0
  Cl  Cl31  1  0.17040630  0.64447578  0.87520020  1.0
  Cl  Cl32  1  0.35576048  0.52718389  0.65860463  1.0
  Cl  Cl33  1  0.52718389  0.64423952  0.40860463  1.0
  Cl  Cl34  1  0.64423952  0.47281611  0.15860463  1.0
  Cl  Cl35  1  0.47281611  0.35576048  0.90860463  1.0
