# generated using pymatgen
data_Mn(NO3)2
_symmetry_space_group_name_H-M   'P 1'
_cell_length_a   7.76789436
_cell_length_b   7.76789436
_cell_length_c   7.76789436
_cell_angle_alpha   90.00000000
_cell_angle_beta   90.00000000
_cell_angle_gamma   90.00000000
_symmetry_Int_Tables_number   1
_chemical_formula_structural   Mn(NO3)2
_chemical_formula_sum   'Mn4 N8 O24'
_cell_volume   468.71616505
_cell_formula_units_Z   4
loop_
 _symmetry_equiv_pos_site_id
 _symmetry_equiv_pos_as_xyz
  1  'x, y, z'
loop_
 _atom_site_type_symbol
 _atom_site_label
 _atom_site_symmetry_multiplicity
 _atom_site_fract_x
 _atom_site_fract_y
 _atom_site_fract_z
 _atom_site_occupancy
  Mn  Mn0  1  0.50000000  -0.00000000  0.50000000  1.0
  Mn  Mn1  1  0.50000000  0.50000000  0.00000000  1.0
  Mn  Mn2  1  -0.00000000  -0.00000000  -0.00000000  1.0
  Mn  Mn3  1  0.00000000  0.50000000  0.50000000  1.0
  N  N4  1  0.17316998  0.67316998  0.82683002  1.0
  N  N5  1  0.17316998  0.82683002  0.32683002  1.0
  N  N6  1  0.67316998  0.67316998  0.67316998  1.0
  N  N7  1  0.67316998  0.82683002  0.17316998  1.0
  N  N8  1  0.82683002  0.17316998  0.67316998  1.0
  N  N9  1  0.82683002  0.32683002  0.17316998  1.0
  N  N10  1  0.32683002  0.17316998  0.82683002  1.0
  N  N11  1  0.32683002  0.32683002  0.32683002  1.0
  O  O12  1  0.28529664  0.67841366  0.94394859  1.0
  O  O13  1  0.28529664  0.82158634  0.44394859  1.0
  O  O14  1  0.78529664  0.67841366  0.55605141  1.0
  O  O15  1  0.78529664  0.82158634  0.05605141  1.0
  O  O16  1  0.17841366  0.55605141  0.71470336  1.0
  O  O17  1  0.17841366  0.94394859  0.21470336  1.0
  O  O18  1  0.67841366  0.55605141  0.78529664  1.0
  O  O19  1  0.67841366  0.94394859  0.28529664  1.0
  O  O20  1  0.05605141  0.78529664  0.82158634  1.0
  O  O21  1  0.05605141  0.71470336  0.32158634  1.0
  O  O22  1  0.55605141  0.78529664  0.67841366  1.0
  O  O23  1  0.55605141  0.71470336  0.17841366  1.0
  O  O24  1  0.71470336  0.17841366  0.55605141  1.0
  O  O25  1  0.71470336  0.32158634  0.05605141  1.0
  O  O26  1  0.21470336  0.17841366  0.94394859  1.0
  O  O27  1  0.21470336  0.32158634  0.44394859  1.0
  O  O28  1  0.82158634  0.05605141  0.78529664  1.0
  O  O29  1  0.82158634  0.44394859  0.28529664  1.0
  O  O30  1  0.32158634  0.05605141  0.71470336  1.0
  O  O31  1  0.32158634  0.44394859  0.21470336  1.0
  O  O32  1  0.94394859  0.28529664  0.67841366  1.0
  O  O33  1  0.94394859  0.21470336  0.17841366  1.0
  O  O34  1  0.44394859  0.28529664  0.82158634  1.0
  O  O35  1  0.44394859  0.21470336  0.32158634  1.0
