# generated using pymatgen
data_BaLa2In2O7
_symmetry_space_group_name_H-M   'P 1'
_cell_length_a   6.00092239
_cell_length_b   6.00092239
_cell_length_c   20.97906896
_cell_angle_alpha   90.00000000
_cell_angle_beta   90.00000000
_cell_angle_gamma   90.00000000
_symmetry_Int_Tables_number   1
_chemical_formula_structural   BaLa2In2O7
_chemical_formula_sum   'Ba4 La8 In8 O28'
_cell_volume   755.47871005
_cell_formula_units_Z   4
loop_
 _symmetry_equiv_pos_site_id
 _symmetry_equiv_pos_as_xyz
  1  'x, y, z'
loop_
 _atom_site_type_symbol
 _atom_site_label
 _atom_site_symmetry_multiplicity
 _atom_site_fract_x
 _atom_site_fract_y
 _atom_site_fract_z
 _atom_site_occupancy
  Ba  Ba0  1  0.24210982  0.24210982  0.50000000  1.0
  Ba  Ba1  1  0.74210982  0.25789018  0.00000000  1.0
  Ba  Ba2  1  0.75789018  0.75789018  0.50000000  1.0
  Ba  Ba3  1  0.25789018  0.74210982  0.00000000  1.0
  La  La4  1  0.27682051  0.72317949  0.18547337  1.0
  La  La5  1  0.27682051  0.72317949  0.81452663  1.0
  La  La6  1  0.77682051  0.77682051  0.68547337  1.0
  La  La7  1  0.77682051  0.77682051  0.31452663  1.0
  La  La8  1  0.72317949  0.27682051  0.18547337  1.0
  La  La9  1  0.72317949  0.27682051  0.81452663  1.0
  La  La10  1  0.22317949  0.22317949  0.68547337  1.0
  La  La11  1  0.22317949  0.22317949  0.31452663  1.0
  In  In12  1  0.25875942  0.74124058  0.39848729  1.0
  In  In13  1  0.25875942  0.74124058  0.60151271  1.0
  In  In14  1  0.75875942  0.75875942  0.89848729  1.0
  In  In15  1  0.75875942  0.75875942  0.10151271  1.0
  In  In16  1  0.74124058  0.25875942  0.39848729  1.0
  In  In17  1  0.74124058  0.25875942  0.60151271  1.0
  In  In18  1  0.24124058  0.24124058  0.89848729  1.0
  In  In19  1  0.24124058  0.24124058  0.10151271  1.0
  O  O20  1  0.18267858  0.81732142  0.28920603  1.0
  O  O21  1  0.18267858  0.81732142  0.71079397  1.0
  O  O22  1  0.68267858  0.68267858  0.78920603  1.0
  O  O23  1  0.68267858  0.68267858  0.21079397  1.0
  O  O24  1  0.81732142  0.18267858  0.28920603  1.0
  O  O25  1  0.81732142  0.18267858  0.71079397  1.0
  O  O26  1  0.31732142  0.31732142  0.78920603  1.0
  O  O27  1  0.31732142  0.31732142  0.21079397  1.0
  O  O28  1  0.50000000  0.00000000  0.38538838  1.0
  O  O29  1  0.50000000  0.00000000  0.61461162  1.0
  O  O30  1  0.00000000  0.50000000  0.88538838  1.0
  O  O31  1  0.00000000  0.50000000  0.11461162  1.0
  O  O32  1  0.00000000  0.50000000  0.38538838  1.0
  O  O33  1  0.00000000  0.50000000  0.61461162  1.0
  O  O34  1  0.50000000  0.00000000  0.88538838  1.0
  O  O35  1  0.50000000  0.00000000  0.11461162  1.0
  O  O36  1  0.29980877  0.70019123  0.50000000  1.0
  O  O37  1  0.79980877  0.79980877  0.00000000  1.0
  O  O38  1  0.70019123  0.29980877  0.50000000  1.0
  O  O39  1  0.20019123  0.20019123  0.00000000  1.0
  O  O40  1  0.50000000  0.50000000  0.36587591  1.0
  O  O41  1  0.50000000  0.50000000  0.63412409  1.0
  O  O42  1  0.00000000  0.00000000  0.86587591  1.0
  O  O43  1  0.00000000  0.00000000  0.13412409  1.0
  O  O44  1  0.50000000  0.50000000  0.09052395  1.0
  O  O45  1  0.50000000  0.50000000  0.90947605  1.0
  O  O46  1  0.00000000  0.00000000  0.59052395  1.0
  O  O47  1  0.00000000  0.00000000  0.40947605  1.0
