# generated using pymatgen
data_Eu
_symmetry_space_group_name_H-M   'P 1'
_cell_length_a   3.82967919
_cell_length_b   5.41592641
_cell_length_c   5.42054953
_cell_angle_alpha   90.00000000
_cell_angle_beta   135.03143678
_cell_angle_gamma   90.00000000
_symmetry_Int_Tables_number   1
_chemical_formula_structural   Eu
_chemical_formula_sum   Eu2
_cell_volume   79.45569882
_cell_formula_units_Z   2
loop_
 _symmetry_equiv_pos_site_id
 _symmetry_equiv_pos_as_xyz
  1  'x, y, z'
loop_
 _atom_site_type_symbol
 _atom_site_label
 _atom_site_symmetry_multiplicity
 _atom_site_fract_x
 _atom_site_fract_y
 _atom_site_fract_z
 _atom_site_occupancy
  Eu  Eu0  1  0.00000000  0.74997276  0.25000000  1.0
  Eu  Eu1  1  0.00000000  0.25002724  0.75000000  1.0
