# generated using pymatgen
data_LiIn2CuSe4
_symmetry_space_group_name_H-M   'P 1'
_cell_length_a   7.27445156
_cell_length_b   7.27445156
_cell_length_c   7.27445156
_cell_angle_alpha   131.92235315
_cell_angle_beta   131.92235315
_cell_angle_gamma   70.35168931
_symmetry_Int_Tables_number   1
_chemical_formula_structural   LiIn2CuSe4
_chemical_formula_sum   'Li1 In2 Cu1 Se4'
_cell_volume   208.85084795
_cell_formula_units_Z   1
loop_
 _symmetry_equiv_pos_site_id
 _symmetry_equiv_pos_as_xyz
  1  'x, y, z'
loop_
 _atom_site_type_symbol
 _atom_site_label
 _atom_site_symmetry_multiplicity
 _atom_site_fract_x
 _atom_site_fract_y
 _atom_site_fract_z
 _atom_site_occupancy
  Li  Li0  1  0.25000000  0.75000000  0.50000000  1.0
  In  In1  1  0.50000000  0.50000000  1.00000000  1.0
  In  In2  1  0.75000000  0.25000000  0.50000000  1.0
  Cu  Cu3  1  0.00000000  0.00000000  0.00000000  1.0
  Se  Se4  1  1.12051305  1.10728337  1.47091562  1.0
  Se  Se5  1  0.63636775  0.64959743  0.52908438  1.0
  Se  Se6  1  0.35040257  0.87948695  0.98677032  1.0
  Se  Se7  1  0.89271663  0.36363225  1.01322968  1.0
