# generated using pymatgen
data_Ba3MgGeN4
_symmetry_space_group_name_H-M   'P 1'
_cell_length_a   6.26607887
_cell_length_b   10.68798991
_cell_length_c   10.22492228
_cell_angle_alpha   90.00000000
_cell_angle_beta   90.00000000
_cell_angle_gamma   90.00000000
_symmetry_Int_Tables_number   1
_chemical_formula_structural   Ba3MgGeN4
_chemical_formula_sum   'Ba12 Mg4 Ge4 N16'
_cell_volume   684.78132430
_cell_formula_units_Z   4
loop_
 _symmetry_equiv_pos_site_id
 _symmetry_equiv_pos_as_xyz
  1  'x, y, z'
loop_
 _atom_site_type_symbol
 _atom_site_label
 _atom_site_symmetry_multiplicity
 _atom_site_fract_x
 _atom_site_fract_y
 _atom_site_fract_z
 _atom_site_occupancy
  Ba  Ba0  1  0.38663401  0.34522392  0.59109449  1.0
  Ba  Ba1  1  0.38663401  0.15477608  0.90890551  1.0
  Ba  Ba2  1  0.88663401  0.34522392  0.40890551  1.0
  Ba  Ba3  1  0.88663401  0.15477608  0.09109449  1.0
  Ba  Ba4  1  0.61336599  0.84522392  0.09109449  1.0
  Ba  Ba5  1  0.61336599  0.65477608  0.40890551  1.0
  Ba  Ba6  1  0.11336599  0.84522392  0.90890551  1.0
  Ba  Ba7  1  0.11336599  0.65477608  0.59109449  1.0
  Ba  Ba8  1  0.75000000  0.50000000  0.08848397  1.0
  Ba  Ba9  1  0.75000000  0.00000000  0.41151603  1.0
  Ba  Ba10  1  0.25000000  0.50000000  0.91151603  1.0
  Ba  Ba11  1  0.25000000  0.00000000  0.58848397  1.0
  Mg  Mg12  1  0.83822264  0.25000000  0.75000000  1.0
  Mg  Mg13  1  0.33822264  0.25000000  0.25000000  1.0
  Mg  Mg14  1  0.16177736  0.75000000  0.25000000  1.0
  Mg  Mg15  1  0.66177736  0.75000000  0.75000000  1.0
  Ge  Ge16  1  0.75000000  0.50000000  0.76569572  1.0
  Ge  Ge17  1  0.75000000  0.00000000  0.73430428  1.0
  Ge  Ge18  1  0.25000000  0.50000000  0.23430428  1.0
  Ge  Ge19  1  0.25000000  0.00000000  0.26569572  1.0
  N  N20  1  0.97283133  0.41546171  0.66528677  1.0
  N  N21  1  0.97283133  0.08453829  0.83471323  1.0
  N  N22  1  0.47283133  0.41546171  0.33471323  1.0
  N  N23  1  0.47283133  0.08453829  0.16528677  1.0
  N  N24  1  0.02716867  0.91546171  0.16528677  1.0
  N  N25  1  0.02716867  0.58453829  0.33471323  1.0
  N  N26  1  0.52716867  0.91546171  0.83471323  1.0
  N  N27  1  0.52716867  0.58453829  0.66528677  1.0
  N  N28  1  0.62910187  0.13480154  0.63444865  1.0
  N  N29  1  0.62910187  0.36519846  0.86555135  1.0
  N  N30  1  0.12910187  0.13480154  0.36555135  1.0
  N  N31  1  0.12910187  0.36519846  0.13444865  1.0
  N  N32  1  0.37089813  0.63480154  0.13444865  1.0
  N  N33  1  0.37089813  0.86519846  0.36555135  1.0
  N  N34  1  0.87089813  0.63480154  0.86555135  1.0
  N  N35  1  0.87089813  0.86519846  0.63444865  1.0
