# generated using pymatgen
data_RbPbF3
_symmetry_space_group_name_H-M   'P 1'
_cell_length_a   6.74455919
_cell_length_b   4.78496060
_cell_length_c   13.54743403
_cell_angle_alpha   90.00000000
_cell_angle_beta   90.00000000
_cell_angle_gamma   90.00000000
_symmetry_Int_Tables_number   1
_chemical_formula_structural   RbPbF3
_chemical_formula_sum   'Rb4 Pb4 F12'
_cell_volume   437.20888735
_cell_formula_units_Z   4
loop_
 _symmetry_equiv_pos_site_id
 _symmetry_equiv_pos_as_xyz
  1  'x, y, z'
loop_
 _atom_site_type_symbol
 _atom_site_label
 _atom_site_symmetry_multiplicity
 _atom_site_fract_x
 _atom_site_fract_y
 _atom_site_fract_z
 _atom_site_occupancy
  F  F0  1  0.67884347  0.75000000  0.26566245  1.0
  F  F1  1  0.17884347  0.75000000  0.23433755  1.0
  F  F2  1  0.32115653  0.25000000  0.73433755  1.0
  F  F3  1  0.82115653  0.25000000  0.76566245  1.0
  F  F4  1  0.80782120  0.75000000  0.04492305  1.0
  F  F5  1  0.30782120  0.75000000  0.45507695  1.0
  F  F6  1  0.19217880  0.25000000  0.95507695  1.0
  F  F7  1  0.69217880  0.25000000  0.54492305  1.0
  F  F8  1  0.45251100  0.75000000  -0.14450508  1.0
  F  F9  1  -0.04748900  0.75000000  0.64450508  1.0
  F  F10  1  0.54748900  0.25000000  1.14450508  1.0
  F  F11  1  1.04748900  0.25000000  0.35549492  1.0
  Rb  Rb12  1  0.51347561  0.75000000  0.63490697  1.0
  Rb  Rb13  1  0.01347561  0.75000000  0.86509303  1.0
  Rb  Rb14  1  0.48652439  0.25000000  0.36509303  1.0
  Rb  Rb15  1  0.98652439  0.25000000  0.13490697  1.0
  Pb  Pb16  1  1.00783925  0.75000000  0.37759646  1.0
  Pb  Pb17  1  0.50783925  0.75000000  0.12240354  1.0
  Pb  Pb18  1  -0.00783925  0.25000000  0.62240354  1.0
  Pb  Pb19  1  0.49216075  0.25000000  0.87759646  1.0
