# generated using pymatgen
data_TbRe2SiC
_symmetry_space_group_name_H-M   'P 1'
_cell_length_a   5.79627282
_cell_length_b   5.79627282
_cell_length_c   7.30042172
_cell_angle_alpha   90.00000000
_cell_angle_beta   90.00000000
_cell_angle_gamma   140.15667632
_symmetry_Int_Tables_number   1
_chemical_formula_structural   TbRe2SiC
_chemical_formula_sum   'Tb2 Re4 Si2 C2'
_cell_volume   157.14256363
_cell_formula_units_Z   2
loop_
 _symmetry_equiv_pos_site_id
 _symmetry_equiv_pos_as_xyz
  1  'x, y, z'
loop_
 _atom_site_type_symbol
 _atom_site_label
 _atom_site_symmetry_multiplicity
 _atom_site_fract_x
 _atom_site_fract_y
 _atom_site_fract_z
 _atom_site_occupancy
  Tb  Tb0  1  0.45810481  0.54189519  0.75000000  1.0
  Tb  Tb1  1  -0.45810481  0.45810481  0.25000000  1.0
  Re  Re2  1  0.17357258  0.82642742  0.93900042  1.0
  Re  Re3  1  0.17357258  0.82642742  0.56099958  1.0
  Re  Re4  1  -0.17357258  0.17357258  0.43900042  1.0
  Re  Re5  1  -0.17357258  0.17357258  0.06099958  1.0
  Si  Si6  1  -0.26500820  0.26500820  0.75000000  1.0
  Si  Si7  1  0.26500820  0.73499180  0.25000000  1.0
  C  C8  1  0.00000000  0.00000000  0.00000000  1.0
  C  C9  1  0.00000000  0.00000000  0.50000000  1.0
