# generated using pymatgen
data_K4CO4
_symmetry_space_group_name_H-M   'P 1'
_cell_length_a   6.52352364
_cell_length_b   6.52352364
_cell_length_c   6.52352364
_cell_angle_alpha   99.73506540
_cell_angle_beta   99.73506540
_cell_angle_gamma   131.43842626
_symmetry_Int_Tables_number   1
_chemical_formula_structural   K4CO4
_chemical_formula_sum   'K4 C1 O4'
_cell_volume   189.71062211
_cell_formula_units_Z   1
loop_
 _symmetry_equiv_pos_site_id
 _symmetry_equiv_pos_as_xyz
  1  'x, y, z'
loop_
 _atom_site_type_symbol
 _atom_site_label
 _atom_site_symmetry_multiplicity
 _atom_site_fract_x
 _atom_site_fract_y
 _atom_site_fract_z
 _atom_site_occupancy
  K  K0  1  0.33083284  0.33083284  0.35035399  1.0
  K  K1  1  0.98047884  0.98047884  0.64964601  1.0
  K  K2  1  0.66916716  1.01952116  1.00000000  1.0
  K  K3  1  1.01952116  1.66916716  1.00000000  1.0
  C  C4  1  0.50000000  0.50000000  0.00000000  1.0
  O  O5  1  0.55135798  0.55135798  0.79995136  1.0
  O  O6  1  0.75140662  0.75140662  0.20004864  1.0
  O  O7  1  0.44864202  1.24859338  1.00000000  1.0
  O  O8  1  1.24859338  1.44864202  1.00000000  1.0
