# generated using pymatgen
data_CdH8(NO5)2
_symmetry_space_group_name_H-M   'P 1'
_cell_length_a   14.45406183
_cell_length_b   6.26658758
_cell_length_c   13.64645374
_cell_angle_alpha   84.43837777
_cell_angle_beta   25.56349551
_cell_angle_gamma   69.99812672
_symmetry_Int_Tables_number   1
_chemical_formula_structural   CdH8(NO5)2
_chemical_formula_sum   'Cd2 H16 N4 O20'
_cell_volume   427.50742882
_cell_formula_units_Z   2
loop_
 _symmetry_equiv_pos_site_id
 _symmetry_equiv_pos_as_xyz
  1  'x, y, z'
loop_
 _atom_site_type_symbol
 _atom_site_label
 _atom_site_symmetry_multiplicity
 _atom_site_fract_x
 _atom_site_fract_y
 _atom_site_fract_z
 _atom_site_occupancy
  Cd  Cd0  1  0.99616578  -0.00383422  0.00383422  1.0
  Cd  Cd1  1  1.24616578  0.24616578  0.25383422  1.0
  H  H2  1  1.43882119  -0.22501228  0.46777577  1.0
  H  H3  1  0.78222423  0.93158467  0.81117881  1.0
  H  H4  1  0.77498772  0.43882119  0.31841533  1.0
  H  H5  1  0.93158467  0.78222423  0.47501228  1.0
  H  H6  1  1.52491427  0.02168252  0.48021569  1.0
  H  H7  1  0.76978431  0.27681248  0.72508573  1.0
  H  H8  1  1.02168252  0.52491427  -0.02681248  1.0
  H  H9  1  0.27681248  0.76978431  1.22831748  1.0
  H  H10  1  1.26113235  0.07071408  0.58610081  1.0
  H  H11  1  1.66389919  0.16794724  -0.01113235  1.0
  H  H12  1  1.07071408  0.26113235  0.08205276  1.0
  H  H13  1  1.16794724  0.66389919  0.17928592  1.0
  H  H14  1  0.75817807  0.36589525  0.62178330  1.0
  H  H15  1  0.62821670  0.99585662  0.49182193  1.0
  H  H16  1  1.36589525  -0.24182193  0.25414338  1.0
  H  H17  1  0.99585662  0.62821670  0.88410475  1.0
  N  N18  1  0.59734355  0.41655790  1.20777386  1.0
  N  N19  1  1.04222614  0.47167532  0.65265645  1.0
  N  N20  1  0.41655790  0.59734355  0.77832468  1.0
  N  N21  1  0.47167532  1.04222614  0.83344210  1.0
  O  O22  1  0.82764343  0.35799366  0.62149393  1.0
  O  O23  1  0.62850607  1.05713102  0.42235657  1.0
  O  O24  1  1.35799366  -0.17235657  0.19286898  1.0
  O  O25  1  1.05713102  0.62850607  0.89200634  1.0
  O  O26  1  1.32483485  -0.03716426  0.59134234  1.0
  O  O27  1  1.65865766  0.12901293  -0.07483485  1.0
  O  O28  1  0.96283574  0.32483485  0.12098707  1.0
  O  O29  1  1.12901293  0.65865766  0.28716426  1.0
  O  O30  1  0.66063360  0.42653800  1.23567443  1.0
  O  O31  1  1.01432557  0.57284603  0.58936640  1.0
  O  O32  1  0.42653800  0.66063360  0.67715397  1.0
  O  O33  1  0.57284603  1.01432557  0.82346200  1.0
  O  O34  1  1.20499363  0.22401269  0.51785892  1.0
  O  O35  1  1.73214108  0.19686523  0.04500637  1.0
  O  O36  1  1.22401269  0.20499363  0.05313477  1.0
  O  O37  1  1.19686523  0.73214108  0.02598731  1.0
  O  O38  1  0.40406642  0.62505528  1.34518700  1.0
  O  O39  1  0.90481300  0.62430870  0.84593358  1.0
  O  O40  1  0.62505528  0.40406643  0.62569130  1.0
  O  O41  1  0.62430870  0.90481300  0.62494472  1.0
