# generated using pymatgen
data_TlS
_symmetry_space_group_name_H-M   'P 1'
_cell_length_a   6.64068381
_cell_length_b   6.64068381
_cell_length_c   6.64068381
_cell_angle_alpha   105.98884381
_cell_angle_beta   105.98884381
_cell_angle_gamma   116.68593231
_symmetry_Int_Tables_number   1
_chemical_formula_structural   TlS
_chemical_formula_sum   'Tl4 S4'
_cell_volume   222.71947061
_cell_formula_units_Z   4
loop_
 _symmetry_equiv_pos_site_id
 _symmetry_equiv_pos_as_xyz
  1  'x, y, z'
loop_
 _atom_site_type_symbol
 _atom_site_label
 _atom_site_symmetry_multiplicity
 _atom_site_fract_x
 _atom_site_fract_y
 _atom_site_fract_z
 _atom_site_occupancy
  Tl  Tl0  1  0.75000000  0.25000000  0.50000000  1.0
  Tl  Tl1  1  0.25000000  0.75000000  0.50000000  1.0
  Tl  Tl2  1  0.25000000  0.25000000  0.00000000  1.0
  Tl  Tl3  1  0.75000000  0.75000000  0.00000000  1.0
  S  S4  1  0.82960797  0.32960797  1.15921594  1.0
  S  S5  1  0.67039203  0.82960797  0.50000000  1.0
  S  S6  1  0.32960797  0.17039203  0.50000000  1.0
  S  S7  1  1.17039203  0.67039203  0.84078406  1.0
