# generated using pymatgen
data_AlVMoO7
_symmetry_space_group_name_H-M   'P 1'
_cell_length_a   12.87138370
_cell_length_b   5.42063424
_cell_length_c   8.33267819
_cell_angle_alpha   90.00000000
_cell_angle_beta   90.00000000
_cell_angle_gamma   90.00000000
_symmetry_Int_Tables_number   1
_chemical_formula_structural   AlVMoO7
_chemical_formula_sum   'Al4 V4 Mo4 O28'
_cell_volume   581.37981625
_cell_formula_units_Z   4
loop_
 _symmetry_equiv_pos_site_id
 _symmetry_equiv_pos_as_xyz
  1  'x, y, z'
loop_
 _atom_site_type_symbol
 _atom_site_label
 _atom_site_symmetry_multiplicity
 _atom_site_fract_x
 _atom_site_fract_y
 _atom_site_fract_z
 _atom_site_occupancy
  Al  Al0  1  0.38882380  0.75000000  0.76630203  1.0
  Al  Al1  1  0.88882380  0.75000000  0.73369797  1.0
  Al  Al2  1  0.61117620  0.25000000  0.23369797  1.0
  Al  Al3  1  0.11117620  0.25000000  0.26630203  1.0
  V  V4  1  0.98572945  0.75000000  0.06786651  1.0
  V  V5  1  0.48572945  0.75000000  0.43213349  1.0
  V  V6  1  0.01427055  0.25000000  0.93213349  1.0
  V  V7  1  0.51427055  0.25000000  0.56786651  1.0
  Mo  Mo8  1  0.14592236  0.75000000  0.54326504  1.0
  Mo  Mo9  1  0.64592236  0.75000000  0.95673496  1.0
  Mo  Mo10  1  0.85407764  0.25000000  0.45673496  1.0
  Mo  Mo11  1  0.35407764  0.25000000  0.04326504  1.0
  O  O12  1  0.43259540  0.97885190  0.60062702  1.0
  O  O13  1  0.43259540  0.52114810  0.60062702  1.0
  O  O14  1  0.93259540  0.97885190  0.89937298  1.0
  O  O15  1  0.93259540  0.52114810  0.89937298  1.0
  O  O16  1  0.56740460  0.47885190  0.39937298  1.0
  O  O17  1  0.56740460  0.02114810  0.39937298  1.0
  O  O18  1  0.06740460  0.47885190  0.10062702  1.0
  O  O19  1  0.06740460  0.02114810  0.10062702  1.0
  O  O20  1  0.35094194  -0.00809299  0.91420475  1.0
  O  O21  1  0.35094194  0.50809299  0.91420475  1.0
  O  O22  1  0.85094194  -0.00809299  0.58579525  1.0
  O  O23  1  0.85094194  0.50809299  0.58579525  1.0
  O  O24  1  0.64905806  0.49190701  0.08579525  1.0
  O  O25  1  0.64905806  1.00809299  0.08579525  1.0
  O  O26  1  0.14905806  0.49190701  0.41420475  1.0
  O  O27  1  0.14905806  1.00809299  0.41420475  1.0
  O  O28  1  0.40301133  0.75000000  0.29077175  1.0
  O  O29  1  0.90301133  0.75000000  0.20922825  1.0
  O  O30  1  0.59698867  0.25000000  0.70922825  1.0
  O  O31  1  0.09698867  0.25000000  0.79077175  1.0
  O  O32  1  0.25466087  0.75000000  0.67413067  1.0
  O  O33  1  0.75466087  0.75000000  0.82586933  1.0
  O  O34  1  0.74533913  0.25000000  0.32586933  1.0
  O  O35  1  0.24533913  0.25000000  0.17413067  1.0
  O  O36  1  0.02818227  0.75000000  0.65314525  1.0
  O  O37  1  0.52818227  0.75000000  0.84685475  1.0
  O  O38  1  0.97181773  0.25000000  0.34685475  1.0
  O  O39  1  0.47181773  0.25000000  0.15314525  1.0
