# generated using pymatgen
data_Na2Nb4Se4O19
_symmetry_space_group_name_H-M   'P 1'
_cell_length_a   3.98870250
_cell_length_b   11.12780321
_cell_length_c   10.36565689
_cell_angle_alpha   106.32534473
_cell_angle_beta   96.77494236
_cell_angle_gamma   90.39004926
_symmetry_Int_Tables_number   1
_chemical_formula_structural   Na2Nb4Se4O19
_chemical_formula_sum   'Na2 Nb4 Se4 O19'
_cell_volume   438.06576100
_cell_formula_units_Z   1
loop_
 _symmetry_equiv_pos_site_id
 _symmetry_equiv_pos_as_xyz
  1  'x, y, z'
loop_
 _atom_site_type_symbol
 _atom_site_label
 _atom_site_symmetry_multiplicity
 _atom_site_fract_x
 _atom_site_fract_y
 _atom_site_fract_z
 _atom_site_occupancy
  Na  Na0  1  -0.26115162  -0.86262625  -0.43442390  1.0
  Na  Na1  1  -0.73884838  -0.13737375  -0.56557610  1.0
  Nb  Nb2  1  -0.93232920  -0.32017199  -0.94452366  1.0
  Nb  Nb3  1  -0.06767080  -0.67982801  -0.05547634  1.0
  Nb  Nb4  1  -0.85286892  -0.70555111  -0.69390667  1.0
  Nb  Nb5  1  -0.14713108  -0.29444889  -0.30609333  1.0
  Se  Se6  1  -0.84101270  -0.58673075  -0.33132884  1.0
  Se  Se7  1  -0.15898730  -0.41326925  -0.66867116  1.0
  Se  Se8  1  -0.77748283  -0.98336494  -0.21605178  1.0
  Se  Se9  1  -0.22251717  -0.01663506  -0.78394822  1.0
  O  O10  1  -0.96419272  -0.69950299  -0.87650732  1.0
  O  O11  1  -0.03580728  -0.30049701  -0.12349268  1.0
  O  O12  1  -0.93728685  -0.12842994  -0.84909495  1.0
  O  O13  1  -0.06271315  -0.87157006  -0.15090505  1.0
  O  O14  1  -0.90258152  -0.32921282  -0.73770872  1.0
  O  O15  1  -0.09741848  -0.67078718  -0.26229128  1.0
  O  O16  1  -0.91367216  -0.89006815  -0.73394426  1.0
  O  O17  1  -0.08632784  -0.10993185  -0.26605574  1.0
  O  O18  1  -0.86337144  -0.51465538  -0.62572662  1.0
  O  O19  1  -0.13662856  -0.48534462  -0.37427338  1.0
  O  O20  1  -0.83774209  -0.70021301  -0.48364644  1.0
  O  O21  1  -0.16225791  -0.29978699  -0.51635356  1.0
  O  O22  1  -0.73817897  -0.96135953  -0.36729662  1.0
  O  O23  1  -0.26182103  -0.03864047  -0.63270338  1.0
  O  O24  1  -0.47345265  -0.30928832  -0.92716539  1.0
  O  O25  1  -0.52654735  -0.69071168  -0.07283461  1.0
  O  O26  1  -0.39630160  -0.70590287  -0.68325122  1.0
  O  O27  1  -0.60369840  -0.29409713  -0.31674878  1.0
  O  O28  1  -0.00000000  -0.50000000  0.00000000  1.0
