# generated using pymatgen
data_AgAsC4S8(N2F3)2
_symmetry_space_group_name_H-M   'P 1'
_cell_length_a   9.06540899
_cell_length_b   9.06540899
_cell_length_c   6.59368820
_cell_angle_alpha   90.00000000
_cell_angle_beta   90.00000000
_cell_angle_gamma   90.00000000
_symmetry_Int_Tables_number   1
_chemical_formula_structural   AgAsC4S8(N2F3)2
_chemical_formula_sum   'Ag1 As1 C4 S8 N4 F6'
_cell_volume   541.88011095
_cell_formula_units_Z   1
loop_
 _symmetry_equiv_pos_site_id
 _symmetry_equiv_pos_as_xyz
  1  'x, y, z'
loop_
 _atom_site_type_symbol
 _atom_site_label
 _atom_site_symmetry_multiplicity
 _atom_site_fract_x
 _atom_site_fract_y
 _atom_site_fract_z
 _atom_site_occupancy
  Ag  Ag0  1  0.00000000  0.00000000  0.00000000  1.0
  As  As1  1  0.50000000  0.50000000  0.00000000  1.0
  C  C2  1  0.73162912  0.89063483  0.67691605  1.0
  C  C3  1  0.26837088  0.10936517  0.67691605  1.0
  C  C4  1  0.10936517  0.73162912  0.32308395  1.0
  C  C5  1  0.89063483  0.26837088  0.32308395  1.0
  S  S6  1  0.63180919  0.79655428  0.50537025  1.0
  S  S7  1  0.36819081  0.20344572  0.50537025  1.0
  S  S8  1  0.20344572  0.63180919  0.49462975  1.0
  S  S9  1  0.79655428  0.36819081  0.49462975  1.0
  S  S10  1  0.39425691  0.03251483  0.28583357  1.0
  S  S11  1  0.60574309  0.96748517  0.28583357  1.0
  S  S12  1  0.96748517  0.39425691  0.71416643  1.0
  S  S13  1  0.03251483  0.60574309  0.71416643  1.0
  N  N14  1  0.80593748  0.94988040  0.79703311  1.0
  N  N15  1  0.19406252  0.05011960  0.79703311  1.0
  N  N16  1  0.05011960  0.80593748  0.20296689  1.0
  N  N17  1  0.94988040  0.19406252  0.20296689  1.0
  F  F18  1  0.38708289  0.66320729  0.00170171  1.0
  F  F19  1  0.61291711  0.33679271  0.00170171  1.0
  F  F20  1  0.33679271  0.38708289  0.99829829  1.0
  F  F21  1  0.66320729  0.61291711  0.99829829  1.0
  F  F22  1  0.50000000  0.50000000  0.72687065  1.0
  F  F23  1  0.50000000  0.50000000  0.27312935  1.0
