# generated using pymatgen
data_Te3Pd13
_symmetry_space_group_name_H-M   'P 1'
_cell_length_a   9.11604571
_cell_length_b   9.11604571
_cell_length_c   9.11604571
_cell_angle_alpha   60.00000000
_cell_angle_beta   60.00000000
_cell_angle_gamma   60.00000000
_symmetry_Int_Tables_number   1
_chemical_formula_structural   Te3Pd13
_chemical_formula_sum   'Te6 Pd26'
_cell_volume   535.67883184
_cell_formula_units_Z   2
loop_
 _symmetry_equiv_pos_site_id
 _symmetry_equiv_pos_as_xyz
  1  'x, y, z'
loop_
 _atom_site_type_symbol
 _atom_site_label
 _atom_site_symmetry_multiplicity
 _atom_site_fract_x
 _atom_site_fract_y
 _atom_site_fract_z
 _atom_site_occupancy
  Te  Te0  1  0.75000000  -0.25000000  0.75000000  1.0
  Te  Te1  1  0.50000000  0.50000000  -0.50000000  1.0
  Te  Te2  1  0.12500000  0.12500000  1.62500000  1.0
  Te  Te3  1  0.12500000  0.62500000  0.12500000  1.0
  Te  Te4  1  0.62500000  0.12500000  1.12500000  1.0
  Te  Te5  1  0.12500000  0.12500000  0.12500000  1.0
  Pd  Pd6  1  0.25000000  0.25000000  0.25000000  1.0
  Pd  Pd7  1  -0.00000000  1.00000000  0.00000000  1.0
  Pd  Pd8  1  0.62500000  -0.37500000  1.12500000  1.0
  Pd  Pd9  1  0.62500000  0.12500000  0.62500000  1.0
  Pd  Pd10  1  1.12500000  -0.37500000  0.62500000  1.0
  Pd  Pd11  1  0.62500000  -0.37500000  0.62500000  1.0
  Pd  Pd12  1  0.38413721  0.38413721  -0.15241163  1.0
  Pd  Pd13  1  0.38413721  -0.15241163  0.38413721  1.0
  Pd  Pd14  1  -0.15241163  0.38413721  0.38413721  1.0
  Pd  Pd15  1  0.38413721  0.38413721  0.38413721  1.0
  Pd  Pd16  1  -0.13413721  0.86586279  0.40241163  1.0
  Pd  Pd17  1  0.86586279  -0.59758837  0.86586279  1.0
  Pd  Pd18  1  -0.59758837  0.86586279  0.86586279  1.0
  Pd  Pd19  1  0.86586279  -0.13413721  0.86586279  1.0
  Pd  Pd20  1  0.48899643  0.48899643  0.01100357  1.0
  Pd  Pd21  1  0.01100357  0.48899643  0.01100357  1.0
  Pd  Pd22  1  0.48899643  0.01100357  0.01100357  1.0
  Pd  Pd23  1  0.01100357  0.01100357  0.48899643  1.0
  Pd  Pd24  1  0.48899643  0.01100357  0.48899643  1.0
  Pd  Pd25  1  0.01100357  0.48899643  0.48899643  1.0
  Pd  Pd26  1  -0.23899643  0.76100357  0.23899643  1.0
  Pd  Pd27  1  0.23899643  0.76100357  0.23899643  1.0
  Pd  Pd28  1  -0.23899643  1.23899643  0.23899643  1.0
  Pd  Pd29  1  0.23899643  0.23899643  -0.23899643  1.0
  Pd  Pd30  1  0.76100357  0.23899643  0.76100357  1.0
  Pd  Pd31  1  0.23899643  0.76100357  -0.23899643  1.0
