# generated using pymatgen
data_RbScAs2O7
_symmetry_space_group_name_H-M   'P 1'
_cell_length_a   8.03341123
_cell_length_b   10.84359633
_cell_length_c   8.96858349
_cell_angle_alpha   90.00000000
_cell_angle_beta   106.87192053
_cell_angle_gamma   90.00000000
_symmetry_Int_Tables_number   1
_chemical_formula_structural   RbScAs2O7
_chemical_formula_sum   'Rb4 Sc4 As8 O28'
_cell_volume   747.63416212
_cell_formula_units_Z   4
loop_
 _symmetry_equiv_pos_site_id
 _symmetry_equiv_pos_as_xyz
  1  'x, y, z'
loop_
 _atom_site_type_symbol
 _atom_site_label
 _atom_site_symmetry_multiplicity
 _atom_site_fract_x
 _atom_site_fract_y
 _atom_site_fract_z
 _atom_site_occupancy
  Rb  Rb0  1  0.82862613  0.82328620  0.44704585  1.0
  Rb  Rb1  1  0.82862613  0.67671380  0.94704585  1.0
  Rb  Rb2  1  0.17137387  0.32328620  0.05295415  1.0
  Rb  Rb3  1  0.17137387  0.17671380  0.55295415  1.0
  Sc  Sc4  1  0.76362555  0.39992187  0.23558013  1.0
  Sc  Sc5  1  0.76362555  0.10007813  0.73558013  1.0
  Sc  Sc6  1  0.23637445  0.89992187  0.26441987  1.0
  Sc  Sc7  1  0.23637445  0.60007813  0.76441987  1.0
  As  As8  1  0.86472625  0.09318848  0.16522831  1.0
  As  As9  1  0.86472625  0.40681152  0.66522831  1.0
  As  As10  1  0.13527375  0.59318848  0.33477169  1.0
  As  As11  1  0.13527375  0.90681152  0.83477169  1.0
  As  As12  1  0.56001384  0.13646406  0.30764987  1.0
  As  As13  1  0.56001384  0.36353594  0.80764987  1.0
  As  As14  1  0.43998616  0.63646406  0.19235013  1.0
  As  As15  1  0.43998616  0.86353594  0.69235013  1.0
  O  O16  1  -0.00534793  0.48871489  0.21993702  1.0
  O  O17  1  -0.00534793  0.01128511  0.71993702  1.0
  O  O18  1  1.00534793  0.98871489  0.28006298  1.0
  O  O19  1  1.00534793  0.51128511  0.78006298  1.0
  O  O20  1  0.91517219  0.23706292  0.24650508  1.0
  O  O21  1  0.91517219  0.26293708  0.74650508  1.0
  O  O22  1  0.08482781  0.73706292  0.25349492  1.0
  O  O23  1  0.08482781  0.76293708  0.75349492  1.0
  O  O24  1  0.85534212  0.41001061  0.47402878  1.0
  O  O25  1  0.85534212  0.08998939  0.97402878  1.0
  O  O26  1  0.14465788  0.91001061  0.02597122  1.0
  O  O27  1  0.14465788  0.58998939  0.52597122  1.0
  O  O28  1  0.69407470  0.10638804  0.49030896  1.0
  O  O29  1  0.69407470  0.39361196  0.99030896  1.0
  O  O30  1  0.30592530  0.60638804  0.00969104  1.0
  O  O31  1  0.30592530  0.89361196  0.50969104  1.0
  O  O32  1  0.65205126  0.04719710  0.17803251  1.0
  O  O33  1  0.65205126  0.45280290  0.67803251  1.0
  O  O34  1  0.34794874  0.54719710  0.32196749  1.0
  O  O35  1  0.34794874  0.95280290  0.82196749  1.0
  O  O36  1  0.54944904  0.28708794  0.24540037  1.0
  O  O37  1  0.54944904  0.21291206  0.74540037  1.0
  O  O38  1  0.45055096  0.78708794  0.25459963  1.0
  O  O39  1  0.45055096  0.71291206  0.75459963  1.0
  O  O40  1  0.35419454  0.07824937  0.27460384  1.0
  O  O41  1  0.35419454  0.42175063  0.77460384  1.0
  O  O42  1  0.64580546  0.57824937  0.22539616  1.0
  O  O43  1  0.64580546  0.92175063  0.72539616  1.0
