# generated using pymatgen
data_TlCu3Se2
_symmetry_space_group_name_H-M   'P 1'
_cell_length_a   7.78431563
_cell_length_b   7.78431563
_cell_length_c   8.67970040
_cell_angle_alpha   70.07033389
_cell_angle_beta   109.92966611
_cell_angle_gamma   150.59043809
_symmetry_Int_Tables_number   1
_chemical_formula_structural   TlCu3Se2
_chemical_formula_sum   'Tl2 Cu6 Se4'
_cell_volume   241.69908127
_cell_formula_units_Z   2
loop_
 _symmetry_equiv_pos_site_id
 _symmetry_equiv_pos_as_xyz
  1  'x, y, z'
loop_
 _atom_site_type_symbol
 _atom_site_label
 _atom_site_symmetry_multiplicity
 _atom_site_fract_x
 _atom_site_fract_y
 _atom_site_fract_z
 _atom_site_occupancy
  Tl  Tl0  1  0.86061931  0.13938069  0.94575376  1.0
  Tl  Tl1  1  0.13938069  -0.13938069  0.05424624  1.0
  Cu  Cu2  1  0.94237026  0.05762974  0.59037660  1.0
  Cu  Cu3  1  0.05762974  -0.05762974  0.40962340  1.0
  Cu  Cu4  1  0.68757578  0.31242422  0.44909417  1.0
  Cu  Cu5  1  0.31242422  -0.31242422  0.55090583  1.0
  Cu  Cu6  1  0.58171134  0.41828866  0.62542904  1.0
  Cu  Cu7  1  0.41828866  -0.41828866  0.37457096  1.0
  Se  Se8  1  0.80740228  0.19259772  0.32305826  1.0
  Se  Se9  1  0.19259772  -0.19259772  0.67694174  1.0
  Se  Se10  1  0.47473282  -0.47473282  0.77523484  1.0
  Se  Se11  1  0.52526718  0.47473282  0.22476516  1.0
