# generated using pymatgen
data_BaMnO3
_symmetry_space_group_name_H-M   'P 1'
_cell_length_a   9.97766309
_cell_length_b   9.97766309
_cell_length_c   4.97140166
_cell_angle_alpha   90.00000000
_cell_angle_beta   90.00000000
_cell_angle_gamma   120.00000000
_symmetry_Int_Tables_number   1
_chemical_formula_structural   BaMnO3
_chemical_formula_sum   'Ba6 Mn6 O18'
_cell_volume   428.61479200
_cell_formula_units_Z   6
loop_
 _symmetry_equiv_pos_site_id
 _symmetry_equiv_pos_as_xyz
  1  'x, y, z'
loop_
 _atom_site_type_symbol
 _atom_site_label
 _atom_site_symmetry_multiplicity
 _atom_site_fract_x
 _atom_site_fract_y
 _atom_site_fract_z
 _atom_site_occupancy
  Ba  Ba0  1  0.33407786  0.33407786  0.23513227  1.0
  Ba  Ba1  1  0.33407786  0.00000000  0.73513227  1.0
  Ba  Ba2  1  -0.00000000  0.33407786  0.73513227  1.0
  Ba  Ba3  1  0.00000000  0.66592214  0.23513227  1.0
  Ba  Ba4  1  0.66592214  0.66592214  0.73513227  1.0
  Ba  Ba5  1  0.66592214  -0.00000000  0.23513227  1.0
  Mn  Mn6  1  0.33333333  0.66666667  0.41357687  1.0
  Mn  Mn7  1  0.33333333  0.66666667  0.91357687  1.0
  Mn  Mn8  1  0.66666667  0.33333333  0.41357687  1.0
  Mn  Mn9  1  0.66666667  0.33333333  0.91357687  1.0
  Mn  Mn10  1  0.00000000  -0.00000000  0.07071839  1.0
  Mn  Mn11  1  -0.00000000  -0.00000000  0.57071839  1.0
  O  O12  1  0.33297565  0.81335679  0.16040580  1.0
  O  O13  1  0.33297565  0.51961886  0.66040580  1.0
  O  O14  1  0.81335679  0.33297565  0.16040580  1.0
  O  O15  1  0.81335679  0.48038114  0.66040580  1.0
  O  O16  1  0.48038114  0.81335679  0.66040580  1.0
  O  O17  1  0.48038114  0.66702435  0.16040580  1.0
  O  O18  1  0.18664321  0.66702435  0.66040580  1.0
  O  O19  1  0.18664321  0.51961886  0.16040580  1.0
  O  O20  1  0.66702435  0.48038114  0.16040580  1.0
  O  O21  1  0.66702435  0.18664321  0.66040580  1.0
  O  O22  1  0.51961886  0.33297565  0.66040580  1.0
  O  O23  1  0.51961886  0.18664321  0.16040580  1.0
  O  O24  1  0.85317774  0.85317774  0.32409876  1.0
  O  O25  1  0.85317774  -0.00000000  0.82409876  1.0
  O  O26  1  0.00000000  0.85317774  0.82409876  1.0
  O  O27  1  0.00000000  0.14682226  0.32409876  1.0
  O  O28  1  0.14682226  0.14682226  0.82409876  1.0
  O  O29  1  0.14682226  -0.00000000  0.32409876  1.0
