# generated using pymatgen
data_Po(RhO3)2
_symmetry_space_group_name_H-M   'P 1'
_cell_length_a   4.75346839
_cell_length_b   4.75346839
_cell_length_c   9.74800267
_cell_angle_alpha   90.00000000
_cell_angle_beta   90.00000000
_cell_angle_gamma   90.00000000
_symmetry_Int_Tables_number   1
_chemical_formula_structural   Po(RhO3)2
_chemical_formula_sum   'Po2 Rh4 O12'
_cell_volume   220.26062153
_cell_formula_units_Z   2
loop_
 _symmetry_equiv_pos_site_id
 _symmetry_equiv_pos_as_xyz
  1  'x, y, z'
loop_
 _atom_site_type_symbol
 _atom_site_label
 _atom_site_symmetry_multiplicity
 _atom_site_fract_x
 _atom_site_fract_y
 _atom_site_fract_z
 _atom_site_occupancy
  Po  Po0  1  0.50000000  0.50000000  0.50000000  1.0
  Po  Po1  1  0.00000000  0.00000000  0.00000000  1.0
  Rh  Rh2  1  0.50000000  0.50000000  0.16742306  1.0
  Rh  Rh3  1  0.50000000  0.50000000  0.83257694  1.0
  Rh  Rh4  1  0.00000000  0.00000000  0.66742306  1.0
  Rh  Rh5  1  0.00000000  0.00000000  0.33257694  1.0
  O  O6  1  0.20190740  0.79809260  0.17648179  1.0
  O  O7  1  0.20190740  0.79809260  0.82351821  1.0
  O  O8  1  0.70190740  0.70190740  0.67648179  1.0
  O  O9  1  0.70190740  0.70190740  0.32351821  1.0
  O  O10  1  0.79809260  0.20190740  0.17648179  1.0
  O  O11  1  0.79809260  0.20190740  0.82351821  1.0
  O  O12  1  0.29809260  0.29809260  0.67648179  1.0
  O  O13  1  0.29809260  0.29809260  0.32351821  1.0
  O  O14  1  0.17574548  0.82425452  0.50000000  1.0
  O  O15  1  0.67574548  0.67574548  0.00000000  1.0
  O  O16  1  0.82425452  0.17574548  0.50000000  1.0
  O  O17  1  0.32425452  0.32425452  0.00000000  1.0
