# generated using pymatgen
data_LiZnC8N5
_symmetry_space_group_name_H-M   'P 1'
_cell_length_a   8.55602715
_cell_length_b   8.55602715
_cell_length_c   8.55602715
_cell_angle_alpha   60.00000000
_cell_angle_beta   60.00000000
_cell_angle_gamma   60.00000000
_symmetry_Int_Tables_number   1
_chemical_formula_structural   LiZnC8N5
_chemical_formula_sum   'Li1 Zn1 C8 N5'
_cell_volume   442.89569974
_cell_formula_units_Z   1
loop_
 _symmetry_equiv_pos_site_id
 _symmetry_equiv_pos_as_xyz
  1  'x, y, z'
loop_
 _atom_site_type_symbol
 _atom_site_label
 _atom_site_symmetry_multiplicity
 _atom_site_fract_x
 _atom_site_fract_y
 _atom_site_fract_z
 _atom_site_occupancy
  C  C0  1  0.85107793  0.85107793  -0.14892207  1.0
  C  C1  1  0.44676621  0.85107793  -0.14892207  1.0
  C  C2  1  0.85107793  0.85107793  -0.55323379  1.0
  C  C3  1  0.85107793  0.44676621  -0.14892207  1.0
  C  C4  1  0.43146540  1.43146540  0.43146540  1.0
  C  C5  1  -0.29439621  0.43146540  0.43146540  1.0
  C  C6  1  0.43146540  1.43146540  -0.29439621  1.0
  C  C7  1  0.43146540  -0.29439621  0.43146540  1.0
  Li  Li8  1  0.75000000  0.75000000  -0.25000000  1.0
  N  N9  1  0.90692217  0.90692217  -0.09307783  1.0
  N  N10  1  0.27923350  0.90692217  -0.09307783  1.0
  N  N11  1  0.90692217  0.90692217  -0.72076650  1.0
  N  N12  1  0.90692217  0.27923350  -0.09307783  1.0
  N  N13  1  -0.50000000  0.50000000  0.50000000  1.0
  Zn  Zn14  1  0.00000000  0.00000000  0.00000000  1.0
