# generated using pymatgen
data_Dy4Ni
_symmetry_space_group_name_H-M   'P 1'
_cell_length_a   7.66977513
_cell_length_b   7.66977513
_cell_length_c   7.66977513
_cell_angle_alpha   60.00000000
_cell_angle_beta   60.00000000
_cell_angle_gamma   60.00000000
_symmetry_Int_Tables_number   1
_chemical_formula_structural   Dy4Ni
_chemical_formula_sum   'Dy8 Ni2'
_cell_volume   319.03100803
_cell_formula_units_Z   2
loop_
 _symmetry_equiv_pos_site_id
 _symmetry_equiv_pos_as_xyz
  1  'x, y, z'
loop_
 _atom_site_type_symbol
 _atom_site_label
 _atom_site_symmetry_multiplicity
 _atom_site_fract_x
 _atom_site_fract_y
 _atom_site_fract_z
 _atom_site_occupancy
  Dy  Dy0  1  -0.11438947  0.88561053  0.34316840  1.0
  Dy  Dy1  1  0.88561053  -0.65683160  0.88561053  1.0
  Dy  Dy2  1  0.36438947  0.36438947  0.36438947  1.0
  Dy  Dy3  1  -0.09316840  0.36438947  0.36438947  1.0
  Dy  Dy4  1  -0.65683160  0.88561053  0.88561053  1.0
  Dy  Dy5  1  0.88561053  -0.11438947  0.88561053  1.0
  Dy  Dy6  1  0.36438947  -0.09316840  0.36438947  1.0
  Dy  Dy7  1  0.36438947  0.36438947  -0.09316840  1.0
  Ni  Ni8  1  0.50000000  0.50000000  -0.50000000  1.0
  Ni  Ni9  1  0.75000000  -0.25000000  0.75000000  1.0
