# generated using pymatgen
data_BaFeP(O2F)2
_symmetry_space_group_name_H-M   'P 1'
_cell_length_a   5.31197627
_cell_length_b   12.99097604
_cell_length_c   8.04147689
_cell_angle_alpha   90.00000000
_cell_angle_beta   117.37781562
_cell_angle_gamma   90.00000000
_symmetry_Int_Tables_number   1
_chemical_formula_structural   BaFeP(O2F)2
_chemical_formula_sum   'Ba4 Fe4 P4 O16 F8'
_cell_volume   492.76915437
_cell_formula_units_Z   4
loop_
 _symmetry_equiv_pos_site_id
 _symmetry_equiv_pos_as_xyz
  1  'x, y, z'
loop_
 _atom_site_type_symbol
 _atom_site_label
 _atom_site_symmetry_multiplicity
 _atom_site_fract_x
 _atom_site_fract_y
 _atom_site_fract_z
 _atom_site_occupancy
  Fe  Fe0  1  0.00000000  0.50000000  0.00000000  1.0
  Fe  Fe1  1  -0.00000000  0.00000000  0.50000000  1.0
  Fe  Fe2  1  0.50000000  0.50000000  0.50000000  1.0
  Fe  Fe3  1  0.50000000  0.00000000  0.00000000  1.0
  O  O4  1  0.77419091  0.28453791  0.20300072  1.0
  O  O5  1  0.77419091  0.21546209  0.70300072  1.0
  O  O6  1  0.22580909  0.78453791  0.29699928  1.0
  O  O7  1  0.22580909  0.71546209  0.79699928  1.0
  O  O8  1  0.72543622  0.40518767  0.43259412  1.0
  O  O9  1  0.72543622  0.09481233  0.93259412  1.0
  O  O10  1  0.27456378  0.90518767  0.06740588  1.0
  O  O11  1  0.27456378  0.59481233  0.56740588  1.0
  O  O12  1  0.81006941  0.47873328  0.16310591  1.0
  O  O13  1  0.81006941  0.02126672  0.66310591  1.0
  O  O14  1  0.18993059  0.97873328  0.33689409  1.0
  O  O15  1  0.18993059  0.52126672  0.83689409  1.0
  O  O16  1  0.79645776  0.88388495  0.06057021  1.0
  O  O17  1  0.79645776  0.61611505  0.56057021  1.0
  O  O18  1  0.20354224  0.38388495  0.43942979  1.0
  O  O19  1  0.20354224  0.11611505  0.93942979  1.0
  Ba  Ba20  1  0.35562547  0.20338588  0.31188195  1.0
  Ba  Ba21  1  0.35562547  0.29661412  0.81188195  1.0
  Ba  Ba22  1  0.64437453  0.70338588  0.18811805  1.0
  Ba  Ba23  1  0.64437453  0.79661412  0.68811805  1.0
  F  F24  1  0.83799292  0.86108143  0.45046760  1.0
  F  F25  1  0.83799292  0.63891857  0.95046760  1.0
  F  F26  1  0.16200708  0.36108143  0.04953240  1.0
  F  F27  1  0.16200708  0.13891857  0.54953240  1.0
  F  F28  1  0.67140393  0.05624703  0.26633115  1.0
  F  F29  1  0.67140393  0.44375297  0.76633115  1.0
  F  F30  1  0.32859607  0.55624703  0.23366885  1.0
  F  F31  1  0.32859607  0.94375297  0.73366885  1.0
  P  P32  1  0.87256516  0.38809156  0.30528712  1.0
  P  P33  1  0.87256516  0.11190844  0.80528712  1.0
  P  P34  1  0.12743484  0.88809156  0.19471288  1.0
  P  P35  1  0.12743484  0.61190844  0.69471288  1.0
