# generated using pymatgen
data_Rb2Ni3Se4
_symmetry_space_group_name_H-M   'P 1'
_cell_length_a   15.30036036
_cell_length_b   14.66232162
_cell_length_c   6.14861171
_cell_angle_alpha   84.05080732
_cell_angle_beta   72.39000241
_cell_angle_gamma   23.55919027
_symmetry_Int_Tables_number   1
_chemical_formula_structural   Rb2Ni3Se4
_chemical_formula_sum   'Rb4 Ni6 Se8'
_cell_volume   467.71223715
_cell_formula_units_Z   2
loop_
 _symmetry_equiv_pos_site_id
 _symmetry_equiv_pos_as_xyz
  1  'x, y, z'
loop_
 _atom_site_type_symbol
 _atom_site_label
 _atom_site_symmetry_multiplicity
 _atom_site_fract_x
 _atom_site_fract_y
 _atom_site_fract_z
 _atom_site_occupancy
  Rb  Rb0  1  0.07533538  1.07533538  -0.07533538  1.0
  Rb  Rb1  1  -0.07533538  0.92466462  0.07533538  1.0
  Rb  Rb2  1  0.17466462  0.17466462  0.32533538  1.0
  Rb  Rb3  1  0.32533538  0.32533538  0.17466462  1.0
  Ni  Ni4  1  0.50000000  0.50000000  -0.50000000  1.0
  Ni  Ni5  1  -0.25000000  0.75000000  0.75000000  1.0
  Ni  Ni6  1  -0.25050101  0.74949899  0.25050101  1.0
  Ni  Ni7  1  0.25050101  0.25050101  -0.25050101  1.0
  Ni  Ni8  1  0.50050101  0.50050101  -0.00050101  1.0
  Ni  Ni9  1  -0.00050101  0.99949899  0.50050101  1.0
  Se  Se10  1  0.28321092  0.60990617  0.38383997  1.0
  Se  Se11  1  0.38383997  0.72304294  0.28321092  1.0
  Se  Se12  1  0.60990617  0.28321092  -0.27695706  1.0
  Se  Se13  1  -0.27695706  1.38383997  0.60990617  1.0
  Se  Se14  1  0.96678908  -0.35990617  0.86616003  1.0
  Se  Se15  1  0.86616003  -0.47304294  0.96678908  1.0
  Se  Se16  1  -0.35990617  0.96678908  0.52695706  1.0
  Se  Se17  1  -0.47304294  0.86616003  0.64009383  1.0
