# generated using pymatgen
data_Sb8Pb5S17
_symmetry_space_group_name_H-M   'P 1'
_cell_length_a   9.05550624
_cell_length_b   9.05550624
_cell_length_c   21.06222552
_cell_angle_alpha   78.61124998
_cell_angle_beta   101.38875002
_cell_angle_gamma   97.91096249
_symmetry_Int_Tables_number   1
_chemical_formula_structural   Sb8Pb5S17
_chemical_formula_sum   'Sb16 Pb10 S34'
_cell_volume   1651.03623979
_cell_formula_units_Z   2
loop_
 _symmetry_equiv_pos_site_id
 _symmetry_equiv_pos_as_xyz
  1  'x, y, z'
loop_
 _atom_site_type_symbol
 _atom_site_label
 _atom_site_symmetry_multiplicity
 _atom_site_fract_x
 _atom_site_fract_y
 _atom_site_fract_z
 _atom_site_occupancy
  Sb  Sb0  1  1.98656694  -0.02160256  0.90378645  1.0
  Sb  Sb1  1  1.02160256  -0.98656694  0.40378645  1.0
  Sb  Sb2  1  0.97839744  0.98656694  0.59621355  1.0
  Sb  Sb3  1  0.01343306  0.02160256  0.09621355  1.0
  Sb  Sb4  1  1.58019216  -0.32523423  0.83105039  1.0
  Sb  Sb5  1  1.32523423  -0.58019216  0.33105039  1.0
  Sb  Sb6  1  0.67476577  0.58019216  0.66894961  1.0
  Sb  Sb7  1  0.41980784  0.32523423  0.16894961  1.0
  Sb  Sb8  1  1.42156028  -0.03237760  0.91070362  1.0
  Sb  Sb9  1  1.03237760  -0.42156028  0.41070362  1.0
  Sb  Sb10  1  0.96762240  0.42156028  0.58929638  1.0
  Sb  Sb11  1  0.57843972  0.03237760  0.08929638  1.0
  Sb  Sb12  1  1.29564438  -0.68006889  0.96695149  1.0
  Sb  Sb13  1  1.68006889  -0.29564438  0.46695149  1.0
  Sb  Sb14  1  0.31993111  0.29564438  0.53304851  1.0
  Sb  Sb15  1  0.70435562  0.68006889  0.03304851  1.0
  Pb  Pb16  1  0.63774667  0.10363954  0.67296080  1.0
  Pb  Pb17  1  0.89636046  0.36225333  0.17296080  1.0
  Pb  Pb18  1  1.10363954  -0.36225333  0.82703920  1.0
  Pb  Pb19  1  1.36225333  -0.10363954  0.32703920  1.0
  Pb  Pb20  1  0.65413094  0.17252393  0.45872745  1.0
  Pb  Pb21  1  0.82747607  0.34586906  0.95872745  1.0
  Pb  Pb22  1  1.17252393  -0.34586906  0.04127255  1.0
  Pb  Pb23  1  1.34586906  -0.17252393  0.54127255  1.0
  Pb  Pb24  1  0.32686149  0.32686149  0.75000000  1.0
  Pb  Pb25  1  0.67313851  0.67313851  0.25000000  1.0
  S  S26  1  0.80622843  0.01864784  0.99919998  1.0
  S  S27  1  0.98135216  0.19377157  0.49919998  1.0
  S  S28  1  1.01864784  -0.19377157  0.50080002  1.0
  S  S29  1  1.19377157  -0.01864784  0.00080002  1.0
  S  S30  1  1.34552350  -0.39296268  0.93768350  1.0
  S  S31  1  1.39296268  -0.34552350  0.43768350  1.0
  S  S32  1  0.60703732  0.34552350  0.56231650  1.0
  S  S33  1  0.65447650  0.39296268  0.06231650  1.0
  S  S34  1  1.68094785  -0.06484241  0.56519018  1.0
  S  S35  1  1.06484241  -0.68094785  0.06519018  1.0
  S  S36  1  0.93515759  0.68094785  0.93480982  1.0
  S  S37  1  0.31905215  0.06484241  0.43480982  1.0
  S  S38  1  1.58725448  -0.04682958  0.82895192  1.0
  S  S39  1  1.04682958  -0.58725448  0.32895192  1.0
  S  S40  1  0.95317042  0.58725448  0.67104808  1.0
  S  S41  1  0.41274552  0.04682958  0.17104808  1.0
  S  S42  1  0.63821226  0.34816297  0.75031461  1.0
  S  S43  1  0.65183703  0.36178774  0.25031461  1.0
  S  S44  1  1.34816297  -0.36178774  0.74968539  1.0
  S  S45  1  1.36178774  -0.34816297  0.24968539  1.0
  S  S46  1  0.30544572  0.06628023  0.61850426  1.0
  S  S47  1  0.93371977  0.69455428  0.11850426  1.0
  S  S48  1  1.06628023  -0.69455428  0.88149574  1.0
  S  S49  1  1.69455428  -0.06628023  0.38149574  1.0
  S  S50  1  1.18608305  -0.03596457  0.82789744  1.0
  S  S51  1  1.03596457  -0.18608305  0.32789744  1.0
  S  S52  1  0.96403543  0.18608305  0.67210256  1.0
  S  S53  1  0.81391695  0.03596457  0.17210256  1.0
  S  S54  1  0.47093881  0.25513750  0.89373184  1.0
  S  S55  1  0.74486250  0.52906119  0.39373184  1.0
  S  S56  1  1.25513750  -0.52906119  0.60626816  1.0
  S  S57  1  1.52906119  -0.25513750  0.10626816  1.0
  S  S58  1  0.76062947  0.76062947  0.75000000  1.0
  S  S59  1  0.23937053  0.23937053  0.25000000  1.0
