# generated using pymatgen
data_KSnS4
_symmetry_space_group_name_H-M   'P 1'
_cell_length_a   9.80538291
_cell_length_b   10.13793032
_cell_length_c   14.89097181
_cell_angle_alpha   90.00000000
_cell_angle_beta   111.33238569
_cell_angle_gamma   90.00000000
_symmetry_Int_Tables_number   1
_chemical_formula_structural   KSnS4
_chemical_formula_sum   'K8 Sn8 S32'
_cell_volume   1378.83760516
_cell_formula_units_Z   8
loop_
 _symmetry_equiv_pos_site_id
 _symmetry_equiv_pos_as_xyz
  1  'x, y, z'
loop_
 _atom_site_type_symbol
 _atom_site_label
 _atom_site_symmetry_multiplicity
 _atom_site_fract_x
 _atom_site_fract_y
 _atom_site_fract_z
 _atom_site_occupancy
  K  K0  1  0.87275350  0.77149154  0.40023772  1.0
  K  K1  1  0.87275350  0.72850846  0.90023772  1.0
  K  K2  1  0.12724650  0.27149154  0.09976228  1.0
  K  K3  1  0.12724650  0.22850846  0.59976228  1.0
  K  K4  1  0.63938923  0.35943134  0.29738128  1.0
  K  K5  1  0.63938923  0.14056866  0.79738128  1.0
  K  K6  1  0.36061077  0.85943134  0.20261872  1.0
  K  K7  1  0.36061077  0.64056866  0.70261872  1.0
  Sn  Sn8  1  0.68912413  0.00032934  0.09339010  1.0
  Sn  Sn9  1  0.68912413  0.49967066  0.59339010  1.0
  Sn  Sn10  1  0.31087587  0.50032934  0.40660990  1.0
  Sn  Sn11  1  0.31087587  0.99967066  0.90660990  1.0
  Sn  Sn12  1  0.51240014  0.17350948  0.48473063  1.0
  Sn  Sn13  1  0.51240014  0.32649052  0.98473063  1.0
  Sn  Sn14  1  0.48759986  0.67350948  0.01526937  1.0
  Sn  Sn15  1  0.48759986  0.82649052  0.51526937  1.0
  S  S16  1  0.99165282  0.14331418  0.30304823  1.0
  S  S17  1  0.99165282  0.35668582  0.80304823  1.0
  S  S18  1  0.00834718  0.64331418  0.19695177  1.0
  S  S19  1  0.00834718  0.85668582  0.69695177  1.0
  S  S20  1  0.95888919  0.34586104  0.27484748  1.0
  S  S21  1  0.95888919  0.15413896  0.77484748  1.0
  S  S22  1  0.04111081  0.84586104  0.22515252  1.0
  S  S23  1  0.04111081  0.65413896  0.72515252  1.0
  S  S24  1  0.95123772  0.94043659  0.09459155  1.0
  S  S25  1  0.95123772  0.55956341  0.59459155  1.0
  S  S26  1  0.04876228  0.44043659  0.40540845  1.0
  S  S27  1  0.04876228  0.05956341  0.90540845  1.0
  S  S28  1  0.78787219  0.06527074  0.27754157  1.0
  S  S29  1  0.78787219  0.43472926  0.77754157  1.0
  S  S30  1  0.21212781  0.56527074  0.22245843  1.0
  S  S31  1  0.21212781  0.93472926  0.72245843  1.0
  S  S32  1  0.75417914  0.22531171  0.03516845  1.0
  S  S33  1  0.75417914  0.27468829  0.53516845  1.0
  S  S34  1  0.24582086  0.72531171  0.46483155  1.0
  S  S35  1  0.24582086  0.77468829  0.96483155  1.0
  S  S36  1  0.57777781  0.96037376  0.41315401  1.0
  S  S37  1  0.57777781  0.53962624  0.91315401  1.0
  S  S38  1  0.42222219  0.46037376  0.08684599  1.0
  S  S39  1  0.42222219  0.03962624  0.58684599  1.0
  S  S40  1  0.43570159  0.10123266  0.07615187  1.0
  S  S41  1  0.43570159  0.39876734  0.57615187  1.0
  S  S42  1  0.56429841  0.60123266  0.42384813  1.0
  S  S43  1  0.56429841  0.89876734  0.92384813  1.0
  S  S44  1  0.34615360  0.27167928  0.33595972  1.0
  S  S45  1  0.34615360  0.22832072  0.83595972  1.0
  S  S46  1  0.65384640  0.77167928  0.16404028  1.0
  S  S47  1  0.65384640  0.72832072  0.66404028  1.0
