# generated using pymatgen
data_Rb3TiBr6
_symmetry_space_group_name_H-M   'P 1'
_cell_length_a   7.73282936
_cell_length_b   7.73282936
_cell_length_c   16.47588822
_cell_angle_alpha   90.00000000
_cell_angle_beta   90.00000000
_cell_angle_gamma   120.00000000
_symmetry_Int_Tables_number   1
_chemical_formula_structural   Rb3TiBr6
_chemical_formula_sum   'Rb6 Ti2 Br12'
_cell_volume   853.21075682
_cell_formula_units_Z   2
loop_
 _symmetry_equiv_pos_site_id
 _symmetry_equiv_pos_as_xyz
  1  'x, y, z'
loop_
 _atom_site_type_symbol
 _atom_site_label
 _atom_site_symmetry_multiplicity
 _atom_site_fract_x
 _atom_site_fract_y
 _atom_site_fract_z
 _atom_site_occupancy
  Rb  Rb0  1  0.33333333  0.66666667  0.41571366  1.0
  Rb  Rb1  1  0.66666667  0.33333333  0.91571366  1.0
  Rb  Rb2  1  0.33333333  0.66666667  0.72601002  1.0
  Rb  Rb3  1  0.66666667  0.33333333  0.22601002  1.0
  Rb  Rb4  1  -0.00000000  -0.00000000  0.09556868  1.0
  Rb  Rb5  1  -0.00000000  -0.00000000  0.59556868  1.0
  Ti  Ti6  1  0.33333333  0.66666667  0.15900144  1.0
  Ti  Ti7  1  0.66666667  0.33333333  0.65900144  1.0
  Br  Br8  1  0.64985219  0.82492609  0.25208852  1.0
  Br  Br9  1  0.82492609  0.64985219  0.75208852  1.0
  Br  Br10  1  0.82492609  0.17507391  0.75208852  1.0
  Br  Br11  1  0.17507391  0.82492609  0.25208852  1.0
  Br  Br12  1  0.17507391  0.35014781  0.25208852  1.0
  Br  Br13  1  0.35014781  0.17507391  0.75208852  1.0
  Br  Br14  1  0.01732285  0.50866143  0.06681355  1.0
  Br  Br15  1  0.50866143  0.01732285  0.56681355  1.0
  Br  Br16  1  0.50866143  0.49133857  0.56681355  1.0
  Br  Br17  1  0.49133857  0.50866143  0.06681355  1.0
  Br  Br18  1  0.49133857  -0.01732285  0.06681355  1.0
  Br  Br19  1  -0.01732285  0.49133857  0.56681355  1.0
