# generated using pymatgen
data_ScGa2
_symmetry_space_group_name_H-M   'P 1'
_cell_length_a   5.57588018
_cell_length_b   5.57588018
_cell_length_c   5.57588018
_cell_angle_alpha   107.25298120
_cell_angle_beta   136.65348394
_cell_angle_gamma   88.63583069
_symmetry_Int_Tables_number   1
_chemical_formula_structural   ScGa2
_chemical_formula_sum   'Sc2 Ga4'
_cell_volume   108.66204665
_cell_formula_units_Z   2
loop_
 _symmetry_equiv_pos_site_id
 _symmetry_equiv_pos_as_xyz
  1  'x, y, z'
loop_
 _atom_site_type_symbol
 _atom_site_label
 _atom_site_symmetry_multiplicity
 _atom_site_fract_x
 _atom_site_fract_y
 _atom_site_fract_z
 _atom_site_occupancy
  Sc  Sc0  1  1.43939249  1.18939249  1.25000000  1.0
  Sc  Sc1  1  1.56060751  0.81060751  0.75000000  1.0
  Ga  Ga2  1  0.84182716  0.79610351  1.45427635  1.0
  Ga  Ga3  1  1.15817284  1.61244919  0.95427635  1.0
  Ga  Ga4  1  1.15817284  1.20389649  1.54572365  1.0
  Ga  Ga5  1  0.84182716  1.38755081  1.04572365  1.0
