# generated using pymatgen
data_Ba3SrNb2O9
_symmetry_space_group_name_H-M   'P 1'
_cell_length_a   6.12037561
_cell_length_b   6.12037561
_cell_length_c   15.65648295
_cell_angle_alpha   90.00000000
_cell_angle_beta   90.00000000
_cell_angle_gamma   120.00000000
_symmetry_Int_Tables_number   1
_chemical_formula_structural   Ba3SrNb2O9
_chemical_formula_sum   'Ba6 Sr2 Nb4 O18'
_cell_volume   507.90325150
_cell_formula_units_Z   2
loop_
 _symmetry_equiv_pos_site_id
 _symmetry_equiv_pos_as_xyz
  1  'x, y, z'
loop_
 _atom_site_type_symbol
 _atom_site_label
 _atom_site_symmetry_multiplicity
 _atom_site_fract_x
 _atom_site_fract_y
 _atom_site_fract_z
 _atom_site_occupancy
  Ba  Ba0  1  0.33333333  0.66666667  0.87620246  1.0
  Ba  Ba1  1  0.33333333  0.66666667  0.62379754  1.0
  Ba  Ba2  1  0.66666667  0.33333333  0.37620246  1.0
  Ba  Ba3  1  0.66666667  0.33333333  0.12379754  1.0
  Ba  Ba4  1  0.00000000  0.00000000  0.25000000  1.0
  Ba  Ba5  1  0.00000000  0.00000000  0.75000000  1.0
  Sr  Sr6  1  0.00000000  0.00000000  0.50000000  1.0
  Sr  Sr7  1  0.00000000  0.00000000  0.00000000  1.0
  Nb  Nb8  1  0.33333333  0.66666667  0.34587909  1.0
  Nb  Nb9  1  0.33333333  0.66666667  0.15412091  1.0
  Nb  Nb10  1  0.66666667  0.33333333  0.84587909  1.0
  Nb  Nb11  1  0.66666667  0.33333333  0.65412091  1.0
  O  O12  1  0.11359409  0.75881719  0.40058081  1.0
  O  O13  1  0.11359409  0.75881719  0.09941919  1.0
  O  O14  1  0.75881719  0.64522310  0.90058081  1.0
  O  O15  1  0.75881719  0.64522310  0.59941919  1.0
  O  O16  1  0.64522310  0.88640591  0.40058081  1.0
  O  O17  1  0.64522310  0.88640591  0.09941919  1.0
  O  O18  1  0.24118281  0.35477690  0.40058081  1.0
  O  O19  1  0.24118281  0.35477690  0.09941919  1.0
  O  O20  1  0.88640591  0.24118281  0.90058081  1.0
  O  O21  1  0.88640591  0.24118281  0.59941919  1.0
  O  O22  1  0.35477690  0.11359409  0.90058081  1.0
  O  O23  1  0.35477690  0.11359409  0.59941919  1.0
  O  O24  1  0.42953857  0.95735147  0.25000000  1.0
  O  O25  1  0.95735147  0.52781291  0.75000000  1.0
  O  O26  1  0.52781291  0.57046143  0.25000000  1.0
  O  O27  1  0.04264853  0.47218709  0.25000000  1.0
  O  O28  1  0.57046143  0.04264853  0.75000000  1.0
  O  O29  1  0.47218709  0.42953857  0.75000000  1.0
