# generated using pymatgen
data_Co7P6(HO6)4
_symmetry_space_group_name_H-M   'P 1'
_cell_length_a   7.91409251
_cell_length_b   6.54570118
_cell_length_c   9.70169607
_cell_angle_alpha   68.80920947
_cell_angle_beta   67.59865112
_cell_angle_gamma   78.29143391
_symmetry_Int_Tables_number   1
_chemical_formula_structural   Co7P6(HO6)4
_chemical_formula_sum   'Co7 P6 H4 O24'
_cell_volume   431.99440659
_cell_formula_units_Z   1
loop_
 _symmetry_equiv_pos_site_id
 _symmetry_equiv_pos_as_xyz
  1  'x, y, z'
loop_
 _atom_site_type_symbol
 _atom_site_label
 _atom_site_symmetry_multiplicity
 _atom_site_fract_x
 _atom_site_fract_y
 _atom_site_fract_z
 _atom_site_occupancy
  Co  Co0  1  -0.96175040  -0.20976213  0.60521994  1.0
  Co  Co1  1  -0.03824960  0.20976213  0.39478006  1.0
  Co  Co2  1  -0.50000000  -0.50000000  0.50000000  1.0
  Co  Co3  1  -0.78930483  -0.03825757  0.98619455  1.0
  Co  Co4  1  -0.21069517  0.03825757  0.01380545  1.0
  Co  Co5  1  -0.68999285  0.49560756  0.21229438  1.0
  Co  Co6  1  -0.31000715  -0.49560756  0.78770562  1.0
  O  O7  1  -0.71375964  0.29590888  0.59775377  1.0
  O  O8  1  -0.28624036  -0.29590888  0.40224623  1.0
  O  O9  1  -0.56643632  0.02096896  0.77590288  1.0
  O  O10  1  -0.43356368  -0.02096896  0.22409712  1.0
  O  O11  1  -0.25148458  -0.17433531  0.72710253  1.0
  O  O12  1  -0.74851542  0.17433531  0.27289747  1.0
  O  O13  1  -0.88666724  -0.32715646  0.80774692  1.0
  O  O14  1  -0.11333276  0.32715646  0.19225308  1.0
  O  O15  1  -0.54770721  -0.47376216  0.74026092  1.0
  O  O16  1  -0.45229279  0.47376216  0.25973908  1.0
  O  O17  1  -0.79677086  -0.70115427  0.97647540  1.0
  O  O18  1  -0.20322914  0.70115427  0.02352460  1.0
  O  O19  1  -0.95750621  0.10109737  0.84784894  1.0
  O  O20  1  -0.04249379  -0.10109737  0.15215106  1.0
  O  O21  1  -0.95771445  0.53210375  0.33629091  1.0
  O  O22  1  -0.04228555  -0.53210375  0.66370909  1.0
  O  O23  1  -0.96309940  0.11446833  0.58761008  1.0
  O  O24  1  -0.03690060  -0.11446833  0.41238992  1.0
  O  O25  1  -0.71180865  -0.36524503  0.99175777  1.0
  O  O26  1  -0.28819135  0.36524503  0.00824223  1.0
  O  O27  1  -0.31145211  0.22474876  0.55222235  1.0
  O  O28  1  -0.68854789  -0.22474876  0.44777765  1.0
  O  O29  1  -0.32664564  0.14957684  0.83639928  1.0
  O  O30  1  -0.67335436  -0.14957684  0.16360072  1.0
  H  H31  1  -0.62560819  0.13231602  0.69250276  1.0
  H  H32  1  -0.37439181  -0.13231602  0.30749724  1.0
  H  H33  1  -0.08031002  -0.30942348  0.93589916  1.0
  H  H34  1  -0.91968998  0.30942348  0.06410084  1.0
  P  P35  1  -0.91945177  0.24733890  0.67309715  1.0
  P  P36  1  -0.08054823  -0.24733890  0.32690285  1.0
  P  P37  1  -0.35356030  0.05595952  0.72188739  1.0
  P  P38  1  -0.64643970  -0.05595952  0.27811261  1.0
  P  P39  1  -0.73272775  -0.45667767  0.87134341  1.0
  P  P40  1  -0.26727225  0.45667767  0.12865659  1.0
