# generated using pymatgen
data_Mn2SnTe4
_symmetry_space_group_name_H-M   'P 1'
_cell_length_a   13.34244952
_cell_length_b   8.24100477
_cell_length_c   7.38637605
_cell_angle_alpha   90.00000000
_cell_angle_beta   90.00000000
_cell_angle_gamma   90.00000000
_symmetry_Int_Tables_number   1
_chemical_formula_structural   Mn2SnTe4
_chemical_formula_sum   'Mn8 Sn4 Te16'
_cell_volume   812.17038283
_cell_formula_units_Z   4
loop_
 _symmetry_equiv_pos_site_id
 _symmetry_equiv_pos_as_xyz
  1  'x, y, z'
loop_
 _atom_site_type_symbol
 _atom_site_label
 _atom_site_symmetry_multiplicity
 _atom_site_fract_x
 _atom_site_fract_y
 _atom_site_fract_z
 _atom_site_occupancy
  Mn  Mn0  1  0.77253426  0.25000000  0.52239245  1.0
  Mn  Mn1  1  0.27253426  0.25000000  0.97760755  1.0
  Mn  Mn2  1  0.22746574  0.75000000  0.47760755  1.0
  Mn  Mn3  1  0.72746574  0.75000000  0.02239245  1.0
  Mn  Mn4  1  -0.00000000  0.50000000  0.00000000  1.0
  Mn  Mn5  1  0.00000000  0.00000000  -0.00000000  1.0
  Mn  Mn6  1  0.50000000  0.50000000  0.50000000  1.0
  Mn  Mn7  1  0.50000000  0.00000000  0.50000000  1.0
  Sn  Sn8  1  0.63581008  0.25000000  0.08057389  1.0
  Sn  Sn9  1  0.13581008  0.25000000  0.41942611  1.0
  Sn  Sn10  1  0.36418992  0.75000000  0.91942611  1.0
  Sn  Sn11  1  0.86418992  0.75000000  0.58057389  1.0
  Te  Te12  1  0.68211141  0.52645296  0.32551707  1.0
  Te  Te13  1  0.68211141  -0.02645296  0.32551707  1.0
  Te  Te14  1  0.18211141  0.52645296  0.17448293  1.0
  Te  Te15  1  0.18211141  -0.02645296  0.17448293  1.0
  Te  Te16  1  0.31788859  1.02645296  0.67448293  1.0
  Te  Te17  1  0.31788859  0.47354704  0.67448293  1.0
  Te  Te18  1  0.81788859  1.02645296  0.82551707  1.0
  Te  Te19  1  0.81788859  0.47354704  0.82551707  1.0
  Te  Te20  1  0.92935912  0.25000000  0.26598769  1.0
  Te  Te21  1  0.42935912  0.25000000  0.23401231  1.0
  Te  Te22  1  0.07064088  0.75000000  0.73401231  1.0
  Te  Te23  1  0.57064088  0.75000000  0.76598769  1.0
  Te  Te24  1  0.58307080  0.25000000  0.67254211  1.0
  Te  Te25  1  0.08307080  0.25000000  0.82745789  1.0
  Te  Te26  1  0.41692920  0.75000000  0.32745789  1.0
  Te  Te27  1  0.91692920  0.75000000  0.17254211  1.0
