# generated using pymatgen
data_Eu(ClO4)3
_symmetry_space_group_name_H-M   'P 1'
_cell_length_a   9.87313970
_cell_length_b   9.87313970
_cell_length_c   5.77335582
_cell_angle_alpha   90.00000000
_cell_angle_beta   90.00000000
_cell_angle_gamma   120.00000000
_symmetry_Int_Tables_number   1
_chemical_formula_structural   Eu(ClO4)3
_chemical_formula_sum   'Eu2 Cl6 O24'
_cell_volume   487.38203887
_cell_formula_units_Z   2
loop_
 _symmetry_equiv_pos_site_id
 _symmetry_equiv_pos_as_xyz
  1  'x, y, z'
loop_
 _atom_site_type_symbol
 _atom_site_label
 _atom_site_symmetry_multiplicity
 _atom_site_fract_x
 _atom_site_fract_y
 _atom_site_fract_z
 _atom_site_occupancy
  Eu  Eu0  1  0.66666667  0.33333333  0.25000000  1.0
  Eu  Eu1  1  0.33333333  0.66666667  0.75000000  1.0
  Cl  Cl2  1  0.29991102  0.90569805  0.25000000  1.0
  Cl  Cl3  1  0.90569805  0.60578704  0.75000000  1.0
  Cl  Cl4  1  0.60578704  0.70008898  0.25000000  1.0
  Cl  Cl5  1  0.09430195  0.39421296  0.25000000  1.0
  Cl  Cl6  1  0.70008898  0.09430195  0.75000000  1.0
  Cl  Cl7  1  0.39421296  0.29991102  0.75000000  1.0
  O  O8  1  0.35135693  0.85383919  0.45609651  1.0
  O  O9  1  0.35135693  0.85383919  0.04390349  1.0
  O  O10  1  0.85383919  0.50248226  0.95609651  1.0
  O  O11  1  0.85383919  0.50248226  0.54390349  1.0
  O  O12  1  0.50248226  0.64864307  0.45609651  1.0
  O  O13  1  0.50248226  0.64864307  0.04390349  1.0
  O  O14  1  0.14616081  0.49751774  0.45609651  1.0
  O  O15  1  0.14616081  0.49751774  0.04390349  1.0
  O  O16  1  0.64864307  0.14616081  0.95609651  1.0
  O  O17  1  0.64864307  0.14616081  0.54390349  1.0
  O  O18  1  0.49751774  0.35135693  0.95609651  1.0
  O  O19  1  0.49751774  0.35135693  0.54390349  1.0
  O  O20  1  0.13440959  0.84356609  0.25000000  1.0
  O  O21  1  0.84356609  0.70915650  0.75000000  1.0
  O  O22  1  0.70915650  0.86559041  0.25000000  1.0
  O  O23  1  0.15643391  0.29084350  0.25000000  1.0
  O  O24  1  0.86559041  0.15643391  0.75000000  1.0
  O  O25  1  0.29084350  0.13440959  0.75000000  1.0
  O  O26  1  0.69281918  0.61621364  0.25000000  1.0
  O  O27  1  0.61621364  0.92339447  0.75000000  1.0
  O  O28  1  0.92339447  0.30718082  0.25000000  1.0
  O  O29  1  0.38378636  0.07660553  0.25000000  1.0
  O  O30  1  0.30718082  0.38378636  0.75000000  1.0
  O  O31  1  0.07660553  0.69281918  0.75000000  1.0
