# generated using pymatgen
data_CrTe3
_symmetry_space_group_name_H-M   'P 1'
_cell_length_a   8.40157688
_cell_length_b   11.47234998
_cell_length_c   11.67319168
_cell_angle_alpha   90.00000000
_cell_angle_beta   117.24984829
_cell_angle_gamma   90.00000000
_symmetry_Int_Tables_number   1
_chemical_formula_structural   CrTe3
_chemical_formula_sum   'Cr8 Te24'
_cell_volume   1000.26146267
_cell_formula_units_Z   8
loop_
 _symmetry_equiv_pos_site_id
 _symmetry_equiv_pos_as_xyz
  1  'x, y, z'
loop_
 _atom_site_type_symbol
 _atom_site_label
 _atom_site_symmetry_multiplicity
 _atom_site_fract_x
 _atom_site_fract_y
 _atom_site_fract_z
 _atom_site_occupancy
  Cr  Cr0  1  0.98271254  0.28355293  0.49395043  1.0
  Cr  Cr1  1  0.98271254  0.21644707  0.99395043  1.0
  Cr  Cr2  1  0.01728746  0.78355293  0.00604957  1.0
  Cr  Cr3  1  0.01728746  0.71644707  0.50604957  1.0
  Cr  Cr4  1  0.99861845  -0.00019436  0.32598146  1.0
  Cr  Cr5  1  0.99861845  0.50019436  0.82598146  1.0
  Cr  Cr6  1  0.00138155  0.49980564  0.17401854  1.0
  Cr  Cr7  1  0.00138155  1.00019436  0.67401854  1.0
  Te  Te8  1  0.75504695  0.32626517  0.07038064  1.0
  Te  Te9  1  0.75504695  0.17373483  0.57038064  1.0
  Te  Te10  1  0.24495305  0.82626517  0.42961936  1.0
  Te  Te11  1  0.24495305  0.67373483  0.92961936  1.0
  Te  Te12  1  0.75453802  0.17487747  0.26691280  1.0
  Te  Te13  1  0.75453802  0.32512253  0.76691280  1.0
  Te  Te14  1  0.24546198  0.67487747  0.23308720  1.0
  Te  Te15  1  0.24546198  0.82512253  0.73308720  1.0
  Te  Te16  1  0.71301787  0.44395952  0.40474339  1.0
  Te  Te17  1  0.71301787  0.05604048  0.90474339  1.0
  Te  Te18  1  0.28698213  0.94395952  0.09525661  1.0
  Te  Te19  1  0.28698213  0.55604048  0.59525661  1.0
  Te  Te20  1  0.79495000  0.90729345  0.43301213  1.0
  Te  Te21  1  0.79495000  0.59270655  0.93301213  1.0
  Te  Te22  1  0.20505000  0.40729345  0.06698787  1.0
  Te  Te23  1  0.20505000  0.09270655  0.56698787  1.0
  Te  Te24  1  0.80181001  0.88218308  0.10078968  1.0
  Te  Te25  1  0.80181001  0.61781692  0.60078968  1.0
  Te  Te26  1  0.19818999  0.38218308  0.39921032  1.0
  Te  Te27  1  0.19818999  0.11781692  0.89921032  1.0
  Te  Te28  1  0.19496365  0.11773671  0.23058483  1.0
  Te  Te29  1  0.19496365  0.38226329  0.73058483  1.0
  Te  Te30  1  0.80503635  0.61773671  0.26941517  1.0
  Te  Te31  1  0.80503635  0.88226329  0.76941517  1.0
