# generated using pymatgen
data_Gd4Al23Ni6
_symmetry_space_group_name_H-M   'P 1'
_cell_length_a   8.20368683
_cell_length_b   8.20368683
_cell_length_c   18.33422101
_cell_angle_alpha   67.81965832
_cell_angle_beta   112.18034168
_cell_angle_gamma   151.12698696
_symmetry_Int_Tables_number   1
_chemical_formula_structural   Gd4Al23Ni6
_chemical_formula_sum   'Gd4 Al23 Ni6'
_cell_volume   548.67684155
_cell_formula_units_Z   1
loop_
 _symmetry_equiv_pos_site_id
 _symmetry_equiv_pos_as_xyz
  1  'x, y, z'
loop_
 _atom_site_type_symbol
 _atom_site_label
 _atom_site_symmetry_multiplicity
 _atom_site_fract_x
 _atom_site_fract_y
 _atom_site_fract_z
 _atom_site_occupancy
  Gd  Gd0  1  0.73486437  0.26513563  0.78144557  1.0
  Gd  Gd1  1  1.26513563  -0.26513563  0.21855443  1.0
  Gd  Gd2  1  1.42814949  -0.42814949  0.59321082  1.0
  Gd  Gd3  1  0.57185051  0.42814949  0.40678918  1.0
  Al  Al4  1  -0.00000000  0.00000000  0.50000000  1.0
  Al  Al5  1  0.91877968  -0.91877968  0.31371621  1.0
  Al  Al6  1  0.08122032  -0.08122032  0.68628379  1.0
  Al  Al7  1  0.90992887  0.09007113  0.94912790  1.0
  Al  Al8  1  1.09007113  -0.09007113  0.05087210  1.0
  Al  Al9  1  0.90944439  -0.90944439  0.71921672  1.0
  Al  Al10  1  0.09055561  -0.09055561  0.28078328  1.0
  Al  Al11  1  0.79883802  -0.79883802  0.47948440  1.0
  Al  Al12  1  0.20116198  -0.20116198  0.52051560  1.0
  Al  Al13  1  0.74380527  0.25619473  0.95349020  1.0
  Al  Al14  1  1.25619473  -0.25619473  0.04650980  1.0
  Al  Al15  1  0.72577762  -0.72577762  0.32440536  1.0
  Al  Al16  1  0.27422238  -0.27422238  0.67559464  1.0
  Al  Al17  1  0.62227332  0.37772668  0.59520740  1.0
  Al  Al18  1  1.37772668  -0.37772668  0.40479260  1.0
  Al  Al19  1  0.56637226  0.43362774  0.94011165  1.0
  Al  Al20  1  1.43362774  -0.43362774  0.05988835  1.0
  Al  Al21  1  0.53228071  0.46771929  0.78138661  1.0
  Al  Al22  1  1.46771929  -0.46771929  0.21861339  1.0
  Al  Al23  1  0.38977816  -0.38977816  0.83684046  1.0
  Al  Al24  1  0.61022184  -0.61022184  0.16315954  1.0
  Al  Al25  1  0.14431832  -0.14431832  0.85705694  1.0
  Al  Al26  1  0.85568168  -0.85568168  0.14294306  1.0
  Ni  Ni27  1  0.99170630  -0.99170630  0.86278673  1.0
  Ni  Ni28  1  0.00829370  -0.00829370  0.13721327  1.0
  Ni  Ni29  1  0.77266043  0.22733957  0.60121704  1.0
  Ni  Ni30  1  1.22733957  -0.22733957  0.39878296  1.0
  Ni  Ni31  1  0.31067995  -0.31067995  0.93237031  1.0
  Ni  Ni32  1  0.68932005  -0.68932005  0.06762969  1.0
