# generated using pymatgen
data_NdCoSi2
_symmetry_space_group_name_H-M   'P 1'
_cell_length_a   8.44693409
_cell_length_b   8.44693409
_cell_length_c   3.97841131
_cell_angle_alpha   90.00000000
_cell_angle_beta   90.00000000
_cell_angle_gamma   152.45172298
_symmetry_Int_Tables_number   1
_chemical_formula_structural   NdCoSi2
_chemical_formula_sum   'Nd2 Co2 Si4'
_cell_volume   131.28518524
_cell_formula_units_Z   2
loop_
 _symmetry_equiv_pos_site_id
 _symmetry_equiv_pos_as_xyz
  1  'x, y, z'
loop_
 _atom_site_type_symbol
 _atom_site_label
 _atom_site_symmetry_multiplicity
 _atom_site_fract_x
 _atom_site_fract_y
 _atom_site_fract_z
 _atom_site_occupancy
  Nd  Nd0  1  0.39153951  0.60846049  0.75000000  1.0
  Nd  Nd1  1  -0.39153951  0.39153951  0.25000000  1.0
  Co  Co2  1  0.17796761  0.82203239  0.75000000  1.0
  Co  Co3  1  -0.17796761  0.17796761  0.25000000  1.0
  Si  Si4  1  0.04082425  0.95917575  0.75000000  1.0
  Si  Si5  1  -0.04082425  0.04082425  0.25000000  1.0
  Si  Si6  1  -0.25038903  0.25038903  0.75000000  1.0
  Si  Si7  1  0.25038903  0.74961097  0.25000000  1.0
