# generated using pymatgen
data_Sr(ClO3)2
_symmetry_space_group_name_H-M   'P 1'
_cell_length_a   7.42113089
_cell_length_b   7.01927918
_cell_length_c   8.66170695
_cell_angle_alpha   55.30052643
_cell_angle_beta   51.04410504
_cell_angle_gamma   73.65536853
_symmetry_Int_Tables_number   1
_chemical_formula_structural   Sr(ClO3)2
_chemical_formula_sum   'Sr2 Cl4 O12'
_cell_volume   286.39034632
_cell_formula_units_Z   2
loop_
 _symmetry_equiv_pos_site_id
 _symmetry_equiv_pos_as_xyz
  1  'x, y, z'
loop_
 _atom_site_type_symbol
 _atom_site_label
 _atom_site_symmetry_multiplicity
 _atom_site_fract_x
 _atom_site_fract_y
 _atom_site_fract_z
 _atom_site_occupancy
  Sr  Sr0  1  1.00183182  0.00183182  -0.00183182  1.0
  Sr  Sr1  1  0.25183182  0.25183182  1.24816818  1.0
  Cl  Cl2  1  0.65008191  1.21756428  0.38940750  1.0
  Cl  Cl3  1  0.86059250  -0.49294631  0.59991809  1.0
  Cl  Cl4  1  1.21756428  -0.34991809  0.74294631  1.0
  Cl  Cl5  1  0.50705369  0.86059250  1.03243572  1.0
  O  O6  1  -0.13070449  0.59429592  1.39049335  1.0
  O  O7  1  0.85950665  1.10408479  0.38070449  1.0
  O  O8  1  1.59429592  -0.13070449  0.14591521  1.0
  O  O9  1  1.10408479  -0.14049335  0.65570408  1.0
  O  O10  1  0.44213438  1.10202616  0.63953367  1.0
  O  O11  1  0.61046633  -0.56630579  0.80786562  1.0
  O  O12  1  1.10202616  -0.55786562  0.81630579  1.0
  O  O13  1  0.43369421  0.61046633  1.14797384  1.0
  O  O14  1  1.14399006  0.61737996  -0.03269141  1.0
  O  O15  1  1.28269141  -0.02132139  0.10600994  1.0
  O  O16  1  0.61737996  0.14399006  1.27132139  1.0
  O  O17  1  -0.02132139  0.28269141  1.63262004  1.0
