# generated using pymatgen
data_Na7(CoO3)2
_symmetry_space_group_name_H-M   'P 1'
_cell_length_a   7.99623443
_cell_length_b   7.99623443
_cell_length_c   10.59181082
_cell_angle_alpha   75.99507863
_cell_angle_beta   104.00492137
_cell_angle_gamma   137.42888735
_symmetry_Int_Tables_number   1
_chemical_formula_structural   Na7(CoO3)2
_chemical_formula_sum   'Na14 Co4 O12'
_cell_volume   442.43226160
_cell_formula_units_Z   2
loop_
 _symmetry_equiv_pos_site_id
 _symmetry_equiv_pos_as_xyz
  1  'x, y, z'
loop_
 _atom_site_type_symbol
 _atom_site_label
 _atom_site_symmetry_multiplicity
 _atom_site_fract_x
 _atom_site_fract_y
 _atom_site_fract_z
 _atom_site_occupancy
  Na  Na0  1  0.42188744  -0.24027072  0.59379765  1.0
  Na  Na1  1  1.24027072  0.57811256  0.09379765  1.0
  Na  Na2  1  0.75972928  0.42188744  0.90620235  1.0
  Na  Na3  1  0.57811256  0.24027072  0.40620235  1.0
  Na  Na4  1  0.26158863  -0.18515855  0.80653341  1.0
  Na  Na5  1  1.18515855  0.73841137  0.30653341  1.0
  Na  Na6  1  0.81484145  0.26158863  0.69346659  1.0
  Na  Na7  1  0.73841137  0.18515855  0.19346659  1.0
  Na  Na8  1  0.42090817  0.30086944  0.64837426  1.0
  Na  Na9  1  0.69913056  0.57909183  0.14837426  1.0
  Na  Na10  1  1.30086944  0.42090817  0.85162574  1.0
  Na  Na11  1  0.57909183  -0.30086944  0.35162574  1.0
  Na  Na12  1  0.92405594  0.92405594  0.75000000  1.0
  Na  Na13  1  0.07594406  0.07594406  0.25000000  1.0
  Co  Co14  1  0.75794632  0.00794728  0.96127686  1.0
  Co  Co15  1  0.99205272  0.24205368  0.46127686  1.0
  Co  Co16  1  1.00794728  0.75794632  0.53872314  1.0
  Co  Co17  1  0.24205368  -0.00794728  0.03872314  1.0
  O  O18  1  0.60581387  -0.15120596  0.81173493  1.0
  O  O19  1  1.15120596  0.39418613  0.31173493  1.0
  O  O20  1  0.84879404  0.60581387  0.68826507  1.0
  O  O21  1  0.39418613  0.15120596  0.18826507  1.0
  O  O22  1  0.34356855  -0.00556706  0.58226224  1.0
  O  O23  1  1.00556706  0.65643145  0.08226224  1.0
  O  O24  1  0.99443294  0.34356855  0.91773776  1.0
  O  O25  1  0.65643145  0.00556706  0.41773776  1.0
  O  O26  1  0.32553514  0.13703002  0.87577844  1.0
  O  O27  1  0.86296998  0.67446486  0.37577844  1.0
  O  O28  1  1.13703002  0.32553514  0.62422156  1.0
  O  O29  1  0.67446486  -0.13703002  0.12422156  1.0
