# generated using pymatgen
data_Y(CuSi)2
_symmetry_space_group_name_H-M   'P 1'
_cell_length_a   5.73118399
_cell_length_b   5.73118399
_cell_length_c   5.73118399
_cell_angle_alpha   139.35732431
_cell_angle_beta   139.35732431
_cell_angle_gamma   58.83042261
_symmetry_Int_Tables_number   1
_chemical_formula_structural   Y(CuSi)2
_chemical_formula_sum   'Y1 Cu2 Si2'
_cell_volume   79.10877121
_cell_formula_units_Z   1
loop_
 _symmetry_equiv_pos_site_id
 _symmetry_equiv_pos_as_xyz
  1  'x, y, z'
loop_
 _atom_site_type_symbol
 _atom_site_label
 _atom_site_symmetry_multiplicity
 _atom_site_fract_x
 _atom_site_fract_y
 _atom_site_fract_z
 _atom_site_occupancy
  Y  Y0  1  0.00000000  0.00000000  0.00000000  1.0
  Cu  Cu1  1  0.25000000  0.75000000  0.50000000  1.0
  Cu  Cu2  1  0.75000000  0.25000000  0.50000000  1.0
  Si  Si3  1  0.61781528  0.61781528  1.00000000  1.0
  Si  Si4  1  0.38218472  0.38218472  0.00000000  1.0
