# generated using pymatgen
data_ScGeRh
_symmetry_space_group_name_H-M   'P 1'
_cell_length_a   6.56099912
_cell_length_b   4.15337518
_cell_length_c   7.43849686
_cell_angle_alpha   90.00000000
_cell_angle_beta   90.00000000
_cell_angle_gamma   90.00000000
_symmetry_Int_Tables_number   1
_chemical_formula_structural   ScGeRh
_chemical_formula_sum   'Sc4 Ge4 Rh4'
_cell_volume   202.70120310
_cell_formula_units_Z   4
loop_
 _symmetry_equiv_pos_site_id
 _symmetry_equiv_pos_as_xyz
  1  'x, y, z'
loop_
 _atom_site_type_symbol
 _atom_site_label
 _atom_site_symmetry_multiplicity
 _atom_site_fract_x
 _atom_site_fract_y
 _atom_site_fract_z
 _atom_site_occupancy
  Sc  Sc0  1  0.98799588  0.75000000  0.69508798  1.0
  Sc  Sc1  1  0.48799588  0.75000000  0.80491202  1.0
  Sc  Sc2  1  0.01200412  0.25000000  0.30491202  1.0
  Sc  Sc3  1  0.51200412  0.25000000  0.19508798  1.0
  Ge  Ge4  1  0.72293838  0.75000000  0.38649123  1.0
  Ge  Ge5  1  0.22293838  0.75000000  0.11350877  1.0
  Ge  Ge6  1  0.27706162  0.25000000  0.61350877  1.0
  Ge  Ge7  1  0.77706162  0.25000000  0.88649123  1.0
  Rh  Rh8  1  0.84337183  0.75000000  0.06227562  1.0
  Rh  Rh9  1  0.34337183  0.75000000  0.43772438  1.0
  Rh  Rh10  1  0.15662817  0.25000000  0.93772438  1.0
  Rh  Rh11  1  0.65662817  0.25000000  0.56227562  1.0
