# generated using pymatgen
data_Ba5P9
_symmetry_space_group_name_H-M   'P 1'
_cell_length_a   10.89780356
_cell_length_b   9.43746003
_cell_length_c   12.42091169
_cell_angle_alpha   57.90013868
_cell_angle_beta   47.18953514
_cell_angle_gamma   74.91032618
_symmetry_Int_Tables_number   1
_chemical_formula_structural   Ba5P9
_chemical_formula_sum   'Ba10 P18'
_cell_volume   783.37236839
_cell_formula_units_Z   2
loop_
 _symmetry_equiv_pos_site_id
 _symmetry_equiv_pos_as_xyz
  1  'x, y, z'
loop_
 _atom_site_type_symbol
 _atom_site_label
 _atom_site_symmetry_multiplicity
 _atom_site_fract_x
 _atom_site_fract_y
 _atom_site_fract_z
 _atom_site_occupancy
  Ba  Ba0  1  0.27027374  0.45581538  1.51172263  1.0
  Ba  Ba1  1  0.73827737  -0.51218825  0.97972626  1.0
  Ba  Ba2  1  1.45581538  0.27027374  -0.23781175  1.0
  Ba  Ba3  1  0.48781175  -0.26172263  0.79418462  1.0
  Ba  Ba4  1  -0.17801298  0.21548173  1.31144570  1.0
  Ba  Ba5  1  0.93855430  -0.40108555  0.42801298  1.0
  Ba  Ba6  1  1.21548173  -0.17801298  0.65108555  1.0
  Ba  Ba7  1  0.59891445  0.93855430  1.03451827  1.0
  Ba  Ba8  1  0.99856931  -0.00143069  0.00143069  1.0
  Ba  Ba9  1  0.24856931  0.24856931  1.25143069  1.0
  P  P10  1  0.35591621  0.62380803  1.16498046  1.0
  P  P11  1  1.08501954  -0.60529530  0.89408379  1.0
  P  P12  1  1.62380803  0.35591621  -0.14470470  1.0
  P  P13  1  0.39470470  1.08501954  0.62619197  1.0
  P  P14  1  0.83538210  1.12040949  0.60682076  1.0
  P  P15  1  0.64317924  -0.18738765  0.41461790  1.0
  P  P16  1  1.12040949  -0.16461790  0.43738765  1.0
  P  P17  1  0.81261235  0.64317924  1.12959051  1.0
  P  P18  1  0.03132315  0.58180993  1.11671019  1.0
  P  P19  1  1.13328981  -0.02015673  0.21867685  1.0
  P  P20  1  0.58180993  0.03132315  1.27015673  1.0
  P  P21  1  -0.02015673  0.13328981  1.66819007  1.0
  P  P22  1  1.20341010  0.48002562  -0.05750158  1.0
  P  P23  1  0.30750158  0.87593414  1.04658990  1.0
  P  P24  1  0.48002562  0.20341010  1.37406586  1.0
  P  P25  1  0.87593414  -0.69249842  0.76997438  1.0
  P  P26  1  0.61348820  -0.38651180  0.38651180  1.0
  P  P27  1  0.86348820  -0.13651180  0.63651180  1.0
