# generated using pymatgen
data_TiSCl6O
_symmetry_space_group_name_H-M   'P 1'
_cell_length_a   7.05320748
_cell_length_b   12.42472577
_cell_length_c   8.79861444
_cell_angle_alpha   64.91930241
_cell_angle_beta   60.44388651
_cell_angle_gamma   66.92362101
_symmetry_Int_Tables_number   1
_chemical_formula_structural   TiSCl6O
_chemical_formula_sum   'Ti2 S2 Cl12 O2'
_cell_volume   590.89302915
_cell_formula_units_Z   2
loop_
 _symmetry_equiv_pos_site_id
 _symmetry_equiv_pos_as_xyz
  1  'x, y, z'
loop_
 _atom_site_type_symbol
 _atom_site_label
 _atom_site_symmetry_multiplicity
 _atom_site_fract_x
 _atom_site_fract_y
 _atom_site_fract_z
 _atom_site_occupancy
  Ti  Ti0  1  -0.92889404  0.85561077  -0.06677249  1.0
  Ti  Ti1  1  -0.07110596  0.14438923  0.06677249  1.0
  S  S2  1  -0.65819177  0.71193191  0.26790479  1.0
  S  S3  1  -0.34180823  0.28806809  -0.26790479  1.0
  Cl  Cl4  1  -0.79303961  0.04094372  0.82807944  1.0
  Cl  Cl5  1  -0.20696039  0.95905628  -0.82807944  1.0
  Cl  Cl6  1  -0.60282052  0.77812169  -0.26364950  1.0
  Cl  Cl7  1  -0.39717948  0.22187831  0.26364950  1.0
  Cl  Cl8  1  -0.05742346  0.68684557  0.11487772  1.0
  Cl  Cl9  1  -0.94257654  0.31315443  -0.11487772  1.0
  Cl  Cl10  1  -0.12985523  0.93419797  -0.23227218  1.0
  Cl  Cl11  1  -0.87014477  0.06580203  0.23227218  1.0
  Cl  Cl12  1  -0.53907110  0.53558483  0.24152409  1.0
  Cl  Cl13  1  -0.46092890  0.46441517  -0.24152409  1.0
  Cl  Cl14  1  -0.94889181  0.68815820  -0.49768662  1.0
  Cl  Cl15  1  -0.05110819  0.31184180  0.49768662  1.0
  O  O16  1  -0.72374331  0.79413207  0.11403283  1.0
  O  O17  1  -0.27625669  0.20586793  -0.11403283  1.0
