# generated using pymatgen
data_K4Ba(VS4)2
_symmetry_space_group_name_H-M   'P 1'
_cell_length_a   11.55528500
_cell_length_b   11.55528500
_cell_length_c   11.55528500
_cell_angle_alpha   133.70483398
_cell_angle_beta   71.65657775
_cell_angle_gamma   128.59185517
_symmetry_Int_Tables_number   1
_chemical_formula_structural   K4Ba(VS4)2
_chemical_formula_sum   'K8 Ba2 V4 S16'
_cell_volume   853.13717722
_cell_formula_units_Z   2
loop_
 _symmetry_equiv_pos_site_id
 _symmetry_equiv_pos_as_xyz
  1  'x, y, z'
loop_
 _atom_site_type_symbol
 _atom_site_label
 _atom_site_symmetry_multiplicity
 _atom_site_fract_x
 _atom_site_fract_y
 _atom_site_fract_z
 _atom_site_occupancy
  K  K0  1  1.42169978  1.12636967  1.54806945  1.0
  K  K1  1  1.07830022  0.62636967  0.70466990  1.0
  K  K2  1  0.92169978  0.37363033  1.29533010  1.0
  K  K3  1  0.57830022  0.87363033  1.45193055  1.0
  K  K4  1  1.00086664  0.25000000  0.75086664  1.0
  K  K5  1  1.50086664  0.75000000  0.75086664  1.0
  K  K6  1  0.99913336  0.75000000  1.24913336  1.0
  K  K7  1  1.49913336  1.25000000  1.24913336  1.0
  Ba  Ba8  1  0.25000000  0.25000000  0.00000000  1.0
  Ba  Ba9  1  0.75000000  0.75000000  0.00000000  1.0
  V  V10  1  1.13280477  1.20745799  1.34026276  1.0
  V  V11  1  1.36719523  0.70745799  1.07465321  1.0
  V  V12  1  0.63280477  0.29254201  0.92534679  1.0
  V  V13  1  0.86719523  0.79254201  1.65973724  1.0
  S  S14  1  1.08843980  0.86912527  1.60605968  1.0
  S  S15  1  1.73693441  1.51761988  1.60605968  1.0
  S  S16  1  0.76306559  0.36912527  0.78068547  1.0
  S  S17  1  1.41156020  1.01761988  0.78068547  1.0
  S  S18  1  1.58843980  0.98238012  1.21931453  1.0
  S  S19  1  1.23693441  0.63087473  1.21931453  1.0
  S  S20  1  1.26306559  1.48238012  1.39394032  1.0
  S  S21  1  0.91156020  1.13087473  1.39394032  1.0
  S  S22  1  1.39337972  1.47514693  1.86852666  1.0
  S  S23  1  1.10662028  0.97514693  1.08176721  1.0
  S  S24  1  0.89337972  0.02485307  0.91823279  1.0
  S  S25  1  0.60662028  0.52485307  1.13147334  1.0
  S  S26  1  1.24675410  1.23186983  1.47862393  1.0
  S  S27  1  1.25324590  0.73186983  0.98511572  1.0
  S  S28  1  0.74675410  0.26813017  1.01488428  1.0
  S  S29  1  0.75324590  0.76813017  1.52137607  1.0
