# generated using pymatgen
data_Li3AlN2
_symmetry_space_group_name_H-M   'P 1'
_cell_length_a   8.22429463
_cell_length_b   8.22429463
_cell_length_c   8.22429463
_cell_angle_alpha   109.47122063
_cell_angle_beta   109.47122063
_cell_angle_gamma   109.47122063
_symmetry_Int_Tables_number   1
_chemical_formula_structural   Li3AlN2
_chemical_formula_sum   'Li24 Al8 N16'
_cell_volume   428.22704329
_cell_formula_units_Z   8
loop_
 _symmetry_equiv_pos_site_id
 _symmetry_equiv_pos_as_xyz
  1  'x, y, z'
loop_
 _atom_site_type_symbol
 _atom_site_label
 _atom_site_symmetry_multiplicity
 _atom_site_fract_x
 _atom_site_fract_y
 _atom_site_fract_z
 _atom_site_occupancy
  Li  Li0  1  0.73753644  0.76457281  0.22377157  1.0
  Li  Li1  1  0.23753644  1.01376486  0.97296363  1.0
  Li  Li2  1  1.04080123  0.51376486  1.27622843  1.0
  Li  Li3  1  1.54080123  1.26457281  1.52703637  1.0
  Li  Li4  1  1.47296363  1.45919877  1.73542719  1.0
  Li  Li5  1  0.97296363  0.23753644  1.01376486  1.0
  Li  Li6  1  0.22377157  0.73753644  0.76457281  1.0
  Li  Li7  1  0.72377157  0.95919877  0.48623514  1.0
  Li  Li8  1  1.51376486  1.27622843  1.04080123  1.0
  Li  Li9  1  1.01376486  0.97296363  1.23753644  1.0
  Li  Li10  1  1.73542719  1.47296363  1.45919877  1.0
  Li  Li11  1  1.23542719  0.77622843  1.26246356  1.0
  Li  Li12  1  0.95919877  1.48623514  0.72377157  1.0
  Li  Li13  1  0.45919877  0.73542719  0.47296363  1.0
  Li  Li14  1  1.26246356  1.23542719  1.77622843  1.0
  Li  Li15  1  1.76246356  0.98623514  1.02703637  1.0
  Li  Li16  1  1.77622843  1.26246356  1.23542719  1.0
  Li  Li17  1  1.27622843  1.04080123  1.51376486  1.0
  Li  Li18  1  0.52703637  0.54080123  0.26457281  1.0
  Li  Li19  1  1.02703637  1.76246356  0.98623514  1.0
  Li  Li20  1  0.26457281  0.52703637  0.54080123  1.0
  Li  Li21  1  0.76457281  1.22377157  0.73753644  1.0
  Li  Li22  1  0.48623514  0.72377157  0.95919877  1.0
  Li  Li23  1  0.98623514  1.02703637  0.76246356  1.0
  Al  Al24  1  0.76933500  1.50000000  1.00000000  1.0
  Al  Al25  1  1.26933500  1.26933500  1.26933500  1.0
  Al  Al26  1  1.00000000  0.76933500  1.50000000  1.0
  Al  Al27  1  1.50000000  1.00000000  1.23066500  1.0
  Al  Al28  1  1.00000000  1.23066500  1.50000000  1.0
  Al  Al29  1  0.50000000  1.00000000  0.76933500  1.0
  Al  Al30  1  1.23066500  0.50000000  1.00000000  1.0
  Al  Al31  1  0.73066500  0.73066500  0.73066500  1.0
  N  N32  1  0.78286023  0.53286023  0.25000000  1.0
  N  N33  1  1.28286023  1.03286023  1.25000000  1.0
  N  N34  1  0.75000000  0.71713977  0.96713977  1.0
  N  N35  1  1.25000000  1.28286023  1.03286023  1.0
  N  N36  1  0.25000000  0.78286023  0.53286023  1.0
  N  N37  1  0.75000000  1.21713977  0.46713977  1.0
  N  N38  1  0.53286023  1.25000000  0.78286023  1.0
  N  N39  1  1.03286023  1.25000000  1.28286023  1.0
  N  N40  1  0.96713977  0.75000000  0.71713977  1.0
  N  N41  1  1.46713977  0.75000000  1.21713977  1.0
  N  N42  1  1.21713977  0.46713977  0.75000000  1.0
  N  N43  1  0.71713977  0.96713977  0.75000000  1.0
  N  N44  1  1.00000000  0.50000000  1.00000000  1.0
  N  N45  1  0.50000000  0.50000000  0.50000000  1.0
  N  N46  1  1.00000000  1.00000000  1.50000000  1.0
  N  N47  1  1.50000000  1.00000000  1.00000000  1.0
