# generated using pymatgen
data_Hf2Sc3Si4
_symmetry_space_group_name_H-M   'P 1'
_cell_length_a   7.18002213
_cell_length_b   7.18002213
_cell_length_c   12.97235877
_cell_angle_alpha   90.00000000
_cell_angle_beta   90.00000000
_cell_angle_gamma   90.00000000
_symmetry_Int_Tables_number   1
_chemical_formula_structural   Hf2Sc3Si4
_chemical_formula_sum   'Hf8 Sc12 Si16'
_cell_volume   668.76035041
_cell_formula_units_Z   4
loop_
 _symmetry_equiv_pos_site_id
 _symmetry_equiv_pos_as_xyz
  1  'x, y, z'
loop_
 _atom_site_type_symbol
 _atom_site_label
 _atom_site_symmetry_multiplicity
 _atom_site_fract_x
 _atom_site_fract_y
 _atom_site_fract_z
 _atom_site_occupancy
  Hf  Hf0  1  0.64254136  0.50140372  0.87675406  1.0
  Hf  Hf1  1  0.35745864  0.49859628  0.37675406  1.0
  Hf  Hf2  1  1.00140372  0.85745864  0.62675406  1.0
  Hf  Hf3  1  -0.00140372  0.14254136  0.12675406  1.0
  Hf  Hf4  1  0.49859628  0.35745864  0.62324594  1.0
  Hf  Hf5  1  0.50140372  0.64254136  0.12324594  1.0
  Hf  Hf6  1  0.85745864  1.00140372  0.37324594  1.0
  Hf  Hf7  1  0.14254136  -0.00140372  0.87324594  1.0
  Sc  Sc8  1  0.82255290  0.17744710  0.75000000  1.0
  Sc  Sc9  1  0.17744710  0.82255290  0.25000000  1.0
  Sc  Sc10  1  0.67744710  0.67744710  0.50000000  1.0
  Sc  Sc11  1  0.32255290  0.32255290  0.00000000  1.0
  Sc  Sc12  1  0.84894311  0.49460563  0.28464198  1.0
  Sc  Sc13  1  0.15105689  0.50539437  0.78464198  1.0
  Sc  Sc14  1  0.99460563  0.65105689  0.03464198  1.0
  Sc  Sc15  1  0.00539437  0.34894311  0.53464198  1.0
  Sc  Sc16  1  0.50539437  0.15105689  0.21535802  1.0
  Sc  Sc17  1  0.49460563  0.84894311  0.71535802  1.0
  Sc  Sc18  1  0.65105689  0.99460563  0.96535802  1.0
  Sc  Sc19  1  0.34894311  0.00539437  0.46535802  1.0
  Si  Si20  1  0.70693557  0.35205311  0.07294855  1.0
  Si  Si21  1  0.29306443  0.64794689  0.57294855  1.0
  Si  Si22  1  0.85205311  0.79306443  0.82294855  1.0
  Si  Si23  1  0.14794689  0.20693557  0.32294855  1.0
  Si  Si24  1  0.64794689  0.29306443  0.42705145  1.0
  Si  Si25  1  0.35205311  0.70693557  0.92705145  1.0
  Si  Si26  1  0.79306443  0.85205311  0.17705145  1.0
  Si  Si27  1  0.20693557  0.14794689  0.67705145  1.0
  Si  Si28  1  0.79979664  0.55168120  0.68650800  1.0
  Si  Si29  1  0.20020336  0.44831880  0.18650800  1.0
  Si  Si30  1  0.05168120  0.70020336  0.43650800  1.0
  Si  Si31  1  0.94831880  0.29979664  0.93650800  1.0
  Si  Si32  1  0.44831880  0.20020336  0.81349200  1.0
  Si  Si33  1  0.55168120  0.79979664  0.31349200  1.0
  Si  Si34  1  0.70020336  0.05168120  0.56349200  1.0
  Si  Si35  1  0.29979664  0.94831880  0.06349200  1.0
