# generated using pymatgen
data_Hg2WO4
_symmetry_space_group_name_H-M   'P 1'
_cell_length_a   7.47658725
_cell_length_b   7.47658725
_cell_length_c   5.02013745
_cell_angle_alpha   74.95165638
_cell_angle_beta   105.04834362
_cell_angle_gamma   73.25250380
_symmetry_Int_Tables_number   1
_chemical_formula_structural   Hg2WO4
_chemical_formula_sum   'Hg4 W2 O8'
_cell_volume   241.93799260
_cell_formula_units_Z   2
loop_
 _symmetry_equiv_pos_site_id
 _symmetry_equiv_pos_as_xyz
  1  'x, y, z'
loop_
 _atom_site_type_symbol
 _atom_site_label
 _atom_site_symmetry_multiplicity
 _atom_site_fract_x
 _atom_site_fract_y
 _atom_site_fract_z
 _atom_site_occupancy
  Hg  Hg0  1  1.53102338  0.24403907  0.97785834  1.0
  Hg  Hg1  1  0.75596093  -0.53102338  0.47785834  1.0
  Hg  Hg2  1  1.24403907  0.53102338  0.52214166  1.0
  Hg  Hg3  1  0.46897662  -0.24403907  0.02214166  1.0
  W  W4  1  0.90342642  -0.09657358  0.75000000  1.0
  W  W5  1  1.09657358  0.09657358  0.25000000  1.0
  O  O6  1  1.81892121  0.08601117  0.35009392  1.0
  O  O7  1  0.91398883  -0.81892121  0.85009392  1.0
  O  O8  1  1.08601117  0.81892121  0.14990608  1.0
  O  O9  1  0.18107879  -0.08601117  0.64990608  1.0
  O  O10  1  0.66894192  -0.04871478  0.79719759  1.0
  O  O11  1  1.04871478  0.33105808  0.29719759  1.0
  O  O12  1  0.95128522  -0.33105808  0.70280241  1.0
  O  O13  1  1.33105808  0.04871478  0.20280241  1.0
