# generated using pymatgen
data_Li8CoO6
_symmetry_space_group_name_H-M   'P 1'
_cell_length_a   5.48549468
_cell_length_b   5.48549468
_cell_length_c   10.88187371
_cell_angle_alpha   90.00000000
_cell_angle_beta   90.00000000
_cell_angle_gamma   120.00000000
_symmetry_Int_Tables_number   1
_chemical_formula_structural   Li8CoO6
_chemical_formula_sum   'Li16 Co2 O12'
_cell_volume   283.57367331
_cell_formula_units_Z   2
loop_
 _symmetry_equiv_pos_site_id
 _symmetry_equiv_pos_as_xyz
  1  'x, y, z'
loop_
 _atom_site_type_symbol
 _atom_site_label
 _atom_site_symmetry_multiplicity
 _atom_site_fract_x
 _atom_site_fract_y
 _atom_site_fract_z
 _atom_site_occupancy
  Li  Li0  1  0.69146904  0.69146904  0.38600145  1.0
  Li  Li1  1  0.69146904  0.00000000  0.88600145  1.0
  Li  Li2  1  0.00000000  0.69146904  0.88600145  1.0
  Li  Li3  1  -0.00000000  0.30853096  0.38600145  1.0
  Li  Li4  1  0.30853096  0.30853096  0.88600145  1.0
  Li  Li5  1  0.30853096  0.00000000  0.38600145  1.0
  Li  Li6  1  0.61468754  0.61468754  0.02403402  1.0
  Li  Li7  1  0.61468754  0.00000000  0.52403402  1.0
  Li  Li8  1  -0.00000000  0.61468754  0.52403402  1.0
  Li  Li9  1  -0.00000000  0.38531246  0.02403402  1.0
  Li  Li10  1  0.38531246  0.38531246  0.52403402  1.0
  Li  Li11  1  0.38531246  0.00000000  0.02403402  1.0
  Li  Li12  1  0.33333333  0.66666667  0.24870113  1.0
  Li  Li13  1  0.33333333  0.66666667  0.74870113  1.0
  Li  Li14  1  0.66666667  0.33333333  0.24870113  1.0
  Li  Li15  1  0.66666667  0.33333333  0.74870113  1.0
  Co  Co16  1  0.00000000  0.00000000  0.15775913  1.0
  Co  Co17  1  0.00000000  0.00000000  0.65775913  1.0
  O  O18  1  0.69540759  0.69540759  0.20435580  1.0
  O  O19  1  0.69540759  0.00000000  0.70435580  1.0
  O  O20  1  -0.00000000  0.69540759  0.70435580  1.0
  O  O21  1  0.00000000  0.30459241  0.20435580  1.0
  O  O22  1  0.30459241  0.30459241  0.70435580  1.0
  O  O23  1  0.30459241  0.00000000  0.20435580  1.0
  O  O24  1  0.33333333  0.66666667  0.43508865  1.0
  O  O25  1  0.33333333  0.66666667  0.93508865  1.0
  O  O26  1  0.66666667  0.33333333  0.43508865  1.0
  O  O27  1  0.66666667  0.33333333  0.93508865  1.0
  O  O28  1  0.00000000  0.00000000  -0.01551250  1.0
  O  O29  1  0.00000000  0.00000000  0.48448750  1.0
