# generated using pymatgen
data_Ba3V2O8
_symmetry_space_group_name_H-M   'P 1'
_cell_length_a   7.92275905
_cell_length_b   7.92275905
_cell_length_c   7.92275905
_cell_angle_alpha   43.38128439
_cell_angle_beta   43.38128439
_cell_angle_gamma   43.38128439
_symmetry_Int_Tables_number   1
_chemical_formula_structural   Ba3V2O8
_chemical_formula_sum   'Ba3 V2 O8'
_cell_volume   212.82039110
_cell_formula_units_Z   1
loop_
 _symmetry_equiv_pos_site_id
 _symmetry_equiv_pos_as_xyz
  1  'x, y, z'
loop_
 _atom_site_type_symbol
 _atom_site_label
 _atom_site_symmetry_multiplicity
 _atom_site_fract_x
 _atom_site_fract_y
 _atom_site_fract_z
 _atom_site_occupancy
  Ba  Ba0  1  0.79441636  0.79441636  0.79441636  1.0
  Ba  Ba1  1  1.20558364  1.20558364  0.20558364  1.0
  Ba  Ba2  1  0.00000000  0.00000000  0.00000000  1.0
  V  V3  1  1.59247038  0.59247038  0.59247038  1.0
  V  V4  1  1.40752962  0.40752962  0.40752962  1.0
  O  O5  1  1.27368465  0.27368465  0.75557001  1.0
  O  O6  1  1.27368465  0.75557001  0.27368465  1.0
  O  O7  1  1.24442999  0.72631535  0.72631535  1.0
  O  O8  1  1.72631535  0.24442999  0.72631535  1.0
  O  O9  1  1.72631535  0.72631535  0.24442999  1.0
  O  O10  1  1.75557001  0.27368465  0.27368465  1.0
  O  O11  1  1.67203459  0.67203459  0.67203459  1.0
  O  O12  1  1.32796541  0.32796541  0.32796541  1.0
