# generated using pymatgen
data_Cr2CdO4
_symmetry_space_group_name_H-M   'P 1'
_cell_length_a   6.14364173
_cell_length_b   6.14364173
_cell_length_c   6.14364173
_cell_angle_alpha   60.00000000
_cell_angle_beta   60.00000000
_cell_angle_gamma   60.00000000
_symmetry_Int_Tables_number   1
_chemical_formula_structural   Cr2CdO4
_chemical_formula_sum   'Cr4 Cd2 O8'
_cell_volume   163.96933928
_cell_formula_units_Z   2
loop_
 _symmetry_equiv_pos_site_id
 _symmetry_equiv_pos_as_xyz
  1  'x, y, z'
loop_
 _atom_site_type_symbol
 _atom_site_label
 _atom_site_symmetry_multiplicity
 _atom_site_fract_x
 _atom_site_fract_y
 _atom_site_fract_z
 _atom_site_occupancy
  Cr  Cr0  1  0.12500000  0.12500000  1.62500000  1.0
  Cr  Cr1  1  0.12500000  0.62500000  0.12500000  1.0
  Cr  Cr2  1  0.62500000  0.12500000  1.12500000  1.0
  Cr  Cr3  1  0.12500000  0.12500000  0.12500000  1.0
  Cd  Cd4  1  0.75000000  -0.25000000  0.75000000  1.0
  Cd  Cd5  1  0.50000000  0.50000000  -0.50000000  1.0
  O  O6  1  0.35580278  0.35580278  -0.06740833  1.0
  O  O7  1  0.35580278  -0.06740833  0.35580278  1.0
  O  O8  1  -0.06740833  0.35580278  0.35580278  1.0
  O  O9  1  0.35580278  0.35580278  0.35580278  1.0
  O  O10  1  -0.10580278  0.89419722  0.31740833  1.0
  O  O11  1  0.89419722  -0.68259167  0.89419722  1.0
  O  O12  1  -0.68259167  0.89419722  0.89419722  1.0
  O  O13  1  0.89419722  -0.10580278  0.89419722  1.0
