# generated using pymatgen
data_Mn2ZnH12(NO2)4
_symmetry_space_group_name_H-M   'P 1'
_cell_length_a   7.49732083
_cell_length_b   7.49732083
_cell_length_c   7.49732083
_cell_angle_alpha   60.00000000
_cell_angle_beta   60.00000000
_cell_angle_gamma   60.00000000
_symmetry_Int_Tables_number   1
_chemical_formula_structural   Mn2ZnH12(NO2)4
_chemical_formula_sum   'Mn2 Zn1 H12 N4 O8'
_cell_volume   297.99109773
_cell_formula_units_Z   1
loop_
 _symmetry_equiv_pos_site_id
 _symmetry_equiv_pos_as_xyz
  1  'x, y, z'
loop_
 _atom_site_type_symbol
 _atom_site_label
 _atom_site_symmetry_multiplicity
 _atom_site_fract_x
 _atom_site_fract_y
 _atom_site_fract_z
 _atom_site_occupancy
  Mn  Mn0  1  0.25000000  0.25000000  0.25000000  1.0
  Mn  Mn1  1  0.00000000  -0.00000000  0.00000000  1.0
  Zn  Zn2  1  0.75000000  0.75000000  -0.25000000  1.0
  H  H3  1  0.54456033  1.14560766  -0.45543967  1.0
  H  H4  1  -0.45543967  0.54456033  1.14560766  1.0
  H  H5  1  -0.23472833  0.54456033  1.14560766  1.0
  H  H6  1  0.76527167  1.14560766  -0.45543967  1.0
  H  H7  1  1.14560766  0.54456033  -0.45543967  1.0
  H  H8  1  -0.23472833  0.54456033  0.54456033  1.0
  H  H9  1  1.14560766  0.54456033  -0.23472833  1.0
  H  H10  1  -0.45543967  0.54456033  0.76527167  1.0
  H  H11  1  -0.45543967  0.76527167  0.54456033  1.0
  H  H12  1  1.14560766  0.76527167  -0.45543967  1.0
  H  H13  1  0.54456033  1.14560766  -0.23472833  1.0
  H  H14  1  -0.45543967  0.76527167  1.14560766  1.0
  N  N15  1  -0.36161389  0.63838611  0.63838611  1.0
  N  N16  1  1.08484168  0.63838611  -0.36161389  1.0
  N  N17  1  -0.36161389  0.63838611  1.08484168  1.0
  N  N18  1  0.63838611  1.08484168  -0.36161389  1.0
  O  O19  1  0.91228404  0.91228404  -0.08771596  1.0
  O  O20  1  0.26314788  0.91228404  -0.08771596  1.0
  O  O21  1  0.91228404  0.91228404  -0.73685212  1.0
  O  O22  1  0.91228404  0.26314788  -0.08771596  1.0
  O  O23  1  0.33792615  0.33792615  0.33792615  1.0
  O  O24  1  -0.01377845  0.33792615  0.33792615  1.0
  O  O25  1  0.33792615  0.33792615  -0.01377845  1.0
  O  O26  1  0.33792615  -0.01377845  0.33792615  1.0
