# generated using pymatgen
data_Mg3(PO4)2
_symmetry_space_group_name_H-M   'P 1'
_cell_length_a   5.12402113
_cell_length_b   8.33903991
_cell_length_c   8.95308611
_cell_angle_alpha   90.00000000
_cell_angle_beta   120.44145750
_cell_angle_gamma   90.00000000
_symmetry_Int_Tables_number   1
_chemical_formula_structural   Mg3(PO4)2
_chemical_formula_sum   'Mg6 P4 O16'
_cell_volume   329.82319500
_cell_formula_units_Z   2
loop_
 _symmetry_equiv_pos_site_id
 _symmetry_equiv_pos_as_xyz
  1  'x, y, z'
loop_
 _atom_site_type_symbol
 _atom_site_label
 _atom_site_symmetry_multiplicity
 _atom_site_fract_x
 _atom_site_fract_y
 _atom_site_fract_z
 _atom_site_occupancy
  Mg  Mg0  1  0.98406336  0.85587758  0.39189837  1.0
  Mg  Mg1  1  0.98406336  0.64412242  0.89189837  1.0
  Mg  Mg2  1  0.01593664  0.35587758  0.10810163  1.0
  Mg  Mg3  1  0.01593664  0.14412242  0.60810163  1.0
  Mg  Mg4  1  -0.00000000  0.50000000  0.50000000  1.0
  Mg  Mg5  1  0.00000000  0.00000000  0.00000000  1.0
  P  P6  1  0.66900394  0.19464887  0.20177231  1.0
  P  P7  1  0.66900394  0.30535113  0.70177231  1.0
  P  P8  1  0.33099606  0.69464887  0.29822769  1.0
  P  P9  1  0.33099606  0.80535113  0.79822769  1.0
  O  O10  1  0.82337459  0.36315608  0.26284579  1.0
  O  O11  1  0.82337459  0.13684392  0.76284579  1.0
  O  O12  1  0.17662541  0.86315608  0.23715421  1.0
  O  O13  1  0.17662541  0.63684392  0.73715421  1.0
  O  O14  1  0.81097964  0.07518848  0.35718161  1.0
  O  O15  1  0.81097964  0.42481152  0.85718161  1.0
  O  O16  1  0.18902036  0.57518848  0.14281839  1.0
  O  O17  1  0.18902036  0.92481152  0.64281839  1.0
  O  O18  1  0.74743215  0.14469559  0.06165162  1.0
  O  O19  1  0.74743215  0.35530441  0.56165162  1.0
  O  O20  1  0.25256785  0.64469559  0.43834838  1.0
  O  O21  1  0.25256785  0.85530441  0.93834838  1.0
  O  O22  1  0.32227074  0.19833372  0.12604078  1.0
  O  O23  1  0.32227074  0.30166628  0.62604078  1.0
  O  O24  1  0.67772926  0.69833372  0.37395922  1.0
  O  O25  1  0.67772926  0.80166628  0.87395922  1.0
