# generated using pymatgen
data_TaCuN2
_symmetry_space_group_name_H-M   'P 1'
_cell_length_a   5.36933416
_cell_length_b   5.36933416
_cell_length_c   5.36933416
_cell_angle_alpha   34.14273997
_cell_angle_beta   34.14273997
_cell_angle_gamma   34.14273997
_symmetry_Int_Tables_number   1
_chemical_formula_structural   TaCuN2
_chemical_formula_sum   'Ta1 Cu1 N2'
_cell_volume   43.47589042
_cell_formula_units_Z   1
loop_
 _symmetry_equiv_pos_site_id
 _symmetry_equiv_pos_as_xyz
  1  'x, y, z'
loop_
 _atom_site_type_symbol
 _atom_site_label
 _atom_site_symmetry_multiplicity
 _atom_site_fract_x
 _atom_site_fract_y
 _atom_site_fract_z
 _atom_site_occupancy
  Ta  Ta0  1  0.50000000  0.50000000  -0.50000000  1.0
  Cu  Cu1  1  0.00000000  -0.00000000  0.00000000  1.0
  N  N2  1  0.76207720  -0.23792280  -0.23792280  1.0
  N  N3  1  0.23792280  0.23792280  0.23792280  1.0
