# generated using pymatgen
data_Re2S2NCl11
_symmetry_space_group_name_H-M   'P 1'
_cell_length_a   9.61835429
_cell_length_b   9.61835429
_cell_length_c   11.72835652
_cell_angle_alpha   76.61014294
_cell_angle_beta   103.38985706
_cell_angle_gamma   84.39817035
_symmetry_Int_Tables_number   1
_chemical_formula_structural   Re2S2NCl11
_chemical_formula_sum   'Re4 S4 N2 Cl22'
_cell_volume   1013.63808240
_cell_formula_units_Z   2
loop_
 _symmetry_equiv_pos_site_id
 _symmetry_equiv_pos_as_xyz
  1  'x, y, z'
loop_
 _atom_site_type_symbol
 _atom_site_label
 _atom_site_symmetry_multiplicity
 _atom_site_fract_x
 _atom_site_fract_y
 _atom_site_fract_z
 _atom_site_occupancy
  Re  Re0  1  0.72363681  -0.10135659  0.29034507  1.0
  Re  Re1  1  1.10135659  0.27636319  0.79034507  1.0
  Re  Re2  1  0.89864341  -0.27636319  0.20965493  1.0
  Re  Re3  1  1.27636319  0.10135659  0.70965493  1.0
  S  S4  1  1.41896053  0.24240406  0.37418201  1.0
  S  S5  1  0.75759594  -0.41896053  0.87418201  1.0
  S  S6  1  1.24240406  0.41896053  0.12581799  1.0
  S  S7  1  0.58103947  -0.24240406  0.62581799  1.0
  N  N8  1  1.30550351  0.30550351  0.25000000  1.0
  N  N9  1  0.69449649  -0.30550351  0.75000000  1.0
  Cl  Cl10  1  0.95120198  -0.04879802  0.25000000  1.0
  Cl  Cl11  1  1.04879802  0.04879802  0.75000000  1.0
  Cl  Cl12  1  0.65061404  -0.16862106  0.10061541  1.0
  Cl  Cl13  1  1.16862106  0.34938596  0.60061541  1.0
  Cl  Cl14  1  0.83137894  -0.34938596  0.39938459  1.0
  Cl  Cl15  1  1.34938596  0.16862106  0.89938459  1.0
  Cl  Cl16  1  1.78925243  -0.03904827  0.47208186  1.0
  Cl  Cl17  1  1.03904827  -0.78925243  0.97208186  1.0
  Cl  Cl18  1  0.96095173  0.78925243  0.02791814  1.0
  Cl  Cl19  1  0.21074757  0.03904827  0.52791814  1.0
  Cl  Cl20  1  0.50461446  -0.15225648  0.32742991  1.0
  Cl  Cl21  1  1.15225648  0.49538554  0.82742991  1.0
  Cl  Cl22  1  0.84774352  -0.49538554  0.17257009  1.0
  Cl  Cl23  1  1.49538554  0.15225648  0.67257009  1.0
  Cl  Cl24  1  1.62374503  0.13531518  0.18597323  1.0
  Cl  Cl25  1  0.86468482  -0.62374503  0.68597323  1.0
  Cl  Cl26  1  1.13531518  0.62374503  0.31402677  1.0
  Cl  Cl27  1  0.37625497  -0.13531518  0.81402677  1.0
  Cl  Cl28  1  1.57459798  0.36962427  0.39812934  1.0
  Cl  Cl29  1  0.63037573  -0.57459798  0.89812934  1.0
  Cl  Cl30  1  1.36962427  0.57459798  0.10187066  1.0
  Cl  Cl31  1  0.42540202  -0.36962427  0.60187066  1.0
