# generated using pymatgen
data_OsF5
_symmetry_space_group_name_H-M   'P 1'
_cell_length_a   5.98162862
_cell_length_b   10.69961061
_cell_length_c   13.58373085
_cell_angle_alpha   90.00000000
_cell_angle_beta   100.65666232
_cell_angle_gamma   90.00000000
_symmetry_Int_Tables_number   1
_chemical_formula_structural   OsF5
_chemical_formula_sum   'Os8 F40'
_cell_volume   854.37954601
_cell_formula_units_Z   8
loop_
 _symmetry_equiv_pos_site_id
 _symmetry_equiv_pos_as_xyz
  1  'x, y, z'
loop_
 _atom_site_type_symbol
 _atom_site_label
 _atom_site_symmetry_multiplicity
 _atom_site_fract_x
 _atom_site_fract_y
 _atom_site_fract_z
 _atom_site_occupancy
  F  F0  1  0.91229871  0.14320651  0.87157256  1.0
  F  F1  1  0.91229871  0.35679349  0.37157256  1.0
  F  F2  1  0.08770129  0.64320651  0.62842744  1.0
  F  F3  1  0.08770129  0.85679349  0.12842744  1.0
  F  F4  1  0.81169720  0.90501563  0.94210730  1.0
  F  F5  1  0.81169720  0.59498437  0.44210730  1.0
  F  F6  1  0.18830280  0.40501563  0.55789270  1.0
  F  F7  1  0.18830280  0.09498437  0.05789270  1.0
  F  F8  1  0.91098495  0.66922614  0.88040679  1.0
  F  F9  1  0.91098495  0.83077386  0.38040679  1.0
  F  F10  1  0.08901505  0.16922614  0.61959321  1.0
  F  F11  1  0.08901505  0.33077386  0.11959321  1.0
  F  F12  1  0.52946309  0.56430127  0.63517416  1.0
  F  F13  1  0.52946309  0.93569873  0.13517416  1.0
  F  F14  1  0.47053691  0.06430127  0.86482584  1.0
  F  F15  1  0.47053691  0.43569873  0.36482584  1.0
  F  F16  1  0.96925272  0.93416782  0.76635964  1.0
  F  F17  1  0.96925272  0.56583218  0.26635964  1.0
  F  F18  1  0.03074728  0.43416782  0.73364036  1.0
  F  F19  1  0.03074728  0.06583218  0.23364036  1.0
  F  F20  1  0.53922899  0.86066118  0.75878248  1.0
  F  F21  1  0.53922899  0.63933882  0.25878248  1.0
  F  F22  1  0.46077101  0.36066118  0.74121752  1.0
  F  F23  1  0.46077101  0.13933882  0.24121752  1.0
  F  F24  1  0.37055932  0.59255880  0.80536912  1.0
  F  F25  1  0.37055932  0.90744120  0.30536912  1.0
  F  F26  1  0.62944068  0.09255880  0.69463088  1.0
  F  F27  1  0.62944068  0.40744120  0.19463088  1.0
  F  F28  1  0.25004378  0.82852437  0.95343063  1.0
  F  F29  1  0.25004378  0.67147563  0.45343063  1.0
  F  F30  1  0.74995622  0.32852437  0.54656937  1.0
  F  F31  1  0.74995622  0.17147563  0.04656937  1.0
  F  F32  1  0.81730455  0.37521268  0.93996345  1.0
  F  F33  1  0.81730455  0.12478732  0.43996345  1.0
  F  F34  1  0.18269545  0.87521268  0.56003655  1.0
  F  F35  1  0.18269545  0.62478732  0.06003655  1.0
  F  F36  1  0.74974377  0.80226860  0.55005509  1.0
  F  F37  1  0.74974377  0.69773140  0.05005510  1.0
  F  F38  1  0.25025623  0.30226860  0.94994491  1.0
  F  F39  1  0.25025623  0.19773140  0.44994491  1.0
  Os  Os40  1  0.00367696  0.75425149  0.99965554  1.0
  Os  Os41  1  0.00367696  0.74574851  0.49965554  1.0
  Os  Os42  1  0.99632304  0.25425149  0.50034446  1.0
  Os  Os43  1  0.99632304  0.24574851  0.00034446  1.0
  Os  Os44  1  0.71048274  0.99781513  0.80947789  1.0
  Os  Os45  1  0.71048274  0.50218487  0.30947789  1.0
  Os  Os46  1  0.28951726  0.49781513  0.69052211  1.0
  Os  Os47  1  0.28951726  0.00218487  0.19052211  1.0
