# generated using pymatgen
data_ZrPbO3
_symmetry_space_group_name_H-M   'P 1'
_cell_length_a   5.96378084
_cell_length_b   11.87974215
_cell_length_c   8.28503956
_cell_angle_alpha   90.00000000
_cell_angle_beta   90.00000000
_cell_angle_gamma   90.00000000
_symmetry_Int_Tables_number   1
_chemical_formula_structural   ZrPbO3
_chemical_formula_sum   'Zr8 Pb8 O24'
_cell_volume   586.97996170
_cell_formula_units_Z   8
loop_
 _symmetry_equiv_pos_site_id
 _symmetry_equiv_pos_as_xyz
  1  'x, y, z'
loop_
 _atom_site_type_symbol
 _atom_site_label
 _atom_site_symmetry_multiplicity
 _atom_site_fract_x
 _atom_site_fract_y
 _atom_site_fract_z
 _atom_site_occupancy
  Zr  Zr0  1  0.26040175  0.62353997  0.75034944  1.0
  Zr  Zr1  1  0.26040175  0.62353997  0.24965056  1.0
  Zr  Zr2  1  0.76040175  0.87646003  0.75034944  1.0
  Zr  Zr3  1  0.76040175  0.87646003  0.24965056  1.0
  Zr  Zr4  1  0.73959825  0.37646003  0.75034944  1.0
  Zr  Zr5  1  0.73959825  0.37646003  0.24965056  1.0
  Zr  Zr6  1  0.23959825  0.12353997  0.75034944  1.0
  Zr  Zr7  1  0.23959825  0.12353997  0.24965056  1.0
  Pb  Pb8  1  0.29668370  0.86966468  0.50000000  1.0
  Pb  Pb9  1  0.79668370  0.63033532  0.50000000  1.0
  Pb  Pb10  1  0.70331630  0.13033532  0.50000000  1.0
  Pb  Pb11  1  0.20331630  0.36966468  0.50000000  1.0
  Pb  Pb12  1  0.30535050  0.87473574  0.00000000  1.0
  Pb  Pb13  1  0.80535050  0.62526426  0.00000000  1.0
  Pb  Pb14  1  0.69464950  0.12526426  0.00000000  1.0
  Pb  Pb15  1  0.19464950  0.37473574  0.00000000  1.0
  O  O16  1  0.47059136  0.76003044  0.72132818  1.0
  O  O17  1  0.47059136  0.76003044  0.27867182  1.0
  O  O18  1  0.97059136  0.73996956  0.72132818  1.0
  O  O19  1  0.97059136  0.73996956  0.27867182  1.0
  O  O20  1  0.52940864  0.23996956  0.72132818  1.0
  O  O21  1  0.52940864  0.23996956  0.27867182  1.0
  O  O22  1  0.02940864  0.26003044  0.72132818  1.0
  O  O23  1  0.02940864  0.26003044  0.27867182  1.0
  O  O24  1  0.20493802  0.59752102  0.50000000  1.0
  O  O25  1  0.70493802  -0.09752102  0.50000000  1.0
  O  O26  1  0.79506198  0.40247898  0.50000000  1.0
  O  O27  1  0.29506198  1.09752102  0.50000000  1.0
  O  O28  1  0.22685368  0.65489428  0.00000000  1.0
  O  O29  1  0.72685368  0.84510572  0.00000000  1.0
  O  O30  1  0.77314632  0.34510572  0.00000000  1.0
  O  O31  1  0.27314632  0.15489428  0.00000000  1.0
  O  O32  1  0.50000000  0.00000000  0.79327851  1.0
  O  O33  1  0.50000000  0.00000000  0.20672149  1.0
  O  O34  1  0.00000000  0.50000000  0.79327851  1.0
  O  O35  1  0.00000000  0.50000000  0.20672149  1.0
  O  O36  1  0.50000000  0.50000000  0.76932976  1.0
  O  O37  1  0.50000000  0.50000000  0.23067024  1.0
  O  O38  1  0.00000000  0.00000000  0.76932976  1.0
  O  O39  1  0.00000000  0.00000000  0.23067024  1.0
