# generated using pymatgen
data_K2Pt(Br2O)2
_symmetry_space_group_name_H-M   'P 1'
_cell_length_a   8.95136524
_cell_length_b   12.53099222
_cell_length_c   4.48752667
_cell_angle_alpha   90.00000000
_cell_angle_beta   90.00000000
_cell_angle_gamma   90.00000000
_symmetry_Int_Tables_number   1
_chemical_formula_structural   K2Pt(Br2O)2
_chemical_formula_sum   'K4 Pt2 Br8 O4'
_cell_volume   503.36357054
_cell_formula_units_Z   2
loop_
 _symmetry_equiv_pos_site_id
 _symmetry_equiv_pos_as_xyz
  1  'x, y, z'
loop_
 _atom_site_type_symbol
 _atom_site_label
 _atom_site_symmetry_multiplicity
 _atom_site_fract_x
 _atom_site_fract_y
 _atom_site_fract_z
 _atom_site_occupancy
  K  K0  1  0.34589223  0.82629896  0.50000000  1.0
  K  K1  1  0.84589223  0.67370104  0.50000000  1.0
  K  K2  1  0.65410777  0.17370104  0.50000000  1.0
  K  K3  1  0.15410777  0.32629896  0.50000000  1.0
  Pt  Pt4  1  0.50000000  0.50000000  0.00000000  1.0
  Pt  Pt5  1  0.00000000  0.00000000  0.00000000  1.0
  O  O6  1  0.15427184  0.65491815  0.50000000  1.0
  O  O7  1  0.65427184  0.84508185  0.50000000  1.0
  O  O8  1  0.84572816  0.34508185  0.50000000  1.0
  O  O9  1  0.34572816  0.15491815  0.50000000  1.0
  Br  Br10  1  0.56051519  0.69095598  0.00000000  1.0
  Br  Br11  1  1.06051519  0.80904402  0.00000000  1.0
  Br  Br12  1  0.43948481  0.30904402  0.00000000  1.0
  Br  Br13  1  -0.06051519  0.19095598  0.00000000  1.0
  Br  Br14  1  0.26659731  1.03986094  0.00000000  1.0
  Br  Br15  1  0.76659731  0.46013906  0.00000000  1.0
  Br  Br16  1  0.73340269  -0.03986094  0.00000000  1.0
  Br  Br17  1  0.23340269  0.53986094  0.00000000  1.0
