# generated using pymatgen
data_Si3P2Pt
_symmetry_space_group_name_H-M   'P 1'
_cell_length_a   8.15440821
_cell_length_b   5.52471995
_cell_length_c   4.88493778
_cell_angle_alpha   107.96627318
_cell_angle_beta   93.53561204
_cell_angle_gamma   91.40162288
_symmetry_Int_Tables_number   1
_chemical_formula_structural   Si3P2Pt
_chemical_formula_sum   'Si6 P4 Pt2'
_cell_volume   208.72175122
_cell_formula_units_Z   2
loop_
 _symmetry_equiv_pos_site_id
 _symmetry_equiv_pos_as_xyz
  1  'x, y, z'
loop_
 _atom_site_type_symbol
 _atom_site_label
 _atom_site_symmetry_multiplicity
 _atom_site_fract_x
 _atom_site_fract_y
 _atom_site_fract_z
 _atom_site_occupancy
  Si  Si0  1  -0.64179464  -0.48694383  -0.39154056  1.0
  Si  Si1  1  0.00002473  0.00385516  -0.00149659  1.0
  Si  Si2  1  -0.31854182  -0.64190175  -0.00216401  1.0
  Si  Si3  1  -0.04954046  -0.78884112  -0.51203407  1.0
  Si  Si4  1  -0.47842517  -0.05865975  -0.68838399  1.0
  Si  Si5  1  -0.91516905  -0.36538688  -0.89643725  1.0
  P  P6  1  -0.40846922  -0.30407571  -0.13093707  1.0
  P  P7  1  -0.72473611  -0.15210743  -0.52724411  1.0
  P  P8  1  -0.13065594  -0.43067072  -0.62934254  1.0
  P  P9  1  -0.56338175  -0.72622231  -0.83072309  1.0
  Pt  Pt10  1  -0.80340469  -0.75023442  -0.18723846  1.0
  Pt  Pt11  1  -0.24600589  -0.03251125  -0.33465825  1.0
