# generated using pymatgen
data_NaBe(BO2)3
_symmetry_space_group_name_H-M   'P 1'
_cell_length_a   9.18687378
_cell_length_b   12.15447010
_cell_length_c   4.52140606
_cell_angle_alpha   90.00000000
_cell_angle_beta   90.00000000
_cell_angle_gamma   90.00000000
_symmetry_Int_Tables_number   1
_chemical_formula_structural   NaBe(BO2)3
_chemical_formula_sum   'Na4 Be4 B12 O24'
_cell_volume   504.86735728
_cell_formula_units_Z   4
loop_
 _symmetry_equiv_pos_site_id
 _symmetry_equiv_pos_as_xyz
  1  'x, y, z'
loop_
 _atom_site_type_symbol
 _atom_site_label
 _atom_site_symmetry_multiplicity
 _atom_site_fract_x
 _atom_site_fract_y
 _atom_site_fract_z
 _atom_site_occupancy
  Na  Na0  1  0.17813546  0.61494537  0.96500916  1.0
  Na  Na1  1  0.67813546  0.88505463  0.96500916  1.0
  Na  Na2  1  0.82186454  0.38505463  0.46500916  1.0
  Na  Na3  1  0.32186454  0.11494537  0.46500916  1.0
  Be  Be4  1  0.40711862  0.53923458  0.48675051  1.0
  Be  Be5  1  0.90711862  0.96076542  0.48675051  1.0
  Be  Be6  1  0.59288138  0.46076542  -0.01324949  1.0
  Be  Be7  1  0.09288138  0.03923458  -0.01324949  1.0
  B  B8  1  0.42973999  0.74998367  0.55199829  1.0
  B  B9  1  0.92973999  0.75001633  0.55199829  1.0
  B  B10  1  0.57026001  0.25001633  0.05199829  1.0
  B  B11  1  0.07026001  0.24998367  0.05199829  1.0
  B  B12  1  0.41479799  0.33719059  0.67781026  1.0
  B  B13  1  0.91479799  0.16280941  0.67781026  1.0
  B  B14  1  0.58520201  0.66280941  0.17781026  1.0
  B  B15  1  0.08520201  0.83719059  0.17781026  1.0
  B  B16  1  0.27765410  0.89046778  0.82719290  1.0
  B  B17  1  0.77765410  0.60953222  0.82719290  1.0
  B  B18  1  0.72234590  0.10953222  0.32719290  1.0
  B  B19  1  0.22234590  0.39046778  0.32719290  1.0
  O  O20  1  0.46769841  0.24466335  0.82084614  1.0
  O  O21  1  0.96769841  0.25533665  0.82084614  1.0
  O  O22  1  0.53230159  0.75533665  0.32084614  1.0
  O  O23  1  0.03230159  0.74466335  0.32084614  1.0
  O  O24  1  0.39632278  0.85475345  0.66070932  1.0
  O  O25  1  0.89632278  0.64524655  0.66070932  1.0
  O  O26  1  0.60367722  0.14524655  0.16070932  1.0
  O  O27  1  0.10367722  0.35475345  0.16070932  1.0
  O  O28  1  0.37741062  0.65436714  0.65077359  1.0
  O  O29  1  0.87741062  0.84563286  0.65077359  1.0
  O  O30  1  0.62258938  0.34563286  0.15077359  1.0
  O  O31  1  0.12258938  0.15436714  0.15077359  1.0
  O  O32  1  0.24215170  -0.00299485  0.83506707  1.0
  O  O33  1  0.74215170  0.50299485  0.83506707  1.0
  O  O34  1  0.75784830  1.00299485  0.33506707  1.0
  O  O35  1  0.25784830  0.49700515  0.33506707  1.0
  O  O36  1  0.19713091  0.81103019  0.98254999  1.0
  O  O37  1  0.69713091  0.68896981  0.98254999  1.0
  O  O38  1  0.80286909  0.18896981  0.48254999  1.0
  O  O39  1  0.30286909  0.31103019  0.48254999  1.0
  O  O40  1  0.96307031  0.05858144  0.72619276  1.0
  O  O41  1  0.46307031  0.44141856  0.72619276  1.0
  O  O42  1  0.03692969  0.94141856  0.22619276  1.0
  O  O43  1  0.53692969  0.55858144  0.22619276  1.0
