# generated using pymatgen
data_CuBSe2
_symmetry_space_group_name_H-M   'P 1'
_cell_length_a   6.15294750
_cell_length_b   6.15294750
_cell_length_c   6.15294750
_cell_angle_alpha   128.71740883
_cell_angle_beta   128.71740883
_cell_angle_gamma   75.46570176
_symmetry_Int_Tables_number   1
_chemical_formula_structural   CuBSe2
_chemical_formula_sum   'Cu2 B2 Se4'
_cell_volume   137.99442855
_cell_formula_units_Z   2
loop_
 _symmetry_equiv_pos_site_id
 _symmetry_equiv_pos_as_xyz
  1  'x, y, z'
loop_
 _atom_site_type_symbol
 _atom_site_label
 _atom_site_symmetry_multiplicity
 _atom_site_fract_x
 _atom_site_fract_y
 _atom_site_fract_z
 _atom_site_occupancy
  Cu  Cu0  1  1.00000000  1.00000000  1.00000000  1.0
  Cu  Cu1  1  0.75000000  0.25000000  0.50000000  1.0
  B  B2  1  0.50000000  0.50000000  -0.00000000  1.0
  B  B3  1  0.25000000  0.75000000  0.50000000  1.0
  Se  Se4  1  1.37500000  0.82758978  0.95258978  1.0
  Se  Se5  1  0.87500000  1.42241022  1.04741022  1.0
  Se  Se6  1  0.57758978  0.62500000  0.45258978  1.0
  Se  Se7  1  1.17241022  1.12500000  1.54741022  1.0
