# generated using pymatgen
data_CaTcO3
_symmetry_space_group_name_H-M   'P 1'
_cell_length_a   5.62173883
_cell_length_b   7.77368523
_cell_length_c   5.42668546
_cell_angle_alpha   90.00000000
_cell_angle_beta   90.00000000
_cell_angle_gamma   90.00000000
_symmetry_Int_Tables_number   1
_chemical_formula_structural   CaTcO3
_chemical_formula_sum   'Ca4 Tc4 O12'
_cell_volume   237.15498999
_cell_formula_units_Z   4
loop_
 _symmetry_equiv_pos_site_id
 _symmetry_equiv_pos_as_xyz
  1  'x, y, z'
loop_
 _atom_site_type_symbol
 _atom_site_label
 _atom_site_symmetry_multiplicity
 _atom_site_fract_x
 _atom_site_fract_y
 _atom_site_fract_z
 _atom_site_occupancy
  Ca  Ca0  1  0.05580098  0.75000000  0.51366836  1.0
  Ca  Ca1  1  0.55580098  0.75000000  0.98633164  1.0
  Ca  Ca2  1  0.94419902  0.25000000  0.48633164  1.0
  Ca  Ca3  1  0.44419902  0.25000000  0.01366836  1.0
  Tc  Tc4  1  0.50000000  0.00000000  0.50000000  1.0
  Tc  Tc5  1  0.50000000  0.50000000  0.50000000  1.0
  Tc  Tc6  1  0.00000000  0.00000000  0.00000000  1.0
  Tc  Tc7  1  0.00000000  0.50000000  0.00000000  1.0
  O  O8  1  0.29800582  0.95078891  0.80163147  1.0
  O  O9  1  0.29800582  0.54921109  0.80163147  1.0
  O  O10  1  0.79800582  0.95078891  0.69836853  1.0
  O  O11  1  0.79800582  0.54921109  0.69836853  1.0
  O  O12  1  0.70199418  0.45078891  0.19836853  1.0
  O  O13  1  0.70199418  0.04921109  0.19836853  1.0
  O  O14  1  0.20199418  0.45078891  0.30163147  1.0
  O  O15  1  0.20199418  0.04921109  0.30163147  1.0
  O  O16  1  0.96810209  0.75000000  0.09523172  1.0
  O  O17  1  0.46810209  0.75000000  0.40476828  1.0
  O  O18  1  0.03189791  0.25000000  0.90476828  1.0
  O  O19  1  0.53189791  0.25000000  0.59523172  1.0
