# generated using pymatgen
data_Ba(RhPb2)3
_symmetry_space_group_name_H-M   'P 1'
_cell_length_a   14.36721451
_cell_length_b   14.36721451
_cell_length_c   4.59203326
_cell_angle_alpha   90.00000000
_cell_angle_beta   90.00000000
_cell_angle_gamma   146.20155295
_symmetry_Int_Tables_number   1
_chemical_formula_structural   Ba(RhPb2)3
_chemical_formula_sum   'Ba2 Rh6 Pb12'
_cell_volume   527.27627394
_cell_formula_units_Z   2
loop_
 _symmetry_equiv_pos_site_id
 _symmetry_equiv_pos_as_xyz
  1  'x, y, z'
loop_
 _atom_site_type_symbol
 _atom_site_label
 _atom_site_symmetry_multiplicity
 _atom_site_fract_x
 _atom_site_fract_y
 _atom_site_fract_z
 _atom_site_occupancy
  Ba  Ba0  1  -0.40994382  0.40994382  0.75000000  1.0
  Ba  Ba1  1  0.40994382  0.59005618  0.25000000  1.0
  Rh  Rh2  1  0.02932592  0.59433939  0.75000000  1.0
  Rh  Rh3  1  0.59433939  1.02932592  0.25000000  1.0
  Rh  Rh4  1  0.40566061  0.97067408  0.75000000  1.0
  Rh  Rh5  1  -0.02932592  0.40566061  0.25000000  1.0
  Rh  Rh6  1  0.03682482  0.96317518  0.75000000  1.0
  Rh  Rh7  1  -0.03682482  0.03682482  0.25000000  1.0
  Pb  Pb8  1  0.12860287  0.47169087  0.75000000  1.0
  Pb  Pb9  1  0.47169087  1.12860287  0.25000000  1.0
  Pb  Pb10  1  0.52830913  0.87139713  0.75000000  1.0
  Pb  Pb11  1  -0.12860287  0.52830913  0.25000000  1.0
  Pb  Pb12  1  0.15638739  0.24843958  0.75000000  1.0
  Pb  Pb13  1  0.24843958  1.15638739  0.25000000  1.0
  Pb  Pb14  1  0.75156042  0.84361261  0.75000000  1.0
  Pb  Pb15  1  -0.15638739  0.75156042  0.25000000  1.0
  Pb  Pb16  1  0.13454870  0.86545130  0.75000000  1.0
  Pb  Pb17  1  -0.13454870  0.13454870  0.25000000  1.0
  Pb  Pb18  1  -0.25101845  0.25101845  0.75000000  1.0
  Pb  Pb19  1  0.25101845  0.74898155  0.25000000  1.0
