# generated using pymatgen
data_Mn3Sn
_symmetry_space_group_name_H-M   'P 1'
_cell_length_a   5.59363104
_cell_length_b   5.59363104
_cell_length_c   4.49419395
_cell_angle_alpha   90.00000000
_cell_angle_beta   90.00000000
_cell_angle_gamma   120.00000000
_symmetry_Int_Tables_number   1
_chemical_formula_structural   Mn3Sn
_chemical_formula_sum   'Mn6 Sn2'
_cell_volume   121.77834754
_cell_formula_units_Z   2
loop_
 _symmetry_equiv_pos_site_id
 _symmetry_equiv_pos_as_xyz
  1  'x, y, z'
loop_
 _atom_site_type_symbol
 _atom_site_label
 _atom_site_symmetry_multiplicity
 _atom_site_fract_x
 _atom_site_fract_y
 _atom_site_fract_z
 _atom_site_occupancy
  Mn  Mn0  1  0.16170995  0.83829005  0.25000000  1.0
  Mn  Mn1  1  0.16170995  0.32341989  0.25000000  1.0
  Mn  Mn2  1  0.83829005  0.16170995  0.75000000  1.0
  Mn  Mn3  1  0.83829005  0.67658011  0.75000000  1.0
  Mn  Mn4  1  0.67658011  0.83829005  0.25000000  1.0
  Mn  Mn5  1  0.32341989  0.16170995  0.75000000  1.0
  Sn  Sn6  1  0.33333333  0.66666667  0.75000000  1.0
  Sn  Sn7  1  0.66666667  0.33333333  0.25000000  1.0
