# generated using pymatgen
data_In3Te4
_symmetry_space_group_name_H-M   'P 1'
_cell_length_a   14.15451135
_cell_length_b   14.15451135
_cell_length_c   14.15451135
_cell_angle_alpha   17.63298362
_cell_angle_beta   17.63298362
_cell_angle_gamma   17.63298362
_symmetry_Int_Tables_number   1
_chemical_formula_structural   In3Te4
_chemical_formula_sum   'In3 Te4'
_cell_volume   227.13329006
_cell_formula_units_Z   1
loop_
 _symmetry_equiv_pos_site_id
 _symmetry_equiv_pos_as_xyz
  1  'x, y, z'
loop_
 _atom_site_type_symbol
 _atom_site_label
 _atom_site_symmetry_multiplicity
 _atom_site_fract_x
 _atom_site_fract_y
 _atom_site_fract_z
 _atom_site_occupancy
  In  In0  1  1.57485546  0.57485546  0.57485546  1.0
  In  In1  1  1.42514454  0.42514454  0.42514454  1.0
  In  In2  1  0.00000000  0.00000000  -0.00000000  1.0
  Te  Te3  1  0.87293823  0.87293823  0.87293823  1.0
  Te  Te4  1  1.12706177  1.12706177  0.12706177  1.0
  Te  Te5  1  0.70897668  0.70897668  0.70897668  1.0
  Te  Te6  1  1.29102332  1.29102332  0.29102332  1.0
