# generated using pymatgen
data_Bi2O3
_symmetry_space_group_name_H-M   'P 1'
_cell_length_a   11.95331173
_cell_length_b   5.79262730
_cell_length_c   5.68596411
_cell_angle_alpha   90.00000000
_cell_angle_beta   90.00000000
_cell_angle_gamma   90.00000000
_symmetry_Int_Tables_number   1
_chemical_formula_structural   Bi2O3
_chemical_formula_sum   'Bi8 O12'
_cell_volume   393.70229489
_cell_formula_units_Z   4
loop_
 _symmetry_equiv_pos_site_id
 _symmetry_equiv_pos_as_xyz
  1  'x, y, z'
loop_
 _atom_site_type_symbol
 _atom_site_label
 _atom_site_symmetry_multiplicity
 _atom_site_fract_x
 _atom_site_fract_y
 _atom_site_fract_z
 _atom_site_occupancy
  Bi  Bi0  1  0.62771571  0.18506288  0.05360490  1.0
  Bi  Bi1  1  0.87228429  0.31493712  0.55360490  1.0
  Bi  Bi2  1  0.12771571  0.31493712  0.94639510  1.0
  Bi  Bi3  1  0.37228429  0.18506288  0.44639510  1.0
  Bi  Bi4  1  0.37228429  0.81493712  0.94639510  1.0
  Bi  Bi5  1  0.12771571  0.68506288  0.44639510  1.0
  Bi  Bi6  1  0.87228429  0.68506288  0.05360490  1.0
  Bi  Bi7  1  0.62771571  0.81493712  0.55360490  1.0
  O  O8  1  0.50000000  0.05063927  0.75000000  1.0
  O  O9  1  0.00000000  0.44936073  0.25000000  1.0
  O  O10  1  0.50000000  0.94936073  0.25000000  1.0
  O  O11  1  0.00000000  0.55063927  0.75000000  1.0
  O  O12  1  0.21170142  0.40423708  0.60491646  1.0
  O  O13  1  0.28829858  0.09576292  0.10491646  1.0
  O  O14  1  0.71170142  0.09576292  0.39508354  1.0
  O  O15  1  0.78829858  0.40423708  0.89508354  1.0
  O  O16  1  0.78829858  0.59576292  0.39508354  1.0
  O  O17  1  0.71170142  0.90423708  0.89508354  1.0
  O  O18  1  0.28829858  0.90423708  0.60491646  1.0
  O  O19  1  0.21170142  0.59576292  0.10491646  1.0
