# generated using pymatgen
data_LaTeCl
_symmetry_space_group_name_H-M   'P 1'
_cell_length_a   4.56019229
_cell_length_b   4.56019229
_cell_length_c   8.34114215
_cell_angle_alpha   90.00000000
_cell_angle_beta   90.00000000
_cell_angle_gamma   90.00000000
_symmetry_Int_Tables_number   1
_chemical_formula_structural   LaTeCl
_chemical_formula_sum   'La2 Te2 Cl2'
_cell_volume   173.45700171
_cell_formula_units_Z   2
loop_
 _symmetry_equiv_pos_site_id
 _symmetry_equiv_pos_as_xyz
  1  'x, y, z'
loop_
 _atom_site_type_symbol
 _atom_site_label
 _atom_site_symmetry_multiplicity
 _atom_site_fract_x
 _atom_site_fract_y
 _atom_site_fract_z
 _atom_site_occupancy
  La  La0  1  0.50000000  0.00000000  0.24075929  1.0
  La  La1  1  0.00000000  0.50000000  0.75924071  1.0
  Te  Te2  1  0.50000000  0.00000000  0.63674274  1.0
  Te  Te3  1  0.00000000  0.50000000  0.36325726  1.0
  Cl  Cl4  1  0.00000000  0.00000000  0.00000000  1.0
  Cl  Cl5  1  0.50000000  0.50000000  0.00000000  1.0
