# generated using pymatgen
data_Lu5(Ge5Rh2)2
_symmetry_space_group_name_H-M   'P 1'
_cell_length_a   12.96562361
_cell_length_b   12.96562361
_cell_length_c   4.23975580
_cell_angle_alpha   90.00000000
_cell_angle_beta   90.00000000
_cell_angle_gamma   90.00000000
_symmetry_Int_Tables_number   1
_chemical_formula_structural   Lu5(Ge5Rh2)2
_chemical_formula_sum   'Lu10 Ge20 Rh8'
_cell_volume   712.73430519
_cell_formula_units_Z   2
loop_
 _symmetry_equiv_pos_site_id
 _symmetry_equiv_pos_as_xyz
  1  'x, y, z'
loop_
 _atom_site_type_symbol
 _atom_site_label
 _atom_site_symmetry_multiplicity
 _atom_site_fract_x
 _atom_site_fract_y
 _atom_site_fract_z
 _atom_site_occupancy
  Lu  Lu0  1  0.32613487  0.17386513  0.50000000  1.0
  Lu  Lu1  1  0.82613487  0.32613487  0.50000000  1.0
  Lu  Lu2  1  0.67386513  0.82613487  0.50000000  1.0
  Lu  Lu3  1  0.17386513  0.67386513  0.50000000  1.0
  Lu  Lu4  1  0.88659917  0.61340083  0.50000000  1.0
  Lu  Lu5  1  0.38659917  0.88659917  0.50000000  1.0
  Lu  Lu6  1  0.11340083  0.38659917  0.50000000  1.0
  Lu  Lu7  1  0.61340083  0.11340083  0.50000000  1.0
  Lu  Lu8  1  0.50000000  0.50000000  0.00000000  1.0
  Lu  Lu9  1  0.00000000  0.00000000  0.00000000  1.0
  Ge  Ge10  1  0.34398792  0.50535939  0.50000000  1.0
  Ge  Ge11  1  0.84398792  0.99464061  0.50000000  1.0
  Ge  Ge12  1  0.49464061  0.34398792  0.50000000  1.0
  Ge  Ge13  1  0.99464061  0.15601208  0.50000000  1.0
  Ge  Ge14  1  0.65601208  0.49464061  0.50000000  1.0
  Ge  Ge15  1  0.15601208  0.00535939  0.50000000  1.0
  Ge  Ge16  1  0.50535939  0.65601208  0.50000000  1.0
  Ge  Ge17  1  0.00535939  0.84398792  0.50000000  1.0
  Ge  Ge18  1  0.33708420  0.69975714  0.00000000  1.0
  Ge  Ge19  1  0.83708420  0.80024286  0.00000000  1.0
  Ge  Ge20  1  0.30024286  0.33708420  0.00000000  1.0
  Ge  Ge21  1  0.80024286  0.16291580  0.00000000  1.0
  Ge  Ge22  1  0.66291580  0.30024286  0.00000000  1.0
  Ge  Ge23  1  0.16291580  0.19975714  0.00000000  1.0
  Ge  Ge24  1  0.69975714  0.66291580  0.00000000  1.0
  Ge  Ge25  1  0.19975714  0.83708420  0.00000000  1.0
  Ge  Ge26  1  0.43313865  0.06686135  0.00000000  1.0
  Ge  Ge27  1  0.93313865  0.43313865  0.00000000  1.0
  Ge  Ge28  1  0.56686135  0.93313865  0.00000000  1.0
  Ge  Ge29  1  0.06686135  0.56686135  0.00000000  1.0
  Rh  Rh30  1  0.25370131  0.52019715  0.00000000  1.0
  Rh  Rh31  1  0.75370131  0.97980285  0.00000000  1.0
  Rh  Rh32  1  0.47980285  0.25370131  0.00000000  1.0
  Rh  Rh33  1  0.97980285  0.24629869  0.00000000  1.0
  Rh  Rh34  1  0.74629869  0.47980285  0.00000000  1.0
  Rh  Rh35  1  0.24629869  0.02019715  0.00000000  1.0
  Rh  Rh36  1  0.52019715  0.74629869  0.00000000  1.0
  Rh  Rh37  1  0.02019715  0.75370131  0.00000000  1.0
