# generated using pymatgen
data_Cr3PC
_symmetry_space_group_name_H-M   'P 1'
_cell_length_a   5.17129465
_cell_length_b   5.17129465
_cell_length_c   7.31414431
_cell_angle_alpha   90.00000000
_cell_angle_beta   90.00000000
_cell_angle_gamma   147.53798364
_symmetry_Int_Tables_number   1
_chemical_formula_structural   Cr3PC
_chemical_formula_sum   'Cr6 P2 C2'
_cell_volume   104.98478330
_cell_formula_units_Z   2
loop_
 _symmetry_equiv_pos_site_id
 _symmetry_equiv_pos_as_xyz
  1  'x, y, z'
loop_
 _atom_site_type_symbol
 _atom_site_label
 _atom_site_symmetry_multiplicity
 _atom_site_fract_x
 _atom_site_fract_y
 _atom_site_fract_z
 _atom_site_occupancy
  Cr  Cr0  1  0.37106725  0.62893275  0.94412745  1.0
  Cr  Cr1  1  0.37106725  0.62893275  0.55587255  1.0
  Cr  Cr2  1  -0.37106725  0.37106725  0.44412745  1.0
  Cr  Cr3  1  -0.37106725  0.37106725  0.05587255  1.0
  Cr  Cr4  1  0.05188204  0.94811796  0.75000000  1.0
  Cr  Cr5  1  -0.05188204  0.05188204  0.25000000  1.0
  P  P6  1  -0.26229910  0.26229910  0.75000000  1.0
  P  P7  1  0.26229910  0.73770090  0.25000000  1.0
  C  C8  1  0.00000000  0.00000000  0.00000000  1.0
  C  C9  1  0.00000000  0.00000000  0.50000000  1.0
