# generated using pymatgen
data_BaCoO2
_symmetry_space_group_name_H-M   'P 1'
_cell_length_a   5.81060483
_cell_length_b   5.81060483
_cell_length_c   6.82996352
_cell_angle_alpha   90.00000000
_cell_angle_beta   90.00000000
_cell_angle_gamma   120.00000000
_symmetry_Int_Tables_number   1
_chemical_formula_structural   BaCoO2
_chemical_formula_sum   'Ba3 Co3 O6'
_cell_volume   199.70626840
_cell_formula_units_Z   3
loop_
 _symmetry_equiv_pos_site_id
 _symmetry_equiv_pos_as_xyz
  1  'x, y, z'
loop_
 _atom_site_type_symbol
 _atom_site_label
 _atom_site_symmetry_multiplicity
 _atom_site_fract_x
 _atom_site_fract_y
 _atom_site_fract_z
 _atom_site_occupancy
  Ba  Ba0  1  0.65222202  0.65222202  0.50000000  1.0
  Ba  Ba1  1  -0.00000000  0.34777798  0.16666667  1.0
  Ba  Ba2  1  0.34777798  -0.00000000  0.83333333  1.0
  Co  Co3  1  0.60284137  0.60284137  -0.00000000  1.0
  Co  Co4  1  -0.00000000  0.39715863  0.66666667  1.0
  Co  Co5  1  0.39715863  0.00000000  0.33333333  1.0
  O  O6  1  0.86263141  0.56495546  0.86323854  1.0
  O  O7  1  0.56495546  0.86263141  0.13676146  1.0
  O  O8  1  0.70232405  0.13736859  0.52990521  1.0
  O  O9  1  0.43504454  0.29767595  0.19657187  1.0
  O  O10  1  0.13736859  0.70232405  0.47009479  1.0
  O  O11  1  0.29767595  0.43504454  0.80342813  1.0
