# generated using pymatgen
data_Hf2InAu2
_symmetry_space_group_name_H-M   'P 1'
_cell_length_a   7.60481550
_cell_length_b   7.60481550
_cell_length_c   7.00308131
_cell_angle_alpha   90.00000000
_cell_angle_beta   90.00000000
_cell_angle_gamma   90.00000000
_symmetry_Int_Tables_number   1
_chemical_formula_structural   Hf2InAu2
_chemical_formula_sum   'Hf8 In4 Au8'
_cell_volume   405.01073357
_cell_formula_units_Z   4
loop_
 _symmetry_equiv_pos_site_id
 _symmetry_equiv_pos_as_xyz
  1  'x, y, z'
loop_
 _atom_site_type_symbol
 _atom_site_label
 _atom_site_symmetry_multiplicity
 _atom_site_fract_x
 _atom_site_fract_y
 _atom_site_fract_z
 _atom_site_occupancy
  Hf  Hf0  1  0.19622150  0.19622150  0.50000000  1.0
  Hf  Hf1  1  0.69622150  0.30377850  0.00000000  1.0
  Hf  Hf2  1  0.80377850  0.80377850  0.50000000  1.0
  Hf  Hf3  1  0.30377850  0.69622150  0.00000000  1.0
  Hf  Hf4  1  0.35284058  0.64715942  0.50000000  1.0
  Hf  Hf5  1  0.85284058  0.85284058  0.00000000  1.0
  Hf  Hf6  1  0.64715942  0.35284058  0.50000000  1.0
  Hf  Hf7  1  0.14715942  0.14715942  0.00000000  1.0
  In  In8  1  0.50000000  0.00000000  0.25000000  1.0
  In  In9  1  0.50000000  0.00000000  0.75000000  1.0
  In  In10  1  0.00000000  0.50000000  0.75000000  1.0
  In  In11  1  0.00000000  0.50000000  0.25000000  1.0
  Au  Au12  1  0.12926313  0.87073687  0.29392707  1.0
  Au  Au13  1  0.12926313  0.87073687  0.70607293  1.0
  Au  Au14  1  0.62926313  0.62926313  0.79392707  1.0
  Au  Au15  1  0.62926313  0.62926313  0.20607293  1.0
  Au  Au16  1  0.87073687  0.12926313  0.29392707  1.0
  Au  Au17  1  0.87073687  0.12926313  0.70607293  1.0
  Au  Au18  1  0.37073687  0.37073687  0.79392707  1.0
  Au  Au19  1  0.37073687  0.37073687  0.20607293  1.0
