# generated using pymatgen
data_AgSn2(PO4)3
_symmetry_space_group_name_H-M   'P 1'
_cell_length_a   9.15763184
_cell_length_b   9.15763184
_cell_length_c   9.15763184
_cell_angle_alpha   57.12278873
_cell_angle_beta   57.12278873
_cell_angle_gamma   57.12278873
_symmetry_Int_Tables_number   1
_chemical_formula_structural   AgSn2(PO4)3
_chemical_formula_sum   'Ag2 Sn4 P6 O24'
_cell_volume   507.03887947
_cell_formula_units_Z   2
loop_
 _symmetry_equiv_pos_site_id
 _symmetry_equiv_pos_as_xyz
  1  'x, y, z'
loop_
 _atom_site_type_symbol
 _atom_site_label
 _atom_site_symmetry_multiplicity
 _atom_site_fract_x
 _atom_site_fract_y
 _atom_site_fract_z
 _atom_site_occupancy
  Ag  Ag0  1  1.00000000  -0.00000000  0.00000000  1.0
  Ag  Ag1  1  0.50000000  0.50000000  0.50000000  1.0
  Sn  Sn2  1  0.85266065  -0.14733935  -0.14733935  1.0
  Sn  Sn3  1  0.35266065  0.35266065  0.35266065  1.0
  Sn  Sn4  1  0.64733935  0.64733935  -0.35266065  1.0
  Sn  Sn5  1  1.14733935  0.14733935  0.14733935  1.0
  P  P6  1  0.45851129  0.75000000  0.04148871  1.0
  P  P7  1  0.95851129  -0.45851129  0.25000000  1.0
  P  P8  1  0.25000000  0.95851129  -0.45851129  1.0
  P  P9  1  0.75000000  1.04148871  -0.54148871  1.0
  P  P10  1  0.54148871  0.25000000  -0.04148871  1.0
  P  P11  1  1.04148871  0.45851129  -0.25000000  1.0
  O  O12  1  0.77708160  1.01635687  -0.37584460  1.0
  O  O13  1  1.27708160  0.12415540  -0.48364313  1.0
  O  O14  1  0.87584460  0.48364313  -0.27708160  1.0
  O  O15  1  0.37584460  0.22291840  -0.01635687  1.0
  O  O16  1  0.98364313  0.37584460  -0.77708160  1.0
  O  O17  1  0.48364313  0.72291840  -0.12415540  1.0
  O  O18  1  0.22291840  0.98364313  -0.62415540  1.0
  O  O19  1  0.72291840  0.87584460  -0.51635687  1.0
  O  O20  1  0.62415540  0.77708160  0.01635687  1.0
  O  O21  1  1.12415540  -0.48364313  0.27708160  1.0
  O  O22  1  0.51635687  0.27708160  0.12415540  1.0
  O  O23  1  1.01635687  0.62415540  -0.22291840  1.0
  O  O24  1  0.72185168  0.07788875  -0.06526710  1.0
  O  O25  1  1.22185168  0.43473290  -0.42211125  1.0
  O  O26  1  0.56526710  0.42211125  -0.22185168  1.0
  O  O27  1  1.06526710  0.27814832  -0.07788875  1.0
  O  O28  1  0.92211125  0.06526710  0.27814832  1.0
  O  O29  1  0.42211125  0.77814832  -0.43473290  1.0
  O  O30  1  1.27814832  -0.07788875  0.06526710  1.0
  O  O31  1  0.77814832  0.56526710  -0.57788875  1.0
  O  O32  1  0.93473290  -0.27814832  0.07788875  1.0
  O  O33  1  0.43473290  0.57788875  0.22185168  1.0
  O  O34  1  0.57788875  1.22185168  -0.56526710  1.0
  O  O35  1  1.07788875  -0.06526710  -0.27814832  1.0
