# generated using pymatgen
data_La3NbSe2(O2F)2
_symmetry_space_group_name_H-M   'P 1'
_cell_length_a   11.41072122
_cell_length_b   4.02045468
_cell_length_c   18.32599829
_cell_angle_alpha   90.00000000
_cell_angle_beta   90.00000000
_cell_angle_gamma   90.00000000
_symmetry_Int_Tables_number   1
_chemical_formula_structural   La3NbSe2(O2F)2
_chemical_formula_sum   'La12 Nb4 Se8 O16 F8'
_cell_volume   840.72876749
_cell_formula_units_Z   4
loop_
 _symmetry_equiv_pos_site_id
 _symmetry_equiv_pos_as_xyz
  1  'x, y, z'
loop_
 _atom_site_type_symbol
 _atom_site_label
 _atom_site_symmetry_multiplicity
 _atom_site_fract_x
 _atom_site_fract_y
 _atom_site_fract_z
 _atom_site_occupancy
  La  La0  1  0.99441403  0.75000000  0.39337634  1.0
  La  La1  1  0.49441403  0.75000000  0.10662366  1.0
  La  La2  1  0.00558597  0.25000000  0.60662366  1.0
  La  La3  1  0.50558597  0.25000000  0.89337634  1.0
  La  La4  1  0.93517520  0.75000000  0.80189363  1.0
  La  La5  1  0.43517520  0.75000000  0.69810637  1.0
  La  La6  1  0.06482480  0.25000000  0.19810637  1.0
  La  La7  1  0.56482480  0.25000000  0.30189363  1.0
  La  La8  1  0.70604241  0.75000000  0.53245941  1.0
  La  La9  1  0.20604241  0.75000000  0.96754059  1.0
  La  La10  1  0.29395759  0.25000000  0.46754059  1.0
  La  La11  1  0.79395759  0.25000000  0.03245941  1.0
  Nb  Nb12  1  0.80617824  0.75000000  0.19489367  1.0
  Nb  Nb13  1  0.30617824  0.75000000  0.30510633  1.0
  Nb  Nb14  1  0.19382176  0.25000000  0.80510633  1.0
  Nb  Nb15  1  0.69382176  0.25000000  0.69489367  1.0
  Se  Se16  1  0.99308003  0.75000000  0.07941377  1.0
  Se  Se17  1  0.49308003  0.75000000  0.42058623  1.0
  Se  Se18  1  0.00691997  0.25000000  0.92058623  1.0
  Se  Se19  1  0.50691997  0.25000000  0.57941377  1.0
  Se  Se20  1  0.71669757  0.75000000  0.90935206  1.0
  Se  Se21  1  0.21669757  0.75000000  0.59064794  1.0
  Se  Se22  1  0.28330243  0.25000000  0.09064794  1.0
  Se  Se23  1  0.78330243  0.25000000  0.40935206  1.0
  O  O24  1  0.94592781  0.75000000  0.25306529  1.0
  O  O25  1  0.44592781  0.75000000  0.24693471  1.0
  O  O26  1  0.05407219  0.25000000  0.74693471  1.0
  O  O27  1  0.55407219  0.25000000  0.75306529  1.0
  O  O28  1  0.71721672  0.75000000  0.09993627  1.0
  O  O29  1  0.21721672  0.75000000  0.40006373  1.0
  O  O30  1  0.28278328  0.25000000  0.90006373  1.0
  O  O31  1  0.78278328  0.25000000  0.59993627  1.0
  O  O32  1  0.68591380  0.75000000  0.26071095  1.0
  O  O33  1  0.18591380  0.75000000  0.23928905  1.0
  O  O34  1  0.31408620  0.25000000  0.73928905  1.0
  O  O35  1  0.81408620  0.25000000  0.76071095  1.0
  O  O36  1  0.67208301  0.75000000  0.67905709  1.0
  O  O37  1  0.17208301  0.75000000  0.82094291  1.0
  O  O38  1  0.32791699  0.25000000  0.32094291  1.0
  O  O39  1  0.82791699  0.25000000  0.17905709  1.0
  F  F40  1  0.94211138  0.75000000  0.66903557  1.0
  F  F41  1  0.44211138  0.75000000  0.83096443  1.0
  F  F42  1  0.05788862  0.25000000  0.33096443  1.0
  F  F43  1  0.55788862  0.25000000  0.16903557  1.0
  F  F44  1  0.93106621  0.75000000  0.52667101  1.0
  F  F45  1  0.43106621  0.75000000  0.97332899  1.0
  F  F46  1  0.06893379  0.25000000  0.47332899  1.0
  F  F47  1  0.56893379  0.25000000  0.02667101  1.0
