# generated using pymatgen
data_Fe3(PO6)2
_symmetry_space_group_name_H-M   'P 1'
_cell_length_a   8.12264282
_cell_length_b   4.63122630
_cell_length_c   10.92442251
_cell_angle_alpha   90.00000000
_cell_angle_beta   105.83613217
_cell_angle_gamma   90.00000000
_symmetry_Int_Tables_number   1
_chemical_formula_structural   Fe3(PO6)2
_chemical_formula_sum   'Fe6 P4 O24'
_cell_volume   395.35544895
_cell_formula_units_Z   2
loop_
 _symmetry_equiv_pos_site_id
 _symmetry_equiv_pos_as_xyz
  1  'x, y, z'
loop_
 _atom_site_type_symbol
 _atom_site_label
 _atom_site_symmetry_multiplicity
 _atom_site_fract_x
 _atom_site_fract_y
 _atom_site_fract_z
 _atom_site_occupancy
  Fe  Fe0  1  0.00000000  0.00000000  0.00000000  1.0
  Fe  Fe1  1  0.00000000  0.50000000  0.50000000  1.0
  Fe  Fe2  1  0.35828042  0.85092609  0.19825352  1.0
  Fe  Fe3  1  0.35828042  0.64907391  0.69825352  1.0
  Fe  Fe4  1  0.64171958  0.35092609  0.30174648  1.0
  Fe  Fe5  1  0.64171958  0.14907391  0.80174648  1.0
  O  O6  1  0.07773926  0.75440191  0.39182974  1.0
  O  O7  1  0.07773926  0.74559809  0.89182974  1.0
  O  O8  1  0.92226074  0.25440191  0.10817026  1.0
  O  O9  1  0.92226074  0.24559809  0.60817026  1.0
  O  O10  1  0.30225931  0.06264732  0.33219226  1.0
  O  O11  1  0.30225931  0.43735268  0.83219226  1.0
  O  O12  1  0.69774069  0.56264732  0.16780774  1.0
  O  O13  1  0.69774069  0.93735268  0.66780774  1.0
  O  O14  1  0.46894086  0.58519814  0.29795346  1.0
  O  O15  1  0.46894086  0.91480186  0.79795346  1.0
  O  O16  1  0.53105914  0.08519814  0.20204654  1.0
  O  O17  1  0.53105914  0.41480186  0.70204654  1.0
  O  O18  1  0.13499016  0.81643697  0.13735605  1.0
  O  O19  1  0.13499016  0.68356303  0.63735605  1.0
  O  O20  1  0.86500984  0.31643697  0.36264395  1.0
  O  O21  1  0.86500984  0.18356303  0.86264395  1.0
  O  O22  1  0.18632220  0.25700361  0.00852722  1.0
  O  O23  1  0.18632220  0.24299639  0.50852722  1.0
  O  O24  1  0.81367780  0.75700361  0.49147278  1.0
  O  O25  1  0.81367780  0.74299639  0.99147278  1.0
  O  O26  1  0.37733690  0.69519100  0.04418985  1.0
  O  O27  1  0.37733690  0.80480900  0.54418985  1.0
  O  O28  1  0.62266310  0.19519100  0.45581015  1.0
  O  O29  1  0.62266310  0.30480900  0.95581015  1.0
  P  P30  1  0.23084611  -0.03376895  0.44321779  1.0
  P  P31  1  0.23084611  0.53376895  0.94321779  1.0
  P  P32  1  0.76915389  0.46623105  0.05678221  1.0
  P  P33  1  0.76915389  1.03376895  0.55678221  1.0
