# generated using pymatgen
data_LuCu2
_symmetry_space_group_name_H-M   'P 1'
_cell_length_a   5.36277022
_cell_length_b   5.36277022
_cell_length_c   5.36277022
_cell_angle_alpha   133.30906841
_cell_angle_beta   103.40351258
_cell_angle_gamma   94.71842088
_symmetry_Int_Tables_number   1
_chemical_formula_structural   LuCu2
_chemical_formula_sum   'Lu2 Cu4'
_cell_volume   102.63333834
_cell_formula_units_Z   2
loop_
 _symmetry_equiv_pos_site_id
 _symmetry_equiv_pos_as_xyz
  1  'x, y, z'
loop_
 _atom_site_type_symbol
 _atom_site_label
 _atom_site_symmetry_multiplicity
 _atom_site_fract_x
 _atom_site_fract_y
 _atom_site_fract_z
 _atom_site_occupancy
  Lu  Lu0  1  1.70268240  1.45268240  1.25000000  1.0
  Lu  Lu1  1  0.29731760  0.54731760  0.75000000  1.0
  Cu  Cu2  1  1.28428535  0.83567495  1.44861039  1.0
  Cu  Cu3  1  1.11293544  0.16432505  0.94861039  1.0
  Cu  Cu4  1  0.71571465  1.16432505  0.55138961  1.0
  Cu  Cu5  1  0.88706456  0.83567495  0.05138961  1.0
