# generated using pymatgen
data_Bi2Te2SO10
_symmetry_space_group_name_H-M   'P 1'
_cell_length_a   8.85273262
_cell_length_b   8.85273262
_cell_length_c   8.15295551
_cell_angle_alpha   71.02014470
_cell_angle_beta   108.97985530
_cell_angle_gamma   127.44602266
_symmetry_Int_Tables_number   1
_chemical_formula_structural   Bi2Te2SO10
_chemical_formula_sum   'Bi4 Te4 S2 O20'
_cell_volume   472.73635377
_cell_formula_units_Z   2
loop_
 _symmetry_equiv_pos_site_id
 _symmetry_equiv_pos_as_xyz
  1  'x, y, z'
loop_
 _atom_site_type_symbol
 _atom_site_label
 _atom_site_symmetry_multiplicity
 _atom_site_fract_x
 _atom_site_fract_y
 _atom_site_fract_z
 _atom_site_occupancy
  Bi  Bi0  1  1.16579522  -0.47615615  0.35899566  1.0
  Bi  Bi1  1  1.52384385  0.16579522  0.14100434  1.0
  Bi  Bi2  1  0.83420478  -0.52384385  0.64100434  1.0
  Bi  Bi3  1  1.47615615  -0.16579522  0.85899566  1.0
  Te  Te4  1  1.04228379  -0.18662940  0.97714836  1.0
  Te  Te5  1  1.81337060  0.04228379  0.52285164  1.0
  Te  Te6  1  0.95771621  -0.81337060  0.02285164  1.0
  Te  Te7  1  1.18662940  -0.04228379  0.47714836  1.0
  S  S8  1  0.61190473  0.61190473  0.25000000  1.0
  S  S9  1  0.38809527  0.38809527  0.75000000  1.0
  O  O10  1  0.96431358  -0.43392547  0.12816477  1.0
  O  O11  1  1.56607453  -0.03568642  0.37183523  1.0
  O  O12  1  1.03568642  -0.56607453  0.87183523  1.0
  O  O13  1  1.43392547  0.03568642  0.62816477  1.0
  O  O14  1  1.01101287  -0.75436550  0.25784170  1.0
  O  O15  1  1.24563450  0.01101287  0.24215830  1.0
  O  O16  1  0.98898713  -0.24563450  0.74215830  1.0
  O  O17  1  1.75436550  -0.01101287  0.75784170  1.0
  O  O18  1  1.09103357  -0.31702196  0.50666043  1.0
  O  O19  1  1.68297804  0.09103357  0.99333957  1.0
  O  O20  1  0.90896643  -0.68297804  0.49333957  1.0
  O  O21  1  1.31702196  -0.09103357  0.00666043  1.0
  O  O22  1  0.73450552  -0.28972960  0.40821803  1.0
  O  O23  1  1.71027040  -0.26549448  0.09178197  1.0
  O  O24  1  1.26549448  -0.71027040  0.59178197  1.0
  O  O25  1  1.28972960  0.26549448  0.90821803  1.0
  O  O26  1  1.42084595  -0.41263766  0.20332551  1.0
  O  O27  1  1.58736234  0.42084595  0.29667449  1.0
  O  O28  1  0.57915405  -0.58736234  0.79667449  1.0
  O  O29  1  1.41263766  -0.42084595  0.70332551  1.0
