# generated using pymatgen
data_Lu2MgRu
_symmetry_space_group_name_H-M   'P 1'
_cell_length_a   3.37207840
_cell_length_b   3.37207840
_cell_length_c   8.00689621
_cell_angle_alpha   90.00000000
_cell_angle_beta   90.00000000
_cell_angle_gamma   90.00000000
_symmetry_Int_Tables_number   1
_chemical_formula_structural   Lu2MgRu
_chemical_formula_sum   'Lu2 Mg1 Ru1'
_cell_volume   91.04571783
_cell_formula_units_Z   1
loop_
 _symmetry_equiv_pos_site_id
 _symmetry_equiv_pos_as_xyz
  1  'x, y, z'
loop_
 _atom_site_type_symbol
 _atom_site_label
 _atom_site_symmetry_multiplicity
 _atom_site_fract_x
 _atom_site_fract_y
 _atom_site_fract_z
 _atom_site_occupancy
  Lu  Lu0  1  0.50000000  0.50000000  0.79953040  1.0
  Lu  Lu1  1  0.50000000  0.50000000  0.20046960  1.0
  Mg  Mg2  1  0.00000000  0.00000000  0.50000000  1.0
  Ru  Ru3  1  0.00000000  0.00000000  0.00000000  1.0
