# generated using pymatgen
data_SiH14C4S2(N4F3)2
_symmetry_space_group_name_H-M   'P 1'
_cell_length_a   7.98049649
_cell_length_b   7.89261545
_cell_length_c   7.32743708
_cell_angle_alpha   61.08157066
_cell_angle_beta   85.78517272
_cell_angle_gamma   85.58640572
_symmetry_Int_Tables_number   1
_chemical_formula_structural   SiH14C4S2(N4F3)2
_chemical_formula_sum   'Si1 H14 C4 S2 N8 F6'
_cell_volume   402.43791746
_cell_formula_units_Z   1
loop_
 _symmetry_equiv_pos_site_id
 _symmetry_equiv_pos_as_xyz
  1  'x, y, z'
loop_
 _atom_site_type_symbol
 _atom_site_label
 _atom_site_symmetry_multiplicity
 _atom_site_fract_x
 _atom_site_fract_y
 _atom_site_fract_z
 _atom_site_occupancy
  Si  Si0  1  0.00000000  -0.50000000  -0.50000000  1.0
  H  H1  1  -0.02235681  -0.74927265  -1.02798747  1.0
  H  H2  1  -0.97764319  -0.25072735  0.02798747  1.0
  H  H3  1  -0.05461102  -0.96441732  -0.79494755  1.0
  H  H4  1  -0.94538898  -0.03558268  -0.20505245  1.0
  H  H5  1  -0.65045309  -0.41904700  -0.78755808  1.0
  H  H6  1  -0.34954691  -0.58095300  -0.21244192  1.0
  H  H7  1  -0.44463053  -0.49249719  -0.69910745  1.0
  H  H8  1  -0.55536947  -0.50750281  -0.30089255  1.0
  H  H9  1  -0.83508356  -0.13798068  -0.58536698  1.0
  H  H10  1  -0.16491644  -0.86201932  -0.41463302  1.0
  H  H11  1  -0.37043400  -0.96122111  -0.34449733  1.0
  H  H12  1  -0.62956600  -0.03877889  -0.65550267  1.0
  H  H13  1  -0.76810639  -0.64575034  -0.13122204  1.0
  H  H14  1  -0.23189361  -0.35424966  -0.86877796  1.0
  C  C15  1  -0.46373817  -0.26121943  -0.99475211  1.0
  C  C16  1  -0.53626183  -0.73878057  -0.00524789  1.0
  C  C17  1  -0.81385825  -0.88182023  -0.85042272  1.0
  C  C18  1  -0.18614175  -0.11817977  -0.14957728  1.0
  S  S19  1  -0.40837998  -0.88800799  -0.81260663  1.0
  S  S20  1  -0.59162002  -0.11199201  -0.18739337  1.0
  N  N21  1  -0.71020165  -0.74443825  -0.99579487  1.0
  N  N22  1  -0.28979835  -0.25556175  -0.00420513  1.0
  N  N23  1  -0.97596677  -0.85897437  -0.89186409  1.0
  N  N24  1  -0.02403323  -0.14102563  -0.10813591  1.0
  N  N25  1  -0.52359529  -0.40253187  -0.81321901  1.0
  N  N26  1  -0.47640471  -0.59746813  -0.18678099  1.0
  N  N27  1  -0.24301057  -0.97099830  -0.32306168  1.0
  N  N28  1  -0.75698943  -0.02900170  -0.67693832  1.0
  F  F29  1  -0.88801193  -0.43652037  -0.73315123  1.0
  F  F30  1  -0.11198807  -0.56347963  -0.26684877  1.0
  F  F31  1  -0.94981010  -0.73899511  -0.42086802  1.0
  F  F32  1  -0.05018990  -0.26100489  -0.57913198  1.0
  F  F33  1  -0.82018142  -0.48353582  -0.39035075  1.0
  F  F34  1  -0.17981858  -0.51646418  -0.60964925  1.0
