# generated using pymatgen
data_Sr(PIr)2
_symmetry_space_group_name_H-M   'P 1'
_cell_length_a   6.77095446
_cell_length_b   6.77095446
_cell_length_c   7.14047854
_cell_angle_alpha   90.00000000
_cell_angle_beta   90.00000000
_cell_angle_gamma   120.00000000
_symmetry_Int_Tables_number   1
_chemical_formula_structural   Sr(PIr)2
_chemical_formula_sum   'Sr3 P6 Ir6'
_cell_volume   283.50305036
_cell_formula_units_Z   3
loop_
 _symmetry_equiv_pos_site_id
 _symmetry_equiv_pos_as_xyz
  1  'x, y, z'
loop_
 _atom_site_type_symbol
 _atom_site_label
 _atom_site_symmetry_multiplicity
 _atom_site_fract_x
 _atom_site_fract_y
 _atom_site_fract_z
 _atom_site_occupancy
  Sr  Sr0  1  0.39907586  0.39907586  0.00000000  1.0
  Sr  Sr1  1  -0.00000000  0.60092414  0.66666667  1.0
  Sr  Sr2  1  0.60092414  0.00000000  0.33333333  1.0
  P  P3  1  0.21643915  0.87748201  0.04232008  1.0
  P  P4  1  0.87748201  0.21643915  0.95767992  1.0
  P  P5  1  0.66104285  0.78356085  0.70898675  1.0
  P  P6  1  0.12251799  0.33895715  0.37565341  1.0
  P  P7  1  0.78356085  0.66104285  0.29101325  1.0
  P  P8  1  0.33895715  0.12251799  0.62434659  1.0
  Ir  Ir9  1  0.48989873  0.48989873  0.50000000  1.0
  Ir  Ir10  1  0.00000000  0.51010127  0.16666667  1.0
  Ir  Ir11  1  0.51010127  0.00000000  0.83333333  1.0
  Ir  Ir12  1  0.87028305  0.87028305  0.00000000  1.0
  Ir  Ir13  1  0.00000000  0.12971695  0.66666667  1.0
  Ir  Ir14  1  0.12971695  0.00000000  0.33333333  1.0
