# generated using pymatgen
data_AgHgSBr
_symmetry_space_group_name_H-M   'P 1'
_cell_length_a   10.08152464
_cell_length_b   4.60413588
_cell_length_c   9.80419217
_cell_angle_alpha   90.00000000
_cell_angle_beta   90.00000000
_cell_angle_gamma   90.00000000
_symmetry_Int_Tables_number   1
_chemical_formula_structural   AgHgSBr
_chemical_formula_sum   'Ag4 Hg4 S4 Br4'
_cell_volume   455.07833758
_cell_formula_units_Z   4
loop_
 _symmetry_equiv_pos_site_id
 _symmetry_equiv_pos_as_xyz
  1  'x, y, z'
loop_
 _atom_site_type_symbol
 _atom_site_label
 _atom_site_symmetry_multiplicity
 _atom_site_fract_x
 _atom_site_fract_y
 _atom_site_fract_z
 _atom_site_occupancy
  Ag  Ag0  1  0.41424993  0.50000000  0.29244608  1.0
  Ag  Ag1  1  0.91424993  0.50000000  0.70755392  1.0
  Ag  Ag2  1  0.58575007  0.50000000  0.70755392  1.0
  Ag  Ag3  1  0.08575007  0.50000000  0.29244608  1.0
  Hg  Hg4  1  0.25000000  0.00000000  0.73328971  1.0
  Hg  Hg5  1  0.75000000  0.00000000  0.26671029  1.0
  Hg  Hg6  1  0.50000000  0.00000000  0.00000000  1.0
  Hg  Hg7  1  0.00000000  0.00000000  0.00000000  1.0
  S  S8  1  0.98743778  0.00000000  0.24414202  1.0
  S  S9  1  0.48743778  0.00000000  0.75585798  1.0
  S  S10  1  0.01256222  0.00000000  0.75585798  1.0
  S  S11  1  0.51256222  0.00000000  0.24414202  1.0
  Br  Br12  1  0.25000000  0.50000000  0.04050995  1.0
  Br  Br13  1  0.75000000  0.50000000  0.95949005  1.0
  Br  Br14  1  0.25000000  0.50000000  0.51073467  1.0
  Br  Br15  1  0.75000000  0.50000000  0.48926533  1.0
