# generated using pymatgen
data_Li2B2S5
_symmetry_space_group_name_H-M   'P 1'
_cell_length_a   8.63016311
_cell_length_b   8.63016311
_cell_length_c   7.01414991
_cell_angle_alpha   90.00000000
_cell_angle_beta   90.00000000
_cell_angle_gamma   44.96853626
_symmetry_Int_Tables_number   1
_chemical_formula_structural   Li2B2S5
_chemical_formula_sum   'Li4 B4 S10'
_cell_volume   369.19807836
_cell_formula_units_Z   2
loop_
 _symmetry_equiv_pos_site_id
 _symmetry_equiv_pos_as_xyz
  1  'x, y, z'
loop_
 _atom_site_type_symbol
 _atom_site_label
 _atom_site_symmetry_multiplicity
 _atom_site_fract_x
 _atom_site_fract_y
 _atom_site_fract_z
 _atom_site_occupancy
  Li  Li0  1  0.76410918  0.76410918  0.50000000  1.0
  Li  Li1  1  0.76410918  0.76410918  0.00000000  1.0
  Li  Li2  1  0.23589082  1.23589082  0.50000000  1.0
  Li  Li3  1  0.23589082  1.23589082  0.00000000  1.0
  B  B4  1  0.25916441  1.56587374  0.25000000  1.0
  B  B5  1  0.56587374  1.25916441  0.75000000  1.0
  B  B6  1  0.43412626  0.74083559  0.25000000  1.0
  B  B7  1  -0.25916441  1.43412626  0.75000000  1.0
  S  S8  1  0.07192937  1.53520999  0.25000000  1.0
  S  S9  1  0.53520999  1.07192937  0.75000000  1.0
  S  S10  1  0.46479001  0.92807063  0.25000000  1.0
  S  S11  1  -0.07192937  1.46479001  0.75000000  1.0
  S  S12  1  -0.31908834  1.45023546  0.25000000  1.0
  S  S13  1  0.45023546  0.68091166  0.75000000  1.0
  S  S14  1  0.54976454  1.31908834  0.25000000  1.0
  S  S15  1  0.31908834  1.54976454  0.75000000  1.0
  S  S16  1  -0.82961465  0.82961465  0.25000000  1.0
  S  S17  1  -0.17038535  0.17038535  0.75000000  1.0
