# generated using pymatgen
data_YAlPt
_symmetry_space_group_name_H-M   'P 1'
_cell_length_a   6.92163290
_cell_length_b   4.43773766
_cell_length_c   7.74485204
_cell_angle_alpha   90.00000000
_cell_angle_beta   90.00000000
_cell_angle_gamma   90.00000000
_symmetry_Int_Tables_number   1
_chemical_formula_structural   YAlPt
_chemical_formula_sum   'Y4 Al4 Pt4'
_cell_volume   237.89390309
_cell_formula_units_Z   4
loop_
 _symmetry_equiv_pos_site_id
 _symmetry_equiv_pos_as_xyz
  1  'x, y, z'
loop_
 _atom_site_type_symbol
 _atom_site_label
 _atom_site_symmetry_multiplicity
 _atom_site_fract_x
 _atom_site_fract_y
 _atom_site_fract_z
 _atom_site_occupancy
  Y  Y0  1  1.02618610  0.75000000  0.68355636  1.0
  Y  Y1  1  0.52618610  0.75000000  0.81644364  1.0
  Y  Y2  1  -0.02618610  0.25000000  0.31644364  1.0
  Y  Y3  1  0.47381390  0.25000000  0.18355636  1.0
  Al  Al4  1  0.64892702  0.75000000  0.43415695  1.0
  Al  Al5  1  0.14892702  0.75000000  0.06584305  1.0
  Al  Al6  1  0.35107298  0.25000000  0.56584305  1.0
  Al  Al7  1  0.85107298  0.25000000  0.93415695  1.0
  Pt  Pt8  1  0.77535131  0.75000000  0.11297971  1.0
  Pt  Pt9  1  0.27535131  0.75000000  0.38702029  1.0
  Pt  Pt10  1  0.22464869  0.25000000  0.88702029  1.0
  Pt  Pt11  1  0.72464869  0.25000000  0.61297971  1.0
