# generated using pymatgen
data_AlH6ClO4
_symmetry_space_group_name_H-M   'P 1'
_cell_length_a   8.04077989
_cell_length_b   8.04077989
_cell_length_c   5.20397085
_cell_angle_alpha   72.17619654
_cell_angle_beta   107.82380346
_cell_angle_gamma   66.07213069
_symmetry_Int_Tables_number   1
_chemical_formula_structural   AlH6ClO4
_chemical_formula_sum   'Al2 H12 Cl2 O8'
_cell_volume   254.49160282
_cell_formula_units_Z   2
loop_
 _symmetry_equiv_pos_site_id
 _symmetry_equiv_pos_as_xyz
  1  'x, y, z'
loop_
 _atom_site_type_symbol
 _atom_site_label
 _atom_site_symmetry_multiplicity
 _atom_site_fract_x
 _atom_site_fract_y
 _atom_site_fract_z
 _atom_site_occupancy
  Al  Al0  1  1.44983216  0.44983216  0.75000000  1.0
  Al  Al1  1  0.55016784  0.55016784  0.25000000  1.0
  H  H2  1  1.32715113  -0.17565876  0.66244672  1.0
  H  H3  1  1.17565876  0.67284887  0.16244672  1.0
  H  H4  1  0.82434124  0.32715113  0.83755328  1.0
  H  H5  1  1.67284887  0.17565876  0.33755328  1.0
  H  H6  1  1.61621528  0.08258232  0.78496414  1.0
  H  H7  1  0.91741768  0.38378472  0.28496414  1.0
  H  H8  1  1.08258232  0.61621528  0.71503586  1.0
  H  H9  1  1.38378472  -0.08258232  0.21503586  1.0
  H  H10  1  1.37252133  0.19715728  0.60104692  1.0
  H  H11  1  0.80284272  0.62747867  0.10104692  1.0
  H  H12  1  1.19715728  0.37252133  0.89895308  1.0
  H  H13  1  1.62747867  -0.19715728  0.39895308  1.0
  Cl  Cl14  1  0.83367120  0.83367120  0.75000000  1.0
  Cl  Cl15  1  1.16632880  0.16632880  0.25000000  1.0
  O  O16  1  1.39755958  -0.32085806  0.81873180  1.0
  O  O17  1  1.32085806  0.60244042  0.31873180  1.0
  O  O18  1  0.67914194  0.39755958  0.68126820  1.0
  O  O19  1  1.60244042  0.32085806  0.18126820  1.0
  O  O20  1  1.48569478  0.18751793  0.76352245  1.0
  O  O21  1  0.81248207  0.51430522  0.26352245  1.0
  O  O22  1  1.18751793  0.48569478  0.73647755  1.0
  O  O23  1  1.51430522  -0.18751793  0.23647755  1.0
