# generated using pymatgen
data_Rb2CuCl4
_symmetry_space_group_name_H-M   'P 1'
_cell_length_a   9.60019916
_cell_length_b   7.56941950
_cell_length_c   12.16843143
_cell_angle_alpha   90.00000000
_cell_angle_beta   90.00000000
_cell_angle_gamma   90.00000000
_symmetry_Int_Tables_number   1
_chemical_formula_structural   Rb2CuCl4
_chemical_formula_sum   'Rb8 Cu4 Cl16'
_cell_volume   884.25478122
_cell_formula_units_Z   4
loop_
 _symmetry_equiv_pos_site_id
 _symmetry_equiv_pos_as_xyz
  1  'x, y, z'
loop_
 _atom_site_type_symbol
 _atom_site_label
 _atom_site_symmetry_multiplicity
 _atom_site_fract_x
 _atom_site_fract_y
 _atom_site_fract_z
 _atom_site_occupancy
  Cl  Cl0  1  1.00476482  0.75000000  0.12664751  1.0
  Cl  Cl1  1  0.50476482  0.75000000  0.37335249  1.0
  Cl  Cl2  1  -0.00476482  0.25000000  0.87335249  1.0
  Cl  Cl3  1  0.49523518  0.25000000  0.62664751  1.0
  Cl  Cl4  1  0.15670962  0.75000000  0.58002951  1.0
  Cl  Cl5  1  0.65670962  0.75000000  0.91997049  1.0
  Cl  Cl6  1  0.84329038  0.25000000  0.41997049  1.0
  Cl  Cl7  1  0.34329038  0.25000000  0.08002951  1.0
  Cl  Cl8  1  0.71386972  1.02038494  0.13999350  1.0
  Cl  Cl9  1  0.71386972  0.47961506  0.13999350  1.0
  Cl  Cl10  1  0.21386972  1.02038494  0.36000650  1.0
  Cl  Cl11  1  0.21386972  0.47961506  0.36000650  1.0
  Cl  Cl12  1  0.28613028  0.52038494  0.86000650  1.0
  Cl  Cl13  1  0.28613028  -0.02038494  0.86000650  1.0
  Cl  Cl14  1  0.78613028  0.52038494  0.63999350  1.0
  Cl  Cl15  1  0.78613028  -0.02038494  0.63999350  1.0
  Cu  Cu16  1  0.77588724  0.75000000  0.08128665  1.0
  Cu  Cu17  1  0.27588724  0.75000000  0.41871335  1.0
  Cu  Cu18  1  0.22411276  0.25000000  0.91871335  1.0
  Cu  Cu19  1  0.72411276  0.25000000  0.58128665  1.0
  Rb  Rb20  1  0.87263505  0.75000000  0.40372023  1.0
  Rb  Rb21  1  0.37263505  0.75000000  0.09627977  1.0
  Rb  Rb22  1  0.12736495  0.25000000  0.59627977  1.0
  Rb  Rb23  1  0.62736495  0.25000000  0.90372023  1.0
  Rb  Rb24  1  0.49051438  0.75000000  0.67421594  1.0
  Rb  Rb25  1  -0.00948562  0.75000000  0.82578406  1.0
  Rb  Rb26  1  0.50948562  0.25000000  0.32578406  1.0
  Rb  Rb27  1  1.00948562  0.25000000  0.17421594  1.0
