# generated using pymatgen
data_Zr2Se
_symmetry_space_group_name_H-M   'P 1'
_cell_length_a   12.70168195
_cell_length_b   15.85990624
_cell_length_c   3.63020056
_cell_angle_alpha   90.00000000
_cell_angle_beta   90.00000000
_cell_angle_gamma   90.00000000
_symmetry_Int_Tables_number   1
_chemical_formula_structural   Zr2Se
_chemical_formula_sum   'Zr24 Se12'
_cell_volume   731.29477227
_cell_formula_units_Z   12
loop_
 _symmetry_equiv_pos_site_id
 _symmetry_equiv_pos_as_xyz
  1  'x, y, z'
loop_
 _atom_site_type_symbol
 _atom_site_label
 _atom_site_symmetry_multiplicity
 _atom_site_fract_x
 _atom_site_fract_y
 _atom_site_fract_z
 _atom_site_occupancy
  Zr  Zr0  1  0.46783484  0.61008674  0.50000000  1.0
  Zr  Zr1  1  0.96783484  0.88991326  0.00000000  1.0
  Zr  Zr2  1  0.53216516  0.38991326  0.50000000  1.0
  Zr  Zr3  1  0.03216516  0.11008674  0.00000000  1.0
  Zr  Zr4  1  0.41618957  0.08046529  0.50000000  1.0
  Zr  Zr5  1  0.91618957  0.41953471  0.00000000  1.0
  Zr  Zr6  1  0.58381043  0.91953471  0.50000000  1.0
  Zr  Zr7  1  0.08381043  0.58046529  0.00000000  1.0
  Zr  Zr8  1  0.14992061  0.97663121  0.50000000  1.0
  Zr  Zr9  1  0.64992061  0.52336879  0.00000000  1.0
  Zr  Zr10  1  0.85007939  0.02336879  0.50000000  1.0
  Zr  Zr11  1  0.35007939  0.47663121  0.00000000  1.0
  Zr  Zr12  1  0.07766979  0.74706671  0.50000000  1.0
  Zr  Zr13  1  0.57766979  0.75293329  0.00000000  1.0
  Zr  Zr14  1  0.92233021  0.25293329  0.50000000  1.0
  Zr  Zr15  1  0.42233021  0.24706671  0.00000000  1.0
  Zr  Zr16  1  0.87752187  0.57580140  0.50000000  1.0
  Zr  Zr17  1  0.37752187  0.92419860  0.00000000  1.0
  Zr  Zr18  1  0.12247813  0.42419860  0.50000000  1.0
  Zr  Zr19  1  0.62247813  0.07580140  0.00000000  1.0
  Zr  Zr20  1  0.80120947  0.79628288  0.50000000  1.0
  Zr  Zr21  1  0.30120947  0.70371712  0.00000000  1.0
  Zr  Zr22  1  0.19879053  0.20371712  0.50000000  1.0
  Zr  Zr23  1  0.69879053  0.29628288  0.00000000  1.0
  Se  Se24  1  0.42142205  0.79352926  0.50000000  1.0
  Se  Se25  1  0.92142205  0.70647074  0.00000000  1.0
  Se  Se26  1  0.57857795  0.20647074  0.50000000  1.0
  Se  Se27  1  0.07857795  0.29352926  0.00000000  1.0
  Se  Se28  1  0.24594037  0.58078207  0.50000000  1.0
  Se  Se29  1  0.74594037  0.91921793  0.00000000  1.0
  Se  Se30  1  0.75405963  0.41921793  0.50000000  1.0
  Se  Se31  1  0.25405963  0.08078207  0.00000000  1.0
  Se  Se32  1  0.68320291  0.65151225  0.50000000  1.0
  Se  Se33  1  0.18320291  0.84848775  0.00000000  1.0
  Se  Se34  1  0.31679709  0.34848775  0.50000000  1.0
  Se  Se35  1  0.81679709  0.15151225  0.00000000  1.0
