# generated using pymatgen
data_V3Pb5O12F
_symmetry_space_group_name_H-M   'P 1'
_cell_length_a   10.36144618
_cell_length_b   10.36144618
_cell_length_c   7.28562897
_cell_angle_alpha   90.00000000
_cell_angle_beta   90.00000000
_cell_angle_gamma   120.00000000
_symmetry_Int_Tables_number   1
_chemical_formula_structural   V3Pb5O12F
_chemical_formula_sum   'V6 Pb10 O24 F2'
_cell_volume   677.38945723
_cell_formula_units_Z   2
loop_
 _symmetry_equiv_pos_site_id
 _symmetry_equiv_pos_as_xyz
  1  'x, y, z'
loop_
 _atom_site_type_symbol
 _atom_site_label
 _atom_site_symmetry_multiplicity
 _atom_site_fract_x
 _atom_site_fract_y
 _atom_site_fract_z
 _atom_site_occupancy
  V  V0  1  0.97652627  0.59049003  0.25000000  1.0
  V  V1  1  0.61396376  0.02347373  0.25000000  1.0
  V  V2  1  0.40950997  0.38603624  0.25000000  1.0
  V  V3  1  0.02347373  0.40950997  0.75000000  1.0
  V  V4  1  0.38603624  0.97652627  0.75000000  1.0
  V  V5  1  0.59049003  0.61396376  0.75000000  1.0
  Pb  Pb6  1  0.33333333  0.66666667  0.49388301  1.0
  Pb  Pb7  1  0.66666667  0.33333333  0.99388301  1.0
  Pb  Pb8  1  0.66666667  0.33333333  0.50611699  1.0
  Pb  Pb9  1  0.33333333  0.66666667  0.00611699  1.0
  Pb  Pb10  1  0.78054353  0.75556432  0.25000000  1.0
  Pb  Pb11  1  0.97502079  0.21945647  0.25000000  1.0
  Pb  Pb12  1  0.24443568  0.02497921  0.25000000  1.0
  Pb  Pb13  1  0.21945647  0.24443568  0.75000000  1.0
  Pb  Pb14  1  0.02497921  0.78054353  0.75000000  1.0
  Pb  Pb15  1  0.75556432  0.97502079  0.75000000  1.0
  O  O16  1  0.16713808  0.66831314  0.25000000  1.0
  O  O17  1  0.50117506  0.83286192  0.25000000  1.0
  O  O18  1  0.33168686  0.49882494  0.25000000  1.0
  O  O19  1  0.83286192  0.33168686  0.75000000  1.0
  O  O20  1  0.49882494  0.16713808  0.75000000  1.0
  O  O21  1  0.66831314  0.50117506  0.75000000  1.0
  O  O22  1  0.88662274  0.39666811  0.25000000  1.0
  O  O23  1  0.51004537  0.11337726  0.25000000  1.0
  O  O24  1  0.60333189  0.48995463  0.25000000  1.0
  O  O25  1  0.11337726  0.60333189  0.75000000  1.0
  O  O26  1  0.48995463  0.88662274  0.75000000  1.0
  O  O27  1  0.39666811  0.51004537  0.75000000  1.0
  O  O28  1  0.91566575  0.64700113  0.43676284  1.0
  O  O29  1  0.73133538  0.08433425  0.43676284  1.0
  O  O30  1  0.35299887  0.26866462  0.43676284  1.0
  O  O31  1  0.08433425  0.35299887  0.93676284  1.0
  O  O32  1  0.26866462  0.91566575  0.93676284  1.0
  O  O33  1  0.64700113  0.73133538  0.93676284  1.0
  O  O34  1  0.08433425  0.35299887  0.56323716  1.0
  O  O35  1  0.26866462  0.91566575  0.56323716  1.0
  O  O36  1  0.64700113  0.73133538  0.56323716  1.0
  O  O37  1  0.91566575  0.64700113  0.06323716  1.0
  O  O38  1  0.73133538  0.08433425  0.06323716  1.0
  O  O39  1  0.35299887  0.26866462  0.06323716  1.0
  F  F40  1  0.00000000  0.00000000  0.50000000  1.0
  F  F41  1  0.00000000  0.00000000  0.00000000  1.0
