# generated using pymatgen
data_CdI2
_symmetry_space_group_name_H-M   'P 1'
_cell_length_a   4.32787640
_cell_length_b   4.32787640
_cell_length_c   53.08159323
_cell_angle_alpha   90.00000000
_cell_angle_beta   90.00000000
_cell_angle_gamma   120.00000000
_symmetry_Int_Tables_number   1
_chemical_formula_structural   CdI2
_chemical_formula_sum   'Cd7 I14'
_cell_volume   861.04188776
_cell_formula_units_Z   7
loop_
 _symmetry_equiv_pos_site_id
 _symmetry_equiv_pos_as_xyz
  1  'x, y, z'
loop_
 _atom_site_type_symbol
 _atom_site_label
 _atom_site_symmetry_multiplicity
 _atom_site_fract_x
 _atom_site_fract_y
 _atom_site_fract_z
 _atom_site_occupancy
  Cd  Cd0  1  0.00000000  0.00000000  0.03573720  1.0
  Cd  Cd1  1  0.00000000  0.00000000  0.17857791  1.0
  Cd  Cd2  1  0.00000000  0.00000000  0.32141864  1.0
  Cd  Cd3  1  0.00000000  0.00000000  0.46428474  1.0
  Cd  Cd4  1  0.00000000  0.00000000  0.60712203  1.0
  Cd  Cd5  1  0.66666667  0.33333333  0.75001986  1.0
  Cd  Cd6  1  0.66666667  0.33333333  0.89284131  1.0
  I  I7  1  0.00000000  0.00000000  0.78240058  1.0
  I  I8  1  0.00000000  0.00000000  0.92523759  1.0
  I  I9  1  0.66666667  0.33333333  0.06811938  1.0
  I  I10  1  0.66666667  0.33333333  0.21096193  1.0
  I  I11  1  0.66666667  0.33333333  0.35380280  1.0
  I  I12  1  0.66666667  0.33333333  0.49666892  1.0
  I  I13  1  0.66666667  0.33333333  0.63951547  1.0
  I  I14  1  0.33333333  0.66666667  0.00335438  1.0
  I  I15  1  0.33333333  0.66666667  0.14619223  1.0
  I  I16  1  0.33333333  0.66666667  0.28903274  1.0
  I  I17  1  0.33333333  0.66666667  0.43189992  1.0
  I  I18  1  0.33333333  0.66666667  0.57472677  1.0
  I  I19  1  0.33333333  0.66666667  0.71763601  1.0
  I  I20  1  0.33333333  0.66666667  0.86044958  1.0
