# generated using pymatgen
data_HfCrSi2
_symmetry_space_group_name_H-M   'P 1'
_cell_length_a   9.04451026
_cell_length_b   9.71437589
_cell_length_c   7.99684653
_cell_angle_alpha   90.00000000
_cell_angle_beta   90.00000000
_cell_angle_gamma   90.00000000
_symmetry_Int_Tables_number   1
_chemical_formula_structural   HfCrSi2
_chemical_formula_sum   'Hf12 Cr12 Si24'
_cell_volume   702.61710992
_cell_formula_units_Z   12
loop_
 _symmetry_equiv_pos_site_id
 _symmetry_equiv_pos_as_xyz
  1  'x, y, z'
loop_
 _atom_site_type_symbol
 _atom_site_label
 _atom_site_symmetry_multiplicity
 _atom_site_fract_x
 _atom_site_fract_y
 _atom_site_fract_z
 _atom_site_occupancy
  Hf  Hf0  1  0.17222736  0.54778911  0.75410258  1.0
  Hf  Hf1  1  0.17222736  0.54778911  0.24589742  1.0
  Hf  Hf2  1  0.67222736  0.95221089  0.75410258  1.0
  Hf  Hf3  1  0.67222736  0.95221089  0.24589742  1.0
  Hf  Hf4  1  0.82777264  0.45221089  0.75410258  1.0
  Hf  Hf5  1  0.82777264  0.45221089  0.24589742  1.0
  Hf  Hf6  1  0.32777264  0.04778911  0.75410258  1.0
  Hf  Hf7  1  0.32777264  0.04778911  0.24589742  1.0
  Hf  Hf8  1  0.16904862  0.82040007  0.00000000  1.0
  Hf  Hf9  1  0.66904862  0.67959993  0.00000000  1.0
  Hf  Hf10  1  0.83095138  0.17959993  0.00000000  1.0
  Hf  Hf11  1  0.33095138  0.32040007  0.00000000  1.0
  Cr  Cr12  1  0.42088488  0.74807455  0.75122929  1.0
  Cr  Cr13  1  0.42088488  0.74807455  0.24877071  1.0
  Cr  Cr14  1  0.92088488  0.75192545  0.75122929  1.0
  Cr  Cr15  1  0.92088488  0.75192545  0.24877071  1.0
  Cr  Cr16  1  0.57911512  0.25192545  0.75122929  1.0
  Cr  Cr17  1  0.57911512  0.25192545  0.24877071  1.0
  Cr  Cr18  1  0.07911512  0.24807455  0.75122929  1.0
  Cr  Cr19  1  0.07911512  0.24807455  0.24877071  1.0
  Cr  Cr20  1  0.50000000  0.50000000  0.75541347  1.0
  Cr  Cr21  1  0.50000000  0.50000000  0.24458653  1.0
  Cr  Cr22  1  0.00000000  0.00000000  0.75541347  1.0
  Cr  Cr23  1  0.00000000  0.00000000  0.24458653  1.0
  Si  Si24  1  0.17130433  0.81877622  0.64919089  1.0
  Si  Si25  1  0.17130433  0.81877622  0.35080911  1.0
  Si  Si26  1  0.67130433  0.68122378  0.64919089  1.0
  Si  Si27  1  0.67130433  0.68122378  0.35080911  1.0
  Si  Si28  1  0.82869567  0.18122378  0.64919089  1.0
  Si  Si29  1  0.82869567  0.18122378  0.35080911  1.0
  Si  Si30  1  0.32869567  0.31877622  0.64919089  1.0
  Si  Si31  1  0.32869567  0.31877622  0.35080911  1.0
  Si  Si32  1  0.45997283  0.87532695  0.50000000  1.0
  Si  Si33  1  0.95997283  0.62467305  0.50000000  1.0
  Si  Si34  1  0.54002717  0.12467305  0.50000000  1.0
  Si  Si35  1  0.04002717  0.37532695  0.50000000  1.0
  Si  Si36  1  0.38844355  0.59796207  0.50000000  1.0
  Si  Si37  1  0.88844355  0.90203793  0.50000000  1.0
  Si  Si38  1  0.61155645  0.40203793  0.50000000  1.0
  Si  Si39  1  0.11155645  0.09796207  0.50000000  1.0
  Si  Si40  1  0.46066919  0.87987055  0.00000000  1.0
  Si  Si41  1  0.96066919  0.62012945  0.00000000  1.0
  Si  Si42  1  0.53933081  0.12012945  0.00000000  1.0
  Si  Si43  1  0.03933081  0.37987055  0.00000000  1.0
  Si  Si44  1  0.37401798  0.60382626  0.00000000  1.0
  Si  Si45  1  0.87401798  0.89617374  0.00000000  1.0
  Si  Si46  1  0.62598202  0.39617374  0.00000000  1.0
  Si  Si47  1  0.12598202  0.10382626  0.00000000  1.0
