# generated using pymatgen
data_Si(AgO)4
_symmetry_space_group_name_H-M   'P 1'
_cell_length_a   7.46161674
_cell_length_b   7.46161674
_cell_length_c   4.90586818
_cell_angle_alpha   90.00000000
_cell_angle_beta   90.00000000
_cell_angle_gamma   90.00000000
_symmetry_Int_Tables_number   1
_chemical_formula_structural   Si(AgO)4
_chemical_formula_sum   'Si2 Ag8 O8'
_cell_volume   273.13776488
_cell_formula_units_Z   2
loop_
 _symmetry_equiv_pos_site_id
 _symmetry_equiv_pos_as_xyz
  1  'x, y, z'
loop_
 _atom_site_type_symbol
 _atom_site_label
 _atom_site_symmetry_multiplicity
 _atom_site_fract_x
 _atom_site_fract_y
 _atom_site_fract_z
 _atom_site_occupancy
  Si  Si0  1  0.50000000  0.50000000  0.00000000  1.0
  Si  Si1  1  0.00000000  0.00000000  0.50000000  1.0
  Ag  Ag2  1  0.88717856  0.32160914  0.95403024  1.0
  Ag  Ag3  1  0.11282144  0.67839086  0.95403024  1.0
  Ag  Ag4  1  0.82160914  0.61282144  0.45403024  1.0
  Ag  Ag5  1  0.17839086  0.38717856  0.45403024  1.0
  Ag  Ag6  1  0.61282144  0.17839086  0.54596976  1.0
  Ag  Ag7  1  0.38717856  0.82160914  0.54596976  1.0
  Ag  Ag8  1  0.67839086  0.88717856  0.04596976  1.0
  Ag  Ag9  1  0.32160914  0.11282144  0.04596976  1.0
  O  O10  1  0.67238007  0.43861426  0.19154139  1.0
  O  O11  1  0.32761993  0.56138574  0.19154139  1.0
  O  O12  1  0.93861426  0.82761993  0.69154139  1.0
  O  O13  1  0.06138574  0.17238007  0.69154139  1.0
  O  O14  1  0.82761993  0.06138574  0.30845861  1.0
  O  O15  1  0.17238007  0.93861426  0.30845861  1.0
  O  O16  1  0.56138574  0.67238007  0.80845861  1.0
  O  O17  1  0.43861426  0.32761993  0.80845861  1.0
