# generated using pymatgen
data_CoH14C10(N4O)2
_symmetry_space_group_name_H-M   'P 1'
_cell_length_a   8.07336557
_cell_length_b   8.07336557
_cell_length_c   8.13995627
_cell_angle_alpha   71.66519018
_cell_angle_beta   108.33480982
_cell_angle_gamma   124.90169684
_symmetry_Int_Tables_number   1
_chemical_formula_structural   CoH14C10(N4O)2
_chemical_formula_sum   'Co1 H14 C10 N8 O2'
_cell_volume   406.81944497
_cell_formula_units_Z   1
loop_
 _symmetry_equiv_pos_site_id
 _symmetry_equiv_pos_as_xyz
  1  'x, y, z'
loop_
 _atom_site_type_symbol
 _atom_site_label
 _atom_site_symmetry_multiplicity
 _atom_site_fract_x
 _atom_site_fract_y
 _atom_site_fract_z
 _atom_site_occupancy
  Co  Co0  1  -0.00000000  0.00000000  0.50000000  1.0
  H  H1  1  0.50996965  0.25124628  0.85113490  1.0
  H  H2  1  0.74875372  0.49003035  0.85113490  1.0
  H  H3  1  0.49003035  -0.25124628  0.14886510  1.0
  H  H4  1  1.25124628  0.50996965  0.14886510  1.0
  H  H5  1  0.77880025  0.22119975  0.25577945  1.0
  H  H6  1  0.22119975  -0.22119975  0.74422055  1.0
  H  H7  1  0.76366299  0.23633701  0.73561917  1.0
  H  H8  1  0.23633701  -0.23633701  0.26438083  1.0
  H  H9  1  0.74877531  0.01457556  0.88623103  1.0
  H  H10  1  0.98542444  0.25122469  0.88623103  1.0
  H  H11  1  0.25122469  -0.01457556  0.11376897  1.0
  H  H12  1  1.01457556  0.74877531  0.11376897  1.0
  H  H13  1  0.63392288  0.36607712  1.04429940  1.0
  H  H14  1  0.36607712  -0.36607712  -0.04429940  1.0
  C  C15  1  1.24212563  0.45097276  0.58215053  1.0
  C  C16  1  0.54902724  -0.24212563  0.58215053  1.0
  C  C17  1  0.75787437  0.54902724  0.41784947  1.0
  C  C18  1  0.45097276  0.24212563  0.41784947  1.0
  C  C19  1  0.82208677  0.17791323  0.16742246  1.0
  C  C20  1  0.17791323  -0.17791323  0.83257754  1.0
  C  C21  1  0.81912595  0.18087405  0.86875776  1.0
  C  C22  1  0.18087405  -0.18087405  0.13124224  1.0
  C  C23  1  0.65906423  0.34093577  0.93174966  1.0
  C  C24  1  0.34093577  -0.34093577  0.06825034  1.0
  N  N25  1  1.11115569  0.29055280  0.54149129  1.0
  N  N26  1  0.70944720  -0.11115569  0.54149129  1.0
  N  N27  1  0.88884431  0.70944720  0.45850871  1.0
  N  N28  1  0.29055280  0.11115569  0.45850871  1.0
  N  N29  1  0.37501301  -0.37501301  0.63668674  1.0
  N  N30  1  0.62498699  0.37501301  0.36331326  1.0
  N  N31  1  0.76798039  0.23201961  0.99559971  1.0
  N  N32  1  0.23201961  -0.23201961  0.00440029  1.0
  O  O33  1  0.91584417  0.08415583  0.22455336  1.0
  O  O34  1  0.08415583  -0.08415583  0.77544664  1.0
