# generated using pymatgen
data_CaAl2(SiO3)4
_symmetry_space_group_name_H-M   'P 1'
_cell_length_a   5.22077921
_cell_length_b   5.22077921
_cell_length_c   20.21059187
_cell_angle_alpha   80.35556015
_cell_angle_beta   99.64443985
_cell_angle_gamma   58.06466603
_symmetry_Int_Tables_number   1
_chemical_formula_structural   CaAl2(SiO3)4
_chemical_formula_sum   'Ca2 Al4 Si8 O24'
_cell_volume   438.75435717
_cell_formula_units_Z   2
loop_
 _symmetry_equiv_pos_site_id
 _symmetry_equiv_pos_as_xyz
  1  'x, y, z'
loop_
 _atom_site_type_symbol
 _atom_site_label
 _atom_site_symmetry_multiplicity
 _atom_site_fract_x
 _atom_site_fract_y
 _atom_site_fract_z
 _atom_site_occupancy
  Ca  Ca0  1  0.93750844  -0.06249156  0.75000000  1.0
  Ca  Ca1  1  0.06249156  0.06249156  0.25000000  1.0
  Al  Al2  1  0.68326156  0.15185261  1.00574274  1.0
  Al  Al3  1  0.84814739  -0.68326156  0.50574274  1.0
  Al  Al4  1  1.15185261  -0.31673844  0.49425726  1.0
  Al  Al5  1  0.31673844  -0.15185261  -0.00574274  1.0
  Si  Si6  1  0.48287069  -0.35785836  0.62355895  1.0
  Si  Si7  1  1.35785836  -0.48287069  0.12355895  1.0
  Si  Si8  1  0.64214164  -0.51712931  0.87644105  1.0
  Si  Si9  1  0.51712931  0.35785836  0.37644105  1.0
  Si  Si10  1  0.26227876  0.22435004  0.85758894  1.0
  Si  Si11  1  0.77564996  -0.26227876  0.35758894  1.0
  Si  Si12  1  1.22435004  -0.73772124  0.64241106  1.0
  Si  Si13  1  0.73772124  -0.22435004  0.14241106  1.0
  O  O14  1  0.55811027  -0.42873627  0.54963386  1.0
  O  O15  1  1.42873627  -0.55811027  0.04963386  1.0
  O  O16  1  0.57126373  -0.44188973  0.95036614  1.0
  O  O17  1  0.44188973  0.42873627  0.45036614  1.0
  O  O18  1  1.07536898  -0.09073305  0.56974827  1.0
  O  O19  1  1.09073305  -1.07536898  0.06974827  1.0
  O  O20  1  0.90926695  0.07536898  0.93025173  1.0
  O  O21  1  -0.07536898  0.09073305  0.43025173  1.0
  O  O22  1  0.34047980  -0.07384090  0.82809037  1.0
  O  O23  1  1.07384090  -0.34047980  0.32809037  1.0
  O  O24  1  0.92615910  -0.65952020  0.67190963  1.0
  O  O25  1  0.65952020  0.07384090  0.17190963  1.0
  O  O26  1  0.50039612  -0.12487553  0.67061787  1.0
  O  O27  1  1.12487553  -0.50039612  0.17061787  1.0
  O  O28  1  0.87512447  -0.49960388  0.82938213  1.0
  O  O29  1  0.49960388  0.12487553  0.32938213  1.0
  O  O30  1  0.36794134  0.15696635  0.94190472  1.0
  O  O31  1  0.84303365  -0.36794134  0.44190472  1.0
  O  O32  1  1.15696635  -0.63205866  0.55809528  1.0
  O  O33  1  0.63205866  -0.15696635  0.05809528  1.0
  O  O34  1  0.39956393  0.42183697  0.82283876  1.0
  O  O35  1  0.57816303  -0.39956393  0.32283876  1.0
  O  O36  1  1.42183697  -0.60043607  0.67716124  1.0
  O  O37  1  0.60043607  -0.42183697  0.17716124  1.0
