# generated using pymatgen
data_Sm2ZrS5
_symmetry_space_group_name_H-M   'P 1'
_cell_length_a   11.45076192
_cell_length_b   8.07174716
_cell_length_c   7.28467242
_cell_angle_alpha   90.00000000
_cell_angle_beta   90.00000000
_cell_angle_gamma   90.00000000
_symmetry_Int_Tables_number   1
_chemical_formula_structural   Sm2ZrS5
_chemical_formula_sum   'Sm8 Zr4 S20'
_cell_volume   673.30518906
_cell_formula_units_Z   4
loop_
 _symmetry_equiv_pos_site_id
 _symmetry_equiv_pos_as_xyz
  1  'x, y, z'
loop_
 _atom_site_type_symbol
 _atom_site_label
 _atom_site_symmetry_multiplicity
 _atom_site_fract_x
 _atom_site_fract_y
 _atom_site_fract_z
 _atom_site_occupancy
  Sm  Sm0  1  0.67179009  0.50154679  0.05517026  1.0
  Sm  Sm1  1  0.67179009  -0.00154679  0.05517026  1.0
  Sm  Sm2  1  0.17179009  0.50154679  0.44482974  1.0
  Sm  Sm3  1  0.17179009  -0.00154679  0.44482974  1.0
  Sm  Sm4  1  0.32820991  1.00154679  0.94482974  1.0
  Sm  Sm5  1  0.32820991  0.49845321  0.94482974  1.0
  Sm  Sm6  1  0.82820991  1.00154679  0.55517026  1.0
  Sm  Sm7  1  0.82820991  0.49845321  0.55517026  1.0
  Zr  Zr8  1  0.98898345  0.25000000  0.07468347  1.0
  Zr  Zr9  1  0.48898345  0.25000000  0.42531653  1.0
  Zr  Zr10  1  0.01101655  0.75000000  0.92531653  1.0
  Zr  Zr11  1  0.51101655  0.75000000  0.57468347  1.0
  S  S12  1  0.92391724  0.96294894  0.17877572  1.0
  S  S13  1  0.92391724  0.53705106  0.17877572  1.0
  S  S14  1  0.42391724  0.96294894  0.32122428  1.0
  S  S15  1  0.42391724  0.53705106  0.32122428  1.0
  S  S16  1  0.07608276  0.46294894  0.82122428  1.0
  S  S17  1  0.07608276  0.03705106  0.82122428  1.0
  S  S18  1  0.57608276  0.46294894  0.67877572  1.0
  S  S19  1  0.57608276  0.03705106  0.67877572  1.0
  S  S20  1  0.99659974  0.25000000  0.44596250  1.0
  S  S21  1  0.49659974  0.25000000  0.05403750  1.0
  S  S22  1  0.00340026  0.75000000  0.55403750  1.0
  S  S23  1  0.50340026  0.75000000  0.94596250  1.0
  S  S24  1  0.80719327  0.25000000  0.85729896  1.0
  S  S25  1  0.30719327  0.25000000  0.64270104  1.0
  S  S26  1  0.19280673  0.75000000  0.14270104  1.0
  S  S27  1  0.69280673  0.75000000  0.35729896  1.0
  S  S28  1  0.70791761  0.25000000  0.33969242  1.0
  S  S29  1  0.20791761  0.25000000  0.16030758  1.0
  S  S30  1  0.29208239  0.75000000  0.66030758  1.0
  S  S31  1  0.79208239  0.75000000  0.83969242  1.0
