# generated using pymatgen
data_YSiPd2
_symmetry_space_group_name_H-M   'P 1'
_cell_length_a   7.34627917
_cell_length_b   6.99612465
_cell_length_c   5.52110086
_cell_angle_alpha   90.00000000
_cell_angle_beta   90.00000000
_cell_angle_gamma   90.00000000
_symmetry_Int_Tables_number   1
_chemical_formula_structural   YSiPd2
_chemical_formula_sum   'Y4 Si4 Pd8'
_cell_volume   283.75965512
_cell_formula_units_Z   4
loop_
 _symmetry_equiv_pos_site_id
 _symmetry_equiv_pos_as_xyz
  1  'x, y, z'
loop_
 _atom_site_type_symbol
 _atom_site_label
 _atom_site_symmetry_multiplicity
 _atom_site_fract_x
 _atom_site_fract_y
 _atom_site_fract_z
 _atom_site_occupancy
  Y  Y0  1  0.97183580  0.25000000  0.63944982  1.0
  Y  Y1  1  0.47183580  0.25000000  0.86055018  1.0
  Y  Y2  1  0.02816420  0.75000000  0.36055018  1.0
  Y  Y3  1  0.52816420  0.75000000  0.13944982  1.0
  Si  Si4  1  0.62212513  0.25000000  0.35975398  1.0
  Si  Si5  1  0.12212513  0.25000000  0.14024602  1.0
  Si  Si6  1  0.37787487  0.75000000  0.64024602  1.0
  Si  Si7  1  0.87787487  0.75000000  0.85975398  1.0
  Pd  Pd8  1  0.82272532  0.44775695  0.09521844  1.0
  Pd  Pd9  1  0.82272532  0.05224305  0.09521844  1.0
  Pd  Pd10  1  0.32272532  0.44775695  0.40478156  1.0
  Pd  Pd11  1  0.32272532  0.05224305  0.40478156  1.0
  Pd  Pd12  1  0.17727468  0.94775695  0.90478156  1.0
  Pd  Pd13  1  0.17727468  0.55224305  0.90478156  1.0
  Pd  Pd14  1  0.67727468  0.94775695  0.59521844  1.0
  Pd  Pd15  1  0.67727468  0.55224305  0.59521844  1.0
