# generated using pymatgen
data_AsPd2
_symmetry_space_group_name_H-M   'P 1'
_cell_length_a   8.74673813
_cell_length_b   8.74673813
_cell_length_c   6.71460187
_cell_angle_alpha   90.00000000
_cell_angle_beta   90.00000000
_cell_angle_gamma   158.23719883
_symmetry_Int_Tables_number   1
_chemical_formula_structural   AsPd2
_chemical_formula_sum   'As4 Pd8'
_cell_volume   190.46324612
_cell_formula_units_Z   4
loop_
 _symmetry_equiv_pos_site_id
 _symmetry_equiv_pos_as_xyz
  1  'x, y, z'
loop_
 _atom_site_type_symbol
 _atom_site_label
 _atom_site_symmetry_multiplicity
 _atom_site_fract_x
 _atom_site_fract_y
 _atom_site_fract_z
 _atom_site_occupancy
  As  As0  1  -0.94137727  0.94137727  0.49029389  1.0
  As  As1  1  -0.05862273  1.05862273  -0.00970611  1.0
  As  As2  1  -0.70499182  0.70499182  0.45836400  1.0
  As  As3  1  -0.29500818  1.29500818  0.95836400  1.0
  Pd  Pd4  1  -0.91437021  0.91437021  0.86072780  1.0
  Pd  Pd5  1  -0.08562979  1.08562979  0.36072780  1.0
  Pd  Pd6  1  -0.82737118  0.82737118  0.23019598  1.0
  Pd  Pd7  1  -0.17262882  1.17262882  0.73019598  1.0
  Pd  Pd8  1  -0.67319625  0.67319625  0.08334046  1.0
  Pd  Pd9  1  -0.32680375  1.32680375  0.58334046  1.0
  Pd  Pd10  1  -0.46330137  1.46330137  0.19317787  1.0
  Pd  Pd11  1  -0.53669863  0.53669863  0.69317787  1.0
