# generated using pymatgen
data_Rb2Sn2O3
_symmetry_space_group_name_H-M   'P 1'
_cell_length_a   7.62652591
_cell_length_b   7.62652591
_cell_length_c   7.62652591
_cell_angle_alpha   109.47122063
_cell_angle_beta   109.47122063
_cell_angle_gamma   109.47122063
_symmetry_Int_Tables_number   1
_chemical_formula_structural   Rb2Sn2O3
_chemical_formula_sum   'Rb4 Sn4 O6'
_cell_volume   341.47456440
_cell_formula_units_Z   2
loop_
 _symmetry_equiv_pos_site_id
 _symmetry_equiv_pos_as_xyz
  1  'x, y, z'
loop_
 _atom_site_type_symbol
 _atom_site_label
 _atom_site_symmetry_multiplicity
 _atom_site_fract_x
 _atom_site_fract_y
 _atom_site_fract_z
 _atom_site_occupancy
  Rb  Rb0  1  1.49564924  1.49564924  1.49564924  1.0
  Rb  Rb1  1  1.50000000  1.00000000  1.00435076  1.0
  Rb  Rb2  1  1.00000000  1.00435076  1.50000000  1.0
  Rb  Rb3  1  1.00435076  0.50000000  1.00000000  1.0
  Sn  Sn4  1  1.02816554  1.02816554  1.02816554  1.0
  Sn  Sn5  1  0.50000000  1.00000000  0.47183446  1.0
  Sn  Sn6  1  1.00000000  0.47183446  1.50000000  1.0
  Sn  Sn7  1  0.47183446  1.50000000  1.00000000  1.0
  O  O8  1  1.24209915  0.99209915  1.25000000  1.0
  O  O9  1  0.25000000  1.24209915  0.99209915  1.0
  O  O10  1  0.75000000  1.25790085  0.50790085  1.0
  O  O11  1  0.99209915  0.25000000  1.24209915  1.0
  O  O12  1  0.50790085  0.75000000  0.25790085  1.0
  O  O13  1  0.25790085  0.50790085  0.75000000  1.0
