# generated using pymatgen
data_Mg(AlS2)2
_symmetry_space_group_name_H-M   'P 1'
_cell_length_a   12.63336509
_cell_length_b   7.26248805
_cell_length_c   5.95921688
_cell_angle_alpha   90.00000000
_cell_angle_beta   90.00000000
_cell_angle_gamma   90.00000000
_symmetry_Int_Tables_number   1
_chemical_formula_structural   Mg(AlS2)2
_chemical_formula_sum   'Mg4 Al8 S16'
_cell_volume   546.75614065
_cell_formula_units_Z   4
loop_
 _symmetry_equiv_pos_site_id
 _symmetry_equiv_pos_as_xyz
  1  'x, y, z'
loop_
 _atom_site_type_symbol
 _atom_site_label
 _atom_site_symmetry_multiplicity
 _atom_site_fract_x
 _atom_site_fract_y
 _atom_site_fract_z
 _atom_site_occupancy
  Mg  Mg0  1  0.76508808  0.25000000  0.50166486  1.0
  Mg  Mg1  1  0.26508808  0.25000000  0.99833514  1.0
  Mg  Mg2  1  0.23491192  0.75000000  0.49833514  1.0
  Mg  Mg3  1  0.73491192  0.75000000  0.00166486  1.0
  Al  Al4  1  0.58479266  0.25000000  0.09007796  1.0
  Al  Al5  1  0.08479266  0.25000000  0.40992204  1.0
  Al  Al6  1  0.41520734  0.75000000  0.90992204  1.0
  Al  Al7  1  0.91520734  0.75000000  0.59007796  1.0
  Al  Al8  1  0.00000000  0.50000000  0.00000000  1.0
  Al  Al9  1  0.00000000  0.00000000  0.00000000  1.0
  Al  Al10  1  0.50000000  0.50000000  0.50000000  1.0
  Al  Al11  1  0.50000000  0.00000000  0.50000000  1.0
  S  S12  1  0.65813407  0.49531595  0.26115697  1.0
  S  S13  1  0.65813407  0.00468405  0.26115697  1.0
  S  S14  1  0.15813407  0.49531595  0.23884303  1.0
  S  S15  1  0.15813407  0.00468405  0.23884303  1.0
  S  S16  1  0.34186593  0.99531595  0.73884303  1.0
  S  S17  1  0.34186593  0.50468405  0.73884303  1.0
  S  S18  1  0.84186593  0.99531595  0.76115697  1.0
  S  S19  1  0.84186593  0.50468405  0.76115697  1.0
  S  S20  1  0.92599800  0.25000000  0.22865830  1.0
  S  S21  1  0.42599800  0.25000000  0.27134170  1.0
  S  S22  1  0.07400200  0.75000000  0.77134170  1.0
  S  S23  1  0.57400200  0.75000000  0.72865830  1.0
  S  S24  1  0.58435380  0.25000000  0.71251995  1.0
  S  S25  1  0.08435380  0.25000000  0.78748005  1.0
  S  S26  1  0.41564620  0.75000000  0.28748005  1.0
  S  S27  1  0.91564620  0.75000000  0.21251995  1.0
