# generated using pymatgen
data_KO2
_symmetry_space_group_name_H-M   'P 1'
_cell_length_a   4.38163260
_cell_length_b   4.38163260
_cell_length_c   7.82171676
_cell_angle_alpha   64.01939294
_cell_angle_beta   115.98060706
_cell_angle_gamma   126.31987058
_symmetry_Int_Tables_number   1
_chemical_formula_structural   KO2
_chemical_formula_sum   'K2 O4'
_cell_volume   105.40697329
_cell_formula_units_Z   2
loop_
 _symmetry_equiv_pos_site_id
 _symmetry_equiv_pos_as_xyz
  1  'x, y, z'
loop_
 _atom_site_type_symbol
 _atom_site_label
 _atom_site_symmetry_multiplicity
 _atom_site_fract_x
 _atom_site_fract_y
 _atom_site_fract_z
 _atom_site_occupancy
  K  K0  1  0.50000000  0.00000000  0.50000000  1.0
  K  K1  1  1.00000000  -0.50000000  -0.00000000  1.0
  O  O2  1  1.69991300  -0.20034077  0.29984558  1.0
  O  O3  1  1.20034077  -0.69991300  0.79984558  1.0
  O  O4  1  0.79965923  0.69991300  0.20015442  1.0
  O  O5  1  0.30008700  0.20034077  0.70015442  1.0
