# generated using pymatgen
data_RbCO2
_symmetry_space_group_name_H-M   'P 1'
_cell_length_a   6.39754630
_cell_length_b   11.48755395
_cell_length_c   3.70353874
_cell_angle_alpha   90.00000000
_cell_angle_beta   90.00000000
_cell_angle_gamma   90.00000000
_symmetry_Int_Tables_number   1
_chemical_formula_structural   RbCO2
_chemical_formula_sum   'Rb4 C4 O8'
_cell_volume   272.18105535
_cell_formula_units_Z   4
loop_
 _symmetry_equiv_pos_site_id
 _symmetry_equiv_pos_as_xyz
  1  'x, y, z'
loop_
 _atom_site_type_symbol
 _atom_site_label
 _atom_site_symmetry_multiplicity
 _atom_site_fract_x
 _atom_site_fract_y
 _atom_site_fract_z
 _atom_site_occupancy
  Rb  Rb0  1  0.40159162  0.84853433  0.50000000  1.0
  Rb  Rb1  1  0.90159162  0.65146567  0.50000000  1.0
  Rb  Rb2  1  0.59840838  0.15146567  0.50000000  1.0
  Rb  Rb3  1  0.09840838  0.34853433  0.50000000  1.0
  C  C4  1  0.43142159  0.55810461  0.00000000  1.0
  C  C5  1  0.93142159  0.94189539  0.00000000  1.0
  C  C6  1  0.56857841  0.44189539  0.00000000  1.0
  C  C7  1  0.06857841  0.05810461  0.00000000  1.0
  O  O8  1  0.23476590  0.54602842  0.00000000  1.0
  O  O9  1  0.73476590  0.95397158  -0.00000000  1.0
  O  O10  1  0.76523410  0.45397158  0.00000000  1.0
  O  O11  1  0.26523410  0.04602842  -0.00000000  1.0
  O  O12  1  0.03008652  0.84604227  0.00000000  1.0
  O  O13  1  0.53008652  0.65395773  -0.00000000  1.0
  O  O14  1  0.96991348  0.15395773  0.00000000  1.0
  O  O15  1  0.46991348  0.34604227  -0.00000000  1.0
