# generated using pymatgen
data_Gd3SiBr3
_symmetry_space_group_name_H-M   'P 1'
_cell_length_a   10.19815015
_cell_length_b   10.19815015
_cell_length_c   10.19815015
_cell_angle_alpha   109.47122063
_cell_angle_beta   109.47122063
_cell_angle_gamma   109.47122063
_symmetry_Int_Tables_number   1
_chemical_formula_structural   Gd3SiBr3
_chemical_formula_sum   'Gd12 Si4 Br12'
_cell_volume   816.47391549
_cell_formula_units_Z   4
loop_
 _symmetry_equiv_pos_site_id
 _symmetry_equiv_pos_as_xyz
  1  'x, y, z'
loop_
 _atom_site_type_symbol
 _atom_site_label
 _atom_site_symmetry_multiplicity
 _atom_site_fract_x
 _atom_site_fract_y
 _atom_site_fract_z
 _atom_site_occupancy
  Gd  Gd0  1  1.75000000  1.23835180  1.26164820  1.0
  Gd  Gd1  1  0.75000000  1.01164820  0.48835180  1.0
  Gd  Gd2  1  1.02329641  0.26164820  1.01164820  1.0
  Gd  Gd3  1  0.47670359  0.48835180  0.23835180  1.0
  Gd  Gd4  1  1.26164820  1.01164820  1.02329641  1.0
  Gd  Gd5  1  1.23835180  1.26164820  0.75000000  1.0
  Gd  Gd6  1  1.01164820  1.02329641  0.26164820  1.0
  Gd  Gd7  1  1.48835180  0.75000000  1.01164820  1.0
  Gd  Gd8  1  1.01164820  1.48835180  0.75000000  1.0
  Gd  Gd9  1  1.48835180  1.23835180  1.47670359  1.0
  Gd  Gd10  1  0.23835180  0.47670359  0.48835180  1.0
  Gd  Gd11  1  1.26164820  0.75000000  1.23835180  1.0
  Si  Si12  1  1.50000000  1.00000000  1.25000000  1.0
  Si  Si13  1  1.00000000  1.25000000  0.50000000  1.0
  Si  Si14  1  0.25000000  0.25000000  0.25000000  1.0
  Si  Si15  1  1.25000000  0.50000000  1.00000000  1.0
  Br  Br16  1  0.50966222  0.50483111  0.75483111  1.0
  Br  Br17  1  0.99033778  0.74516889  0.99516889  1.0
  Br  Br18  1  1.25000000  0.75483111  0.74516889  1.0
  Br  Br19  1  1.25000000  0.99516889  0.50483111  1.0
  Br  Br20  1  0.99516889  1.50483111  1.25000000  1.0
  Br  Br21  1  1.50483111  1.75483111  1.50966222  1.0
  Br  Br22  1  0.74516889  0.25000000  0.75483111  1.0
  Br  Br23  1  0.75483111  0.50966222  0.50483111  1.0
  Br  Br24  1  0.99516889  0.99033778  0.74516889  1.0
  Br  Br25  1  1.50483111  1.25000000  0.99516889  1.0
  Br  Br26  1  0.75483111  0.74516889  0.25000000  1.0
  Br  Br27  1  1.74516889  0.99516889  0.99033778  1.0
