# generated using pymatgen
data_LiAlH4
_symmetry_space_group_name_H-M   'P 1'
_cell_length_a   6.46334889
_cell_length_b   5.44892361
_cell_length_c   6.61775680
_cell_angle_alpha   90.00000000
_cell_angle_beta   90.00000000
_cell_angle_gamma   90.00000000
_symmetry_Int_Tables_number   1
_chemical_formula_structural   LiAlH4
_chemical_formula_sum   'Li4 Al4 H16'
_cell_volume   233.06610694
_cell_formula_units_Z   4
loop_
 _symmetry_equiv_pos_site_id
 _symmetry_equiv_pos_as_xyz
  1  'x, y, z'
loop_
 _atom_site_type_symbol
 _atom_site_label
 _atom_site_symmetry_multiplicity
 _atom_site_fract_x
 _atom_site_fract_y
 _atom_site_fract_z
 _atom_site_occupancy
  Li  Li0  1  0.24929622  0.25000000  0.75064761  1.0
  Li  Li1  1  0.74929622  0.25000000  0.74935239  1.0
  Li  Li2  1  0.75070378  0.75000000  0.24935239  1.0
  Li  Li3  1  0.25070378  0.75000000  0.25064761  1.0
  Al  Al4  1  0.50033465  0.25000000  0.18497286  1.0
  Al  Al5  1  0.00033465  0.25000000  0.31502714  1.0
  Al  Al6  1  0.49966535  0.75000000  0.81502714  1.0
  Al  Al7  1  0.99966535  0.75000000  0.68497286  1.0
  H  H8  1  0.29229877  0.25000000  0.04254077  1.0
  H  H9  1  0.79229877  0.25000000  0.45745923  1.0
  H  H10  1  0.70770123  0.75000000  0.95745923  1.0
  H  H11  1  0.20770123  0.75000000  0.54254077  1.0
  H  H12  1  0.70762646  0.25000000  0.04160381  1.0
  H  H13  1  0.20762646  0.25000000  0.45839619  1.0
  H  H14  1  0.29237354  0.75000000  0.95839619  1.0
  H  H15  1  0.79237354  0.75000000  0.54160381  1.0
  H  H16  1  0.49957094  1.01902942  0.70315909  1.0
  H  H17  1  0.99957094  0.48097058  0.79684091  1.0
  H  H18  1  0.50042906  0.51902942  0.29684091  1.0
  H  H19  1  0.00042906  -0.01902942  0.20315909  1.0
  H  H20  1  0.50042906  -0.01902942  0.29684091  1.0
  H  H21  1  0.00042906  0.51902942  0.20315909  1.0
  H  H22  1  0.49957094  0.48097058  0.70315909  1.0
  H  H23  1  0.99957094  1.01902942  0.79684091  1.0
