# generated using pymatgen
data_Ti4Bi2O11
_symmetry_space_group_name_H-M   'P 1'
_cell_length_a   7.69452620
_cell_length_b   7.69452620
_cell_length_c   10.31616508
_cell_angle_alpha   48.71428038
_cell_angle_beta   131.28571962
_cell_angle_gamma   151.48166520
_symmetry_Int_Tables_number   1
_chemical_formula_structural   Ti4Bi2O11
_chemical_formula_sum   'Ti4 Bi2 O11'
_cell_volume   213.59772922
_cell_formula_units_Z   1
loop_
 _symmetry_equiv_pos_site_id
 _symmetry_equiv_pos_as_xyz
  1  'x, y, z'
loop_
 _atom_site_type_symbol
 _atom_site_label
 _atom_site_symmetry_multiplicity
 _atom_site_fract_x
 _atom_site_fract_y
 _atom_site_fract_z
 _atom_site_occupancy
  Ti  Ti0  1  0.88056193  -0.88056193  0.46660342  1.0
  Ti  Ti1  1  0.11943807  -0.11943807  0.53339658  1.0
  Ti  Ti2  1  0.84020380  0.15979620  0.78104738  1.0
  Ti  Ti3  1  1.15979620  -0.15979620  0.21895262  1.0
  Bi  Bi4  1  0.61108591  0.38891409  0.85826709  1.0
  Bi  Bi5  1  1.38891409  -0.38891409  0.14173291  1.0
  O  O6  1  0.93688054  -0.93688054  0.33400675  1.0
  O  O7  1  0.06311946  -0.06311946  0.66599325  1.0
  O  O8  1  0.87805420  -0.87805420  0.64810662  1.0
  O  O9  1  0.12194580  -0.12194580  0.35189338  1.0
  O  O10  1  0.79221401  0.20778599  0.95086816  1.0
  O  O11  1  1.20778599  -0.20778599  0.04913184  1.0
  O  O12  1  0.64689166  0.35310834  0.57078029  1.0
  O  O13  1  1.35310834  -0.35310834  0.42921971  1.0
  O  O14  1  0.29959452  -0.29959452  0.75719567  1.0
  O  O15  1  0.70040548  -0.70040548  0.24280433  1.0
  O  O16  1  0.00000000  0.00000000  0.00000000  1.0
