# generated using pymatgen
data_Cs(MoSe)3
_symmetry_space_group_name_H-M   'P 1'
_cell_length_a   9.82038619
_cell_length_b   9.82038619
_cell_length_c   4.51985335
_cell_angle_alpha   90.00000000
_cell_angle_beta   90.00000000
_cell_angle_gamma   120.00000000
_symmetry_Int_Tables_number   1
_chemical_formula_structural   Cs(MoSe)3
_chemical_formula_sum   'Cs2 Mo6 Se6'
_cell_volume   377.49578688
_cell_formula_units_Z   2
loop_
 _symmetry_equiv_pos_site_id
 _symmetry_equiv_pos_as_xyz
  1  'x, y, z'
loop_
 _atom_site_type_symbol
 _atom_site_label
 _atom_site_symmetry_multiplicity
 _atom_site_fract_x
 _atom_site_fract_y
 _atom_site_fract_z
 _atom_site_occupancy
  Cs  Cs0  1  0.33333333  0.66666667  0.25000000  1.0
  Cs  Cs1  1  0.66666667  0.33333333  0.75000000  1.0
  Mo  Mo2  1  0.02448973  0.85750439  0.25000000  1.0
  Mo  Mo3  1  0.85750439  0.83301466  0.75000000  1.0
  Mo  Mo4  1  0.83301466  0.97551027  0.25000000  1.0
  Mo  Mo5  1  0.14249561  0.16698534  0.25000000  1.0
  Mo  Mo6  1  0.97551027  0.14249561  0.75000000  1.0
  Mo  Mo7  1  0.16698534  0.02448973  0.75000000  1.0
  Se  Se8  1  0.71823884  0.66859806  0.25000000  1.0
  Se  Se9  1  0.66859806  0.95035922  0.75000000  1.0
  Se  Se10  1  0.95035922  0.28176116  0.25000000  1.0
  Se  Se11  1  0.33140194  0.04964078  0.25000000  1.0
  Se  Se12  1  0.28176116  0.33140194  0.75000000  1.0
  Se  Se13  1  0.04964078  0.71823884  0.75000000  1.0
