# generated using pymatgen
data_SrGaH5
_symmetry_space_group_name_H-M   'P 1'
_cell_length_a   8.63124454
_cell_length_b   4.71655619
_cell_length_c   8.82118920
_cell_angle_alpha   90.00000000
_cell_angle_beta   90.00000000
_cell_angle_gamma   90.00000000
_symmetry_Int_Tables_number   1
_chemical_formula_structural   SrGaH5
_chemical_formula_sum   'Sr4 Ga4 H20'
_cell_volume   359.10840559
_cell_formula_units_Z   4
loop_
 _symmetry_equiv_pos_site_id
 _symmetry_equiv_pos_as_xyz
  1  'x, y, z'
loop_
 _atom_site_type_symbol
 _atom_site_label
 _atom_site_symmetry_multiplicity
 _atom_site_fract_x
 _atom_site_fract_y
 _atom_site_fract_z
 _atom_site_occupancy
  Sr  Sr0  1  0.49372323  0.75000000  0.31723644  1.0
  Sr  Sr1  1  0.50627677  0.25000000  0.68276356  1.0
  Sr  Sr2  1  0.00627677  0.25000000  0.81723644  1.0
  Sr  Sr3  1  0.99372323  0.75000000  0.18276356  1.0
  Ga  Ga4  1  0.33391281  0.75000000  0.91528923  1.0
  Ga  Ga5  1  0.66608719  0.25000000  0.08471077  1.0
  Ga  Ga6  1  0.16608719  0.25000000  0.41528923  1.0
  Ga  Ga7  1  0.83391281  0.75000000  0.58471077  1.0
  H  H8  1  0.77388758  0.02616411  0.67149754  1.0
  H  H9  1  0.22611242  0.52616411  0.32850246  1.0
  H  H10  1  0.72611242  0.52616411  0.17149754  1.0
  H  H11  1  0.27388758  0.02616411  0.82850246  1.0
  H  H12  1  0.51914718  0.75000000  0.90154463  1.0
  H  H13  1  0.48085282  0.25000000  0.09845537  1.0
  H  H14  1  0.98085282  0.25000000  0.40154463  1.0
  H  H15  1  0.01914718  0.75000000  0.59845537  1.0
  H  H16  1  0.48014687  0.75000000  0.58773948  1.0
  H  H17  1  0.51985313  0.25000000  0.41226052  1.0
  H  H18  1  0.01985313  0.25000000  0.08773948  1.0
  H  H19  1  0.98014687  0.75000000  0.91226052  1.0
  H  H20  1  0.72611242  0.97383589  0.17149754  1.0
  H  H21  1  0.27388758  0.47383589  0.82850246  1.0
  H  H22  1  0.77388758  0.47383589  0.67149754  1.0
  H  H23  1  0.22611242  0.97383589  0.32850246  1.0
  H  H24  1  0.28285540  0.75000000  0.08991014  1.0
  H  H25  1  0.71714460  0.25000000  0.91008986  1.0
  H  H26  1  0.21714460  0.25000000  0.58991014  1.0
  H  H27  1  0.78285540  0.75000000  0.41008986  1.0
