# generated using pymatgen
data_Rb3Ta2AsS11
_symmetry_space_group_name_H-M   'P 1'
_cell_length_a   9.98007732
_cell_length_b   9.98007732
_cell_length_c   9.84486735
_cell_angle_alpha   84.15267881
_cell_angle_beta   95.84732119
_cell_angle_gamma   95.49272565
_symmetry_Int_Tables_number   1
_chemical_formula_structural   Rb3Ta2AsS11
_chemical_formula_sum   'Rb6 Ta4 As2 S22'
_cell_volume   966.77558991
_cell_formula_units_Z   2
loop_
 _symmetry_equiv_pos_site_id
 _symmetry_equiv_pos_as_xyz
  1  'x, y, z'
loop_
 _atom_site_type_symbol
 _atom_site_label
 _atom_site_symmetry_multiplicity
 _atom_site_fract_x
 _atom_site_fract_y
 _atom_site_fract_z
 _atom_site_occupancy
  Rb  Rb0  1  0.89959333  -0.07763599  0.42787733  1.0
  Rb  Rb1  1  1.07763599  0.10040667  0.92787733  1.0
  Rb  Rb2  1  1.30051055  0.56749888  0.16900085  1.0
  Rb  Rb3  1  0.43250112  -0.30051055  0.66900085  1.0
  Rb  Rb4  1  1.54296209  0.31193606  0.82592749  1.0
  Rb  Rb5  1  0.68806394  -0.54296209  0.32592749  1.0
  Ta  Ta6  1  0.45946413  -0.04869497  0.26407954  1.0
  Ta  Ta7  1  1.04869497  0.54053587  0.76407954  1.0
  Ta  Ta8  1  1.33705930  0.20311793  0.44452284  1.0
  Ta  Ta9  1  0.79688207  -0.33705930  0.94452284  1.0
  As  As10  1  1.67163733  0.00738459  1.00640799  1.0
  As  As11  1  0.99261541  -0.67163733  0.50640799  1.0
  S  S12  1  1.41905539  0.41060815  0.49681520  1.0
  S  S13  1  0.58939185  -0.41905539  -0.00318480  1.0
  S  S14  1  0.82348680  -0.14448751  0.09197836  1.0
  S  S15  1  1.14448751  0.17651320  0.59197836  1.0
  S  S16  1  0.56189284  -0.23296940  0.35064693  1.0
  S  S17  1  1.23296940  0.43810716  0.85064693  1.0
  S  S18  1  1.66019023  0.11523908  0.20129586  1.0
  S  S19  1  0.88476092  -0.66019023  0.70129586  1.0
  S  S20  1  0.45661997  -0.08353166  0.01646105  1.0
  S  S21  1  1.08353166  0.54338003  0.51646105  1.0
  S  S22  1  1.55598823  0.09157808  0.47229292  1.0
  S  S23  1  0.90842192  -0.55598823  0.97229292  1.0
  S  S24  1  0.94832422  -0.43584354  0.13683917  1.0
  S  S25  1  1.43584354  0.05167578  0.63683917  1.0
  S  S26  1  0.26929683  -0.07052204  0.40872614  1.0
  S  S27  1  1.07052204  0.73070317  0.90872614  1.0
  S  S28  1  0.21802450  -0.11685983  0.20706222  1.0
  S  S29  1  1.11685983  0.78197550  0.70706222  1.0
  S  S30  1  1.36948128  0.21488578  0.19655696  1.0
  S  S31  1  0.78511422  -0.36948128  0.69655696  1.0
  S  S32  1  1.17109996  0.23378337  0.24480915  1.0
  S  S33  1  0.76621663  -0.17109996  0.74480915  1.0
