# generated using pymatgen
data_YMnSi
_symmetry_space_group_name_H-M   'P 1'
_cell_length_a   6.96613396
_cell_length_b   4.07629671
_cell_length_c   7.67942293
_cell_angle_alpha   90.00000000
_cell_angle_beta   90.00000000
_cell_angle_gamma   90.00000000
_symmetry_Int_Tables_number   1
_chemical_formula_structural   YMnSi
_chemical_formula_sum   'Y4 Mn4 Si4'
_cell_volume   218.06511549
_cell_formula_units_Z   4
loop_
 _symmetry_equiv_pos_site_id
 _symmetry_equiv_pos_as_xyz
  1  'x, y, z'
loop_
 _atom_site_type_symbol
 _atom_site_label
 _atom_site_symmetry_multiplicity
 _atom_site_fract_x
 _atom_site_fract_y
 _atom_site_fract_z
 _atom_site_occupancy
  Y  Y0  1  0.98666259  0.75000000  0.68490318  1.0
  Y  Y1  1  0.48666259  0.75000000  0.81509682  1.0
  Y  Y2  1  0.01333741  0.25000000  0.31509682  1.0
  Y  Y3  1  0.51333741  0.25000000  0.18490318  1.0
  Mn  Mn4  1  0.86254120  0.75000000  0.05780921  1.0
  Mn  Mn5  1  0.36254120  0.75000000  0.44219079  1.0
  Mn  Mn6  1  0.13745880  0.25000000  0.94219079  1.0
  Mn  Mn7  1  0.63745880  0.25000000  0.55780921  1.0
  Si  Si8  1  0.71312449  0.75000000  0.38979024  1.0
  Si  Si9  1  0.21312449  0.75000000  0.11020976  1.0
  Si  Si10  1  0.28687551  0.25000000  0.61020976  1.0
  Si  Si11  1  0.78687551  0.25000000  0.88979024  1.0
