# generated using pymatgen
data_KRhF6
_symmetry_space_group_name_H-M   'P 1'
_cell_length_a   5.11322183
_cell_length_b   5.11322183
_cell_length_c   5.11322183
_cell_angle_alpha   97.91751577
_cell_angle_beta   97.91751577
_cell_angle_gamma   97.91751577
_symmetry_Int_Tables_number   1
_chemical_formula_structural   KRhF6
_chemical_formula_sum   'K1 Rh1 F6'
_cell_volume   129.46444668
_cell_formula_units_Z   1
loop_
 _symmetry_equiv_pos_site_id
 _symmetry_equiv_pos_as_xyz
  1  'x, y, z'
loop_
 _atom_site_type_symbol
 _atom_site_label
 _atom_site_symmetry_multiplicity
 _atom_site_fract_x
 _atom_site_fract_y
 _atom_site_fract_z
 _atom_site_occupancy
  K  K0  1  0.50000000  0.50000000  0.50000000  1.0
  Rh  Rh1  1  0.00000000  0.00000000  0.00000000  1.0
  F  F2  1  0.75711692  0.71919299  0.08007814  1.0
  F  F3  1  1.28080701  -0.08007814  0.24288308  1.0
  F  F4  1  0.91992186  0.24288308  0.28080701  1.0
  F  F5  1  1.24288308  0.28080701  -0.08007814  1.0
  F  F6  1  0.71919299  1.08007814  -0.24288308  1.0
  F  F7  1  1.08007814  0.75711692  -0.28080701  1.0
