# generated using pymatgen
data_Ba3LiIr2O9
_symmetry_space_group_name_H-M   'P 1'
_cell_length_a   5.84212279
_cell_length_b   5.84212279
_cell_length_c   14.49476783
_cell_angle_alpha   90.00000000
_cell_angle_beta   90.00000000
_cell_angle_gamma   120.00000000
_symmetry_Int_Tables_number   1
_chemical_formula_structural   Ba3LiIr2O9
_chemical_formula_sum   'Ba6 Li2 Ir4 O18'
_cell_volume   428.43333650
_cell_formula_units_Z   2
loop_
 _symmetry_equiv_pos_site_id
 _symmetry_equiv_pos_as_xyz
  1  'x, y, z'
loop_
 _atom_site_type_symbol
 _atom_site_label
 _atom_site_symmetry_multiplicity
 _atom_site_fract_x
 _atom_site_fract_y
 _atom_site_fract_z
 _atom_site_occupancy
  O  O0  1  0.51546012  0.48453988  0.25000000  1.0
  O  O1  1  0.51546012  0.03092025  0.25000000  1.0
  O  O2  1  0.48453988  0.51546012  0.75000000  1.0
  O  O3  1  0.48453988  0.96907975  0.75000000  1.0
  O  O4  1  0.96907975  0.48453988  0.25000000  1.0
  O  O5  1  0.03092025  0.51546012  0.75000000  1.0
  O  O6  1  0.17362391  0.82637609  0.91522749  1.0
  O  O7  1  0.17362391  0.82637609  0.58477251  1.0
  O  O8  1  0.17362391  0.34724782  0.91522749  1.0
  O  O9  1  0.17362391  0.34724782  0.58477251  1.0
  O  O10  1  0.82637609  0.17362391  0.41522749  1.0
  O  O11  1  0.82637609  0.17362391  0.08477251  1.0
  O  O12  1  0.82637609  0.65275218  0.41522749  1.0
  O  O13  1  0.82637609  0.65275218  0.08477251  1.0
  O  O14  1  0.65275218  0.82637609  0.91522749  1.0
  O  O15  1  0.65275218  0.82637609  0.58477251  1.0
  O  O16  1  0.34724782  0.17362391  0.41522749  1.0
  O  O17  1  0.34724782  0.17362391  0.08477251  1.0
  Ir  Ir18  1  0.33333333  0.66666667  0.84509103  1.0
  Ir  Ir19  1  0.33333333  0.66666667  0.65490897  1.0
  Ir  Ir20  1  0.66666667  0.33333333  0.34509103  1.0
  Ir  Ir21  1  0.66666667  0.33333333  0.15490897  1.0
  Ba  Ba22  1  0.33333333  0.66666667  0.41620120  1.0
  Ba  Ba23  1  0.33333333  0.66666667  0.08379880  1.0
  Ba  Ba24  1  0.66666667  0.33333333  0.91620120  1.0
  Ba  Ba25  1  0.66666667  0.33333333  0.58379880  1.0
  Ba  Ba26  1  0.00000000  -0.00000000  0.25000000  1.0
  Ba  Ba27  1  0.00000000  -0.00000000  0.75000000  1.0
  Li  Li28  1  -0.00000000  0.00000000  0.50000000  1.0
  Li  Li29  1  -0.00000000  0.00000000  -0.00000000  1.0
