# generated using pymatgen
data_Ag3PSe4
_symmetry_space_group_name_H-M   'P 1'
_cell_length_a   8.15556975
_cell_length_b   7.26642751
_cell_length_c   6.90579599
_cell_angle_alpha   90.00000000
_cell_angle_beta   90.00000000
_cell_angle_gamma   90.00000000
_symmetry_Int_Tables_number   1
_chemical_formula_structural   Ag3PSe4
_chemical_formula_sum   'Ag6 P2 Se8'
_cell_volume   409.25029058
_cell_formula_units_Z   2
loop_
 _symmetry_equiv_pos_site_id
 _symmetry_equiv_pos_as_xyz
  1  'x, y, z'
loop_
 _atom_site_type_symbol
 _atom_site_label
 _atom_site_symmetry_multiplicity
 _atom_site_fract_x
 _atom_site_fract_y
 _atom_site_fract_z
 _atom_site_occupancy
  Ag  Ag0  1  0.23143777  0.19484441  0.01865717  1.0
  Ag  Ag1  1  0.73143777  0.80515559  0.51865717  1.0
  Ag  Ag2  1  0.76856223  0.19484441  0.01865717  1.0
  Ag  Ag3  1  0.26856223  0.80515559  0.51865717  1.0
  Ag  Ag4  1  0.50000000  0.64380259  -0.03000840  1.0
  Ag  Ag5  1  0.00000000  0.35619741  0.46999160  1.0
  P  P6  1  0.50000000  0.31366737  0.49631197  1.0
  P  P7  1  0.00000000  0.68633263  -0.00368803  1.0
  Se  Se8  1  0.50000000  0.30605305  0.82293472  1.0
  Se  Se9  1  0.00000000  0.69394695  0.32293472  1.0
  Se  Se10  1  0.27308673  0.15929134  0.39484058  1.0
  Se  Se11  1  0.77308673  0.84070866  0.89484057  1.0
  Se  Se12  1  0.72691327  0.15929134  0.39484058  1.0
  Se  Se13  1  0.22691327  0.84070866  0.89484057  1.0
  Se  Se14  1  0.50000000  0.59801006  0.36496621  1.0
  Se  Se15  1  0.00000000  0.40198994  0.86496621  1.0
