# generated using pymatgen
data_SrMg2Pd
_symmetry_space_group_name_H-M   'P 1'
_cell_length_a   6.06433023
_cell_length_b   6.06433023
_cell_length_c   8.24191021
_cell_angle_alpha   90.00000000
_cell_angle_beta   90.00000000
_cell_angle_gamma   137.67989640
_symmetry_Int_Tables_number   1
_chemical_formula_structural   SrMg2Pd
_chemical_formula_sum   'Sr2 Mg4 Pd2'
_cell_volume   204.07232428
_cell_formula_units_Z   2
loop_
 _symmetry_equiv_pos_site_id
 _symmetry_equiv_pos_as_xyz
  1  'x, y, z'
loop_
 _atom_site_type_symbol
 _atom_site_label
 _atom_site_symmetry_multiplicity
 _atom_site_fract_x
 _atom_site_fract_y
 _atom_site_fract_z
 _atom_site_occupancy
  Sr  Sr0  1  0.44633489  0.55366511  0.75000000  1.0
  Sr  Sr1  1  -0.44633489  0.44633489  0.25000000  1.0
  Mg  Mg2  1  0.16436115  0.83563885  0.94052024  1.0
  Mg  Mg3  1  0.16436115  0.83563885  0.55947976  1.0
  Mg  Mg4  1  -0.16436115  0.16436115  0.44052024  1.0
  Mg  Mg5  1  -0.16436115  0.16436115  0.05947976  1.0
  Pd  Pd6  1  -0.27134467  0.27134467  0.75000000  1.0
  Pd  Pd7  1  0.27134467  0.72865533  0.25000000  1.0
