# generated using pymatgen
data_LiNb3Cl8
_symmetry_space_group_name_H-M   'P 1'
_cell_length_a   9.34302812
_cell_length_b   9.34302812
_cell_length_c   13.59982473
_cell_angle_alpha   90.00000000
_cell_angle_beta   90.00000000
_cell_angle_gamma   91.85207043
_symmetry_Int_Tables_number   1
_chemical_formula_structural   LiNb3Cl8
_chemical_formula_sum   'Li4 Nb12 Cl32'
_cell_volume   1186.53810245
_cell_formula_units_Z   4
loop_
 _symmetry_equiv_pos_site_id
 _symmetry_equiv_pos_as_xyz
  1  'x, y, z'
loop_
 _atom_site_type_symbol
 _atom_site_label
 _atom_site_symmetry_multiplicity
 _atom_site_fract_x
 _atom_site_fract_y
 _atom_site_fract_z
 _atom_site_occupancy
  Li  Li0  1  -0.41857912  1.41857912  0.41486998  1.0
  Li  Li1  1  0.08142088  0.91857912  0.08513002  1.0
  Li  Li2  1  0.41857912  0.58142088  0.58513002  1.0
  Li  Li3  1  -0.08142088  1.08142088  0.91486998  1.0
  Nb  Nb4  1  -0.41004587  1.41004587  0.12238890  1.0
  Nb  Nb5  1  0.08995413  0.91004587  0.37761110  1.0
  Nb  Nb6  1  0.41004587  0.58995413  0.87761110  1.0
  Nb  Nb7  1  -0.08995413  1.08995413  0.62238890  1.0
  Nb  Nb8  1  -0.12422927  1.12422927  0.41076793  1.0
  Nb  Nb9  1  0.37577073  0.62422927  0.08923207  1.0
  Nb  Nb10  1  0.12422927  0.87577073  0.58923207  1.0
  Nb  Nb11  1  -0.37577073  1.37577073  0.91076793  1.0
  Nb  Nb12  1  0.15965594  1.15965594  0.50000000  1.0
  Nb  Nb13  1  -0.34034406  0.65965594  0.00000000  1.0
  Nb  Nb14  1  -0.15965594  0.84034406  0.50000000  1.0
  Nb  Nb15  1  0.34034406  1.34034406  0.00000000  1.0
  Cl  Cl16  1  -0.33270046  0.95936737  0.39346900  1.0
  Cl  Cl17  1  0.16729954  1.45936737  0.10653100  1.0
  Cl  Cl18  1  -0.04063263  0.66729954  0.60653100  1.0
  Cl  Cl19  1  0.45936737  1.16729954  0.89346900  1.0
  Cl  Cl20  1  0.04063263  1.33270046  0.39346900  1.0
  Cl  Cl21  1  -0.45936737  0.83270046  0.10653100  1.0
  Cl  Cl22  1  0.33270046  1.04063263  0.60653100  1.0
  Cl  Cl23  1  -0.16729954  0.54063263  0.89346900  1.0
  Cl  Cl24  1  0.29465306  1.07799273  0.35693216  1.0
  Cl  Cl25  1  -0.20534694  0.57799273  0.14306784  1.0
  Cl  Cl26  1  0.07799273  1.29465306  0.64306784  1.0
  Cl  Cl27  1  -0.42200727  0.79465306  0.85693216  1.0
  Cl  Cl28  1  -0.07799273  0.70534694  0.35693216  1.0
  Cl  Cl29  1  0.42200727  1.20534694  0.14306784  1.0
  Cl  Cl30  1  -0.29465306  0.92200727  0.64306784  1.0
  Cl  Cl31  1  0.20534694  1.42200727  0.85693216  1.0
  Cl  Cl32  1  -0.29502988  1.29502988  0.29437461  1.0
  Cl  Cl33  1  0.20497012  0.79502988  0.20562539  1.0
  Cl  Cl34  1  0.29502988  0.70497012  0.70562539  1.0
  Cl  Cl35  1  -0.20497012  1.20497012  0.79437461  1.0
  Cl  Cl36  1  -0.24598958  1.24598958  0.04033567  1.0
  Cl  Cl37  1  0.25401042  0.74598958  0.45966433  1.0
  Cl  Cl38  1  0.24598958  0.75401042  0.95966433  1.0
  Cl  Cl39  1  -0.25401042  1.25401042  0.54033567  1.0
  Cl  Cl40  1  -0.04087363  1.04087363  0.24889747  1.0
  Cl  Cl41  1  0.45912637  0.54087363  0.25110253  1.0
  Cl  Cl42  1  0.04087363  0.95912637  0.75110253  1.0
  Cl  Cl43  1  -0.45912637  1.45912637  0.74889747  1.0
  Cl  Cl44  1  0.36525185  1.36525185  0.50000000  1.0
  Cl  Cl45  1  -0.13474815  0.86525185  0.00000000  1.0
  Cl  Cl46  1  -0.36525185  0.63474815  0.50000000  1.0
  Cl  Cl47  1  0.13474815  1.13474815  0.00000000  1.0
