# generated using pymatgen
data_K3Mg18Pb11
_symmetry_space_group_name_H-M   'P 1'
_cell_length_a   12.10455735
_cell_length_b   12.10455735
_cell_length_c   14.09726183
_cell_angle_alpha   90.00000000
_cell_angle_beta   90.00000000
_cell_angle_gamma   120.00000000
_symmetry_Int_Tables_number   1
_chemical_formula_structural   K3Mg18Pb11
_chemical_formula_sum   'K6 Mg36 Pb22'
_cell_volume   1788.80591531
_cell_formula_units_Z   2
loop_
 _symmetry_equiv_pos_site_id
 _symmetry_equiv_pos_as_xyz
  1  'x, y, z'
loop_
 _atom_site_type_symbol
 _atom_site_label
 _atom_site_symmetry_multiplicity
 _atom_site_fract_x
 _atom_site_fract_y
 _atom_site_fract_z
 _atom_site_occupancy
  K  K0  1  0.33333333  0.66666667  0.91881774  1.0
  K  K1  1  0.66666667  0.33333333  0.41881774  1.0
  K  K2  1  0.66666667  0.33333333  0.08118226  1.0
  K  K3  1  0.33333333  0.66666667  0.58118226  1.0
  K  K4  1  0.66666667  0.33333333  0.75000000  1.0
  K  K5  1  0.33333333  0.66666667  0.25000000  1.0
  Mg  Mg6  1  0.89611031  0.75049484  0.75000000  1.0
  Mg  Mg7  1  0.85438453  0.10388969  0.75000000  1.0
  Mg  Mg8  1  0.24950516  0.14561547  0.75000000  1.0
  Mg  Mg9  1  0.10388969  0.24950516  0.25000000  1.0
  Mg  Mg10  1  0.14561547  0.89611031  0.25000000  1.0
  Mg  Mg11  1  0.75049484  0.85438453  0.25000000  1.0
  Mg  Mg12  1  0.15038080  0.87790363  0.91676501  1.0
  Mg  Mg13  1  0.72752283  0.84961920  0.91676501  1.0
  Mg  Mg14  1  0.12209637  0.27247717  0.91676501  1.0
  Mg  Mg15  1  0.84961920  0.12209637  0.41676501  1.0
  Mg  Mg16  1  0.27247717  0.15038080  0.41676501  1.0
  Mg  Mg17  1  0.87790363  0.72752283  0.41676501  1.0
  Mg  Mg18  1  0.84961920  0.12209637  0.08323499  1.0
  Mg  Mg19  1  0.27247717  0.15038080  0.08323499  1.0
  Mg  Mg20  1  0.87790363  0.72752283  0.08323499  1.0
  Mg  Mg21  1  0.15038080  0.87790363  0.58323499  1.0
  Mg  Mg22  1  0.72752283  0.84961920  0.58323499  1.0
  Mg  Mg23  1  0.12209637  0.27247717  0.58323499  1.0
  Mg  Mg24  1  0.37273820  0.94487692  0.75000000  1.0
  Mg  Mg25  1  0.57213872  0.62726180  0.75000000  1.0
  Mg  Mg26  1  0.05512308  0.42786128  0.75000000  1.0
  Mg  Mg27  1  0.62726180  0.05512308  0.25000000  1.0
  Mg  Mg28  1  0.42786128  0.37273820  0.25000000  1.0
  Mg  Mg29  1  0.94487692  0.57213872  0.25000000  1.0
  Mg  Mg30  1  0.94814466  0.57045904  0.91652289  1.0
  Mg  Mg31  1  0.62231438  0.05185534  0.91652289  1.0
  Mg  Mg32  1  0.42954096  0.37768562  0.91652289  1.0
  Mg  Mg33  1  0.05185534  0.42954096  0.41652289  1.0
  Mg  Mg34  1  0.37768562  0.94814466  0.41652289  1.0
  Mg  Mg35  1  0.57045904  0.62231438  0.41652289  1.0
  Mg  Mg36  1  0.05185534  0.42954096  0.08347711  1.0
  Mg  Mg37  1  0.37768562  0.94814466  0.08347711  1.0
  Mg  Mg38  1  0.57045904  0.62231438  0.08347711  1.0
  Mg  Mg39  1  0.94814466  0.57045904  0.58347711  1.0
  Mg  Mg40  1  0.62231438  0.05185534  0.58347711  1.0
  Mg  Mg41  1  0.42954096  0.37768562  0.58347711  1.0
  Pb  Pb42  1  -0.00000000  -0.00000000  0.86963849  1.0
  Pb  Pb43  1  -0.00000000  -0.00000000  0.36963849  1.0
  Pb  Pb44  1  0.00000000  0.00000000  0.13036151  1.0
  Pb  Pb45  1  0.00000000  0.00000000  0.63036151  1.0
  Pb  Pb46  1  0.70554461  0.58812277  0.91474477  1.0
  Pb  Pb47  1  0.88257817  0.29445539  0.91474477  1.0
  Pb  Pb48  1  0.41187723  0.11742183  0.91474477  1.0
  Pb  Pb49  1  0.29445539  0.41187723  0.41474477  1.0
  Pb  Pb50  1  0.11742183  0.70554461  0.41474477  1.0
  Pb  Pb51  1  0.58812277  0.88257817  0.41474477  1.0
  Pb  Pb52  1  0.29445539  0.41187723  0.08525523  1.0
  Pb  Pb53  1  0.11742183  0.70554461  0.08525523  1.0
  Pb  Pb54  1  0.58812277  0.88257817  0.08525523  1.0
  Pb  Pb55  1  0.70554461  0.58812277  0.58525523  1.0
  Pb  Pb56  1  0.88257817  0.29445539  0.58525523  1.0
  Pb  Pb57  1  0.41187723  0.11742183  0.58525523  1.0
  Pb  Pb58  1  0.11921686  0.69926448  0.75000000  1.0
  Pb  Pb59  1  0.58004763  0.88078314  0.75000000  1.0
  Pb  Pb60  1  0.30073552  0.41995237  0.75000000  1.0
  Pb  Pb61  1  0.88078314  0.30073552  0.25000000  1.0
  Pb  Pb62  1  0.41995237  0.11921686  0.25000000  1.0
  Pb  Pb63  1  0.69926448  0.58004763  0.25000000  1.0
