# generated using pymatgen
data_Zr6NiSb2
_symmetry_space_group_name_H-M   'P 1'
_cell_length_a   7.79803677
_cell_length_b   7.79803677
_cell_length_c   3.66188334
_cell_angle_alpha   90.00000000
_cell_angle_beta   90.00000000
_cell_angle_gamma   120.00000000
_symmetry_Int_Tables_number   1
_chemical_formula_structural   Zr6NiSb2
_chemical_formula_sum   'Zr6 Ni1 Sb2'
_cell_volume   192.84380545
_cell_formula_units_Z   1
loop_
 _symmetry_equiv_pos_site_id
 _symmetry_equiv_pos_as_xyz
  1  'x, y, z'
loop_
 _atom_site_type_symbol
 _atom_site_label
 _atom_site_symmetry_multiplicity
 _atom_site_fract_x
 _atom_site_fract_y
 _atom_site_fract_z
 _atom_site_occupancy
  Zr  Zr0  1  0.75835927  0.75835927  0.50000000  1.0
  Zr  Zr1  1  -0.00000000  0.24164073  0.50000000  1.0
  Zr  Zr2  1  0.24164073  0.00000000  0.50000000  1.0
  Zr  Zr3  1  0.40214951  0.40214951  0.00000000  1.0
  Zr  Zr4  1  0.00000000  0.59785049  0.00000000  1.0
  Zr  Zr5  1  0.59785049  0.00000000  0.00000000  1.0
  Ni  Ni6  1  0.00000000  0.00000000  0.00000000  1.0
  Sb  Sb7  1  0.33333333  0.66666667  0.50000000  1.0
  Sb  Sb8  1  0.66666667  0.33333333  0.50000000  1.0
