# generated using pymatgen
data_Rb2CoCl4
_symmetry_space_group_name_H-M   'P 1'
_cell_length_a   9.41949196
_cell_length_b   7.31185062
_cell_length_c   13.04844253
_cell_angle_alpha   90.00000000
_cell_angle_beta   90.00000000
_cell_angle_gamma   90.00000000
_symmetry_Int_Tables_number   1
_chemical_formula_structural   Rb2CoCl4
_chemical_formula_sum   'Rb8 Co4 Cl16'
_cell_volume   898.69736241
_cell_formula_units_Z   4
loop_
 _symmetry_equiv_pos_site_id
 _symmetry_equiv_pos_as_xyz
  1  'x, y, z'
loop_
 _atom_site_type_symbol
 _atom_site_label
 _atom_site_symmetry_multiplicity
 _atom_site_fract_x
 _atom_site_fract_y
 _atom_site_fract_z
 _atom_site_occupancy
  Rb  Rb0  1  0.86868676  0.75000000  0.42318050  1.0
  Rb  Rb1  1  0.36868676  0.75000000  0.07681950  1.0
  Rb  Rb2  1  0.13131324  0.25000000  0.57681950  1.0
  Rb  Rb3  1  0.63131324  0.25000000  0.92318050  1.0
  Rb  Rb4  1  0.51729869  0.75000000  0.67728907  1.0
  Rb  Rb5  1  0.01729869  0.75000000  0.82271093  1.0
  Rb  Rb6  1  0.48270131  0.25000000  0.32271093  1.0
  Rb  Rb7  1  0.98270131  0.25000000  0.17728907  1.0
  Co  Co8  1  0.77322861  0.75000000  0.07444216  1.0
  Co  Co9  1  0.27322861  0.75000000  0.42555784  1.0
  Co  Co10  1  0.22677139  0.25000000  0.92555784  1.0
  Co  Co11  1  0.72677139  0.25000000  0.57444216  1.0
  Cl  Cl12  1  0.67929513  0.99988762  0.14934206  1.0
  Cl  Cl13  1  0.67929513  0.50011238  0.14934206  1.0
  Cl  Cl14  1  0.17929513  0.99988762  0.35065794  1.0
  Cl  Cl15  1  0.17929513  0.50011238  0.35065794  1.0
  Cl  Cl16  1  0.32070487  0.49988762  0.85065794  1.0
  Cl  Cl17  1  0.32070487  0.00011238  0.85065794  1.0
  Cl  Cl18  1  0.82070487  0.49988762  0.64934206  1.0
  Cl  Cl19  1  0.82070487  0.00011238  0.64934206  1.0
  Cl  Cl20  1  0.01131318  0.75000000  0.08522431  1.0
  Cl  Cl21  1  0.51131318  0.75000000  0.41477569  1.0
  Cl  Cl22  1  0.98868682  0.25000000  0.91477569  1.0
  Cl  Cl23  1  0.48868682  0.25000000  0.58522431  1.0
  Cl  Cl24  1  0.18743229  0.75000000  0.58804309  1.0
  Cl  Cl25  1  0.68743229  0.75000000  0.91195691  1.0
  Cl  Cl26  1  0.81256771  0.25000000  0.41195691  1.0
  Cl  Cl27  1  0.31256771  0.25000000  0.08804309  1.0
