# generated using pymatgen
data_K(CO)3
_symmetry_space_group_name_H-M   'P 1'
_cell_length_a   10.15265798
_cell_length_b   8.96480661
_cell_length_c   7.67141561
_cell_angle_alpha   74.76591101
_cell_angle_beta   58.42687130
_cell_angle_gamma   46.80721768
_symmetry_Int_Tables_number   1
_chemical_formula_structural   K(CO)3
_chemical_formula_sum   'K4 C12 O12'
_cell_volume   428.52408989
_cell_formula_units_Z   4
loop_
 _symmetry_equiv_pos_site_id
 _symmetry_equiv_pos_as_xyz
  1  'x, y, z'
loop_
 _atom_site_type_symbol
 _atom_site_label
 _atom_site_symmetry_multiplicity
 _atom_site_fract_x
 _atom_site_fract_y
 _atom_site_fract_z
 _atom_site_occupancy
  K  K0  1  0.14773010  0.85226990  0.14773010  1.0
  K  K1  1  0.85226990  0.14773010  0.85226990  1.0
  K  K2  1  0.10226990  0.39773010  0.10226990  1.0
  K  K3  1  0.39773010  0.10226990  0.39773010  1.0
  C  C4  1  0.84421272  -0.15578728  0.65578728  1.0
  C  C5  1  0.65578728  -0.34421272  0.84421272  1.0
  C  C6  1  0.40578728  0.40578728  0.59421272  1.0
  C  C7  1  0.59421272  0.59421272  0.40578728  1.0
  C  C8  1  -0.05913601  0.65271336  0.54609210  1.0
  C  C9  1  0.65271336  -0.05913601  0.86033054  1.0
  C  C10  1  0.86033054  -0.45390790  0.65271336  1.0
  C  C11  1  -0.45390790  0.86033054  0.94086399  1.0
  C  C12  1  0.30913601  0.59728664  -0.29609210  1.0
  C  C13  1  0.59728664  0.30913601  0.38966946  1.0
  C  C14  1  0.38966946  0.70390790  0.59728664  1.0
  C  C15  1  -0.29609210  1.38966946  0.30913601  1.0
  O  O16  1  -0.07657569  0.92342431  0.57657569  1.0
  O  O17  1  0.57657569  0.57657569  -0.07657569  1.0
  O  O18  1  0.32657569  0.32657569  -0.32657569  1.0
  O  O19  1  -0.32657569  0.67342431  0.32657569  1.0
  O  O20  1  0.09572355  0.57508235  0.36874472  1.0
  O  O21  1  0.57508235  0.09572355  -0.03955062  1.0
  O  O22  1  -0.03955062  0.36874472  0.57508235  1.0
  O  O23  1  0.36874472  -0.03955062  0.09572355  1.0
  O  O24  1  0.15427645  0.67491765  -0.11874472  1.0
  O  O25  1  0.67491765  0.15427645  1.28955062  1.0
  O  O26  1  1.28955062  -0.11874472  0.67491765  1.0
  O  O27  1  -0.11874472  1.28955062  0.15427645  1.0
