# generated using pymatgen
data_RbW3Br7
_symmetry_space_group_name_H-M   'P 1'
_cell_length_a   13.20203870
_cell_length_b   13.20203870
_cell_length_c   10.17661549
_cell_angle_alpha   70.03917939
_cell_angle_beta   109.96082061
_cell_angle_gamma   105.01158420
_symmetry_Int_Tables_number   1
_chemical_formula_structural   RbW3Br7
_chemical_formula_sum   'Rb4 W12 Br28'
_cell_volume   1546.50258442
_cell_formula_units_Z   4
loop_
 _symmetry_equiv_pos_site_id
 _symmetry_equiv_pos_as_xyz
  1  'x, y, z'
loop_
 _atom_site_type_symbol
 _atom_site_label
 _atom_site_symmetry_multiplicity
 _atom_site_fract_x
 _atom_site_fract_y
 _atom_site_fract_z
 _atom_site_occupancy
  Rb  Rb0  1  0.93092216  -0.06907784  0.75000000  1.0
  Rb  Rb1  1  1.06907784  0.06907784  0.25000000  1.0
  Rb  Rb2  1  0.50000000  -0.50000000  0.00000000  1.0
  Rb  Rb3  1  0.50000000  -0.50000000  0.50000000  1.0
  W  W4  1  0.56757985  -0.01569830  0.87435339  1.0
  W  W5  1  1.01569830  0.43242015  0.37435339  1.0
  W  W6  1  0.98430170  -0.43242015  0.62564661  1.0
  W  W7  1  1.43242015  0.01569830  0.12564661  1.0
  W  W8  1  1.54139119  0.15134990  0.94104740  1.0
  W  W9  1  0.84865010  -0.54139119  0.44104740  1.0
  W  W10  1  1.15134990  0.54139119  0.55895260  1.0
  W  W11  1  0.45860881  -0.15134990  0.05895260  1.0
  W  W12  1  1.36873858  0.01115826  0.85026138  1.0
  W  W13  1  0.98884174  -0.36873858  0.35026138  1.0
  W  W14  1  1.01115826  0.36873858  0.64973862  1.0
  W  W15  1  0.63126142  -0.01115826  0.14973862  1.0
  Br  Br16  1  0.81764180  -0.02667936  0.35832460  1.0
  Br  Br17  1  1.02667936  0.18235820  0.85832460  1.0
  Br  Br18  1  0.97332064  -0.18235820  0.14167540  1.0
  Br  Br19  1  1.18235820  0.02667936  0.64167540  1.0
  Br  Br20  1  0.66145554  -0.03936608  0.70084098  1.0
  Br  Br21  1  1.03936608  0.33854446  0.20084098  1.0
  Br  Br22  1  0.96063392  -0.33854446  0.79915902  1.0
  Br  Br23  1  1.33854446  0.03936608  0.29915902  1.0
  Br  Br24  1  1.74033984  0.12525413  0.96491644  1.0
  Br  Br25  1  0.87474587  -0.74033984  0.46491644  1.0
  Br  Br26  1  1.12525413  0.74033984  0.53508356  1.0
  Br  Br27  1  0.25966016  -0.12525413  0.03508356  1.0
  Br  Br28  1  0.39471269  -0.15583126  0.78353162  1.0
  Br  Br29  1  1.15583126  0.60528731  0.28353162  1.0
  Br  Br30  1  0.84416874  -0.60528731  0.71646838  1.0
  Br  Br31  1  1.60528731  0.15583126  0.21646838  1.0
  Br  Br32  1  1.47719416  0.14736293  0.66435612  1.0
  Br  Br33  1  0.85263707  -0.47719416  0.16435612  1.0
  Br  Br34  1  1.14736293  0.47719416  0.83564388  1.0
  Br  Br35  1  0.52280584  -0.14736293  0.33564388  1.0
  Br  Br36  1  1.60249911  0.36654654  0.85800452  1.0
  Br  Br37  1  0.63345346  -0.60249911  0.35800452  1.0
  Br  Br38  1  1.36654654  0.60249911  0.64199548  1.0
  Br  Br39  1  0.39750089  -0.36654654  0.14199548  1.0
  Br  Br40  1  1.34313221  0.17934014  0.91787063  1.0
  Br  Br41  1  0.82065986  -0.34313221  0.41787063  1.0
  Br  Br42  1  1.17934014  0.34313221  0.58212937  1.0
  Br  Br43  1  0.65686779  -0.17934014  0.08212937  1.0
