# generated using pymatgen
data_Ti3CuO8
_symmetry_space_group_name_H-M   'P 1'
_cell_length_a   3.80079353
_cell_length_b   3.80079353
_cell_length_c   9.54943681
_cell_angle_alpha   90.00000000
_cell_angle_beta   90.00000000
_cell_angle_gamma   90.00000000
_symmetry_Int_Tables_number   1
_chemical_formula_structural   Ti3CuO8
_chemical_formula_sum   'Ti3 Cu1 O8'
_cell_volume   137.95146436
_cell_formula_units_Z   1
loop_
 _symmetry_equiv_pos_site_id
 _symmetry_equiv_pos_as_xyz
  1  'x, y, z'
loop_
 _atom_site_type_symbol
 _atom_site_label
 _atom_site_symmetry_multiplicity
 _atom_site_fract_x
 _atom_site_fract_y
 _atom_site_fract_z
 _atom_site_occupancy
  Ti  Ti0  1  0.00000000  0.00000000  0.00000000  1.0
  Ti  Ti1  1  0.50000000  0.00000000  0.25493701  1.0
  Ti  Ti2  1  0.00000000  0.50000000  0.74506299  1.0
  Cu  Cu3  1  0.50000000  0.50000000  0.50000000  1.0
  O  O4  1  0.00000000  0.00000000  0.20911620  1.0
  O  O5  1  0.50000000  0.50000000  0.69891031  1.0
  O  O6  1  0.50000000  0.00000000  0.46058813  1.0
  O  O7  1  0.00000000  0.50000000  0.95598022  1.0
  O  O8  1  0.00000000  0.50000000  0.53941187  1.0
  O  O9  1  0.50000000  0.00000000  0.04401978  1.0
  O  O10  1  0.50000000  0.50000000  0.30108969  1.0
  O  O11  1  0.00000000  0.00000000  0.79088380  1.0
