# generated using pymatgen
data_La3S3N
_symmetry_space_group_name_H-M   'P 1'
_cell_length_a   12.36176398
_cell_length_b   4.15814775
_cell_length_c   13.29641614
_cell_angle_alpha   90.00000000
_cell_angle_beta   90.00000000
_cell_angle_gamma   90.00000000
_symmetry_Int_Tables_number   1
_chemical_formula_structural   La3S3N
_chemical_formula_sum   'La12 S12 N4'
_cell_volume   683.46292903
_cell_formula_units_Z   4
loop_
 _symmetry_equiv_pos_site_id
 _symmetry_equiv_pos_as_xyz
  1  'x, y, z'
loop_
 _atom_site_type_symbol
 _atom_site_label
 _atom_site_symmetry_multiplicity
 _atom_site_fract_x
 _atom_site_fract_y
 _atom_site_fract_z
 _atom_site_occupancy
  La  La0  1  0.96221619  0.75000000  0.65158586  1.0
  La  La1  1  0.46221619  0.75000000  0.84841414  1.0
  La  La2  1  0.03778381  0.25000000  0.34841414  1.0
  La  La3  1  0.53778381  0.25000000  0.15158586  1.0
  La  La4  1  0.91099376  0.75000000  0.12622731  1.0
  La  La5  1  0.41099376  0.75000000  0.37377269  1.0
  La  La6  1  0.08900624  0.25000000  0.87377269  1.0
  La  La7  1  0.58900624  0.25000000  0.62622731  1.0
  La  La8  1  0.77507613  0.75000000  0.36896230  1.0
  La  La9  1  0.27507613  0.75000000  0.13103770  1.0
  La  La10  1  0.22492387  0.25000000  0.63103770  1.0
  La  La11  1  0.72492387  0.25000000  0.86896230  1.0
  S  S12  1  0.73071247  0.75000000  0.70225609  1.0
  S  S13  1  0.23071247  0.75000000  0.79774391  1.0
  S  S14  1  0.26928753  0.25000000  0.29774391  1.0
  S  S15  1  0.76928753  0.25000000  0.20225609  1.0
  S  S16  1  0.64112327  0.75000000  -0.00087999  1.0
  S  S17  1  0.14112327  0.75000000  0.50087999  1.0
  S  S18  1  0.35887673  0.25000000  1.00087999  1.0
  S  S19  1  0.85887673  0.25000000  0.49912001  1.0
  S  S20  1  0.42338000  0.75000000  0.60770648  1.0
  S  S21  1  0.92338000  0.75000000  0.89229352  1.0
  S  S22  1  0.57662000  0.25000000  0.39229352  1.0
  S  S23  1  0.07662000  0.25000000  0.10770648  1.0
  N  N24  1  0.94908834  0.75000000  0.29798418  1.0
  N  N25  1  0.44908834  0.75000000  0.20201582  1.0
  N  N26  1  0.05091166  0.25000000  0.70201582  1.0
  N  N27  1  0.55091166  0.25000000  0.79798418  1.0
