# generated using pymatgen
data_CsK2BiCl6
_symmetry_space_group_name_H-M   'P 1'
_cell_length_a   13.53630801
_cell_length_b   13.53630801
_cell_length_c   13.44137308
_cell_angle_alpha   81.59402616
_cell_angle_beta   98.40597384
_cell_angle_gamma   146.19676081
_symmetry_Int_Tables_number   1
_chemical_formula_structural   CsK2BiCl6
_chemical_formula_sum   'Cs4 K8 Bi4 Cl24'
_cell_volume   1354.12055778
_cell_formula_units_Z   4
loop_
 _symmetry_equiv_pos_site_id
 _symmetry_equiv_pos_as_xyz
  1  'x, y, z'
loop_
 _atom_site_type_symbol
 _atom_site_label
 _atom_site_symmetry_multiplicity
 _atom_site_fract_x
 _atom_site_fract_y
 _atom_site_fract_z
 _atom_site_occupancy
  Cs  Cs0  1  1.32232880  0.21769448  0.43124350  1.0
  Cs  Cs1  1  0.78230552  -0.32232880  0.93124350  1.0
  Cs  Cs2  1  1.21769448  -0.67767120  0.06875650  1.0
  Cs  Cs3  1  1.67767120  -0.21769448  0.56875650  1.0
  K  K4  1  1.65391361  -0.02135898  0.19400211  1.0
  K  K5  1  1.02135898  -0.65391361  0.69400211  1.0
  K  K6  1  0.97864102  -0.34608639  0.30599789  1.0
  K  K7  1  1.34608639  0.02135898  0.80599789  1.0
  K  K8  1  1.46327042  0.15079931  0.13794772  1.0
  K  K9  1  0.84920069  -0.46327042  0.63794772  1.0
  K  K10  1  1.15079931  -0.53672958  0.36205228  1.0
  K  K11  1  1.53672958  -0.15079931  0.86205228  1.0
  Bi  Bi12  1  0.78646141  0.78646141  0.25000000  1.0
  Bi  Bi13  1  0.21353859  0.21353859  0.75000000  1.0
  Bi  Bi14  1  1.50000000  -0.00000000  0.50000000  1.0
  Bi  Bi15  1  1.00000000  -0.50000000  0.00000000  1.0
  Cl  Cl16  1  1.48461135  -0.37921552  0.31011820  1.0
  Cl  Cl17  1  1.37921552  -0.48461135  0.81011820  1.0
  Cl  Cl18  1  0.62078448  -0.51538865  0.18988180  1.0
  Cl  Cl19  1  1.51538865  0.37921552  0.68988180  1.0
  Cl  Cl20  1  1.89402244  0.02671707  0.79296061  1.0
  Cl  Cl21  1  0.97328293  -0.89402244  0.29296061  1.0
  Cl  Cl22  1  1.02671707  -0.10597756  0.70703939  1.0
  Cl  Cl23  1  1.10597756  -0.02671707  0.20703939  1.0
  Cl  Cl24  1  1.71612965  -0.17356605  0.06155943  1.0
  Cl  Cl25  1  1.17356605  -0.71612965  0.56155943  1.0
  Cl  Cl26  1  0.82643395  -0.28387035  0.43844057  1.0
  Cl  Cl27  1  1.28387035  0.17356605  0.93844057  1.0
  Cl  Cl28  1  1.80032935  0.14419512  0.48004127  1.0
  Cl  Cl29  1  0.85580488  -0.80032935  0.98004127  1.0
  Cl  Cl30  1  1.14419512  -0.19967065  0.01995873  1.0
  Cl  Cl31  1  1.19967065  -0.14419512  0.51995873  1.0
  Cl  Cl32  1  1.37500047  -0.12136684  0.30571491  1.0
  Cl  Cl33  1  1.12136684  -0.37500047  0.80571491  1.0
  Cl  Cl34  1  0.87863316  -0.62499953  0.19428509  1.0
  Cl  Cl35  1  1.62499953  0.12136684  0.69428509  1.0
  Cl  Cl36  1  1.66299689  0.31272230  0.43908301  1.0
  Cl  Cl37  1  0.68727770  -0.66299689  0.93908301  1.0
  Cl  Cl38  1  1.31272230  -0.33700311  0.06091699  1.0
  Cl  Cl39  1  1.33700311  -0.31272230  0.56091699  1.0
