# generated using pymatgen
data_RbC10
_symmetry_space_group_name_H-M   'P 1'
_cell_length_a   10.15846295
_cell_length_b   10.15846295
_cell_length_c   10.15846295
_cell_angle_alpha   109.47122063
_cell_angle_beta   109.47122063
_cell_angle_gamma   109.47122063
_symmetry_Int_Tables_number   1
_chemical_formula_structural   RbC10
_chemical_formula_sum   'Rb6 C60'
_cell_volume   806.97877513
_cell_formula_units_Z   6
loop_
 _symmetry_equiv_pos_site_id
 _symmetry_equiv_pos_as_xyz
  1  'x, y, z'
loop_
 _atom_site_type_symbol
 _atom_site_label
 _atom_site_symmetry_multiplicity
 _atom_site_fract_x
 _atom_site_fract_y
 _atom_site_fract_z
 _atom_site_occupancy
  Rb  Rb0  1  0.77782839  0.27782839  0.50000000  1.0
  Rb  Rb1  1  0.50000000  0.22217161  0.72217161  1.0
  Rb  Rb2  1  0.50000000  0.77782839  0.27782839  1.0
  Rb  Rb3  1  0.27782839  0.50000000  0.77782839  1.0
  Rb  Rb4  1  0.72217161  0.50000000  0.22217161  1.0
  Rb  Rb5  1  0.22217161  0.72217161  0.50000000  1.0
  C  C6  1  1.71653209  1.13631651  0.97610166  1.0
  C  C7  1  0.71653209  0.74043044  0.58021558  1.0
  C  C8  1  1.16021486  1.13631651  0.41978442  1.0
  C  C9  1  1.16021486  0.74043044  1.02389834  1.0
  C  C10  1  0.58021558  0.83978514  0.86368349  1.0
  C  C11  1  0.58021558  0.71653209  0.74043044  1.0
  C  C12  1  0.97610166  0.83978514  0.25956956  1.0
  C  C13  1  0.97610166  1.71653209  1.13631651  1.0
  C  C14  1  0.74043044  1.02389834  1.16021486  1.0
  C  C15  1  0.74043044  0.58021558  0.71653209  1.0
  C  C16  1  0.86368349  1.02389834  1.28346791  1.0
  C  C17  1  0.86368349  0.58021558  0.83978514  1.0
  C  C18  1  0.83978514  0.25956956  0.97610166  1.0
  C  C19  1  0.83978514  0.86368349  0.58021558  1.0
  C  C20  1  0.28346791  0.25956956  0.41978442  1.0
  C  C21  1  1.28346791  0.86368349  1.02389834  1.0
  C  C22  1  1.02389834  1.28346791  0.86368349  1.0
  C  C23  1  1.02389834  1.16021486  0.74043044  1.0
  C  C24  1  0.41978442  0.28346791  0.25956956  1.0
  C  C25  1  0.41978442  1.16021486  1.13631651  1.0
  C  C26  1  1.13631651  0.41978442  1.16021486  1.0
  C  C27  1  1.13631651  0.97610166  1.71653209  1.0
  C  C28  1  0.25956956  0.41978442  0.28346791  1.0
  C  C29  1  0.25956956  0.97610166  0.83978514  1.0
  C  C30  1  0.77756137  1.15998266  1.13734597  1.0
  C  C31  1  0.77756137  0.64021541  0.61757871  1.0
  C  C32  1  1.02263670  1.15998266  0.38242129  1.0
  C  C33  1  1.02263670  1.64021541  0.86265403  1.0
  C  C34  1  0.61757871  0.97736330  0.84001734  1.0
  C  C35  1  0.61757871  0.77756137  0.64021541  1.0
  C  C36  1  1.13734597  0.97736330  1.35978459  1.0
  C  C37  1  1.13734597  0.77756137  1.15998266  1.0
  C  C38  1  1.64021541  0.86265403  1.02263670  1.0
  C  C39  1  0.64021541  0.61757871  0.77756137  1.0
  C  C40  1  0.84001734  0.86265403  0.22243863  1.0
  C  C41  1  0.84001734  0.61757871  0.97736330  1.0
  C  C42  1  0.97736330  1.35978459  1.13734597  1.0
  C  C43  1  0.97736330  0.84001734  0.61757871  1.0
  C  C44  1  0.22243863  0.35978459  0.38242129  1.0
  C  C45  1  0.22243863  0.84001734  0.86265403  1.0
  C  C46  1  0.86265403  0.22243863  0.84001734  1.0
  C  C47  1  0.86265403  1.02263670  1.64021541  1.0
  C  C48  1  0.38242129  0.22243863  0.35978459  1.0
  C  C49  1  0.38242129  1.02263670  1.15998266  1.0
  C  C50  1  1.15998266  0.38242129  1.02263670  1.0
  C  C51  1  1.15998266  1.13734597  0.77756137  1.0
  C  C52  1  0.35978459  0.38242129  0.22243863  1.0
  C  C53  1  1.35978459  1.13734597  0.97736330  1.0
  C  C54  1  0.93902617  1.29841746  1.23744362  1.0
  C  C55  1  0.93902617  0.70158254  0.64060871  1.0
  C  C56  1  0.06097383  0.29841746  0.35939129  1.0
  C  C57  1  0.06097383  0.70158254  0.76255638  1.0
  C  C58  1  0.64060871  0.93902617  0.70158254  1.0
  C  C59  1  1.23744362  0.93902617  1.29841746  1.0
  C  C60  1  0.70158254  0.76255638  0.06097383  1.0
  C  C61  1  0.70158254  0.64060871  0.93902617  1.0
  C  C62  1  0.76255638  0.06097383  0.70158254  1.0
  C  C63  1  0.35939129  0.06097383  0.29841746  1.0
  C  C64  1  0.29841746  0.35939129  0.06097383  1.0
  C  C65  1  1.29841746  1.23744362  0.93902617  1.0
