# generated using pymatgen
data_TlPO4
_symmetry_space_group_name_H-M   'P 1'
_cell_length_a   4.59190505
_cell_length_b   15.60630147
_cell_length_c   4.60344708
_cell_angle_alpha   90.00000000
_cell_angle_beta   90.00000000
_cell_angle_gamma   90.00000000
_symmetry_Int_Tables_number   1
_chemical_formula_structural   TlPO4
_chemical_formula_sum   'Tl4 P4 O16'
_cell_volume   329.89523762
_cell_formula_units_Z   4
loop_
 _symmetry_equiv_pos_site_id
 _symmetry_equiv_pos_as_xyz
  1  'x, y, z'
loop_
 _atom_site_type_symbol
 _atom_site_label
 _atom_site_symmetry_multiplicity
 _atom_site_fract_x
 _atom_site_fract_y
 _atom_site_fract_z
 _atom_site_occupancy
  Tl  Tl0  1  0.50000000  0.14492971  0.25000000  1.0
  Tl  Tl1  1  0.50000000  0.85507029  0.75000000  1.0
  Tl  Tl2  1  0.00000000  0.64492971  0.25000000  1.0
  Tl  Tl3  1  0.00000000  0.35507029  0.75000000  1.0
  P  P4  1  0.50000000  0.37017657  0.25000000  1.0
  P  P5  1  0.50000000  0.62982343  0.75000000  1.0
  P  P6  1  0.00000000  0.87017657  0.25000000  1.0
  P  P7  1  0.00000000  0.12982343  0.75000000  1.0
  O  O8  1  0.29253637  0.42600928  0.06162085  1.0
  O  O9  1  0.29253637  0.57399072  0.56162085  1.0
  O  O10  1  0.79253637  0.92600928  0.43837915  1.0
  O  O11  1  0.79253637  0.07399072  0.93837915  1.0
  O  O12  1  0.70746363  0.42600928  0.43837915  1.0
  O  O13  1  0.70746363  0.57399072  0.93837915  1.0
  O  O14  1  0.20746363  0.92600928  0.06162085  1.0
  O  O15  1  0.20746363  0.07399072  0.56162085  1.0
  O  O16  1  0.32097880  0.30625026  0.44594672  1.0
  O  O17  1  0.32097880  0.69374974  0.94594672  1.0
  O  O18  1  0.82097880  0.80625026  0.05405328  1.0
  O  O19  1  0.82097880  0.19374974  0.55405328  1.0
  O  O20  1  0.67902120  0.30625026  0.05405328  1.0
  O  O21  1  0.67902120  0.69374974  0.55405328  1.0
  O  O22  1  0.17902120  0.80625026  0.44594672  1.0
  O  O23  1  0.17902120  0.19374974  0.94594672  1.0
