# generated using pymatgen
data_LiSn4Ru
_symmetry_space_group_name_H-M   'P 1'
_cell_length_a   7.37700949
_cell_length_b   7.37700949
_cell_length_c   7.37700949
_cell_angle_alpha   125.90495452
_cell_angle_beta   125.90495452
_cell_angle_gamma   80.04440990
_symmetry_Int_Tables_number   1
_chemical_formula_structural   LiSn4Ru
_chemical_formula_sum   'Li2 Sn8 Ru2'
_cell_volume   254.28439525
_cell_formula_units_Z   2
loop_
 _symmetry_equiv_pos_site_id
 _symmetry_equiv_pos_as_xyz
  1  'x, y, z'
loop_
 _atom_site_type_symbol
 _atom_site_label
 _atom_site_symmetry_multiplicity
 _atom_site_fract_x
 _atom_site_fract_y
 _atom_site_fract_z
 _atom_site_occupancy
  Li  Li0  1  0.00000000  0.00000000  0.00000000  1.0
  Li  Li1  1  0.50000000  0.50000000  1.00000000  1.0
  Sn  Sn2  1  1.20252619  0.70252619  1.18004559  1.0
  Sn  Sn3  1  0.47751940  0.97751940  1.18004559  1.0
  Sn  Sn4  1  1.02248060  1.20252619  1.50000000  1.0
  Sn  Sn5  1  0.29747381  0.47751940  0.50000000  1.0
  Sn  Sn6  1  0.70252619  0.52248060  0.50000000  1.0
  Sn  Sn7  1  0.97751940  0.79747381  1.50000000  1.0
  Sn  Sn8  1  0.52248060  1.02248060  0.81995441  1.0
  Sn  Sn9  1  0.79747381  0.29747381  0.81995441  1.0
  Ru  Ru10  1  0.75000000  0.75000000  1.00000000  1.0
  Ru  Ru11  1  0.25000000  0.25000000  0.00000000  1.0
