# generated using pymatgen
data_K2YbF5
_symmetry_space_group_name_H-M   'P 1'
_cell_length_a   10.98484235
_cell_length_b   7.30241359
_cell_length_c   6.67797085
_cell_angle_alpha   90.00000000
_cell_angle_beta   90.00000000
_cell_angle_gamma   90.00000000
_symmetry_Int_Tables_number   1
_chemical_formula_structural   K2YbF5
_chemical_formula_sum   'K8 Yb4 F20'
_cell_volume   535.67918835
_cell_formula_units_Z   4
loop_
 _symmetry_equiv_pos_site_id
 _symmetry_equiv_pos_as_xyz
  1  'x, y, z'
loop_
 _atom_site_type_symbol
 _atom_site_label
 _atom_site_symmetry_multiplicity
 _atom_site_fract_x
 _atom_site_fract_y
 _atom_site_fract_z
 _atom_site_occupancy
  K  K0  1  0.67077012  0.50242427  0.03286179  1.0
  K  K1  1  0.67077012  -0.00242427  0.03286179  1.0
  K  K2  1  0.17077012  0.50242427  0.46713821  1.0
  K  K3  1  0.17077012  -0.00242427  0.46713821  1.0
  K  K4  1  0.32922988  1.00242427  0.96713821  1.0
  K  K5  1  0.32922988  0.49757573  0.96713821  1.0
  K  K6  1  0.82922988  1.00242427  0.53286179  1.0
  K  K7  1  0.82922988  0.49757573  0.53286179  1.0
  Yb  Yb8  1  0.99847535  0.25000000  0.06084980  1.0
  Yb  Yb9  1  0.49847535  0.25000000  0.43915020  1.0
  Yb  Yb10  1  0.00152465  0.75000000  0.93915020  1.0
  Yb  Yb11  1  0.50152465  0.75000000  0.56084980  1.0
  F  F12  1  0.92462942  0.96556305  0.14582763  1.0
  F  F13  1  0.92462942  0.53443695  0.14582763  1.0
  F  F14  1  0.42462942  0.96556305  0.35417237  1.0
  F  F15  1  0.42462942  0.53443695  0.35417237  1.0
  F  F16  1  0.07537058  0.46556305  0.85417237  1.0
  F  F17  1  0.07537058  0.03443695  0.85417237  1.0
  F  F18  1  0.57537058  0.46556305  0.64582763  1.0
  F  F19  1  0.57537058  0.03443695  0.64582763  1.0
  F  F20  1  0.98610929  0.25000000  0.38968170  1.0
  F  F21  1  0.48610929  0.25000000  0.11031830  1.0
  F  F22  1  0.01389071  0.75000000  0.61031830  1.0
  F  F23  1  0.51389071  0.75000000  0.88968170  1.0
  F  F24  1  0.83401738  0.25000000  0.87698043  1.0
  F  F25  1  0.33401738  0.25000000  0.62301957  1.0
  F  F26  1  0.16598262  0.75000000  0.12301957  1.0
  F  F27  1  0.66598262  0.75000000  0.37698043  1.0
  F  F28  1  0.68897493  0.25000000  0.34140736  1.0
  F  F29  1  0.18897493  0.25000000  0.15859264  1.0
  F  F30  1  0.31102507  0.75000000  0.65859264  1.0
  F  F31  1  0.81102507  0.75000000  0.84140736  1.0
