# generated using pymatgen
data_Sr3(AlGe)2
_symmetry_space_group_name_H-M   'P 1'
_cell_length_a   10.20628266
_cell_length_b   10.20628266
_cell_length_c   10.20628266
_cell_angle_alpha   155.95520228
_cell_angle_beta   152.43210435
_cell_angle_gamma   36.89947106
_symmetry_Int_Tables_number   1
_chemical_formula_structural   Sr3(AlGe)2
_chemical_formula_sum   'Sr3 Al2 Ge2'
_cell_volume   200.20604223
_cell_formula_units_Z   1
loop_
 _symmetry_equiv_pos_site_id
 _symmetry_equiv_pos_as_xyz
  1  'x, y, z'
loop_
 _atom_site_type_symbol
 _atom_site_label
 _atom_site_symmetry_multiplicity
 _atom_site_fract_x
 _atom_site_fract_y
 _atom_site_fract_z
 _atom_site_occupancy
  Sr  Sr0  1  0.81575720  0.31575720  0.50000000  1.0
  Sr  Sr1  1  0.18424280  0.68424280  0.50000000  1.0
  Sr  Sr2  1  0.00000000  0.00000000  0.00000000  1.0
  Al  Al3  1  0.56629718  0.56629718  1.00000000  1.0
  Al  Al4  1  0.43370282  0.43370282  -0.00000000  1.0
  Ge  Ge5  1  0.64101415  0.14101415  0.50000000  1.0
  Ge  Ge6  1  0.35898585  0.85898585  0.50000000  1.0
