# generated using pymatgen
data_Mn2PHO3F2
_symmetry_space_group_name_H-M   'P 1'
_cell_length_a   7.67679364
_cell_length_b   10.30839686
_cell_length_c   5.61237341
_cell_angle_alpha   90.00000000
_cell_angle_beta   90.00000000
_cell_angle_gamma   90.00000000
_symmetry_Int_Tables_number   1
_chemical_formula_structural   Mn2PHO3F2
_chemical_formula_sum   'Mn8 P4 H4 O12 F8'
_cell_volume   444.13761368
_cell_formula_units_Z   4
loop_
 _symmetry_equiv_pos_site_id
 _symmetry_equiv_pos_as_xyz
  1  'x, y, z'
loop_
 _atom_site_type_symbol
 _atom_site_label
 _atom_site_symmetry_multiplicity
 _atom_site_fract_x
 _atom_site_fract_y
 _atom_site_fract_z
 _atom_site_occupancy
  Mn  Mn0  1  0.09786989  0.93922147  0.74750868  1.0
  Mn  Mn1  1  0.09786989  0.56077853  0.74750868  1.0
  Mn  Mn2  1  0.59786989  0.93922147  0.75249132  1.0
  Mn  Mn3  1  0.59786989  0.56077853  0.75249132  1.0
  Mn  Mn4  1  0.90213011  0.43922147  0.25249132  1.0
  Mn  Mn5  1  0.90213011  0.06077853  0.25249132  1.0
  Mn  Mn6  1  0.40213011  0.43922147  0.24750868  1.0
  Mn  Mn7  1  0.40213011  0.06077853  0.24750868  1.0
  P  P8  1  0.33591968  0.75000000  0.07379979  1.0
  P  P9  1  0.83591968  0.75000000  0.42620021  1.0
  P  P10  1  0.66408032  0.25000000  0.92620021  1.0
  P  P11  1  0.16408032  0.25000000  0.57379979  1.0
  H  H12  1  0.26317027  0.75000000  0.30338661  1.0
  H  H13  1  0.76317027  0.75000000  0.19661339  1.0
  H  H14  1  0.73682973  0.25000000  0.69661339  1.0
  H  H15  1  0.23682973  0.25000000  0.80338661  1.0
  O  O16  1  0.44895688  0.87417691  0.05217251  1.0
  O  O17  1  0.44895688  0.62582309  0.05217251  1.0
  O  O18  1  0.94895688  0.87417691  0.44782749  1.0
  O  O19  1  0.94895688  0.62582309  0.44782749  1.0
  O  O20  1  0.55104312  0.37417691  0.94782749  1.0
  O  O21  1  0.55104312  0.12582309  0.94782749  1.0
  O  O22  1  0.05104312  0.37417691  0.55217251  1.0
  O  O23  1  0.05104312  0.12582309  0.55217251  1.0
  O  O24  1  0.18292943  0.75000000  0.88982556  1.0
  O  O25  1  0.68292943  0.75000000  0.61017444  1.0
  O  O26  1  0.81707057  0.25000000  0.11017444  1.0
  O  O27  1  0.31707057  0.25000000  0.38982556  1.0
  F  F28  1  0.34544014  0.95598654  0.57005215  1.0
  F  F29  1  0.34544014  0.54401346  0.57005215  1.0
  F  F30  1  0.84544014  0.95598654  0.92994785  1.0
  F  F31  1  0.84544014  0.54401346  0.92994785  1.0
  F  F32  1  0.65455986  0.45598654  0.42994785  1.0
  F  F33  1  0.65455986  0.04401346  0.42994785  1.0
  F  F34  1  0.15455986  0.45598654  0.07005215  1.0
  F  F35  1  0.15455986  0.04401346  0.07005215  1.0
