# generated using pymatgen
data_Rb3Sb2Br9
_symmetry_space_group_name_H-M   'P 1'
_cell_length_a   8.01982245
_cell_length_b   8.01982245
_cell_length_c   9.84128690
_cell_angle_alpha   90.00000000
_cell_angle_beta   90.00000000
_cell_angle_gamma   120.00000000
_symmetry_Int_Tables_number   1
_chemical_formula_structural   Rb3Sb2Br9
_chemical_formula_sum   'Rb3 Sb2 Br9'
_cell_volume   548.16592014
_cell_formula_units_Z   1
loop_
 _symmetry_equiv_pos_site_id
 _symmetry_equiv_pos_as_xyz
  1  'x, y, z'
loop_
 _atom_site_type_symbol
 _atom_site_label
 _atom_site_symmetry_multiplicity
 _atom_site_fract_x
 _atom_site_fract_y
 _atom_site_fract_z
 _atom_site_occupancy
  Rb  Rb0  1  0.33333333  0.66666667  0.66692409  1.0
  Rb  Rb1  1  0.66666667  0.33333333  0.33307591  1.0
  Rb  Rb2  1  0.00000000  0.00000000  0.00000000  1.0
  Sb  Sb3  1  0.33333333  0.66666667  0.18718983  1.0
  Sb  Sb4  1  0.66666667  0.33333333  0.81281017  1.0
  Br  Br5  1  0.65801758  0.82900879  0.33668126  1.0
  Br  Br6  1  0.82900879  0.65801758  0.66331874  1.0
  Br  Br7  1  0.82900879  0.17099121  0.66331874  1.0
  Br  Br8  1  0.17099121  0.82900879  0.33668126  1.0
  Br  Br9  1  0.17099121  0.34198242  0.33668126  1.0
  Br  Br10  1  0.34198242  0.17099121  0.66331874  1.0
  Br  Br11  1  0.50000000  0.50000000  0.00000000  1.0
  Br  Br12  1  0.50000000  0.00000000  0.00000000  1.0
  Br  Br13  1  0.00000000  0.50000000  0.00000000  1.0
