# generated using pymatgen
data_YSb(PbO3)2
_symmetry_space_group_name_H-M   'P 1'
_cell_length_a   5.95538183
_cell_length_b   5.95538183
_cell_length_c   10.27905964
_cell_angle_alpha   73.81529534
_cell_angle_beta   106.18470466
_cell_angle_gamma   120.26308719
_symmetry_Int_Tables_number   1
_chemical_formula_structural   YSb(PbO3)2
_chemical_formula_sum   'Y2 Sb2 Pb4 O12'
_cell_volume   298.17086903
_cell_formula_units_Z   2
loop_
 _symmetry_equiv_pos_site_id
 _symmetry_equiv_pos_as_xyz
  1  'x, y, z'
loop_
 _atom_site_type_symbol
 _atom_site_label
 _atom_site_symmetry_multiplicity
 _atom_site_fract_x
 _atom_site_fract_y
 _atom_site_fract_z
 _atom_site_occupancy
  Y  Y0  1  0.75183063  0.75183063  0.75000000  1.0
  Y  Y1  1  0.24816937  0.24816937  0.25000000  1.0
  Sb  Sb2  1  0.50000000  -0.00000000  0.00000000  1.0
  Sb  Sb3  1  1.00000000  0.50000000  0.50000000  1.0
  Pb  Pb4  1  0.41789126  0.15180582  0.62735407  1.0
  Pb  Pb5  1  0.84819418  0.58210874  0.12735407  1.0
  Pb  Pb6  1  1.15180582  0.41789126  0.87264593  1.0
  Pb  Pb7  1  0.58210874  -0.15180582  0.37264593  1.0
  O  O8  1  0.83235989  0.14228211  0.61890284  1.0
  O  O9  1  0.85771789  0.16764011  0.11890284  1.0
  O  O10  1  1.14228211  0.83235989  0.88109716  1.0
  O  O11  1  0.16764011  -0.14228211  0.38109716  1.0
  O  O12  1  0.60799010  -0.19384626  0.91537845  1.0
  O  O13  1  1.19384626  0.39200990  0.41537845  1.0
  O  O14  1  0.80615374  0.60799010  0.58462155  1.0
  O  O15  1  0.39200990  0.19384626  0.08462155  1.0
  O  O16  1  0.61756099  0.31743966  0.85008957  1.0
  O  O17  1  0.68256034  0.38243901  0.35008957  1.0
  O  O18  1  1.31743966  0.61756099  0.64991043  1.0
  O  O19  1  0.38243901  -0.31743966  0.14991043  1.0
