# generated using pymatgen
data_Zn13Fe
_symmetry_space_group_name_H-M   'P 1'
_cell_length_a   6.60341324
_cell_length_b   6.60341324
_cell_length_c   5.06030350
_cell_angle_alpha   81.28625026
_cell_angle_beta   98.71374974
_cell_angle_gamma   109.35768797
_symmetry_Int_Tables_number   1
_chemical_formula_structural   Zn13Fe
_chemical_formula_sum   'Zn13 Fe1'
_cell_volume   204.56066836
_cell_formula_units_Z   1
loop_
 _symmetry_equiv_pos_site_id
 _symmetry_equiv_pos_as_xyz
  1  'x, y, z'
loop_
 _atom_site_type_symbol
 _atom_site_label
 _atom_site_symmetry_multiplicity
 _atom_site_fract_x
 _atom_site_fract_y
 _atom_site_fract_z
 _atom_site_occupancy
  Zn  Zn0  1  0.63454492  -0.21409628  0.68581172  1.0
  Zn  Zn1  1  1.21409628  0.36545508  0.68581172  1.0
  Zn  Zn2  1  0.78590372  -0.36545508  0.31418828  1.0
  Zn  Zn3  1  1.36545508  0.21409628  0.31418828  1.0
  Zn  Zn4  1  1.35609075  0.00462182  0.79974989  1.0
  Zn  Zn5  1  0.99537818  -0.35609075  0.79974989  1.0
  Zn  Zn6  1  1.00462182  0.35609075  0.20025011  1.0
  Zn  Zn7  1  0.64390925  -0.00462182  0.20025011  1.0
  Zn  Zn8  1  0.77731938  -0.77731938  0.62562339  1.0
  Zn  Zn9  1  0.22268062  -0.22268062  0.37437661  1.0
  Zn  Zn10  1  0.61448924  -0.61448924  0.93811046  1.0
  Zn  Zn11  1  0.38551076  -0.38551076  0.06188954  1.0
  Zn  Zn12  1  0.00000000  0.00000000  0.00000000  1.0
  Fe  Fe13  1  -0.00000000  0.00000000  0.50000000  1.0
