# generated using pymatgen
data_La2Si3Pt
_symmetry_space_group_name_H-M   'P 1'
_cell_length_a   8.30766108
_cell_length_b   8.30766108
_cell_length_c   4.41671204
_cell_angle_alpha   90.00000000
_cell_angle_beta   90.00000000
_cell_angle_gamma   120.00000000
_symmetry_Int_Tables_number   1
_chemical_formula_structural   La2Si3Pt
_chemical_formula_sum   'La4 Si6 Pt2'
_cell_volume   263.98986716
_cell_formula_units_Z   2
loop_
 _symmetry_equiv_pos_site_id
 _symmetry_equiv_pos_as_xyz
  1  'x, y, z'
loop_
 _atom_site_type_symbol
 _atom_site_label
 _atom_site_symmetry_multiplicity
 _atom_site_fract_x
 _atom_site_fract_y
 _atom_site_fract_z
 _atom_site_occupancy
  La  La0  1  0.50000000  0.50000000  0.00000000  1.0
  La  La1  1  0.50000000  0.00000000  0.00000000  1.0
  La  La2  1  0.00000000  0.50000000  0.00000000  1.0
  La  La3  1  0.00000000  0.00000000  0.00000000  1.0
  Si  Si4  1  0.16567554  0.83432446  0.50000000  1.0
  Si  Si5  1  0.16567554  0.33135108  0.50000000  1.0
  Si  Si6  1  0.83432446  0.16567554  0.50000000  1.0
  Si  Si7  1  0.83432446  0.66864892  0.50000000  1.0
  Si  Si8  1  0.66864892  0.83432446  0.50000000  1.0
  Si  Si9  1  0.33135108  0.16567554  0.50000000  1.0
  Pt  Pt10  1  0.33333333  0.66666667  0.50000000  1.0
  Pt  Pt11  1  0.66666667  0.33333333  0.50000000  1.0
