# generated using pymatgen
data_HfHg3(SeCl3)2
_symmetry_space_group_name_H-M   'P 1'
_cell_length_a   7.01926087
_cell_length_b   7.77848417
_cell_length_c   13.46747608
_cell_angle_alpha   90.00000000
_cell_angle_beta   90.00607318
_cell_angle_gamma   90.00000000
_symmetry_Int_Tables_number   1
_chemical_formula_structural   HfHg3(SeCl3)2
_chemical_formula_sum   'Hf2 Hg6 Se4 Cl12'
_cell_volume   735.31354420
_cell_formula_units_Z   2
loop_
 _symmetry_equiv_pos_site_id
 _symmetry_equiv_pos_as_xyz
  1  'x, y, z'
loop_
 _atom_site_type_symbol
 _atom_site_label
 _atom_site_symmetry_multiplicity
 _atom_site_fract_x
 _atom_site_fract_y
 _atom_site_fract_z
 _atom_site_occupancy
  Hf  Hf0  1  0.00000000  0.00000000  0.00000000  1.0
  Hf  Hf1  1  0.00000000  0.50000000  0.50000000  1.0
  Hg  Hg2  1  0.49931224  0.74674813  0.74906732  1.0
  Hg  Hg3  1  0.49931224  0.75325187  0.24906732  1.0
  Hg  Hg4  1  0.50068776  0.24674813  0.75093268  1.0
  Hg  Hg5  1  0.50068776  0.25325187  0.25093268  1.0
  Hg  Hg6  1  0.50000000  0.00000000  0.50000000  1.0
  Hg  Hg7  1  0.50000000  0.50000000  0.00000000  1.0
  Se  Se8  1  0.67140553  0.99733637  0.66668826  1.0
  Se  Se9  1  0.67140553  0.50266363  0.16668826  1.0
  Se  Se10  1  0.32859447  0.49733637  0.83331174  1.0
  Se  Se11  1  0.32859447  0.00266363  0.33331174  1.0
  Cl  Cl12  1  0.80324258  0.22776879  0.92410719  1.0
  Cl  Cl13  1  0.80324258  0.27223121  0.42410719  1.0
  Cl  Cl14  1  0.19675742  0.72776879  0.57589281  1.0
  Cl  Cl15  1  0.19675742  0.77223121  0.07589281  1.0
  Cl  Cl16  1  0.79939404  0.49683809  0.65042817  1.0
  Cl  Cl17  1  0.79939404  0.00316191  0.15042817  1.0
  Cl  Cl18  1  0.20060596  0.99683809  0.84957183  1.0
  Cl  Cl19  1  0.20060596  0.50316191  0.34957183  1.0
  Cl  Cl20  1  0.79684801  0.77619995  0.92500510  1.0
  Cl  Cl21  1  0.79684801  0.72380005  0.42500510  1.0
  Cl  Cl22  1  0.20315199  0.27619995  0.57499490  1.0
  Cl  Cl23  1  0.20315199  0.22380005  0.07499490  1.0
