# generated using pymatgen
data_SiO2
_symmetry_space_group_name_H-M   'P 1'
_cell_length_a   9.35196500
_cell_length_b   9.35196500
_cell_length_c   9.35196500
_cell_angle_alpha   109.47122063
_cell_angle_beta   109.47122063
_cell_angle_gamma   109.47122063
_symmetry_Int_Tables_number   1
_chemical_formula_structural   SiO2
_chemical_formula_sum   'Si12 O24'
_cell_volume   629.63190573
_cell_formula_units_Z   12
loop_
 _symmetry_equiv_pos_site_id
 _symmetry_equiv_pos_as_xyz
  1  'x, y, z'
loop_
 _atom_site_type_symbol
 _atom_site_label
 _atom_site_symmetry_multiplicity
 _atom_site_fract_x
 _atom_site_fract_y
 _atom_site_fract_z
 _atom_site_occupancy
  Si  Si0  1  1.12295714  0.87704286  0.50000000  1.0
  Si  Si1  1  1.12295714  1.24591428  0.62295714  1.0
  Si  Si2  1  0.75408572  0.87704286  0.37704286  1.0
  Si  Si3  1  0.87704286  1.37704286  0.75408572  1.0
  Si  Si4  1  0.87704286  1.50000000  1.12295714  1.0
  Si  Si5  1  1.24591428  0.62295714  1.12295714  1.0
  Si  Si6  1  1.62295714  1.12295714  1.24591428  1.0
  Si  Si7  1  0.37704286  0.75408572  0.87704286  1.0
  Si  Si8  1  1.50000000  1.12295714  0.87704286  1.0
  Si  Si9  1  1.37704286  1.62295714  1.50000000  1.0
  Si  Si10  1  0.62295714  0.50000000  0.37704286  1.0
  Si  Si11  1  0.50000000  0.37704286  0.62295714  1.0
  O  O12  1  1.00000000  0.63553660  0.36446340  1.0
  O  O13  1  0.36446340  0.36446340  0.72892679  1.0
  O  O14  1  0.63553660  1.00000000  0.36446340  1.0
  O  O15  1  1.00000000  1.36446340  0.63553660  1.0
  O  O16  1  1.36446340  1.00000000  0.63553660  1.0
  O  O17  1  0.63553660  0.63553660  0.27107321  1.0
  O  O18  1  0.63553660  1.36446340  1.00000000  1.0
  O  O19  1  1.36446340  1.72892679  1.36446340  1.0
  O  O20  1  0.63553660  0.27107321  0.63553660  1.0
  O  O21  1  1.36446340  0.63553660  1.00000000  1.0
  O  O22  1  1.72892679  1.36446340  1.36446340  1.0
  O  O23  1  0.27107321  0.63553660  0.63553660  1.0
  O  O24  1  0.91327552  0.82655103  0.41327552  1.0
  O  O25  1  1.17344897  1.08672448  0.58672448  1.0
  O  O26  1  0.91327552  1.08672448  0.50000000  1.0
  O  O27  1  1.08672448  1.50000000  0.91327552  1.0
  O  O28  1  0.82655103  0.41327552  0.91327552  1.0
  O  O29  1  1.08672448  1.58672448  1.17344897  1.0
  O  O30  1  0.58672448  1.17344897  1.08672448  1.0
  O  O31  1  1.50000000  0.91327552  1.08672448  1.0
  O  O32  1  1.41327552  0.91327552  0.82655103  1.0
  O  O33  1  0.41327552  0.50000000  0.58672448  1.0
  O  O34  1  0.50000000  0.58672448  0.41327552  1.0
  O  O35  1  1.58672448  1.41327552  1.50000000  1.0
