# generated using pymatgen
data_CdTcO14
_symmetry_space_group_name_H-M   'P 1'
_cell_length_a   7.98693510
_cell_length_b   7.98693510
_cell_length_c   7.98693510
_cell_angle_alpha   60.00000000
_cell_angle_beta   60.00000000
_cell_angle_gamma   60.00000000
_symmetry_Int_Tables_number   1
_chemical_formula_structural   CdTcO14
_chemical_formula_sum   'Cd2 Tc2 O28'
_cell_volume   360.26781726
_cell_formula_units_Z   2
loop_
 _symmetry_equiv_pos_site_id
 _symmetry_equiv_pos_as_xyz
  1  'x, y, z'
loop_
 _atom_site_type_symbol
 _atom_site_label
 _atom_site_symmetry_multiplicity
 _atom_site_fract_x
 _atom_site_fract_y
 _atom_site_fract_z
 _atom_site_occupancy
  Cd  Cd0  1  0.50000000  0.50000000  -0.50000000  1.0
  Cd  Cd1  1  0.75000000  -0.25000000  0.75000000  1.0
  Tc  Tc2  1  0.00000000  1.00000000  -0.00000000  1.0
  Tc  Tc3  1  0.25000000  0.25000000  0.25000000  1.0
  O  O4  1  1.00901189  -0.68873267  0.67070890  1.0
  O  O5  1  0.00901189  0.67070890  0.31126733  1.0
  O  O6  1  -0.06126733  0.24098811  0.24098811  1.0
  O  O7  1  0.57929110  0.24098811  0.24098811  1.0
  O  O8  1  -0.68873267  1.00901189  0.67070890  1.0
  O  O9  1  1.00901189  0.00901189  0.67070890  1.0
  O  O10  1  1.00901189  -0.32929110  1.00901189  1.0
  O  O11  1  -0.68873267  0.67070890  1.00901189  1.0
  O  O12  1  0.24098811  -0.06126733  0.24098811  1.0
  O  O13  1  0.24098811  0.24098811  -0.06126733  1.0
  O  O14  1  0.57929110  0.24098811  -0.06126733  1.0
  O  O15  1  0.57929110  -0.06126733  0.24098811  1.0
  O  O16  1  0.67070890  0.00901189  1.00901189  1.0
  O  O17  1  -0.68873267  1.00901189  1.00901189  1.0
  O  O18  1  0.24098811  0.57929110  -0.06126733  1.0
  O  O19  1  0.24098811  -0.06126733  0.57929110  1.0
  O  O20  1  -0.32929110  1.00901189  0.31126733  1.0
  O  O21  1  0.67070890  -0.68873267  1.00901189  1.0
  O  O22  1  1.00901189  -0.68873267  1.00901189  1.0
  O  O23  1  0.00901189  1.00901189  0.31126733  1.0
  O  O24  1  0.24098811  0.57929110  0.24098811  1.0
  O  O25  1  -0.06126733  0.57929110  0.24098811  1.0
  O  O26  1  -0.06126733  0.24098811  0.57929110  1.0
  O  O27  1  0.24098811  0.24098811  0.57929110  1.0
  O  O28  1  0.62500000  -0.37500000  1.12500000  1.0
  O  O29  1  0.62500000  0.12500000  0.62500000  1.0
  O  O30  1  0.62500000  -0.37500000  0.62500000  1.0
  O  O31  1  1.12500000  -0.37500000  0.62500000  1.0
