# generated using pymatgen
data_LiHf2(PO4)3
_symmetry_space_group_name_H-M   'P 1'
_cell_length_a   8.96146773
_cell_length_b   8.96146773
_cell_length_c   8.96146773
_cell_angle_alpha   59.41061303
_cell_angle_beta   59.41061303
_cell_angle_gamma   59.41061303
_symmetry_Int_Tables_number   1
_chemical_formula_structural   LiHf2(PO4)3
_chemical_formula_sum   'Li2 Hf4 P6 O24'
_cell_volume   502.06331904
_cell_formula_units_Z   2
loop_
 _symmetry_equiv_pos_site_id
 _symmetry_equiv_pos_as_xyz
  1  'x, y, z'
loop_
 _atom_site_type_symbol
 _atom_site_label
 _atom_site_symmetry_multiplicity
 _atom_site_fract_x
 _atom_site_fract_y
 _atom_site_fract_z
 _atom_site_occupancy
  Li  Li0  1  1.00000000  -0.00000000  -0.00000000  1.0
  Li  Li1  1  0.50000000  0.50000000  0.50000000  1.0
  Hf  Hf2  1  0.85733618  -0.14266382  -0.14266382  1.0
  Hf  Hf3  1  0.35733618  0.35733618  0.35733618  1.0
  Hf  Hf4  1  0.64266382  0.64266382  -0.35733618  1.0
  Hf  Hf5  1  1.14266382  0.14266382  0.14266382  1.0
  P  P6  1  0.45689600  0.75000000  0.04310400  1.0
  P  P7  1  0.95689600  -0.45689600  0.25000000  1.0
  P  P8  1  0.25000000  0.95689600  -0.45689600  1.0
  P  P9  1  0.75000000  1.04310400  -0.54310400  1.0
  P  P10  1  0.54310400  0.25000000  -0.04310400  1.0
  P  P11  1  1.04310400  0.45689600  -0.25000000  1.0
  O  O12  1  0.80583350  1.00077651  -0.38473211  1.0
  O  O13  1  1.30583350  0.11526789  -0.49922349  1.0
  O  O14  1  0.88473211  0.49922349  -0.30583350  1.0
  O  O15  1  0.38473211  0.19416650  -0.00077651  1.0
  O  O16  1  0.99922349  0.38473211  -0.80583350  1.0
  O  O17  1  0.49922349  0.69416650  -0.11526789  1.0
  O  O18  1  0.19416650  0.99922349  -0.61526789  1.0
  O  O19  1  0.69416650  0.88473211  -0.50077651  1.0
  O  O20  1  0.61526789  0.80583350  0.00077651  1.0
  O  O21  1  1.11526789  -0.49922349  0.30583350  1.0
  O  O22  1  0.50077651  0.30583350  0.11526789  1.0
  O  O23  1  1.00077651  0.61526789  -0.19416650  1.0
  O  O24  1  0.72897970  0.08776525  -0.05978201  1.0
  O  O25  1  1.22897970  0.44021799  -0.41223475  1.0
  O  O26  1  0.55978201  0.41223475  -0.22897970  1.0
  O  O27  1  1.05978201  0.27102030  -0.08776525  1.0
  O  O28  1  0.91223475  0.05978201  0.27102030  1.0
  O  O29  1  0.41223475  0.77102030  -0.44021799  1.0
  O  O30  1  1.27102030  -0.08776525  0.05978201  1.0
  O  O31  1  0.77102030  0.55978201  -0.58776525  1.0
  O  O32  1  0.94021799  -0.27102030  0.08776525  1.0
  O  O33  1  0.44021799  0.58776525  0.22897970  1.0
  O  O34  1  0.58776525  1.22897970  -0.55978201  1.0
  O  O35  1  1.08776525  -0.05978201  -0.27102030  1.0
