# generated using pymatgen
data_Co3O4
_symmetry_space_group_name_H-M   'P 1'
_cell_length_a   5.72337840
_cell_length_b   5.72337840
_cell_length_c   5.72337840
_cell_angle_alpha   60.00000000
_cell_angle_beta   60.00000000
_cell_angle_gamma   60.00000000
_symmetry_Int_Tables_number   1
_chemical_formula_structural   Co3O4
_chemical_formula_sum   'Co6 O8'
_cell_volume   132.56912265
_cell_formula_units_Z   2
loop_
 _symmetry_equiv_pos_site_id
 _symmetry_equiv_pos_as_xyz
  1  'x, y, z'
loop_
 _atom_site_type_symbol
 _atom_site_label
 _atom_site_symmetry_multiplicity
 _atom_site_fract_x
 _atom_site_fract_y
 _atom_site_fract_z
 _atom_site_occupancy
  Co  Co0  1  0.12500000  0.12500000  1.62500000  1.0
  Co  Co1  1  0.12500000  0.62500000  0.12500000  1.0
  Co  Co2  1  0.62500000  0.12500000  1.12500000  1.0
  Co  Co3  1  0.12500000  0.12500000  0.12500000  1.0
  Co  Co4  1  0.75000000  -0.25000000  0.75000000  1.0
  Co  Co5  1  0.50000000  0.50000000  -0.50000000  1.0
  O  O6  1  0.36235894  0.36235894  -0.08707681  1.0
  O  O7  1  0.36235894  -0.08707681  0.36235894  1.0
  O  O8  1  -0.08707681  0.36235894  0.36235894  1.0
  O  O9  1  0.36235894  0.36235894  0.36235894  1.0
  O  O10  1  -0.11235894  0.88764106  0.33707681  1.0
  O  O11  1  0.88764106  -0.66292319  0.88764106  1.0
  O  O12  1  -0.66292319  0.88764106  0.88764106  1.0
  O  O13  1  0.88764106  -0.11235894  0.88764106  1.0
