# generated using pymatgen
data_BaGdCuTe3
_symmetry_space_group_name_H-M   'P 1'
_cell_length_a   7.81664421
_cell_length_b   7.81664421
_cell_length_c   11.54669241
_cell_angle_alpha   90.00000000
_cell_angle_beta   90.00000000
_cell_angle_gamma   146.78752136
_symmetry_Int_Tables_number   1
_chemical_formula_structural   BaGdCuTe3
_chemical_formula_sum   'Ba2 Gd2 Cu2 Te6'
_cell_volume   386.43554509
_cell_formula_units_Z   2
loop_
 _symmetry_equiv_pos_site_id
 _symmetry_equiv_pos_as_xyz
  1  'x, y, z'
loop_
 _atom_site_type_symbol
 _atom_site_label
 _atom_site_symmetry_multiplicity
 _atom_site_fract_x
 _atom_site_fract_y
 _atom_site_fract_z
 _atom_site_occupancy
  Ba  Ba0  1  -0.24945762  0.24945762  0.75000000  1.0
  Ba  Ba1  1  0.24945762  0.75054238  0.25000000  1.0
  Gd  Gd2  1  0.00000000  0.00000000  0.00000000  1.0
  Gd  Gd3  1  0.00000000  0.00000000  0.50000000  1.0
  Cu  Cu4  1  0.46824770  0.53175230  0.75000000  1.0
  Cu  Cu5  1  -0.46824770  0.46824770  0.25000000  1.0
  Te  Te6  1  0.36273947  0.63726053  0.93658428  1.0
  Te  Te7  1  0.36273947  0.63726053  0.56341572  1.0
  Te  Te8  1  -0.36273947  0.36273947  0.43658428  1.0
  Te  Te9  1  -0.36273947  0.36273947  0.06341572  1.0
  Te  Te10  1  0.07085892  0.92914108  0.75000000  1.0
  Te  Te11  1  -0.07085892  0.07085892  0.25000000  1.0
