# generated using pymatgen
data_Rb2CoBr4
_symmetry_space_group_name_H-M   'P 1'
_cell_length_a   9.89430616
_cell_length_b   7.67694716
_cell_length_c   13.73669093
_cell_angle_alpha   90.00000000
_cell_angle_beta   90.00000000
_cell_angle_gamma   90.00000000
_symmetry_Int_Tables_number   1
_chemical_formula_structural   Rb2CoBr4
_chemical_formula_sum   'Rb8 Co4 Br16'
_cell_volume   1043.41247024
_cell_formula_units_Z   4
loop_
 _symmetry_equiv_pos_site_id
 _symmetry_equiv_pos_as_xyz
  1  'x, y, z'
loop_
 _atom_site_type_symbol
 _atom_site_label
 _atom_site_symmetry_multiplicity
 _atom_site_fract_x
 _atom_site_fract_y
 _atom_site_fract_z
 _atom_site_occupancy
  Rb  Rb0  1  0.52036918  0.75000000  0.67092766  1.0
  Rb  Rb1  1  0.02036918  0.75000000  0.82907234  1.0
  Rb  Rb2  1  0.47963082  0.25000000  0.32907234  1.0
  Rb  Rb3  1  0.97963082  0.25000000  0.17092766  1.0
  Rb  Rb4  1  0.87363056  0.75000000  0.42427347  1.0
  Rb  Rb5  1  0.37363056  0.75000000  0.07572653  1.0
  Rb  Rb6  1  0.12636944  0.25000000  0.57572653  1.0
  Rb  Rb7  1  0.62636944  0.25000000  0.92427347  1.0
  Co  Co8  1  0.77148150  0.75000000  0.07385673  1.0
  Co  Co9  1  0.27148150  0.75000000  0.42614327  1.0
  Co  Co10  1  0.22851850  0.25000000  0.92614327  1.0
  Co  Co11  1  0.72851850  0.25000000  0.57385673  1.0
  Br  Br12  1  0.67538795  1.00269759  0.14913965  1.0
  Br  Br13  1  0.67538795  0.49730241  0.14913965  1.0
  Br  Br14  1  0.17538795  1.00269759  0.35086035  1.0
  Br  Br15  1  0.17538795  0.49730241  0.35086035  1.0
  Br  Br16  1  0.32461205  0.50269759  0.85086035  1.0
  Br  Br17  1  0.32461205  -0.00269759  0.85086035  1.0
  Br  Br18  1  0.82461205  0.50269759  0.64913965  1.0
  Br  Br19  1  0.82461205  -0.00269759  0.64913965  1.0
  Br  Br20  1  1.01250940  0.75000000  0.08834808  1.0
  Br  Br21  1  0.51250940  0.75000000  0.41165192  1.0
  Br  Br22  1  -0.01250940  0.25000000  0.91165192  1.0
  Br  Br23  1  0.48749060  0.25000000  0.58834808  1.0
  Br  Br24  1  0.18871929  0.75000000  0.59123464  1.0
  Br  Br25  1  0.68871929  0.75000000  0.90876536  1.0
  Br  Br26  1  0.81128071  0.25000000  0.40876536  1.0
  Br  Br27  1  0.31128071  0.25000000  0.09123464  1.0
