# generated using pymatgen
data_RbSO3
_symmetry_space_group_name_H-M   'P 1'
_cell_length_a   10.36601091
_cell_length_b   10.36601091
_cell_length_c   6.72917791
_cell_angle_alpha   90.00000000
_cell_angle_beta   90.00000000
_cell_angle_gamma   120.00000000
_symmetry_Int_Tables_number   1
_chemical_formula_structural   RbSO3
_chemical_formula_sum   'Rb6 S6 O18'
_cell_volume   626.20418535
_cell_formula_units_Z   6
loop_
 _symmetry_equiv_pos_site_id
 _symmetry_equiv_pos_as_xyz
  1  'x, y, z'
loop_
 _atom_site_type_symbol
 _atom_site_label
 _atom_site_symmetry_multiplicity
 _atom_site_fract_x
 _atom_site_fract_y
 _atom_site_fract_z
 _atom_site_occupancy
  Rb  Rb0  1  0.70936917  0.70936917  0.50000000  1.0
  Rb  Rb1  1  -0.00000000  0.29063083  0.50000000  1.0
  Rb  Rb2  1  0.29063083  0.00000000  0.50000000  1.0
  Rb  Rb3  1  0.38343226  0.38343226  0.00000000  1.0
  Rb  Rb4  1  0.00000000  0.61656774  0.00000000  1.0
  Rb  Rb5  1  0.61656774  0.00000000  0.00000000  1.0
  S  S6  1  0.33333333  0.66666667  0.27522006  1.0
  S  S7  1  0.66666667  0.33333333  0.72477994  1.0
  S  S8  1  0.33333333  0.66666667  0.60489298  1.0
  S  S9  1  0.66666667  0.33333333  0.39510702  1.0
  S  S10  1  0.00000000  0.00000000  0.16610785  1.0
  S  S11  1  0.00000000  0.00000000  0.83389215  1.0
  O  O12  1  0.96894084  0.84945045  0.22342455  1.0
  O  O13  1  0.84945045  0.96894084  0.77657545  1.0
  O  O14  1  0.88050961  0.03105916  0.22342455  1.0
  O  O15  1  0.15054955  0.11949039  0.22342455  1.0
  O  O16  1  0.03105916  0.88050961  0.77657545  1.0
  O  O17  1  0.11949039  0.15054955  0.77657545  1.0
  O  O18  1  0.30157117  0.78578783  0.21735240  1.0
  O  O19  1  0.78578783  0.30157117  0.78264760  1.0
  O  O20  1  0.48421666  0.69842883  0.21735240  1.0
  O  O21  1  0.21421217  0.51578334  0.21735240  1.0
  O  O22  1  0.69842883  0.48421666  0.78264760  1.0
  O  O23  1  0.51578334  0.21421217  0.78264760  1.0
  O  O24  1  0.56942224  0.39407193  0.34150616  1.0
  O  O25  1  0.39407193  0.56942224  0.65849384  1.0
  O  O26  1  0.82464969  0.43057776  0.34150616  1.0
  O  O27  1  0.60592807  0.17535031  0.34150616  1.0
  O  O28  1  0.43057776  0.82464969  0.65849384  1.0
  O  O29  1  0.17535031  0.60592807  0.65849384  1.0
