# generated using pymatgen
data_Li3BN
_symmetry_space_group_name_H-M   'P 1'
_cell_length_a   11.74337565
_cell_length_b   11.74337565
_cell_length_c   11.74337565
_cell_angle_alpha   143.75302506
_cell_angle_beta   143.75302506
_cell_angle_gamma   52.19676649
_symmetry_Int_Tables_number   1
_chemical_formula_structural   Li3BN
_chemical_formula_sum   'Li24 B8 N8'
_cell_volume   562.91103448
_cell_formula_units_Z   8
loop_
 _symmetry_equiv_pos_site_id
 _symmetry_equiv_pos_as_xyz
  1  'x, y, z'
loop_
 _atom_site_type_symbol
 _atom_site_label
 _atom_site_symmetry_multiplicity
 _atom_site_fract_x
 _atom_site_fract_y
 _atom_site_fract_z
 _atom_site_occupancy
  Li  Li0  1  0.66676476  0.59485267  0.39813215  1.0
  Li  Li1  1  0.55327948  0.98136739  0.89813215  1.0
  Li  Li2  1  1.19672052  0.59485267  0.92808791  1.0
  Li  Li3  1  1.08323524  0.98136739  1.42808791  1.0
  Li  Li4  1  0.73136739  0.80327948  1.39813215  1.0
  Li  Li5  1  0.34485267  0.91676476  0.89813215  1.0
  Li  Li6  1  0.40514733  0.80327948  1.07191209  1.0
  Li  Li7  1  1.01863261  0.91676476  1.57191209  1.0
  Li  Li8  1  0.66676476  1.26863261  1.07191209  1.0
  Li  Li9  1  0.55327948  0.65514733  0.57191209  1.0
  Li  Li10  1  1.19672052  1.26863261  1.60186785  1.0
  Li  Li11  1  1.08323524  0.65514733  1.10186785  1.0
  Li  Li12  1  0.73136739  0.33323524  0.92808791  1.0
  Li  Li13  1  0.34485267  0.44672052  0.42808791  1.0
  Li  Li14  1  0.40514733  0.33323524  0.60186785  1.0
  Li  Li15  1  1.01863261  0.44672052  1.10186785  1.0
  Li  Li16  1  1.08697933  0.29075432  0.79622502  1.0
  Li  Li17  1  0.25547070  -0.04075432  0.29622502  1.0
  Li  Li18  1  0.49452930  0.29075432  0.20377498  1.0
  Li  Li19  1  0.66302067  -0.04075432  0.70377498  1.0
  Li  Li20  1  0.70924568  0.50547070  0.79622502  1.0
  Li  Li21  1  1.04075432  1.33697933  1.29622502  1.0
  Li  Li22  1  0.70924568  0.91302067  1.20377498  1.0
  Li  Li23  1  1.04075432  0.74452930  0.70377498  1.0
  B  B24  1  0.98679289  0.11958170  0.86721119  1.0
  B  B25  1  0.49762949  0.13041830  0.36721119  1.0
  B  B26  1  0.25237051  0.11958170  0.13278881  1.0
  B  B27  1  0.76320711  0.13041830  0.63278881  1.0
  B  B28  1  0.88041830  0.74762949  0.86721119  1.0
  B  B29  1  0.86958170  1.23679289  1.36721119  1.0
  B  B30  1  0.88041830  1.01320711  1.13278881  1.0
  B  B31  1  0.86958170  0.50237051  0.63278881  1.0
  N  N32  1  0.71081914  0.36962977  0.34118938  1.0
  N  N33  1  0.72155961  0.88037023  0.84118938  1.0
  N  N34  1  1.02844039  0.36962977  0.65881062  1.0
  N  N35  1  1.03918086  0.88037023  1.15881062  1.0
  N  N36  1  0.63037023  0.97155961  1.34118938  1.0
  N  N37  1  0.11962977  0.96081914  0.84118938  1.0
  N  N38  1  0.63037023  0.28918086  0.65881062  1.0
  N  N39  1  0.11962977  0.27844039  0.15881062  1.0
