# generated using pymatgen
data_Na(RhO2)2
_symmetry_space_group_name_H-M   'P 1'
_cell_length_a   9.06922162
_cell_length_b   3.08565421
_cell_length_c   10.86043459
_cell_angle_alpha   90.00000000
_cell_angle_beta   90.00000000
_cell_angle_gamma   90.00000000
_symmetry_Int_Tables_number   1
_chemical_formula_structural   Na(RhO2)2
_chemical_formula_sum   'Na4 Rh8 O16'
_cell_volume   303.92363450
_cell_formula_units_Z   4
loop_
 _symmetry_equiv_pos_site_id
 _symmetry_equiv_pos_as_xyz
  1  'x, y, z'
loop_
 _atom_site_type_symbol
 _atom_site_label
 _atom_site_symmetry_multiplicity
 _atom_site_fract_x
 _atom_site_fract_y
 _atom_site_fract_z
 _atom_site_occupancy
  Na  Na0  1  0.76330614  0.75000000  0.65672491  1.0
  Na  Na1  1  0.26330614  0.75000000  0.84327509  1.0
  Na  Na2  1  0.23669386  0.25000000  0.34327509  1.0
  Na  Na3  1  0.73669386  0.25000000  0.15672491  1.0
  Rh  Rh4  1  0.91301171  0.75000000  0.39705010  1.0
  Rh  Rh5  1  0.41301171  0.75000000  0.10294990  1.0
  Rh  Rh6  1  0.08698829  0.25000000  0.60294990  1.0
  Rh  Rh7  1  0.58698829  0.25000000  0.89705010  1.0
  Rh  Rh8  1  0.44331699  0.75000000  0.61620580  1.0
  Rh  Rh9  1  0.94331699  0.75000000  0.88379420  1.0
  Rh  Rh10  1  0.55668301  0.25000000  0.38379420  1.0
  Rh  Rh11  1  0.05668301  0.25000000  0.11620580  1.0
  O  O12  1  0.91826493  0.75000000  0.06922566  1.0
  O  O13  1  0.41826493  0.75000000  0.43077434  1.0
  O  O14  1  0.08173507  0.25000000  0.93077434  1.0
  O  O15  1  0.58173507  0.25000000  0.56922566  1.0
  O  O16  1  0.69613102  0.75000000  0.34056090  1.0
  O  O17  1  0.19613102  0.75000000  0.15943910  1.0
  O  O18  1  0.30386898  0.25000000  0.65943910  1.0
  O  O19  1  0.80386898  0.25000000  0.84056090  1.0
  O  O20  1  0.61494663  0.75000000  0.02015736  1.0
  O  O21  1  0.11494663  0.75000000  0.47984264  1.0
  O  O22  1  0.38505337  0.25000000  0.97984264  1.0
  O  O23  1  0.88505337  0.25000000  0.52015736  1.0
  O  O24  1  0.53442037  0.75000000  0.78697184  1.0
  O  O25  1  0.03442037  0.75000000  0.71302816  1.0
  O  O26  1  0.46557963  0.25000000  0.21302816  1.0
  O  O27  1  0.96557963  0.25000000  0.28697184  1.0
