# generated using pymatgen
data_CoH8C2(N2O3)2
_symmetry_space_group_name_H-M   'P 1'
_cell_length_a   8.23975627
_cell_length_b   7.12668251
_cell_length_c   8.87415923
_cell_angle_alpha   63.71087522
_cell_angle_beta   65.56544692
_cell_angle_gamma   69.79395033
_symmetry_Int_Tables_number   1
_chemical_formula_structural   CoH8C2(N2O3)2
_chemical_formula_sum   'Co2 H16 C4 N8 O12'
_cell_volume   416.88400057
_cell_formula_units_Z   2
loop_
 _symmetry_equiv_pos_site_id
 _symmetry_equiv_pos_as_xyz
  1  'x, y, z'
loop_
 _atom_site_type_symbol
 _atom_site_label
 _atom_site_symmetry_multiplicity
 _atom_site_fract_x
 _atom_site_fract_y
 _atom_site_fract_z
 _atom_site_occupancy
  Co  Co0  1  -0.69365663  0.01444667  0.72369719  1.0
  Co  Co1  1  -0.30634337  -0.01444667  0.27630281  1.0
  H  H2  1  -0.45200111  0.14170105  0.77932269  1.0
  H  H3  1  -0.54799889  -0.14170105  0.22067731  1.0
  H  H4  1  -0.41731870  -0.11763942  0.87097193  1.0
  H  H5  1  -0.58268130  0.11763942  0.12902807  1.0
  H  H6  1  -0.93289470  0.14405968  0.54473955  1.0
  H  H7  1  -0.06710530  -0.14405968  0.45526045  1.0
  H  H8  1  -0.92253611  0.35563543  0.24939353  1.0
  H  H9  1  -0.07746389  -0.35563543  0.75060647  1.0
  H  H10  1  -0.92817481  -0.10101814  0.65593307  1.0
  H  H11  1  -0.07182519  0.10101814  0.34406693  1.0
  H  H12  1  -0.88539793  -0.40085719  0.60240235  1.0
  H  H13  1  -0.11460207  0.40085719  0.39759765  1.0
  H  H14  1  -0.81316963  -0.75031966  0.93107975  1.0
  H  H15  1  -0.18683037  0.75031966  0.06892025  1.0
  H  H16  1  -0.99468911  -0.76499322  0.91964938  1.0
  H  H17  1  -0.00531089  0.76499322  0.08035062  1.0
  C  C18  1  -0.69900195  -0.44926173  0.93519416  1.0
  C  C19  1  -0.30099805  0.44926173  0.06480584  1.0
  C  C20  1  -0.54988683  -0.43437204  0.76502192  1.0
  C  C21  1  -0.45011317  0.43437204  0.23497808  1.0
  N  N22  1  -0.67161162  0.48112810  0.45773683  1.0
  N  N23  1  -0.32838838  -0.48112810  0.54226317  1.0
  N  N24  1  -0.57203580  0.58604843  0.29701931  1.0
  N  N25  1  -0.42796420  -0.58604843  0.70298069  1.0
  N  N26  1  -0.61167640  0.27255217  0.49260576  1.0
  N  N27  1  -0.38832360  -0.27255217  0.50739424  1.0
  N  N28  1  -0.52674037  -0.23965864  0.64523452  1.0
  N  N29  1  -0.47325963  0.23965864  0.35476548  1.0
  O  O30  1  -0.49742000  0.01041183  0.81480482  1.0
  O  O31  1  -0.50258000  -0.01041183  0.18519518  1.0
  O  O32  1  -0.90487595  0.02967708  0.65265002  1.0
  O  O33  1  -0.09512405  -0.02967708  0.34734998  1.0
  O  O34  1  -0.78064291  -0.26855990  0.95282833  1.0
  O  O35  1  -0.21935709  0.26855990  0.04717167  1.0
  O  O36  1  -0.26259556  -0.37149131  0.95428273  1.0
  O  O37  1  -0.73740444  0.37149131  0.04571727  1.0
  O  O38  1  -0.99066465  -0.28951764  0.63512056  1.0
  O  O39  1  -0.00933535  0.28951764  0.36487944  1.0
  O  O40  1  -0.86326611  -0.76385364  0.85425969  1.0
  O  O41  1  -0.13673389  0.76385364  0.14574031  1.0
