# generated using pymatgen
data_In3Se4
_symmetry_space_group_name_H-M   'P 1'
_cell_length_a   13.67083257
_cell_length_b   13.67083257
_cell_length_c   13.67083257
_cell_angle_alpha   17.06239767
_cell_angle_beta   17.06239767
_cell_angle_gamma   17.06239767
_symmetry_Int_Tables_number   1
_chemical_formula_structural   In3Se4
_chemical_formula_sum   'In3 Se4'
_cell_volume   191.89843743
_cell_formula_units_Z   1
loop_
 _symmetry_equiv_pos_site_id
 _symmetry_equiv_pos_as_xyz
  1  'x, y, z'
loop_
 _atom_site_type_symbol
 _atom_site_label
 _atom_site_symmetry_multiplicity
 _atom_site_fract_x
 _atom_site_fract_y
 _atom_site_fract_z
 _atom_site_occupancy
  In  In0  1  1.57723567  0.57723567  0.57723567  1.0
  In  In1  1  1.42276433  0.42276433  0.42276433  1.0
  In  In2  1  0.00000000  -0.00000000  0.00000000  1.0
  Se  Se3  1  0.87798195  0.87798195  0.87798195  1.0
  Se  Se4  1  1.12201805  1.12201805  0.12201805  1.0
  Se  Se5  1  0.70770904  0.70770904  0.70770904  1.0
  Se  Se6  1  1.29229096  1.29229096  0.29229096  1.0
