# generated using pymatgen
data_K4Nb8Si(P2O17)2
_symmetry_space_group_name_H-M   'P 1'
_cell_length_a   10.70957764
_cell_length_b   10.70957764
_cell_length_c   6.50495388
_cell_angle_alpha   90.00000000
_cell_angle_beta   90.00000000
_cell_angle_gamma   90.00000000
_symmetry_Int_Tables_number   1
_chemical_formula_structural   K4Nb8Si(P2O17)2
_chemical_formula_sum   'K4 Nb8 Si1 P4 O34'
_cell_volume   746.08603069
_cell_formula_units_Z   1
loop_
 _symmetry_equiv_pos_site_id
 _symmetry_equiv_pos_as_xyz
  1  'x, y, z'
loop_
 _atom_site_type_symbol
 _atom_site_label
 _atom_site_symmetry_multiplicity
 _atom_site_fract_x
 _atom_site_fract_y
 _atom_site_fract_z
 _atom_site_occupancy
  K  K0  1  0.50000000  0.00000000  0.20050701  1.0
  K  K1  1  -0.00000000  0.50000000  0.79949299  1.0
  K  K2  1  0.50000000  0.50000000  0.00000000  1.0
  K  K3  1  0.00000000  0.00000000  0.00000000  1.0
  Nb  Nb4  1  0.00000000  0.68637688  0.29814705  1.0
  Nb  Nb5  1  0.31362312  -0.00000000  0.70185295  1.0
  Nb  Nb6  1  0.68637688  -0.00000000  0.70185295  1.0
  Nb  Nb7  1  0.00000000  0.31362312  0.29814705  1.0
  Nb  Nb8  1  0.32224225  0.67775775  0.50000000  1.0
  Nb  Nb9  1  0.67775775  0.67775775  0.50000000  1.0
  Nb  Nb10  1  0.32224225  0.32224225  0.50000000  1.0
  Nb  Nb11  1  0.67775775  0.32224225  0.50000000  1.0
  Si  Si12  1  0.00000000  0.00000000  0.50000000  1.0
  P  P13  1  0.26031896  0.73968104  -0.00000000  1.0
  P  P14  1  0.73968104  0.73968104  -0.00000000  1.0
  P  P15  1  0.26031896  0.26031896  -0.00000000  1.0
  P  P16  1  0.73968104  0.26031896  -0.00000000  1.0
  O  O17  1  0.12111555  0.71364917  0.04109329  1.0
  O  O18  1  0.87888445  0.71364917  0.04109329  1.0
  O  O19  1  0.28635083  0.87888445  0.95890671  1.0
  O  O20  1  0.71364917  0.87888445  0.95890671  1.0
  O  O21  1  0.12111555  0.28635083  0.04109329  1.0
  O  O22  1  0.87888445  0.28635083  0.04109329  1.0
  O  O23  1  0.28635083  0.12111555  0.95890671  1.0
  O  O24  1  0.71364917  0.12111555  0.95890671  1.0
  O  O25  1  0.34001179  0.69572932  0.18811219  1.0
  O  O26  1  0.65998821  0.69572932  0.18811219  1.0
  O  O27  1  0.30427068  0.65998821  0.81188781  1.0
  O  O28  1  0.69572932  0.65998821  0.81188781  1.0
  O  O29  1  0.34001179  0.30427068  0.18811219  1.0
  O  O30  1  0.65998821  0.30427068  0.18811219  1.0
  O  O31  1  0.30427068  0.34001179  0.81188781  1.0
  O  O32  1  0.69572932  0.34001179  0.81188781  1.0
  O  O33  1  0.13758656  0.67256028  0.47624441  1.0
  O  O34  1  0.86241344  0.67256028  0.47624441  1.0
  O  O35  1  0.32743972  0.86241344  0.52375559  1.0
  O  O36  1  0.67256028  0.86241344  0.52375559  1.0
  O  O37  1  0.13758656  0.32743972  0.47624441  1.0
  O  O38  1  0.86241344  0.32743972  0.47624441  1.0
  O  O39  1  0.32743972  0.13758656  0.52375559  1.0
  O  O40  1  0.67256028  0.13758656  0.52375559  1.0
  O  O41  1  0.50000000  0.67541460  0.52624960  1.0
  O  O42  1  0.32458540  0.50000000  0.47375040  1.0
  O  O43  1  0.67541460  0.50000000  0.47375040  1.0
  O  O44  1  0.50000000  0.32458540  0.52624960  1.0
  O  O45  1  0.00000000  0.87369111  0.35097252  1.0
  O  O46  1  0.12630889  -0.00000000  0.64902748  1.0
  O  O47  1  0.87369111  -0.00000000  0.64902748  1.0
  O  O48  1  0.00000000  0.12630889  0.35097252  1.0
  O  O49  1  0.50000000  0.00000000  0.75187538  1.0
  O  O50  1  -0.00000000  0.50000000  0.24812462  1.0
