# generated using pymatgen
data_AlAgO2
_symmetry_space_group_name_H-M   'P 1'
_cell_length_a   5.47524463
_cell_length_b   7.03874702
_cell_length_c   5.47589261
_cell_angle_alpha   90.00000000
_cell_angle_beta   90.00000000
_cell_angle_gamma   90.00000000
_symmetry_Int_Tables_number   1
_chemical_formula_structural   AlAgO2
_chemical_formula_sum   'Al4 Ag4 O8'
_cell_volume   211.03466870
_cell_formula_units_Z   4
loop_
 _symmetry_equiv_pos_site_id
 _symmetry_equiv_pos_as_xyz
  1  'x, y, z'
loop_
 _atom_site_type_symbol
 _atom_site_label
 _atom_site_symmetry_multiplicity
 _atom_site_fract_x
 _atom_site_fract_y
 _atom_site_fract_z
 _atom_site_occupancy
  Al  Al0  1  0.43511233  0.62455424  0.56550264  1.0
  Al  Al1  1  0.93511233  0.87544576  0.56550264  1.0
  Al  Al2  1  0.56488767  0.37544576  0.06550264  1.0
  Al  Al3  1  0.06488767  0.12455424  0.06550264  1.0
  Ag  Ag4  1  0.44523767  0.13680947  0.56692404  1.0
  Ag  Ag5  1  0.94523767  0.36319053  0.56692404  1.0
  Ag  Ag6  1  0.55476233  0.86319053  0.06692404  1.0
  Ag  Ag7  1  0.05476233  0.63680947  0.06692404  1.0
  O  O8  1  0.46877253  0.56804777  0.88004133  1.0
  O  O9  1  0.96877253  0.93195223  0.88004133  1.0
  O  O10  1  0.53122747  0.43195223  0.38004133  1.0
  O  O11  1  0.03122747  0.06804777  0.38004133  1.0
  O  O12  1  0.12141520  0.67315302  0.50193199  1.0
  O  O13  1  0.62141520  0.82684698  0.50193199  1.0
  O  O14  1  0.87858480  0.32684698  0.00193199  1.0
  O  O15  1  0.37858480  0.17315302  0.00193199  1.0
