# generated using pymatgen
data_NCl
_symmetry_space_group_name_H-M   'P 1'
_cell_length_a   8.39519902
_cell_length_b   8.39519902
_cell_length_c   8.39519902
_cell_angle_alpha   90.00000000
_cell_angle_beta   90.00000000
_cell_angle_gamma   90.00000000
_symmetry_Int_Tables_number   1
_chemical_formula_structural   NCl
_chemical_formula_sum   'N8 Cl8'
_cell_volume   591.68830845
_cell_formula_units_Z   8
loop_
 _symmetry_equiv_pos_site_id
 _symmetry_equiv_pos_as_xyz
  1  'x, y, z'
loop_
 _atom_site_type_symbol
 _atom_site_label
 _atom_site_symmetry_multiplicity
 _atom_site_fract_x
 _atom_site_fract_y
 _atom_site_fract_z
 _atom_site_occupancy
  N  N0  1  0.46202331  0.96202331  0.53797669  1.0
  N  N1  1  0.46202331  0.53797669  0.03797669  1.0
  N  N2  1  0.96202331  0.96202331  0.96202331  1.0
  N  N3  1  0.96202331  0.53797669  0.46202331  1.0
  N  N4  1  0.53797669  0.46202331  0.96202331  1.0
  N  N5  1  0.53797669  0.03797669  0.46202331  1.0
  N  N6  1  0.03797669  0.46202331  0.53797669  1.0
  N  N7  1  0.03797669  0.03797669  0.03797669  1.0
  Cl  Cl8  1  0.26965609  0.76965609  0.73034391  1.0
  Cl  Cl9  1  0.26965609  0.73034391  0.23034391  1.0
  Cl  Cl10  1  0.76965609  0.76965609  0.76965609  1.0
  Cl  Cl11  1  0.76965609  0.73034391  0.26965609  1.0
  Cl  Cl12  1  0.73034391  0.26965609  0.76965609  1.0
  Cl  Cl13  1  0.73034391  0.23034391  0.26965609  1.0
  Cl  Cl14  1  0.23034391  0.26965609  0.73034391  1.0
  Cl  Cl15  1  0.23034391  0.23034391  0.23034391  1.0
