# generated using pymatgen
data_KAg(NO3)2
_symmetry_space_group_name_H-M   'P 1'
_cell_length_a   8.46310463
_cell_length_b   5.00931888
_cell_length_c   14.40839212
_cell_angle_alpha   90.00000000
_cell_angle_beta   100.32995019
_cell_angle_gamma   90.00000000
_symmetry_Int_Tables_number   1
_chemical_formula_structural   KAg(NO3)2
_chemical_formula_sum   'K4 Ag4 N8 O24'
_cell_volume   600.93423493
_cell_formula_units_Z   4
loop_
 _symmetry_equiv_pos_site_id
 _symmetry_equiv_pos_as_xyz
  1  'x, y, z'
loop_
 _atom_site_type_symbol
 _atom_site_label
 _atom_site_symmetry_multiplicity
 _atom_site_fract_x
 _atom_site_fract_y
 _atom_site_fract_z
 _atom_site_occupancy
  K  K0  1  0.76231634  0.45400932  0.06925971  1.0
  K  K1  1  0.76231634  0.04599068  0.56925971  1.0
  K  K2  1  0.23768366  0.95400932  0.43074029  1.0
  K  K3  1  0.23768366  0.54599068  0.93074029  1.0
  Ag  Ag4  1  0.69166737  0.91173770  0.28703237  1.0
  Ag  Ag5  1  0.69166737  0.58826230  0.78703237  1.0
  Ag  Ag6  1  0.30833263  0.41173770  0.21296763  1.0
  Ag  Ag7  1  0.30833263  0.08826230  0.71296763  1.0
  N  N8  1  0.93490608  0.35821534  0.33482098  1.0
  N  N9  1  0.93490608  0.14178466  0.83482098  1.0
  N  N10  1  0.06509392  0.85821534  0.16517902  1.0
  N  N11  1  0.06509392  0.64178466  0.66517902  1.0
  N  N12  1  0.56277304  0.44398739  0.40084922  1.0
  N  N13  1  0.56277304  0.05601261  0.90084922  1.0
  N  N14  1  0.43722696  0.94398739  0.09915078  1.0
  N  N15  1  0.43722696  0.55601261  0.59915078  1.0
  O  O16  1  0.93482220  0.97849603  0.14271619  1.0
  O  O17  1  0.93482220  0.52150397  0.64271619  1.0
  O  O18  1  0.06517780  0.47849603  0.35728381  1.0
  O  O19  1  0.06517780  0.02150397  0.85728381  1.0
  O  O20  1  0.91913628  0.12602730  0.37002397  1.0
  O  O21  1  0.91913628  0.37397270  0.87002397  1.0
  O  O22  1  0.08086372  0.62602730  0.12997603  1.0
  O  O23  1  0.08086372  0.87397270  0.62997603  1.0
  O  O24  1  0.81804930  0.45568638  0.27789368  1.0
  O  O25  1  0.81804930  0.04431362  0.77789368  1.0
  O  O26  1  0.18195070  0.95568638  0.22210632  1.0
  O  O27  1  0.18195070  0.54431362  0.72210632  1.0
  O  O28  1  0.67381831  0.97375600  0.96358130  1.0
  O  O29  1  0.67381831  0.52624400  0.46358130  1.0
  O  O30  1  0.32618169  0.47375600  0.53641870  1.0
  O  O31  1  0.32618169  0.02624400  0.03641870  1.0
  O  O32  1  0.52170190  0.20180321  0.39656638  1.0
  O  O33  1  0.52170190  0.29819679  0.89656638  1.0
  O  O34  1  0.47829810  0.70180321  0.10343362  1.0
  O  O35  1  0.47829810  0.79819679  0.60343362  1.0
  O  O36  1  0.50966976  0.10837731  0.16103372  1.0
  O  O37  1  0.50966976  0.39162269  0.66103372  1.0
  O  O38  1  0.49033024  0.60837731  0.33896628  1.0
  O  O39  1  0.49033024  0.89162269  0.83896628  1.0
