# generated using pymatgen
data_CrFeO3
_symmetry_space_group_name_H-M   'P 1'
_cell_length_a   5.48935055
_cell_length_b   5.48935055
_cell_length_c   5.48935055
_cell_angle_alpha   52.28001550
_cell_angle_beta   52.28001550
_cell_angle_gamma   52.28001550
_symmetry_Int_Tables_number   1
_chemical_formula_structural   CrFeO3
_chemical_formula_sum   'Cr2 Fe2 O6'
_cell_volume   95.75115284
_cell_formula_units_Z   2
loop_
 _symmetry_equiv_pos_site_id
 _symmetry_equiv_pos_as_xyz
  1  'x, y, z'
loop_
 _atom_site_type_symbol
 _atom_site_label
 _atom_site_symmetry_multiplicity
 _atom_site_fract_x
 _atom_site_fract_y
 _atom_site_fract_z
 _atom_site_occupancy
  Cr  Cr0  1  0.15433356  0.15433356  0.15433356  1.0
  Cr  Cr1  1  0.84566644  -0.15433356  -0.15433356  1.0
  Fe  Fe2  1  0.34903702  0.34903702  -0.65096298  1.0
  Fe  Fe3  1  0.65096298  0.65096298  -0.34903702  1.0
  O  O4  1  0.43274434  0.06619886  -0.23675184  1.0
  O  O5  1  1.23675184  -0.43274434  -0.06619886  1.0
  O  O6  1  0.93380114  0.23675184  -0.43274434  1.0
  O  O7  1  0.56725566  -0.06619886  0.23675184  1.0
  O  O8  1  0.76324816  -0.56725566  0.06619886  1.0
  O  O9  1  1.06619886  -0.23675184  -0.56725566  1.0
