# generated using pymatgen
data_RbS
_symmetry_space_group_name_H-M   'P 1'
_cell_length_a   6.13068676
_cell_length_b   6.13068676
_cell_length_c   6.13068676
_cell_angle_alpha   131.15130944
_cell_angle_beta   111.05547883
_cell_angle_gamma   89.00749759
_symmetry_Int_Tables_number   1
_chemical_formula_structural   RbS
_chemical_formula_sum   'Rb2 S2'
_cell_volume   153.84729430
_cell_formula_units_Z   2
loop_
 _symmetry_equiv_pos_site_id
 _symmetry_equiv_pos_as_xyz
  1  'x, y, z'
loop_
 _atom_site_type_symbol
 _atom_site_label
 _atom_site_symmetry_multiplicity
 _atom_site_fract_x
 _atom_site_fract_y
 _atom_site_fract_z
 _atom_site_occupancy
  Rb  Rb0  1  0.72374585  0.72374585  1.00000000  1.0
  Rb  Rb1  1  1.27625415  1.27625415  1.00000000  1.0
  S  S2  1  0.65415804  0.00000000  0.65415804  1.0
  S  S3  1  0.34584196  0.00000000  0.34584196  1.0
