# generated using pymatgen
data_NaPO4
_symmetry_space_group_name_H-M   'P 1'
_cell_length_a   10.35316183
_cell_length_b   6.88235878
_cell_length_c   6.13705267
_cell_angle_alpha   106.79989179
_cell_angle_beta   98.09374705
_cell_angle_gamma   102.27882158
_symmetry_Int_Tables_number   1
_chemical_formula_structural   NaPO4
_chemical_formula_sum   'Na4 P4 O16'
_cell_volume   399.37401955
_cell_formula_units_Z   4
loop_
 _symmetry_equiv_pos_site_id
 _symmetry_equiv_pos_as_xyz
  1  'x, y, z'
loop_
 _atom_site_type_symbol
 _atom_site_label
 _atom_site_symmetry_multiplicity
 _atom_site_fract_x
 _atom_site_fract_y
 _atom_site_fract_z
 _atom_site_occupancy
  P  P0  1  -0.59088524  -0.77728578  -0.71766658  1.0
  P  P1  1  -0.40911476  -0.22271422  -0.28233342  1.0
  P  P2  1  -0.70388008  -0.43871913  -0.46996894  1.0
  P  P3  1  -0.29611992  -0.56128087  -0.53003106  1.0
  O  O4  1  -0.44007546  -0.72655474  -0.54812211  1.0
  O  O5  1  -0.55992454  -0.27344526  -0.45187789  1.0
  O  O6  1  -0.66842865  -0.66423634  -0.52199725  1.0
  O  O7  1  -0.33157135  -0.33576366  -0.47800275  1.0
  O  O8  1  -0.92015684  -0.74947188  -0.87853682  1.0
  O  O9  1  -0.07984316  -0.25052812  -0.12146318  1.0
  O  O10  1  -0.98432521  -0.92416134  -0.41067169  1.0
  O  O11  1  -0.01567479  -0.07583866  -0.58932831  1.0
  O  O12  1  -0.25101049  -0.60640148  -0.75618099  1.0
  O  O13  1  -0.74898951  -0.39359852  -0.24381901  1.0
  O  O14  1  -0.79351880  -0.43012829  -0.68661182  1.0
  O  O15  1  -0.20648120  -0.56987171  -0.31338818  1.0
  O  O16  1  -0.57786337  -0.66614950  -0.89426773  1.0
  O  O17  1  -0.42213663  -0.33385050  -0.10573227  1.0
  O  O18  1  -0.65127782  -1.00970538  -0.78724439  1.0
  O  O19  1  -0.34872218  0.00970538  -0.21275561  1.0
  Na  Na20  1  -0.58231241  -0.32251945  -0.88278654  1.0
  Na  Na21  1  -0.41768759  -0.67748055  -0.11721346  1.0
  Na  Na22  1  -0.85746929  -0.25137008  -0.95126989  1.0
  Na  Na23  1  -0.14253071  -0.74862992  -0.04873011  1.0
