# generated using pymatgen
data_CaAl2(SiO5)2
_symmetry_space_group_name_H-M   'P 1'
_cell_length_a   5.37563034
_cell_length_b   5.37563034
_cell_length_c   12.39258694
_cell_angle_alpha   90.00000000
_cell_angle_beta   90.00000000
_cell_angle_gamma   113.26389916
_symmetry_Int_Tables_number   1
_chemical_formula_structural   CaAl2(SiO5)2
_chemical_formula_sum   'Ca2 Al4 Si4 O20'
_cell_volume   328.99728964
_cell_formula_units_Z   2
loop_
 _symmetry_equiv_pos_site_id
 _symmetry_equiv_pos_as_xyz
  1  'x, y, z'
loop_
 _atom_site_type_symbol
 _atom_site_label
 _atom_site_symmetry_multiplicity
 _atom_site_fract_x
 _atom_site_fract_y
 _atom_site_fract_z
 _atom_site_occupancy
  Ca  Ca0  1  0.38859461  0.61140539  0.25000000  1.0
  Ca  Ca1  1  -0.38859461  1.38859461  0.75000000  1.0
  Al  Al2  1  -0.00000000  1.50000000  0.50000000  1.0
  Al  Al3  1  -0.00000000  1.50000000  0.00000000  1.0
  Al  Al4  1  0.50000000  1.00000000  0.00000000  1.0
  Al  Al5  1  0.50000000  1.00000000  0.50000000  1.0
  O  O6  1  0.16097414  0.83902586  0.43120433  1.0
  O  O7  1  0.16097414  0.83902586  0.06879567  1.0
  O  O8  1  -0.16097414  1.16097414  0.93120433  1.0
  O  O9  1  -0.16097414  1.16097414  0.56879567  1.0
  O  O10  1  -0.33728154  1.33728154  0.40297769  1.0
  O  O11  1  -0.33728154  1.33728154  0.09702231  1.0
  O  O12  1  0.33728154  0.66271846  0.90297769  1.0
  O  O13  1  0.33728154  0.66271846  0.59702231  1.0
  O  O14  1  -0.34599755  1.34599755  0.25000000  1.0
  O  O15  1  0.34599755  0.65400245  0.75000000  1.0
  O  O16  1  0.13751366  0.33341111  0.39651208  1.0
  O  O17  1  0.13751366  0.33341111  0.10348792  1.0
  O  O18  1  -0.66658889  1.13751366  0.89651208  1.0
  O  O19  1  -0.66658889  1.13751366  0.60348792  1.0
  O  O20  1  0.66658889  0.86248634  0.39651208  1.0
  O  O21  1  0.66658889  0.86248634  0.10348792  1.0
  O  O22  1  -0.13751366  1.66658889  0.89651208  1.0
  O  O23  1  -0.13751366  1.66658889  0.60348792  1.0
  O  O24  1  0.04997314  0.95002686  0.25000000  1.0
  O  O25  1  -0.04997314  1.04997314  0.75000000  1.0
  Si  Si26  1  0.00721582  0.99278418  0.87366802  1.0
  Si  Si27  1  0.00721582  0.99278418  0.62633198  1.0
  Si  Si28  1  -0.00721582  1.00721582  0.37366802  1.0
  Si  Si29  1  -0.00721582  1.00721582  0.12633198  1.0
