# generated using pymatgen
data_Sr5Ta4O15
_symmetry_space_group_name_H-M   'P 1'
_cell_length_a   5.70741151
_cell_length_b   5.70741151
_cell_length_c   11.64213282
_cell_angle_alpha   90.00000000
_cell_angle_beta   90.00000000
_cell_angle_gamma   120.00000000
_symmetry_Int_Tables_number   1
_chemical_formula_structural   Sr5Ta4O15
_chemical_formula_sum   'Sr5 Ta4 O15'
_cell_volume   328.42904272
_cell_formula_units_Z   1
loop_
 _symmetry_equiv_pos_site_id
 _symmetry_equiv_pos_as_xyz
  1  'x, y, z'
loop_
 _atom_site_type_symbol
 _atom_site_label
 _atom_site_symmetry_multiplicity
 _atom_site_fract_x
 _atom_site_fract_y
 _atom_site_fract_z
 _atom_site_occupancy
  Sr  Sr0  1  0.00000000  0.00000000  0.00000000  1.0
  Sr  Sr1  1  0.33333333  0.66666667  0.44202013  1.0
  Sr  Sr2  1  0.66666667  0.33333333  0.55797987  1.0
  Sr  Sr3  1  0.33333333  0.66666667  0.77693289  1.0
  Sr  Sr4  1  0.66666667  0.33333333  0.22306711  1.0
  Ta  Ta5  1  0.33333333  0.66666667  0.10412349  1.0
  Ta  Ta6  1  0.66666667  0.33333333  0.89587651  1.0
  Ta  Ta7  1  0.00000000  0.00000000  0.31652391  1.0
  Ta  Ta8  1  0.00000000  0.00000000  0.68347609  1.0
  O  O9  1  0.66981673  0.83490837  0.19240191  1.0
  O  O10  1  0.83490837  0.66981673  0.80759809  1.0
  O  O11  1  0.83490837  0.16509163  0.80759809  1.0
  O  O12  1  0.16509163  0.83490837  0.19240191  1.0
  O  O13  1  0.16509163  0.33018327  0.19240191  1.0
  O  O14  1  0.33018327  0.16509163  0.80759809  1.0
  O  O15  1  0.33713627  0.16856814  0.39045556  1.0
  O  O16  1  0.16856814  0.33713627  0.60954444  1.0
  O  O17  1  0.16856814  0.83143186  0.60954444  1.0
  O  O18  1  0.83143186  0.16856814  0.39045556  1.0
  O  O19  1  0.83143186  0.66286373  0.39045556  1.0
  O  O20  1  0.66286373  0.83143186  0.60954444  1.0
  O  O21  1  0.50000000  0.50000000  0.00000000  1.0
  O  O22  1  0.50000000  0.00000000  0.00000000  1.0
  O  O23  1  -0.00000000  0.50000000  0.00000000  1.0
