# generated using pymatgen
data_CdAs
_symmetry_space_group_name_H-M   'P 1'
_cell_length_a   6.10653458
_cell_length_b   7.93970465
_cell_length_c   8.17860191
_cell_angle_alpha   90.00000000
_cell_angle_beta   90.00000000
_cell_angle_gamma   90.00000000
_symmetry_Int_Tables_number   1
_chemical_formula_structural   CdAs
_chemical_formula_sum   'Cd8 As8'
_cell_volume   396.53199793
_cell_formula_units_Z   8
loop_
 _symmetry_equiv_pos_site_id
 _symmetry_equiv_pos_as_xyz
  1  'x, y, z'
loop_
 _atom_site_type_symbol
 _atom_site_label
 _atom_site_symmetry_multiplicity
 _atom_site_fract_x
 _atom_site_fract_y
 _atom_site_fract_z
 _atom_site_occupancy
  Cd  Cd0  1  0.45295628  0.86980423  0.63830746  1.0
  Cd  Cd1  1  0.45295628  0.63019577  0.13830746  1.0
  Cd  Cd2  1  0.95295628  0.86980423  0.86169254  1.0
  Cd  Cd3  1  0.95295628  0.63019577  0.36169254  1.0
  Cd  Cd4  1  0.54704372  0.36980423  0.86169254  1.0
  Cd  Cd5  1  0.54704372  0.13019577  0.36169254  1.0
  Cd  Cd6  1  0.04704372  0.36980423  0.63830746  1.0
  Cd  Cd7  1  0.04704372  0.13019577  0.13830746  1.0
  As  As8  1  0.13264921  0.56510937  0.90423346  1.0
  As  As9  1  0.13264921  0.93489063  0.40423346  1.0
  As  As10  1  0.63264921  0.56510937  0.59576654  1.0
  As  As11  1  0.63264921  0.93489063  0.09576654  1.0
  As  As12  1  0.86735079  0.06510937  0.59576654  1.0
  As  As13  1  0.86735079  0.43489063  0.09576654  1.0
  As  As14  1  0.36735079  0.06510937  0.90423346  1.0
  As  As15  1  0.36735079  0.43489063  0.40423346  1.0
