# generated using pymatgen
data_Cr3W3C
_symmetry_space_group_name_H-M   'P 1'
_cell_length_a   7.93493672
_cell_length_b   7.93493672
_cell_length_c   7.93493672
_cell_angle_alpha   60.00000000
_cell_angle_beta   60.00000000
_cell_angle_gamma   60.00000000
_symmetry_Int_Tables_number   1
_chemical_formula_structural   Cr3W3C
_chemical_formula_sum   'Cr12 W12 C4'
_cell_volume   353.27703344
_cell_formula_units_Z   4
loop_
 _symmetry_equiv_pos_site_id
 _symmetry_equiv_pos_as_xyz
  1  'x, y, z'
loop_
 _atom_site_type_symbol
 _atom_site_label
 _atom_site_symmetry_multiplicity
 _atom_site_fract_x
 _atom_site_fract_y
 _atom_site_fract_z
 _atom_site_occupancy
  Cr  Cr0  1  0.62500000  1.12500000  0.12500000  1.0
  Cr  Cr1  1  0.12500000  1.62500000  0.12500000  1.0
  Cr  Cr2  1  0.12500000  0.12500000  1.62500000  1.0
  Cr  Cr3  1  0.12500000  0.12500000  0.12500000  1.0
  Cr  Cr4  1  -0.75987288  0.91995763  0.91995763  1.0
  Cr  Cr5  1  0.91995763  -0.75987288  0.91995763  1.0
  Cr  Cr6  1  0.91995763  0.91995763  -0.75987288  1.0
  Cr  Cr7  1  0.91995763  0.91995763  0.91995763  1.0
  Cr  Cr8  1  0.00987288  1.33004237  0.33004237  1.0
  Cr  Cr9  1  0.33004237  1.00987288  0.33004237  1.0
  Cr  Cr10  1  0.33004237  1.33004237  0.00987288  1.0
  Cr  Cr11  1  0.33004237  1.33004237  0.33004237  1.0
  W  W12  1  0.69413132  0.69413132  -0.69413132  1.0
  W  W13  1  0.30586868  1.30586868  -0.30586868  1.0
  W  W14  1  0.69413132  -0.69413132  0.69413132  1.0
  W  W15  1  0.30586868  -0.30586868  0.30586868  1.0
  W  W16  1  -0.69413132  0.69413132  0.69413132  1.0
  W  W17  1  -0.30586868  0.30586868  0.30586868  1.0
  W  W18  1  -0.44413132  0.55586868  0.94413132  1.0
  W  W19  1  0.94413132  0.94413132  -0.44413132  1.0
  W  W20  1  0.55586868  0.94413132  0.55586868  1.0
  W  W21  1  0.94413132  0.55586868  0.94413132  1.0
  W  W22  1  0.94413132  0.55586868  -0.44413132  1.0
  W  W23  1  0.55586868  0.94413132  -0.05586868  1.0
  C  C24  1  1.12500000  0.62500000  0.62500000  1.0
  C  C25  1  0.62500000  1.12500000  -0.37500000  1.0
  C  C26  1  -0.37500000  0.62500000  1.12500000  1.0
  C  C27  1  -0.37500000  0.62500000  0.62500000  1.0
