# generated using pymatgen
data_Cu2Ni(SO4)2
_symmetry_space_group_name_H-M   'P 1'
_cell_length_a   6.02346346
_cell_length_b   9.25412913
_cell_length_c   9.22577275
_cell_angle_alpha   90.00000000
_cell_angle_beta   133.92579595
_cell_angle_gamma   90.00000000
_symmetry_Int_Tables_number   1
_chemical_formula_structural   Cu2Ni(SO4)2
_chemical_formula_sum   'Cu4 Ni2 S4 O16'
_cell_volume   370.39160405
_cell_formula_units_Z   2
loop_
 _symmetry_equiv_pos_site_id
 _symmetry_equiv_pos_as_xyz
  1  'x, y, z'
loop_
 _atom_site_type_symbol
 _atom_site_label
 _atom_site_symmetry_multiplicity
 _atom_site_fract_x
 _atom_site_fract_y
 _atom_site_fract_z
 _atom_site_occupancy
  S  S0  1  0.98349960  0.63101566  0.19981217  1.0
  S  S1  1  0.98349960  0.86898434  0.69981217  1.0
  S  S2  1  0.01650040  0.13101566  0.30018783  1.0
  S  S3  1  0.01650040  0.36898434  0.80018783  1.0
  O  O4  1  0.82892934  0.22583228  0.31842910  1.0
  O  O5  1  0.82892934  0.27416772  0.81842910  1.0
  O  O6  1  0.17107066  0.72583228  0.18157090  1.0
  O  O7  1  0.17107066  0.77416772  0.68157090  1.0
  O  O8  1  0.81643886  0.12751183  0.06171444  1.0
  O  O9  1  0.81643886  0.37248817  0.56171444  1.0
  O  O10  1  0.18356114  0.62751183  0.43828556  1.0
  O  O11  1  0.18356114  0.87248817  0.93828556  1.0
  O  O12  1  0.27891952  0.24013527  0.38602671  1.0
  O  O13  1  0.27891952  0.25986473  0.88602671  1.0
  O  O14  1  0.72108048  0.74013527  0.11397329  1.0
  O  O15  1  0.72108048  0.75986473  0.61397329  1.0
  O  O16  1  0.37441346  0.03683483  0.22407165  1.0
  O  O17  1  0.37441346  0.46316517  0.72407165  1.0
  O  O18  1  0.62558654  0.53683483  0.27592835  1.0
  O  O19  1  0.62558654  0.96316517  0.77592835  1.0
  Cu  Cu20  1  0.56523665  0.29480770  -0.13385333  1.0
  Cu  Cu21  1  0.56523665  0.20519230  0.36614667  1.0
  Cu  Cu22  1  0.43476335  0.79480770  0.63385333  1.0
  Cu  Cu23  1  0.43476335  0.70519230  1.13385333  1.0
  Ni  Ni24  1  -0.00000000  0.50000000  0.50000000  1.0
  Ni  Ni25  1  0.00000000  0.00000000  0.00000000  1.0
