# generated using pymatgen
data_CdI2
_symmetry_space_group_name_H-M   'P 1'
_cell_length_a   4.32807415
_cell_length_b   4.32807415
_cell_length_c   91.00484964
_cell_angle_alpha   90.00000000
_cell_angle_beta   90.00000000
_cell_angle_gamma   120.00000000
_symmetry_Int_Tables_number   1
_chemical_formula_structural   CdI2
_chemical_formula_sum   'Cd12 I24'
_cell_volume   1476.33376604
_cell_formula_units_Z   12
loop_
 _symmetry_equiv_pos_site_id
 _symmetry_equiv_pos_as_xyz
  1  'x, y, z'
loop_
 _atom_site_type_symbol
 _atom_site_label
 _atom_site_symmetry_multiplicity
 _atom_site_fract_x
 _atom_site_fract_y
 _atom_site_fract_z
 _atom_site_occupancy
  Cd  Cd0  1  0.00000000  0.00000000  0.02084616  1.0
  Cd  Cd1  1  0.00000000  0.00000000  0.10416631  1.0
  Cd  Cd2  1  0.00000000  0.00000000  0.18749939  1.0
  Cd  Cd3  1  0.00000000  0.00000000  0.27083246  1.0
  Cd  Cd4  1  0.00000000  0.00000000  0.35416709  1.0
  Cd  Cd5  1  0.00000000  0.00000000  0.43750040  1.0
  Cd  Cd6  1  0.00000000  0.00000000  0.52083202  1.0
  Cd  Cd7  1  0.00000000  0.00000000  0.60415437  1.0
  Cd  Cd8  1  0.00000000  0.00000000  0.77084533  1.0
  Cd  Cd9  1  0.00000000  0.00000000  0.85415343  1.0
  Cd  Cd10  1  0.66666667  0.33333333  0.68750255  1.0
  Cd  Cd11  1  0.66666667  0.33333333  0.93750193  1.0
  I  I12  1  0.00000000  0.00000000  0.70638640  1.0
  I  I13  1  0.00000000  0.00000000  0.95638571  1.0
  I  I14  1  0.66666667  0.33333333  0.03973651  1.0
  I  I15  1  0.66666667  0.33333333  0.12306033  1.0
  I  I16  1  0.66666667  0.33333333  0.20638401  1.0
  I  I17  1  0.66666667  0.33333333  0.28972397  1.0
  I  I18  1  0.66666667  0.33333333  0.37306075  1.0
  I  I19  1  0.66666667  0.33333333  0.45638508  1.0
  I  I20  1  0.66666667  0.33333333  0.53972327  1.0
  I  I21  1  0.66666667  0.33333333  0.62304770  1.0
  I  I22  1  0.66666667  0.33333333  0.78973552  1.0
  I  I23  1  0.66666667  0.33333333  0.87304677  1.0
  I  I24  1  0.33333333  0.66666667  0.00195380  1.0
  I  I25  1  0.33333333  0.66666667  0.08527487  1.0
  I  I26  1  0.33333333  0.66666667  0.16861401  1.0
  I  I27  1  0.33333333  0.66666667  0.25193820  1.0
  I  I28  1  0.33333333  0.66666667  0.33527492  1.0
  I  I29  1  0.33333333  0.66666667  0.41861518  1.0
  I  I30  1  0.33333333  0.66666667  0.50193805  1.0
  I  I31  1  0.33333333  0.66666667  0.58526196  1.0
  I  I32  1  0.33333333  0.66666667  0.66861883  1.0
  I  I33  1  0.33333333  0.66666667  0.75195312  1.0
  I  I34  1  0.33333333  0.66666667  0.83526144  1.0
  I  I35  1  0.33333333  0.66666667  0.91861815  1.0
