# generated using pymatgen
data_LaCdAu
_symmetry_space_group_name_H-M   'P 1'
_cell_length_a   7.97340613
_cell_length_b   7.97340613
_cell_length_c   4.19270147
_cell_angle_alpha   90.00000000
_cell_angle_beta   90.00000000
_cell_angle_gamma   120.00000000
_symmetry_Int_Tables_number   1
_chemical_formula_structural   LaCdAu
_chemical_formula_sum   'La3 Cd3 Au3'
_cell_volume   230.84067934
_cell_formula_units_Z   3
loop_
 _symmetry_equiv_pos_site_id
 _symmetry_equiv_pos_as_xyz
  1  'x, y, z'
loop_
 _atom_site_type_symbol
 _atom_site_label
 _atom_site_symmetry_multiplicity
 _atom_site_fract_x
 _atom_site_fract_y
 _atom_site_fract_z
 _atom_site_occupancy
  La  La0  1  0.40731132  0.40731132  -0.00000000  1.0
  La  La1  1  -0.00000000  0.59268868  0.00000000  1.0
  La  La2  1  0.59268868  -0.00000000  0.00000000  1.0
  Cd  Cd3  1  0.74924672  0.74924672  0.50000000  1.0
  Cd  Cd4  1  0.00000000  0.25075328  0.50000000  1.0
  Cd  Cd5  1  0.25075328  0.00000000  0.50000000  1.0
  Au  Au6  1  0.33333333  0.66666667  0.50000000  1.0
  Au  Au7  1  0.66666667  0.33333333  0.50000000  1.0
  Au  Au8  1  -0.00000000  -0.00000000  -0.00000000  1.0
