# generated using pymatgen
data_CaAlF5
_symmetry_space_group_name_H-M   'P 1'
_cell_length_a   5.42997570
_cell_length_b   9.97092937
_cell_length_c   7.42680003
_cell_angle_alpha   90.00000000
_cell_angle_beta   109.87717024
_cell_angle_gamma   90.00000000
_symmetry_Int_Tables_number   1
_chemical_formula_structural   CaAlF5
_chemical_formula_sum   'Ca4 Al4 F20'
_cell_volume   378.14539151
_cell_formula_units_Z   4
loop_
 _symmetry_equiv_pos_site_id
 _symmetry_equiv_pos_as_xyz
  1  'x, y, z'
loop_
 _atom_site_type_symbol
 _atom_site_label
 _atom_site_symmetry_multiplicity
 _atom_site_fract_x
 _atom_site_fract_y
 _atom_site_fract_z
 _atom_site_occupancy
  Ca  Ca0  1  0.97480768  0.48258113  0.24591317  1.0
  Ca  Ca1  1  0.97480768  0.01741887  0.74591317  1.0
  Ca  Ca2  1  0.02519232  0.98258113  0.25408683  1.0
  Ca  Ca3  1  0.02519232  0.51741887  0.75408683  1.0
  Al  Al4  1  0.60104652  0.24765000  0.39990674  1.0
  Al  Al5  1  0.60104652  0.25235000  0.89990674  1.0
  Al  Al6  1  0.39895348  0.74765000  0.10009326  1.0
  Al  Al7  1  0.39895348  0.75235000  0.60009326  1.0
  F  F8  1  0.87096512  0.12324712  0.44499646  1.0
  F  F9  1  0.87096512  0.37675288  0.94499646  1.0
  F  F10  1  0.12903488  0.62324712  0.05500354  1.0
  F  F11  1  0.12903488  0.87675288  0.55500354  1.0
  F  F12  1  0.84881636  0.38101838  0.48667429  1.0
  F  F13  1  0.84881636  0.11898162  0.98667429  1.0
  F  F14  1  0.15118364  0.88101838  0.01332571  1.0
  F  F15  1  0.15118364  0.61898162  0.51332571  1.0
  F  F16  1  0.63429599  0.28288800  0.15873409  1.0
  F  F17  1  0.63429599  0.21711200  0.65873409  1.0
  F  F18  1  0.36570401  0.78288800  0.34126591  1.0
  F  F19  1  0.36570401  0.71711200  0.84126591  1.0
  F  F20  1  0.37639176  0.11284256  0.31960433  1.0
  F  F21  1  0.37639176  0.38715744  0.81960433  1.0
  F  F22  1  0.62360824  0.61284256  0.18039567  1.0
  F  F23  1  0.62360824  0.88715744  0.68039567  1.0
  F  F24  1  0.34376526  0.36591417  0.35786431  1.0
  F  F25  1  0.34376526  0.13408583  0.85786431  1.0
  F  F26  1  0.65623474  0.86591417  0.14213569  1.0
  F  F27  1  0.65623474  0.63408583  0.64213569  1.0
