# generated using pymatgen
data_K3B12H12Br
_symmetry_space_group_name_H-M   'P 1'
_cell_length_a   6.94452924
_cell_length_b   6.94452924
_cell_length_c   6.94452924
_cell_angle_alpha   93.16035763
_cell_angle_beta   93.16035763
_cell_angle_gamma   93.16035763
_symmetry_Int_Tables_number   1
_chemical_formula_structural   K3B12H12Br
_chemical_formula_sum   'K3 B12 H12 Br1'
_cell_volume   333.32348149
_cell_formula_units_Z   1
loop_
 _symmetry_equiv_pos_site_id
 _symmetry_equiv_pos_as_xyz
  1  'x, y, z'
loop_
 _atom_site_type_symbol
 _atom_site_label
 _atom_site_symmetry_multiplicity
 _atom_site_fract_x
 _atom_site_fract_y
 _atom_site_fract_z
 _atom_site_occupancy
  K  K0  1  1.00000000  -0.50000000  -0.00000000  1.0
  K  K1  1  1.00000000  -0.00000000  -0.50000000  1.0
  K  K2  1  0.50000000  -0.00000000  -0.00000000  1.0
  B  B3  1  1.55981286  0.55981286  -0.26464387  1.0
  B  B4  1  1.55981286  -0.26464387  0.55981286  1.0
  B  B5  1  1.26464387  0.44018714  -0.55981286  1.0
  B  B6  1  0.44018714  1.26464387  -0.55981286  1.0
  B  B7  1  0.44018714  0.44018714  0.26464387  1.0
  B  B8  1  0.73535613  0.55981286  0.55981286  1.0
  B  B9  1  1.37692688  0.37692688  -0.33813950  1.0
  B  B10  1  1.37692688  -0.33813950  0.37692688  1.0
  B  B11  1  1.33813950  0.62307312  -0.37692688  1.0
  B  B12  1  0.62307312  1.33813950  -0.37692688  1.0
  B  B13  1  0.62307312  0.62307312  0.33813950  1.0
  B  B14  1  0.66186050  0.37692688  0.37692688  1.0
  H  H15  1  1.28804292  0.28804292  -0.22436728  1.0
  H  H16  1  1.28804292  -0.22436728  0.28804292  1.0
  H  H17  1  1.22436728  0.71195708  -0.28804292  1.0
  H  H18  1  0.71195708  1.22436728  -0.28804292  1.0
  H  H19  1  0.71195708  0.71195708  0.22436728  1.0
  H  H20  1  0.77563272  0.28804292  0.28804292  1.0
  H  H21  1  0.39729796  0.39729796  0.09750976  1.0
  H  H22  1  0.39729796  1.09750976  -0.60270204  1.0
  H  H23  1  0.90249024  0.60270204  0.60270204  1.0
  H  H24  1  1.60270204  -0.09750976  0.60270204  1.0
  H  H25  1  1.60270204  0.60270204  -0.09750976  1.0
  H  H26  1  1.09750976  0.39729796  -0.60270204  1.0
  Br  Br27  1  0.00000000  0.00000000  0.00000000  1.0
