# generated using pymatgen
data_PdSCl
_symmetry_space_group_name_H-M   'P 1'
_cell_length_a   9.22822240
_cell_length_b   9.63844551
_cell_length_c   16.90653525
_cell_angle_alpha   90.00000000
_cell_angle_beta   121.35869552
_cell_angle_gamma   90.00000000
_symmetry_Int_Tables_number   1
_chemical_formula_structural   PdSCl
_chemical_formula_sum   'Pd16 S16 Cl16'
_cell_volume   1284.10337387
_cell_formula_units_Z   16
loop_
 _symmetry_equiv_pos_site_id
 _symmetry_equiv_pos_as_xyz
  1  'x, y, z'
loop_
 _atom_site_type_symbol
 _atom_site_label
 _atom_site_symmetry_multiplicity
 _atom_site_fract_x
 _atom_site_fract_y
 _atom_site_fract_z
 _atom_site_occupancy
  Pd  Pd0  1  0.96397763  0.29337819  0.48407634  1.0
  Pd  Pd1  1  0.96397763  0.20662181  0.98407634  1.0
  Pd  Pd2  1  0.03602237  0.79337819  0.01592366  1.0
  Pd  Pd3  1  0.03602237  0.70662181  0.51592366  1.0
  Pd  Pd4  1  0.92872586  0.09547419  0.32389369  1.0
  Pd  Pd5  1  0.92872586  0.40452581  0.82389369  1.0
  Pd  Pd6  1  0.07127414  0.59547419  0.17610631  1.0
  Pd  Pd7  1  0.07127414  0.90452581  0.67610631  1.0
  Pd  Pd8  1  0.72615857  0.42054959  0.02086413  1.0
  Pd  Pd9  1  0.72615857  0.07945041  0.52086413  1.0
  Pd  Pd10  1  0.27384143  0.92054959  0.47913587  1.0
  Pd  Pd11  1  0.27384143  0.57945041  0.97913587  1.0
  Pd  Pd12  1  0.69029678  0.88186527  0.36058071  1.0
  Pd  Pd13  1  0.69029678  0.61813473  0.86058071  1.0
  Pd  Pd14  1  0.30970322  0.38186527  0.13941929  1.0
  Pd  Pd15  1  0.30970322  0.11813473  0.63941929  1.0
  S  S16  1  0.88056610  0.76246830  0.08480548  1.0
  S  S17  1  0.88056610  0.73753170  0.58480548  1.0
  S  S18  1  0.11943390  0.26246830  0.41519452  1.0
  S  S19  1  0.11943390  0.23753170  0.91519452  1.0
  S  S20  1  0.74467809  0.23670443  0.33871097  1.0
  S  S21  1  0.74467809  0.26329557  0.83871097  1.0
  S  S22  1  0.25532191  0.73670443  0.16128903  1.0
  S  S23  1  0.25532191  0.76329557  0.66128903  1.0
  S  S24  1  0.65967580  0.84940554  0.48535186  1.0
  S  S25  1  0.65967580  0.65059446  0.98535186  1.0
  S  S26  1  0.34032420  0.34940554  0.01464814  1.0
  S  S27  1  0.34032420  0.15059446  0.51464814  1.0
  S  S28  1  0.59054680  0.09844068  0.36296230  1.0
  S  S29  1  0.59054680  0.40155932  0.86296230  1.0
  S  S30  1  0.40945320  0.59844068  0.13703770  1.0
  S  S31  1  0.40945320  0.90155932  0.63703770  1.0
  Cl  Cl32  1  0.85847341  0.46427582  0.18286311  1.0
  Cl  Cl33  1  0.85847341  0.03572418  0.68286311  1.0
  Cl  Cl34  1  0.14152659  0.96427582  0.31713689  1.0
  Cl  Cl35  1  0.14152659  0.53572418  0.81713689  1.0
  Cl  Cl36  1  0.79054880  0.65110750  0.37043531  1.0
  Cl  Cl37  1  0.79054880  0.84889250  0.87043531  1.0
  Cl  Cl38  1  0.20945120  0.15110750  0.12956469  1.0
  Cl  Cl39  1  0.20945120  0.34889250  0.62956469  1.0
  Cl  Cl40  1  0.77844886  0.17739459  0.04157587  1.0
  Cl  Cl41  1  0.77844886  0.32260541  0.54157587  1.0
  Cl  Cl42  1  0.22155114  0.67739459  0.45842413  1.0
  Cl  Cl43  1  0.22155114  0.82260541  0.95842413  1.0
  Cl  Cl44  1  0.70789793  0.93663505  0.22832445  1.0
  Cl  Cl45  1  0.70789793  0.56336495  0.72832445  1.0
  Cl  Cl46  1  0.29210207  0.43663505  0.27167555  1.0
  Cl  Cl47  1  0.29210207  0.06336495  0.77167555  1.0
