# generated using pymatgen
data_ScClO
_symmetry_space_group_name_H-M   'P 1'
_cell_length_a   3.48496186
_cell_length_b   3.98863653
_cell_length_c   9.05734314
_cell_angle_alpha   90.00000000
_cell_angle_beta   90.00000000
_cell_angle_gamma   90.00000000
_symmetry_Int_Tables_number   1
_chemical_formula_structural   ScClO
_chemical_formula_sum   'Sc2 Cl2 O2'
_cell_volume   125.89929950
_cell_formula_units_Z   2
loop_
 _symmetry_equiv_pos_site_id
 _symmetry_equiv_pos_as_xyz
  1  'x, y, z'
loop_
 _atom_site_type_symbol
 _atom_site_label
 _atom_site_symmetry_multiplicity
 _atom_site_fract_x
 _atom_site_fract_y
 _atom_site_fract_z
 _atom_site_occupancy
  Sc  Sc0  1  0.00000000  0.50000000  0.10443601  1.0
  Sc  Sc1  1  0.50000000  0.00000000  0.89556399  1.0
  Cl  Cl2  1  0.00000000  0.00000000  0.69436006  1.0
  Cl  Cl3  1  0.50000000  0.50000000  0.30563994  1.0
  O  O4  1  0.00000000  0.00000000  0.03453763  1.0
  O  O5  1  0.50000000  0.50000000  0.96546237  1.0
