# generated using pymatgen
data_Cu3P3N(O5F2)2
_symmetry_space_group_name_H-M   'P 1'
_cell_length_a   10.20533689
_cell_length_b   10.20533689
_cell_length_c   7.92624652
_cell_angle_alpha   76.98548114
_cell_angle_beta   103.01451886
_cell_angle_gamma   132.00910655
_symmetry_Int_Tables_number   1
_chemical_formula_structural   Cu3P3N(O5F2)2
_chemical_formula_sum   'Cu6 P6 N2 O20 F8'
_cell_volume   594.45803993
_cell_formula_units_Z   2
loop_
 _symmetry_equiv_pos_site_id
 _symmetry_equiv_pos_as_xyz
  1  'x, y, z'
loop_
 _atom_site_type_symbol
 _atom_site_label
 _atom_site_symmetry_multiplicity
 _atom_site_fract_x
 _atom_site_fract_y
 _atom_site_fract_z
 _atom_site_occupancy
  F  F0  1  1.81695830  0.05859206  0.83563280  1.0
  F  F1  1  0.94140794  -0.81695830  0.33563280  1.0
  F  F2  1  1.05859206  -0.18304170  0.66436720  1.0
  F  F3  1  1.18304170  -0.05859206  0.16436720  1.0
  F  F4  1  1.54759163  0.18473387  0.57881718  1.0
  F  F5  1  0.81526613  -0.54759163  0.07881718  1.0
  F  F6  1  1.18473387  -0.45240837  0.92118282  1.0
  F  F7  1  1.45240837  -0.18473387  0.42118282  1.0
  N  N8  1  0.12974779  0.12974779  0.75000000  1.0
  N  N9  1  0.87025221  0.87025221  0.25000000  1.0
  P  P10  1  1.63888160  -0.01123116  0.88894034  1.0
  P  P11  1  1.01123116  -0.63888160  0.38894034  1.0
  P  P12  1  0.98876884  -0.36111840  0.61105966  1.0
  P  P13  1  1.36111840  0.01123116  0.11105966  1.0
  P  P14  1  0.61919083  0.61919083  0.75000000  1.0
  P  P15  1  0.38080917  0.38080917  0.25000000  1.0
  O  O16  1  1.49700051  -0.10659125  0.72940098  1.0
  O  O17  1  1.10659125  -0.49700051  0.22940098  1.0
  O  O18  1  0.89340875  -0.50299949  0.77059902  1.0
  O  O19  1  1.50299949  0.10659125  0.27059902  1.0
  O  O20  1  1.67675796  0.15278423  0.92491380  1.0
  O  O21  1  0.84721577  -0.67675796  0.42491380  1.0
  O  O22  1  1.15278423  -0.32324204  0.57508620  1.0
  O  O23  1  1.32324204  -0.15278423  0.07508620  1.0
  O  O24  1  1.40623710  0.14895888  0.95519685  1.0
  O  O25  1  0.85104112  -0.40623710  0.45519685  1.0
  O  O26  1  1.14895888  -0.59376290  0.54480315  1.0
  O  O27  1  1.59376290  -0.14895888  0.04480315  1.0
  O  O28  1  1.70339120  -0.23488038  0.59735626  1.0
  O  O29  1  1.23488038  -0.70339120  0.09735626  1.0
  O  O30  1  0.76511962  -0.29660880  0.90264374  1.0
  O  O31  1  1.29660880  0.23488038  0.40264374  1.0
  O  O32  1  1.44513570  -0.43433136  0.79155300  1.0
  O  O33  1  1.43433136  -0.44513570  0.29155300  1.0
  O  O34  1  0.56566864  -0.55486430  0.70844700  1.0
  O  O35  1  1.55486430  0.43433136  0.20844700  1.0
  Cu  Cu36  1  1.50000000  0.00000000  0.50000000  1.0
  Cu  Cu37  1  1.00000000  -0.50000000  0.00000000  1.0
  Cu  Cu38  1  1.60891034  0.29205892  0.81832500  1.0
  Cu  Cu39  1  0.70794108  -0.60891034  0.31832500  1.0
  Cu  Cu40  1  1.29205892  -0.39108966  0.68167500  1.0
  Cu  Cu41  1  1.39108966  -0.29205892  0.18167500  1.0
