# generated using pymatgen
data_Y2(Ga3Co)3
_symmetry_space_group_name_H-M   'P 1'
_cell_length_a   7.35744255
_cell_length_b   7.35744255
_cell_length_c   9.43558847
_cell_angle_alpha   90.00000000
_cell_angle_beta   90.00000000
_cell_angle_gamma   60.23280395
_symmetry_Int_Tables_number   1
_chemical_formula_structural   Y2(Ga3Co)3
_chemical_formula_sum   'Y4 Ga18 Co6'
_cell_volume   443.37113477
_cell_formula_units_Z   2
loop_
 _symmetry_equiv_pos_site_id
 _symmetry_equiv_pos_as_xyz
  1  'x, y, z'
loop_
 _atom_site_type_symbol
 _atom_site_label
 _atom_site_symmetry_multiplicity
 _atom_site_fract_x
 _atom_site_fract_y
 _atom_site_fract_z
 _atom_site_occupancy
  Y  Y0  1  -0.00289225  1.33170345  0.25000000  1.0
  Y  Y1  1  0.33170345  0.99710775  0.75000000  1.0
  Y  Y2  1  -0.33170345  1.00289225  0.25000000  1.0
  Y  Y3  1  0.00289225  0.66829655  0.75000000  1.0
  Ga  Ga4  1  0.12145872  0.87854128  0.25000000  1.0
  Ga  Ga5  1  -0.12145872  1.12145872  0.75000000  1.0
  Ga  Ga6  1  0.00023659  0.66585300  0.42837737  1.0
  Ga  Ga7  1  0.00023659  0.66585300  0.07162263  1.0
  Ga  Ga8  1  -0.33414700  1.00023659  0.92837737  1.0
  Ga  Ga9  1  -0.33414700  1.00023659  0.57162263  1.0
  Ga  Ga10  1  0.33414700  0.99976341  0.42837737  1.0
  Ga  Ga11  1  0.33414700  0.99976341  0.07162263  1.0
  Ga  Ga12  1  -0.00023659  1.33414700  0.92837737  1.0
  Ga  Ga13  1  -0.00023659  1.33414700  0.57162263  1.0
  Ga  Ga14  1  0.33641862  0.45028758  0.25000000  1.0
  Ga  Ga15  1  -0.54971242  1.33641862  0.75000000  1.0
  Ga  Ga16  1  0.54971242  0.66358138  0.25000000  1.0
  Ga  Ga17  1  -0.33641862  1.54971242  0.75000000  1.0
  Ga  Ga18  1  0.33381427  0.66618573  0.94237872  1.0
  Ga  Ga19  1  0.33381427  0.66618573  0.55762128  1.0
  Ga  Ga20  1  -0.33381427  1.33381427  0.44237872  1.0
  Ga  Ga21  1  -0.33381427  1.33381427  0.05762128  1.0
  Co  Co22  1  0.67071510  0.67071510  0.50000000  1.0
  Co  Co23  1  0.67071510  0.67071510  0.00000000  1.0
  Co  Co24  1  0.32928490  0.32928490  0.50000000  1.0
  Co  Co25  1  0.32928490  0.32928490  0.00000000  1.0
  Co  Co26  1  0.00000000  0.00000000  0.50000000  1.0
  Co  Co27  1  0.00000000  0.00000000  0.00000000  1.0
