# generated using pymatgen
data_ReBiO4
_symmetry_space_group_name_H-M   'P 1'
_cell_length_a   7.87718557
_cell_length_b   7.87718557
_cell_length_c   5.60141383
_cell_angle_alpha   90.00000000
_cell_angle_beta   90.00000000
_cell_angle_gamma   151.66212910
_symmetry_Int_Tables_number   1
_chemical_formula_structural   ReBiO4
_chemical_formula_sum   'Re2 Bi2 O8'
_cell_volume   164.98013947
_cell_formula_units_Z   2
loop_
 _symmetry_equiv_pos_site_id
 _symmetry_equiv_pos_as_xyz
  1  'x, y, z'
loop_
 _atom_site_type_symbol
 _atom_site_label
 _atom_site_symmetry_multiplicity
 _atom_site_fract_x
 _atom_site_fract_y
 _atom_site_fract_z
 _atom_site_occupancy
  Re  Re0  1  -0.91820917  0.91820917  0.25000000  1.0
  Re  Re1  1  -0.08179083  1.08179083  0.75000000  1.0
  Bi  Bi2  1  -0.69117095  0.69117095  0.25000000  1.0
  Bi  Bi3  1  -0.30882905  1.30882905  0.75000000  1.0
  O  O4  1  -0.81488417  0.81488417  0.48166791  1.0
  O  O5  1  -0.81488417  0.81488417  0.01833209  1.0
  O  O6  1  -0.18511583  1.18511583  0.98166791  1.0
  O  O7  1  -0.18511583  1.18511583  0.51833209  1.0
  O  O8  1  -0.41189829  1.41189829  0.25000000  1.0
  O  O9  1  -0.58810171  0.58810171  0.75000000  1.0
  O  O10  1  0.00000000  0.00000000  0.50000000  1.0
  O  O11  1  0.00000000  0.00000000  0.00000000  1.0
