# generated using pymatgen
data_BaGa4Se7
_symmetry_space_group_name_H-M   'P 1'
_cell_length_a   7.72513280
_cell_length_b   6.66233658
_cell_length_c   15.09528219
_cell_angle_alpha   90.00000000
_cell_angle_beta   121.00738338
_cell_angle_gamma   90.00000000
_symmetry_Int_Tables_number   1
_chemical_formula_structural   BaGa4Se7
_chemical_formula_sum   'Ba2 Ga8 Se14'
_cell_volume   665.89495119
_cell_formula_units_Z   2
loop_
 _symmetry_equiv_pos_site_id
 _symmetry_equiv_pos_as_xyz
  1  'x, y, z'
loop_
 _atom_site_type_symbol
 _atom_site_label
 _atom_site_symmetry_multiplicity
 _atom_site_fract_x
 _atom_site_fract_y
 _atom_site_fract_z
 _atom_site_occupancy
  Ba  Ba0  1  0.53009615  0.36460993  0.54647726  1.0
  Ba  Ba1  1  0.53009615  0.63539007  0.04647726  1.0
  Ga  Ga2  1  0.00656866  0.02587740  0.50215532  1.0
  Ga  Ga3  1  0.00656866  0.97412260  0.00215532  1.0
  Ga  Ga4  1  0.47504933  0.15281090  0.24396288  1.0
  Ga  Ga5  1  0.47504933  0.84718910  0.74396288  1.0
  Ga  Ga6  1  0.20869441  0.37645003  0.72116116  1.0
  Ga  Ga7  1  0.20869441  0.62354997  0.22116116  1.0
  Ga  Ga8  1  0.96008249  0.14386968  0.22597739  1.0
  Ga  Ga9  1  0.96008249  0.85613032  0.72597739  1.0
  Se  Se10  1  0.08355290  0.37841711  0.53790332  1.0
  Se  Se11  1  0.08355290  0.62158289  0.03790332  1.0
  Se  Se12  1  0.54249302  0.52275387  0.82475900  1.0
  Se  Se13  1  0.54249302  0.47724613  0.32475900  1.0
  Se  Se14  1  0.75625936  0.08183272  0.04342486  1.0
  Se  Se15  1  0.75625936  0.91816728  0.54342486  1.0
  Se  Se16  1  0.28587426  0.03565371  0.80810749  1.0
  Se  Se17  1  0.28587426  0.96434629  0.30810749  1.0
  Se  Se18  1  0.97534530  0.50681287  0.76960101  1.0
  Se  Se19  1  0.97534530  0.49318713  0.26960101  1.0
  Se  Se20  1  0.33108445  0.13992960  0.05915153  1.0
  Se  Se21  1  0.33108445  0.86007040  0.55915153  1.0
  Se  Se22  1  0.79759968  0.03521936  0.80961879  1.0
  Se  Se23  1  0.79759968  0.96478064  0.30961879  1.0
