# generated using pymatgen
data_CsP(OF)2
_symmetry_space_group_name_H-M   'P 1'
_cell_length_a   9.16020827
_cell_length_b   6.71164154
_cell_length_c   8.35883466
_cell_angle_alpha   90.00000000
_cell_angle_beta   90.00000000
_cell_angle_gamma   90.00000000
_symmetry_Int_Tables_number   1
_chemical_formula_structural   CsP(OF)2
_chemical_formula_sum   'Cs4 P4 O8 F8'
_cell_volume   513.90144237
_cell_formula_units_Z   4
loop_
 _symmetry_equiv_pos_site_id
 _symmetry_equiv_pos_as_xyz
  1  'x, y, z'
loop_
 _atom_site_type_symbol
 _atom_site_label
 _atom_site_symmetry_multiplicity
 _atom_site_fract_x
 _atom_site_fract_y
 _atom_site_fract_z
 _atom_site_occupancy
  Cs  Cs0  1  0.34311784  0.75000000  0.14851526  1.0
  Cs  Cs1  1  0.84311784  0.75000000  0.35148474  1.0
  Cs  Cs2  1  0.65688216  0.25000000  0.85148474  1.0
  Cs  Cs3  1  0.15688216  0.25000000  0.64851526  1.0
  P  P4  1  0.41313349  0.75000000  0.69856584  1.0
  P  P5  1  0.91313349  0.75000000  0.80143416  1.0
  P  P6  1  0.58686651  0.25000000  0.30143416  1.0
  P  P7  1  0.08686651  0.25000000  0.19856584  1.0
  O  O8  1  0.40482071  0.94581765  0.78307856  1.0
  O  O9  1  0.40482071  0.55418235  0.78307856  1.0
  O  O10  1  0.90482071  0.94581765  0.71692144  1.0
  O  O11  1  0.90482071  0.55418235  0.71692144  1.0
  O  O12  1  0.59517929  0.44581765  0.21692144  1.0
  O  O13  1  0.59517929  0.05418235  0.21692144  1.0
  O  O14  1  0.09517929  0.44581765  0.28307856  1.0
  O  O15  1  0.09517929  0.05418235  0.28307856  1.0
  F  F16  1  0.29418657  0.75000000  0.55640684  1.0
  F  F17  1  0.79418657  0.75000000  0.94359316  1.0
  F  F18  1  0.70581343  0.25000000  0.44359316  1.0
  F  F19  1  0.20581343  0.25000000  0.05640684  1.0
  F  F20  1  0.05500271  0.75000000  0.91487216  1.0
  F  F21  1  0.55500271  0.75000000  0.58512784  1.0
  F  F22  1  0.94499729  0.25000000  0.08512784  1.0
  F  F23  1  0.44499729  0.25000000  0.41487216  1.0
