# generated using pymatgen
data_RbVPO5
_symmetry_space_group_name_H-M   'P 1'
_cell_length_a   7.73760904
_cell_length_b   8.06130165
_cell_length_c   8.47898870
_cell_angle_alpha   90.00000000
_cell_angle_beta   90.00000000
_cell_angle_gamma   90.00000000
_symmetry_Int_Tables_number   1
_chemical_formula_structural   RbVPO5
_chemical_formula_sum   'Rb4 V4 P4 O20'
_cell_volume   528.87862040
_cell_formula_units_Z   4
loop_
 _symmetry_equiv_pos_site_id
 _symmetry_equiv_pos_as_xyz
  1  'x, y, z'
loop_
 _atom_site_type_symbol
 _atom_site_label
 _atom_site_symmetry_multiplicity
 _atom_site_fract_x
 _atom_site_fract_y
 _atom_site_fract_z
 _atom_site_occupancy
  Rb  Rb0  1  0.88111422  0.94916433  0.77315048  1.0
  Rb  Rb1  1  0.38111422  0.55083567  0.22684952  1.0
  Rb  Rb2  1  0.11888578  0.44916433  0.72684952  1.0
  Rb  Rb3  1  0.61888578  0.05083567  0.27315048  1.0
  V  V4  1  0.38948306  0.96626028  0.88057274  1.0
  V  V5  1  0.88948306  0.53373972  0.11942726  1.0
  V  V6  1  0.61051694  0.46626028  0.61942726  1.0
  V  V7  1  0.11051694  0.03373972  0.38057274  1.0
  P  P8  1  0.37733563  0.82400812  0.60086332  1.0
  P  P9  1  0.87733563  0.67599188  0.39913668  1.0
  P  P10  1  0.62266437  0.32400812  0.89913668  1.0
  P  P11  1  0.12266437  0.17599188  0.10086332  1.0
  O  O12  1  0.47879611  0.43488116  0.82044399  1.0
  O  O13  1  0.97879611  0.06511884  0.17955601  1.0
  O  O14  1  0.52120389  0.93488116  0.67955601  1.0
  O  O15  1  0.02120389  0.56511884  0.32044399  1.0
  O  O16  1  0.44224816  0.64686210  0.56632996  1.0
  O  O17  1  0.94224816  0.85313790  0.43367004  1.0
  O  O18  1  0.55775184  0.14686210  0.93367004  1.0
  O  O19  1  0.05775184  0.35313790  0.06632996  1.0
  O  O20  1  0.43771342  0.83739938  0.01792030  1.0
  O  O21  1  0.93771342  0.66260062  0.98207970  1.0
  O  O22  1  0.56228658  0.33739938  0.48207970  1.0
  O  O23  1  0.06228658  0.16260062  0.51792030  1.0
  O  O24  1  0.23572732  0.83346171  0.73322482  1.0
  O  O25  1  0.73572732  0.66653829  0.26677518  1.0
  O  O26  1  0.76427268  0.33346171  0.76677518  1.0
  O  O27  1  0.26427268  0.16653829  0.23322482  1.0
  O  O28  1  0.81181640  0.60224973  0.55790524  1.0
  O  O29  1  0.31181640  0.89775027  0.44209476  1.0
  O  O30  1  0.18818360  0.10224973  0.94209476  1.0
  O  O31  1  0.68818360  0.39775027  0.05790524  1.0
