# generated using pymatgen
data_Zn(InTe2)2
_symmetry_space_group_name_H-M   'P 1'
_cell_length_a   7.69065986
_cell_length_b   7.69065986
_cell_length_c   7.69065986
_cell_angle_alpha   132.13639844
_cell_angle_beta   132.13639844
_cell_angle_gamma   70.01368551
_symmetry_Int_Tables_number   1
_chemical_formula_structural   Zn(InTe2)2
_chemical_formula_sum   'Zn1 In2 Te4'
_cell_volume   245.23346615
_cell_formula_units_Z   1
loop_
 _symmetry_equiv_pos_site_id
 _symmetry_equiv_pos_as_xyz
  1  'x, y, z'
loop_
 _atom_site_type_symbol
 _atom_site_label
 _atom_site_symmetry_multiplicity
 _atom_site_fract_x
 _atom_site_fract_y
 _atom_site_fract_z
 _atom_site_occupancy
  Zn  Zn0  1  -0.00000000  -0.00000000  -0.00000000  1.0
  In  In1  1  0.25000000  0.75000000  0.50000000  1.0
  In  In2  1  0.50000000  0.50000000  1.00000000  1.0
  Te  Te3  1  0.39762456  0.91877744  1.05194872  1.0
  Te  Te4  1  1.08122256  1.13317128  1.47884711  1.0
  Te  Te5  1  0.86682872  0.34567583  0.94805128  1.0
  Te  Te6  1  0.65432417  0.60237544  0.52115289  1.0
