# generated using pymatgen
data_Fe4Cu3BiO12
_symmetry_space_group_name_H-M   'P 1'
_cell_length_a   6.34707913
_cell_length_b   6.34707913
_cell_length_c   6.34707913
_cell_angle_alpha   109.47122063
_cell_angle_beta   109.47122063
_cell_angle_gamma   109.47122063
_symmetry_Int_Tables_number   1
_chemical_formula_structural   Fe4Cu3BiO12
_chemical_formula_sum   'Fe4 Cu3 Bi1 O12'
_cell_volume   196.83387689
_cell_formula_units_Z   1
loop_
 _symmetry_equiv_pos_site_id
 _symmetry_equiv_pos_as_xyz
  1  'x, y, z'
loop_
 _atom_site_type_symbol
 _atom_site_label
 _atom_site_symmetry_multiplicity
 _atom_site_fract_x
 _atom_site_fract_y
 _atom_site_fract_z
 _atom_site_occupancy
  Fe  Fe0  1  0.50000000  1.00000000  1.00000000  1.0
  Fe  Fe1  1  0.50000000  0.50000000  0.50000000  1.0
  Fe  Fe2  1  1.00000000  1.00000000  0.50000000  1.0
  Fe  Fe3  1  1.00000000  0.50000000  1.00000000  1.0
  Cu  Cu4  1  0.50000000  0.50000000  0.00000000  1.0
  Cu  Cu5  1  0.00000000  0.50000000  0.50000000  1.0
  Cu  Cu6  1  0.50000000  0.00000000  0.50000000  1.0
  Bi  Bi7  1  0.00000000  0.00000000  0.00000000  1.0
  O  O8  1  0.82121437  1.30487149  1.12608587  1.0
  O  O9  1  0.82121437  0.69512851  0.51634288  1.0
  O  O10  1  0.17878563  0.30487149  0.48365712  1.0
  O  O11  1  0.17878563  0.69512851  0.87391413  1.0
  O  O12  1  0.51634288  0.82121437  0.69512851  1.0
  O  O13  1  1.12608587  0.82121437  1.30487149  1.0
  O  O14  1  0.69512851  0.87391413  0.17878563  1.0
  O  O15  1  0.69512851  0.51634288  0.82121437  1.0
  O  O16  1  0.87391413  0.17878563  0.69512851  1.0
  O  O17  1  0.48365712  0.17878563  0.30487149  1.0
  O  O18  1  0.30487149  0.48365712  0.17878563  1.0
  O  O19  1  1.30487149  1.12608587  0.82121437  1.0
