# generated using pymatgen
data_CaP3
_symmetry_space_group_name_H-M   'P 1'
_cell_length_a   5.61381279
_cell_length_b   5.68833539
_cell_length_c   5.62730877
_cell_angle_alpha   70.40417340
_cell_angle_beta   74.45286262
_cell_angle_gamma   79.60861800
_symmetry_Int_Tables_number   1
_chemical_formula_structural   CaP3
_chemical_formula_sum   'Ca2 P6'
_cell_volume   162.28375339
_cell_formula_units_Z   2
loop_
 _symmetry_equiv_pos_site_id
 _symmetry_equiv_pos_as_xyz
  1  'x, y, z'
loop_
 _atom_site_type_symbol
 _atom_site_label
 _atom_site_symmetry_multiplicity
 _atom_site_fract_x
 _atom_site_fract_y
 _atom_site_fract_z
 _atom_site_occupancy
  Ca  Ca0  1  -0.82566763  -0.84983032  -0.85665889  1.0
  Ca  Ca1  1  -0.17433237  -0.15016968  -0.14334111  1.0
  P  P2  1  -0.90106137  -0.39572277  -0.69957986  1.0
  P  P3  1  -0.09893863  -0.60427723  -0.30042014  1.0
  P  P4  1  -0.50399892  -0.49902305  -0.70078090  1.0
  P  P5  1  -0.49600108  -0.50097695  -0.29921910  1.0
  P  P6  1  -0.37380172  -0.89487082  -0.67999264  1.0
  P  P7  1  -0.62619828  -0.10512918  -0.32000736  1.0
