# generated using pymatgen
data_Ba3Sc4
_symmetry_space_group_name_H-M   'P 1'
_cell_length_a   8.92794835
_cell_length_b   8.92794835
_cell_length_c   8.92794835
_cell_angle_alpha   38.82842230
_cell_angle_beta   38.82842230
_cell_angle_gamma   38.82842230
_symmetry_Int_Tables_number   1
_chemical_formula_structural   Ba3Sc4
_chemical_formula_sum   'Ba3 Sc4'
_cell_volume   251.50638307
_cell_formula_units_Z   1
loop_
 _symmetry_equiv_pos_site_id
 _symmetry_equiv_pos_as_xyz
  1  'x, y, z'
loop_
 _atom_site_type_symbol
 _atom_site_label
 _atom_site_symmetry_multiplicity
 _atom_site_fract_x
 _atom_site_fract_y
 _atom_site_fract_z
 _atom_site_occupancy
  Ba  Ba0  1  -0.00000000  0.00000000  -0.00000000  1.0
  Ba  Ba1  1  1.57600610  0.57600610  0.57600610  1.0
  Ba  Ba2  1  1.42399390  0.42399390  0.42399390  1.0
  Sc  Sc3  1  0.84979684  0.84979684  0.84979684  1.0
  Sc  Sc4  1  1.15020316  1.15020316  0.15020316  1.0
  Sc  Sc5  1  0.72539637  0.72539637  0.72539637  1.0
  Sc  Sc6  1  1.27460363  1.27460363  0.27460363  1.0
