# generated using pymatgen
data_HfTc2
_symmetry_space_group_name_H-M   'P 1'
_cell_length_a   5.19934191
_cell_length_b   5.19934191
_cell_length_c   8.67887773
_cell_angle_alpha   90.00000000
_cell_angle_beta   90.00000000
_cell_angle_gamma   120.00000000
_symmetry_Int_Tables_number   1
_chemical_formula_structural   HfTc2
_chemical_formula_sum   'Hf4 Tc8'
_cell_volume   203.18467918
_cell_formula_units_Z   4
loop_
 _symmetry_equiv_pos_site_id
 _symmetry_equiv_pos_as_xyz
  1  'x, y, z'
loop_
 _atom_site_type_symbol
 _atom_site_label
 _atom_site_symmetry_multiplicity
 _atom_site_fract_x
 _atom_site_fract_y
 _atom_site_fract_z
 _atom_site_occupancy
  Hf  Hf0  1  0.33333333  0.66666667  0.93652086  1.0
  Hf  Hf1  1  0.33333333  0.66666667  0.56347914  1.0
  Hf  Hf2  1  0.66666667  0.33333333  0.43652086  1.0
  Hf  Hf3  1  0.66666667  0.33333333  0.06347914  1.0
  Tc  Tc4  1  0.17229127  0.82770873  0.25000000  1.0
  Tc  Tc5  1  0.17229127  0.34458254  0.25000000  1.0
  Tc  Tc6  1  0.82770873  0.17229127  0.75000000  1.0
  Tc  Tc7  1  0.82770873  0.65541746  0.75000000  1.0
  Tc  Tc8  1  0.65541746  0.82770873  0.25000000  1.0
  Tc  Tc9  1  0.34458254  0.17229127  0.75000000  1.0
  Tc  Tc10  1  0.00000000  0.00000000  0.50000000  1.0
  Tc  Tc11  1  0.00000000  0.00000000  0.00000000  1.0
