# generated using pymatgen
data_CsEu(WO4)2
_symmetry_space_group_name_H-M   'P 1'
_cell_length_a   7.72681521
_cell_length_b   7.72681521
_cell_length_c   7.75999329
_cell_angle_alpha   62.44923989
_cell_angle_beta   117.55076011
_cell_angle_gamma   90.89313840
_symmetry_Int_Tables_number   1
_chemical_formula_structural   CsEu(WO4)2
_chemical_formula_sum   'Cs2 Eu2 W4 O16'
_cell_volume   352.39773212
_cell_formula_units_Z   2
loop_
 _symmetry_equiv_pos_site_id
 _symmetry_equiv_pos_as_xyz
  1  'x, y, z'
loop_
 _atom_site_type_symbol
 _atom_site_label
 _atom_site_symmetry_multiplicity
 _atom_site_fract_x
 _atom_site_fract_y
 _atom_site_fract_z
 _atom_site_occupancy
  Cs  Cs0  1  0.19650369  0.19650369  0.25000000  1.0
  Cs  Cs1  1  0.80349631  0.80349631  0.75000000  1.0
  Eu  Eu2  1  0.77269846  0.77269846  0.25000000  1.0
  Eu  Eu3  1  0.22730154  0.22730154  0.75000000  1.0
  W  W4  1  0.69355056  0.31083730  0.22678598  1.0
  W  W5  1  0.68916270  0.30644944  0.72678598  1.0
  W  W6  1  1.31083730  -0.30644944  0.27321402  1.0
  W  W7  1  1.30644944  -0.31083730  0.77321402  1.0
  O  O8  1  1.58374737  -0.37388059  0.03153105  1.0
  O  O9  1  1.37388059  -0.58374737  0.53153105  1.0
  O  O10  1  0.62611941  0.58374737  0.46846895  1.0
  O  O11  1  0.41625263  0.37388059  0.96846895  1.0
  O  O12  1  0.77980148  0.05855109  0.29498158  1.0
  O  O13  1  0.94144891  0.22019852  0.79498158  1.0
  O  O14  1  1.05855109  -0.22019852  0.20501842  1.0
  O  O15  1  1.22019852  -0.05855109  0.70501842  1.0
  O  O16  1  1.37802980  -0.07148113  0.13489468  1.0
  O  O17  1  1.07148113  -0.37802980  0.63489468  1.0
  O  O18  1  0.92851887  0.37802980  0.36510532  1.0
  O  O19  1  0.62197020  0.07148113  0.86510532  1.0
  O  O20  1  0.61914386  0.24902121  0.43167520  1.0
  O  O21  1  0.75097879  0.38085614  0.93167520  1.0
  O  O22  1  1.24902121  -0.38085614  0.06832480  1.0
  O  O23  1  1.38085614  -0.24902121  0.56832480  1.0
