# generated using pymatgen
data_GaPd2
_symmetry_space_group_name_H-M   'P 1'
_cell_length_a   5.57431854
_cell_length_b   4.10123456
_cell_length_c   7.88030315
_cell_angle_alpha   90.00000000
_cell_angle_beta   90.00000000
_cell_angle_gamma   90.00000000
_symmetry_Int_Tables_number   1
_chemical_formula_structural   GaPd2
_chemical_formula_sum   'Ga4 Pd8'
_cell_volume   180.15624261
_cell_formula_units_Z   4
loop_
 _symmetry_equiv_pos_site_id
 _symmetry_equiv_pos_as_xyz
  1  'x, y, z'
loop_
 _atom_site_type_symbol
 _atom_site_label
 _atom_site_symmetry_multiplicity
 _atom_site_fract_x
 _atom_site_fract_y
 _atom_site_fract_z
 _atom_site_occupancy
  Ga  Ga0  1  0.79551714  0.75000000  0.39251113  1.0
  Ga  Ga1  1  0.29551714  0.75000000  0.10748887  1.0
  Ga  Ga2  1  0.20448286  0.25000000  0.60748887  1.0
  Ga  Ga3  1  0.70448286  0.25000000  0.89251113  1.0
  Pd  Pd4  1  0.95903427  0.75000000  0.70850726  1.0
  Pd  Pd5  1  0.45903427  0.75000000  0.79149274  1.0
  Pd  Pd6  1  0.04096573  0.25000000  0.29149274  1.0
  Pd  Pd7  1  0.54096573  0.25000000  0.20850726  1.0
  Pd  Pd8  1  0.83551298  0.75000000  0.06636569  1.0
  Pd  Pd9  1  0.33551298  0.75000000  0.43363431  1.0
  Pd  Pd10  1  0.16448702  0.25000000  0.93363431  1.0
  Pd  Pd11  1  0.66448702  0.25000000  0.56636569  1.0
