# generated using pymatgen
data_SnH4(NF)2
_symmetry_space_group_name_H-M   'P 1'
_cell_length_a   5.64752847
_cell_length_b   5.64752847
_cell_length_c   5.19996329
_cell_angle_alpha   76.91037574
_cell_angle_beta   103.08962426
_cell_angle_gamma   145.80439065
_symmetry_Int_Tables_number   1
_chemical_formula_structural   SnH4(NF)2
_chemical_formula_sum   'Sn1 H4 N2 F2'
_cell_volume   90.55695365
_cell_formula_units_Z   1
loop_
 _symmetry_equiv_pos_site_id
 _symmetry_equiv_pos_as_xyz
  1  'x, y, z'
loop_
 _atom_site_type_symbol
 _atom_site_label
 _atom_site_symmetry_multiplicity
 _atom_site_fract_x
 _atom_site_fract_y
 _atom_site_fract_z
 _atom_site_occupancy
  Sn  Sn0  1  0.50000000  0.50000000  0.00000000  1.0
  H  H1  1  0.89549430  -0.89549430  0.58450752  1.0
  H  H2  1  1.10450570  -0.10450570  0.41549248  1.0
  H  H3  1  0.79874231  -0.79874231  0.78926872  1.0
  H  H4  1  1.20125769  -0.20125769  0.21073128  1.0
  N  N5  1  0.89339764  -0.89339764  0.78079218  1.0
  N  N6  1  1.10660236  -0.10660236  0.21920782  1.0
  F  F7  1  0.62112351  -0.62112351  0.75148642  1.0
  F  F8  1  1.37887649  -0.37887649  0.24851358  1.0
