# generated using pymatgen
data_CaMgAu
_symmetry_space_group_name_H-M   'P 1'
_cell_length_a   7.46790812
_cell_length_b   4.42109212
_cell_length_c   8.68398985
_cell_angle_alpha   90.00000000
_cell_angle_beta   90.00000000
_cell_angle_gamma   90.00000000
_symmetry_Int_Tables_number   1
_chemical_formula_structural   CaMgAu
_chemical_formula_sum   'Ca4 Mg4 Au4'
_cell_volume   286.71329906
_cell_formula_units_Z   4
loop_
 _symmetry_equiv_pos_site_id
 _symmetry_equiv_pos_as_xyz
  1  'x, y, z'
loop_
 _atom_site_type_symbol
 _atom_site_label
 _atom_site_symmetry_multiplicity
 _atom_site_fract_x
 _atom_site_fract_y
 _atom_site_fract_z
 _atom_site_occupancy
  Ca  Ca0  1  0.96628313  0.75000000  0.67490620  1.0
  Ca  Ca1  1  0.46628313  0.75000000  0.82509380  1.0
  Ca  Ca2  1  0.03371687  0.25000000  0.32509380  1.0
  Ca  Ca3  1  0.53371687  0.25000000  0.17490620  1.0
  Mg  Mg4  1  0.86100156  0.75000000  0.06148928  1.0
  Mg  Mg5  1  0.36100156  0.75000000  0.43851072  1.0
  Mg  Mg6  1  0.13899844  0.25000000  0.93851072  1.0
  Mg  Mg7  1  0.63899844  0.25000000  0.56148928  1.0
  Au  Au8  1  0.73301828  0.75000000  0.37369491  1.0
  Au  Au9  1  0.23301828  0.75000000  0.12630509  1.0
  Au  Au10  1  0.26698172  0.25000000  0.62630509  1.0
  Au  Au11  1  0.76698172  0.25000000  0.87369491  1.0
