# generated using pymatgen
data_AsN(OF3)2
_symmetry_space_group_name_H-M   'P 1'
_cell_length_a   5.35819563
_cell_length_b   5.35819563
_cell_length_c   5.53372152
_cell_angle_alpha   102.09616286
_cell_angle_beta   77.90383714
_cell_angle_gamma   87.90393923
_symmetry_Int_Tables_number   1
_chemical_formula_structural   AsN(OF3)2
_chemical_formula_sum   'As1 N1 O2 F6'
_cell_volume   151.35880019
_cell_formula_units_Z   1
loop_
 _symmetry_equiv_pos_site_id
 _symmetry_equiv_pos_as_xyz
  1  'x, y, z'
loop_
 _atom_site_type_symbol
 _atom_site_label
 _atom_site_symmetry_multiplicity
 _atom_site_fract_x
 _atom_site_fract_y
 _atom_site_fract_z
 _atom_site_occupancy
  As  As0  1  0.00000000  0.00000000  0.00000000  1.0
  N  N1  1  0.50000000  -0.50000000  0.50000000  1.0
  O  O2  1  0.38433496  -0.38433496  0.40702137  1.0
  O  O3  1  0.61566504  -0.61566504  0.59297863  1.0
  F  F4  1  0.74900784  -0.74900784  0.04843405  1.0
  F  F5  1  0.25099216  -0.25099216  0.95156595  1.0
  F  F6  1  1.13248490  0.19499401  0.23933302  1.0
  F  F7  1  1.19499401  0.13248490  0.76066698  1.0
  F  F8  1  0.86751510  -0.19499401  0.76066698  1.0
  F  F9  1  0.80500599  -0.13248490  0.23933302  1.0
