# generated using pymatgen
data_ZrTi2Ni9
_symmetry_space_group_name_H-M   'P 1'
_cell_length_a   7.00098766
_cell_length_b   7.00098766
_cell_length_c   7.00098766
_cell_angle_alpha   43.37915726
_cell_angle_beta   43.37915726
_cell_angle_gamma   43.37915726
_symmetry_Int_Tables_number   1
_chemical_formula_structural   ZrTi2Ni9
_chemical_formula_sum   'Zr1 Ti2 Ni9'
_cell_volume   146.83372155
_cell_formula_units_Z   1
loop_
 _symmetry_equiv_pos_site_id
 _symmetry_equiv_pos_as_xyz
  1  'x, y, z'
loop_
 _atom_site_type_symbol
 _atom_site_label
 _atom_site_symmetry_multiplicity
 _atom_site_fract_x
 _atom_site_fract_y
 _atom_site_fract_z
 _atom_site_occupancy
  Zr  Zr0  1  0.00000000  0.00000000  0.00000000  1.0
  Ti  Ti1  1  0.78101012  -0.21898988  -0.21898988  1.0
  Ti  Ti2  1  0.21898988  0.21898988  0.21898988  1.0
  Ni  Ni3  1  0.50000000  -0.50000000  -0.00000000  1.0
  Ni  Ni4  1  0.50000000  0.00000000  -0.50000000  1.0
  Ni  Ni5  1  0.00000000  0.50000000  -0.50000000  1.0
  Ni  Ni6  1  0.23575500  0.71387982  -0.28612018  1.0
  Ni  Ni7  1  0.71387982  0.71387982  -0.76424500  1.0
  Ni  Ni8  1  0.71387982  0.23575500  -0.28612018  1.0
  Ni  Ni9  1  0.76424500  0.28612018  -0.71387982  1.0
  Ni  Ni10  1  0.28612018  0.28612018  -0.23575500  1.0
  Ni  Ni11  1  0.28612018  0.76424500  -0.71387982  1.0
