# generated using pymatgen
data_SrWO4
_symmetry_space_group_name_H-M   'P 1'
_cell_length_a   7.19473918
_cell_length_b   7.19473918
_cell_length_c   5.48405231
_cell_angle_alpha   67.60076810
_cell_angle_beta   112.39923190
_cell_angle_gamma   65.22906172
_symmetry_Int_Tables_number   1
_chemical_formula_structural   SrWO4
_chemical_formula_sum   'Sr2 W2 O8'
_cell_volume   182.29214375
_cell_formula_units_Z   2
loop_
 _symmetry_equiv_pos_site_id
 _symmetry_equiv_pos_as_xyz
  1  'x, y, z'
loop_
 _atom_site_type_symbol
 _atom_site_label
 _atom_site_symmetry_multiplicity
 _atom_site_fract_x
 _atom_site_fract_y
 _atom_site_fract_z
 _atom_site_occupancy
  Sr  Sr0  1  1.12501759  0.12501759  0.75000000  1.0
  Sr  Sr1  1  0.87498241  -0.12501759  0.25000000  1.0
  W  W2  1  0.62495473  0.62495473  0.75000000  1.0
  W  W3  1  0.37504527  0.37504527  0.25000000  1.0
  O  O4  1  0.77968080  0.30591067  0.12499986  1.0
  O  O5  1  0.69408933  0.22031920  0.62499986  1.0
  O  O6  1  1.30591067  -0.22031920  0.37500014  1.0
  O  O7  1  1.22031920  -0.30591067  0.87500014  1.0
  O  O8  1  0.43089417  0.15478198  0.15117753  1.0
  O  O9  1  0.84521802  0.56910583  0.65117753  1.0
  O  O10  1  1.15478198  -0.56910583  0.34882247  1.0
  O  O11  1  1.56910583  -0.15478198  0.84882247  1.0
