# generated using pymatgen
data_HI
_symmetry_space_group_name_H-M   'P 1'
_cell_length_a   10.22318598
_cell_length_b   8.40215882
_cell_length_c   10.23214991
_cell_angle_alpha   65.67927398
_cell_angle_beta   48.50165173
_cell_angle_gamma   65.82634431
_symmetry_Int_Tables_number   1
_chemical_formula_structural   HI
_chemical_formula_sum   'H8 I8'
_cell_volume   587.72103256
_cell_formula_units_Z   8
loop_
 _symmetry_equiv_pos_site_id
 _symmetry_equiv_pos_as_xyz
  1  'x, y, z'
loop_
 _atom_site_type_symbol
 _atom_site_label
 _atom_site_symmetry_multiplicity
 _atom_site_fract_x
 _atom_site_fract_y
 _atom_site_fract_z
 _atom_site_occupancy
  H  H0  1  -0.24662771  0.95223059  -0.25115643  1.0
  H  H1  1  0.24662771  0.04776941  -0.74884357  1.0
  H  H2  1  0.95261744  0.75306851  -0.95388198  1.0
  H  H3  1  0.04738256  0.24693149  -0.04611802  1.0
  H  H4  1  0.45224374  0.74817227  -0.95326752  1.0
  H  H5  1  -0.45224374  0.25182773  -0.04673248  1.0
  H  H6  1  0.74814089  0.45192370  -0.74674952  1.0
  H  H7  1  0.25185911  0.54807630  -0.25325048  1.0
  I  I8  1  0.75354937  0.75706684  -0.75454538  1.0
  I  I9  1  0.24645063  0.24293316  -0.24545462  1.0
  I  I10  1  0.25581537  0.74770371  -0.25808672  1.0
  I  I11  1  0.74418463  0.25229629  -0.74191328  1.0
  I  I12  1  0.25235103  0.74418139  -0.75472860  1.0
  I  I13  1  -0.25235103  0.25581861  -0.24527140  1.0
  I  I14  1  -0.24223784  0.75296535  -0.25541658  1.0
  I  I15  1  0.24223784  0.24703465  -0.74458342  1.0
