# generated using pymatgen
data_Hf2Ag3F14
_symmetry_space_group_name_H-M   'P 1'
_cell_length_a   5.83240165
_cell_length_b   5.83240165
_cell_length_c   9.28276841
_cell_angle_alpha   89.01935814
_cell_angle_beta   90.98064186
_cell_angle_gamma   108.80434035
_symmetry_Int_Tables_number   1
_chemical_formula_structural   Hf2Ag3F14
_chemical_formula_sum   'Hf2 Ag3 F14'
_cell_volume   298.85053765
_cell_formula_units_Z   1
loop_
 _symmetry_equiv_pos_site_id
 _symmetry_equiv_pos_as_xyz
  1  'x, y, z'
loop_
 _atom_site_type_symbol
 _atom_site_label
 _atom_site_symmetry_multiplicity
 _atom_site_fract_x
 _atom_site_fract_y
 _atom_site_fract_z
 _atom_site_occupancy
  Ag  Ag0  1  0.68617901  -0.68617901  0.39531279  1.0
  Ag  Ag1  1  0.31382099  -0.31382099  0.60468721  1.0
  Ag  Ag2  1  0.50000000  -0.50000000  -0.00000000  1.0
  Hf  Hf3  1  0.91154719  -0.91154719  0.78519021  1.0
  Hf  Hf4  1  0.08845281  -0.08845281  0.21480979  1.0
  F  F5  1  0.64696506  -0.23612467  0.83779662  1.0
  F  F6  1  1.23612467  0.35303494  0.83779662  1.0
  F  F7  1  0.76387533  -0.35303494  0.16220338  1.0
  F  F8  1  1.35303494  0.23612467  0.16220338  1.0
  F  F9  1  0.65395760  -0.00912014  0.61564032  1.0
  F  F10  1  1.00912014  0.34604240  0.61564032  1.0
  F  F11  1  0.99087986  -0.34604240  0.38435968  1.0
  F  F12  1  1.34604240  0.00912014  0.38435968  1.0
  F  F13  1  0.88816990  -0.88816990  0.29223933  1.0
  F  F14  1  0.11183010  -0.11183010  0.70776067  1.0
  F  F15  1  0.72976124  -0.72976124  0.87802450  1.0
  F  F16  1  0.27023876  -0.27023876  0.12197550  1.0
  F  F17  1  0.50000000  -0.50000000  0.50000000  1.0
  F  F18  1  0.00000000  0.00000000  0.00000000  1.0
