# generated using pymatgen
data_BaZnAs2O7
_symmetry_space_group_name_H-M   'P 1'
_cell_length_a   5.76193743
_cell_length_b   8.67301692
_cell_length_c   14.83646020
_cell_angle_alpha   90.00000000
_cell_angle_beta   112.71273980
_cell_angle_gamma   90.00000000
_symmetry_Int_Tables_number   1
_chemical_formula_structural   BaZnAs2O7
_chemical_formula_sum   'Ba4 Zn4 As8 O28'
_cell_volume   683.93200348
_cell_formula_units_Z   4
loop_
 _symmetry_equiv_pos_site_id
 _symmetry_equiv_pos_as_xyz
  1  'x, y, z'
loop_
 _atom_site_type_symbol
 _atom_site_label
 _atom_site_symmetry_multiplicity
 _atom_site_fract_x
 _atom_site_fract_y
 _atom_site_fract_z
 _atom_site_occupancy
  Ba  Ba0  1  -0.00035686  0.15547907  0.28607423  1.0
  Ba  Ba1  1  -0.00035686  0.34452093  0.78607423  1.0
  Ba  Ba2  1  1.00035686  0.65547907  0.21392577  1.0
  Ba  Ba3  1  1.00035686  0.84452093  0.71392577  1.0
  Zn  Zn4  1  0.71936422  0.84962754  0.38885479  1.0
  Zn  Zn5  1  0.71936422  0.65037246  0.88885479  1.0
  Zn  Zn6  1  0.28063578  0.34962754  0.11114521  1.0
  Zn  Zn7  1  0.28063578  0.15037246  0.61114521  1.0
  As  As8  1  0.66093417  0.18614254  0.48615057  1.0
  As  As9  1  0.66093417  0.31385746  0.98615057  1.0
  As  As10  1  0.33906583  0.68614254  0.01384943  1.0
  As  As11  1  0.33906583  0.81385746  0.51384943  1.0
  As  As12  1  0.59030471  0.46808777  0.34007584  1.0
  As  As13  1  0.59030471  0.03191223  0.84007584  1.0
  As  As14  1  0.40969529  0.96808777  0.15992416  1.0
  As  As15  1  0.40969529  0.53191223  0.65992416  1.0
  O  O16  1  0.91184325  0.33404143  0.09689377  1.0
  O  O17  1  0.91184325  0.16595857  0.59689377  1.0
  O  O18  1  0.08815675  0.83404143  0.40310623  1.0
  O  O19  1  0.08815675  0.66595857  0.90310623  1.0
  O  O20  1  0.83639825  0.44205483  0.30505372  1.0
  O  O21  1  0.83639825  0.05794517  0.80505372  1.0
  O  O22  1  0.16360175  0.94205483  0.19494628  1.0
  O  O23  1  0.16360175  0.55794517  0.69494628  1.0
  O  O24  1  0.69953271  0.08878890  0.39076202  1.0
  O  O25  1  0.69953271  0.41121110  0.89076202  1.0
  O  O26  1  0.30046729  0.58878890  0.10923798  1.0
  O  O27  1  0.30046729  0.91121110  0.60923798  1.0
  O  O28  1  0.67917410  0.39017361  0.46196318  1.0
  O  O29  1  0.67917410  0.10982639  0.96196319  1.0
  O  O30  1  0.32082590  0.89017361  0.03803682  1.0
  O  O31  1  0.32082590  0.60982639  0.53803681  1.0
  O  O32  1  0.48949170  0.15717438  0.15053618  1.0
  O  O33  1  0.48949170  0.34282562  0.65053618  1.0
  O  O34  1  0.51050830  0.65717438  0.34946382  1.0
  O  O35  1  0.51050830  0.84282562  0.84946382  1.0
  O  O36  1  0.36279193  0.15293183  0.48359206  1.0
  O  O37  1  0.36279193  0.34706817  0.98359206  1.0
  O  O38  1  0.63720807  0.65293183  0.01640794  1.0
  O  O39  1  0.63720807  0.84706817  0.51640794  1.0
  O  O40  1  0.31702619  0.37897529  0.26271869  1.0
  O  O41  1  0.31702619  0.12102471  0.76271869  1.0
  O  O42  1  0.68297381  0.87897529  0.23728131  1.0
  O  O43  1  0.68297381  0.62102471  0.73728131  1.0
