# generated using pymatgen
data_LuFeO3
_symmetry_space_group_name_H-M   'P 1'
_cell_length_a   6.08116231
_cell_length_b   6.08116231
_cell_length_c   11.50215129
_cell_angle_alpha   90.00000000
_cell_angle_beta   90.00000000
_cell_angle_gamma   120.00000000
_symmetry_Int_Tables_number   1
_chemical_formula_structural   LuFeO3
_chemical_formula_sum   'Lu6 Fe6 O18'
_cell_volume   368.36885001
_cell_formula_units_Z   6
loop_
 _symmetry_equiv_pos_site_id
 _symmetry_equiv_pos_as_xyz
  1  'x, y, z'
loop_
 _atom_site_type_symbol
 _atom_site_label
 _atom_site_symmetry_multiplicity
 _atom_site_fract_x
 _atom_site_fract_y
 _atom_site_fract_z
 _atom_site_occupancy
  Fe  Fe0  1  0.66615051  0.66615051  0.27304459  1.0
  Fe  Fe1  1  0.66615051  0.00000000  0.77304459  1.0
  Fe  Fe2  1  -0.00000000  0.66615051  0.77304459  1.0
  Fe  Fe3  1  -0.00000000  0.33384949  0.27304459  1.0
  Fe  Fe4  1  0.33384949  0.33384949  0.77304459  1.0
  Fe  Fe5  1  0.33384949  0.00000000  0.27304459  1.0
  O  O6  1  0.69586099  0.69586099  0.10742461  1.0
  O  O7  1  0.69586099  0.00000000  0.60742461  1.0
  O  O8  1  0.00000000  0.69586099  0.60742461  1.0
  O  O9  1  0.00000000  0.30413901  0.10742461  1.0
  O  O10  1  0.30413901  0.30413901  0.60742461  1.0
  O  O11  1  0.30413901  0.00000000  0.10742461  1.0
  O  O12  1  0.00000000  0.00000000  0.29788070  1.0
  O  O13  1  0.00000000  0.00000000  0.79788070  1.0
  O  O14  1  0.33333333  0.66666667  0.25064433  1.0
  O  O15  1  0.33333333  0.66666667  0.75064433  1.0
  O  O16  1  0.66666667  0.33333333  0.25064433  1.0
  O  O17  1  0.66666667  0.33333333  0.75064433  1.0
  O  O18  1  0.63783764  0.63783764  0.43697184  1.0
  O  O19  1  0.63783764  0.00000000  0.93697184  1.0
  O  O20  1  -0.00000000  0.63783764  0.93697184  1.0
  O  O21  1  -0.00000000  0.36216236  0.43697184  1.0
  O  O22  1  0.36216236  0.36216236  0.93697184  1.0
  O  O23  1  0.36216236  0.00000000  0.43697184  1.0
  Lu  Lu24  1  0.33333333  0.66666667  0.04325382  1.0
  Lu  Lu25  1  0.33333333  0.66666667  0.54325382  1.0
  Lu  Lu26  1  0.66666667  0.33333333  0.04325382  1.0
  Lu  Lu27  1  0.66666667  0.33333333  0.54325382  1.0
  Lu  Lu28  1  0.00000000  0.00000000  -0.00420015  1.0
  Lu  Lu29  1  0.00000000  0.00000000  0.49579985  1.0
