# generated using pymatgen
data_Rb4Zr6CCl18
_symmetry_space_group_name_H-M   'P 1'
_cell_length_a   10.41378339
_cell_length_b   10.41378339
_cell_length_c   10.14475170
_cell_angle_alpha   77.70702870
_cell_angle_beta   102.29297130
_cell_angle_gamma   61.52964939
_symmetry_Int_Tables_number   1
_chemical_formula_structural   Rb4Zr6CCl18
_chemical_formula_sum   'Rb4 Zr6 C1 Cl18'
_cell_volume   879.35793139
_cell_formula_units_Z   1
loop_
 _symmetry_equiv_pos_site_id
 _symmetry_equiv_pos_as_xyz
  1  'x, y, z'
loop_
 _atom_site_type_symbol
 _atom_site_label
 _atom_site_symmetry_multiplicity
 _atom_site_fract_x
 _atom_site_fract_y
 _atom_site_fract_z
 _atom_site_occupancy
  Rb  Rb0  1  0.55665683  -0.23240611  0.68087958  1.0
  Rb  Rb1  1  1.23240611  0.44334317  0.68087958  1.0
  Rb  Rb2  1  0.76759389  -0.44334317  0.31912042  1.0
  Rb  Rb3  1  1.44334317  0.23240611  0.31912042  1.0
  Zr  Zr4  1  1.77079030  0.04807818  0.85013495  1.0
  Zr  Zr5  1  0.95192182  -0.77079030  0.85013495  1.0
  Zr  Zr6  1  1.04807818  0.77079030  0.14986505  1.0
  Zr  Zr7  1  0.22920970  -0.04807818  0.14986505  1.0
  Zr  Zr8  1  0.86769840  -0.86769840  0.13126820  1.0
  Zr  Zr9  1  0.13230160  -0.13230160  0.86873180  1.0
  C  C10  1  0.00000000  0.00000000  0.00000000  1.0
  Cl  Cl11  1  0.89156064  -0.09243799  0.69120572  1.0
  Cl  Cl12  1  1.09243799  0.10843936  0.69120572  1.0
  Cl  Cl13  1  0.90756201  -0.10843936  0.30879428  1.0
  Cl  Cl14  1  1.10843936  0.09243799  0.30879428  1.0
  Cl  Cl15  1  1.59908991  0.19827658  0.97865136  1.0
  Cl  Cl16  1  0.80172342  -0.59908991  0.97865136  1.0
  Cl  Cl17  1  1.19827658  0.59908991  0.02134864  1.0
  Cl  Cl18  1  0.40091009  -0.19827658  0.02134864  1.0
  Cl  Cl19  1  1.50551882  0.10686985  0.67299723  1.0
  Cl  Cl20  1  0.89313015  -0.50551882  0.67299723  1.0
  Cl  Cl21  1  1.10686985  0.50551882  0.32700277  1.0
  Cl  Cl22  1  0.49448118  -0.10686985  0.32700277  1.0
  Cl  Cl23  1  0.71658670  -0.71658670  0.27694140  1.0
  Cl  Cl24  1  0.28341330  -0.28341330  0.72305860  1.0
  Cl  Cl25  1  0.69098480  -0.69098480  0.67035080  1.0
  Cl  Cl26  1  0.30901520  -0.30901520  0.32964920  1.0
  Cl  Cl27  1  0.79855902  -0.20144098  0.00000000  1.0
  Cl  Cl28  1  1.20144098  0.20144098  0.00000000  1.0
