# generated using pymatgen
data_Al2SiO5
_symmetry_space_group_name_H-M   'P 1'
_cell_length_a   6.11308001
_cell_length_b   7.73812350
_cell_length_c   8.18344457
_cell_angle_alpha   104.40712581
_cell_angle_beta   111.11882601
_cell_angle_gamma   88.64975249
_symmetry_Int_Tables_number   1
_chemical_formula_structural   Al2SiO5
_chemical_formula_sum   'Al8 Si4 O20'
_cell_volume   348.81493384
_cell_formula_units_Z   4
loop_
 _symmetry_equiv_pos_site_id
 _symmetry_equiv_pos_as_xyz
  1  'x, y, z'
loop_
 _atom_site_type_symbol
 _atom_site_label
 _atom_site_symmetry_multiplicity
 _atom_site_fract_x
 _atom_site_fract_y
 _atom_site_fract_z
 _atom_site_occupancy
  Al  Al0  1  -0.89780664  -0.89618195  -0.55023089  1.0
  Al  Al1  1  -0.10219336  -0.10381805  -0.44976911  1.0
  Al  Al2  1  -0.85160772  -0.76577324  -0.16594536  1.0
  Al  Al3  1  -0.14839228  -0.23422676  -0.83405464  1.0
  Al  Al4  1  -0.64179301  -0.19688405  -0.84742081  1.0
  Al  Al5  1  -0.35820699  -0.80311595  -0.15257919  1.0
  Al  Al6  1  -0.52072308  -0.66293285  -0.46609016  1.0
  Al  Al7  1  -0.47927692  -0.33706715  -0.53390984  1.0
  Si  Si8  1  -0.91848482  -0.84443561  -0.83882179  1.0
  Si  Si9  1  -0.08151518  -0.15556439  -0.16117821  1.0
  Si  Si10  1  -0.43185318  -0.56402206  -0.80936576  1.0
  Si  Si11  1  -0.56814682  -0.43597794  -0.19063424  1.0
  O  O12  1  -0.01623645  -0.74842059  -0.01019917  1.0
  O  O13  1  0.01623645  -0.25157941  0.01019917  1.0
  O  O14  1  -0.82426784  -0.70612709  -0.63228518  1.0
  O  O15  1  -0.17573216  -0.29387291  -0.36771482  1.0
  O  O16  1  -0.93819376  -0.14685553  -0.59744710  1.0
  O  O17  1  -0.06180624  -0.85314447  -0.40255290  1.0
  O  O18  1  -0.79026299  -0.54618595  -0.19378881  1.0
  O  O19  1  -0.20973701  -0.45381405  -0.80621119  1.0
  O  O20  1  -0.69945064  -0.96721006  -0.83415155  1.0
  O  O21  1  -0.30054936  -0.03278994  -0.16584845  1.0
  O  O22  1  -0.64464781  -0.42327080  -0.79260731  1.0
  O  O23  1  -0.35535219  -0.57672920  -0.20739269  1.0
  O  O24  1  -0.59272335  -0.85071319  -0.38663994  1.0
  O  O25  1  -0.40727665  -0.14928681  -0.61336006  1.0
  O  O26  1  -0.52438995  -0.73838930  0.00525687  1.0
  O  O27  1  -0.47561005  -0.26161070  -0.00525687  1.0
  O  O28  1  -0.38546763  -0.59947837  -0.60659438  1.0
  O  O29  1  -0.61453237  -0.40052163  -0.39340562  1.0
  O  O30  1  -0.11619315  -0.95568662  -0.79909923  1.0
  O  O31  1  -0.88380685  -0.04431338  -0.20090077  1.0
