# generated using pymatgen
data_Ba3BiRu2O9
_symmetry_space_group_name_H-M   'P 1'
_cell_length_a   5.99861757
_cell_length_b   5.99861757
_cell_length_c   14.80721539
_cell_angle_alpha   88.98503237
_cell_angle_beta   91.01496763
_cell_angle_gamma   60.15822464
_symmetry_Int_Tables_number   1
_chemical_formula_structural   Ba3BiRu2O9
_chemical_formula_sum   'Ba6 Bi2 Ru4 O18'
_cell_volume   461.87578010
_cell_formula_units_Z   2
loop_
 _symmetry_equiv_pos_site_id
 _symmetry_equiv_pos_as_xyz
  1  'x, y, z'
loop_
 _atom_site_type_symbol
 _atom_site_label
 _atom_site_symmetry_multiplicity
 _atom_site_fract_x
 _atom_site_fract_y
 _atom_site_fract_z
 _atom_site_occupancy
  Ru  Ru0  1  0.65083025  -0.31837069  0.33381233  1.0
  Ru  Ru1  1  1.31837069  0.34916975  0.83381233  1.0
  Ru  Ru2  1  0.68162931  -0.34916975  0.16618767  1.0
  Ru  Ru3  1  1.34916975  0.31837069  0.66618767  1.0
  Bi  Bi4  1  0.00000000  -0.00000000  0.50000000  1.0
  Bi  Bi5  1  0.00000000  0.00000000  0.00000000  1.0
  O  O6  1  0.78703683  -0.12997289  0.40227081  1.0
  O  O7  1  1.12997289  0.21296317  0.90227081  1.0
  O  O8  1  0.87002711  -0.21296317  0.09772919  1.0
  O  O9  1  1.21296317  0.12997289  0.59772919  1.0
  O  O10  1  0.50406941  -0.02790446  0.23762744  1.0
  O  O11  1  1.02790446  0.49593059  0.73762744  1.0
  O  O12  1  0.97209554  -0.49593059  0.26237256  1.0
  O  O13  1  1.49593059  0.02790446  0.76237256  1.0
  O  O14  1  0.32377857  -0.13571863  0.39748496  1.0
  O  O15  1  1.13571863  0.67622143  0.89748496  1.0
  O  O16  1  0.86428137  -0.67622143  0.10251504  1.0
  O  O17  1  1.67622143  0.13571863  0.60251504  1.0
  O  O18  1  0.50904844  -0.49095156  0.25000000  1.0
  O  O19  1  1.49095156  0.49095156  0.75000000  1.0
  O  O20  1  0.40456141  -0.21722080  0.07298456  1.0
  O  O21  1  1.21722080  0.59543859  0.57298456  1.0
  O  O22  1  0.78277920  -0.59543859  0.42701544  1.0
  O  O23  1  1.59543859  0.21722080  0.92701544  1.0
  Ba  Ba24  1  1.32902331  0.34032129  0.40394303  1.0
  Ba  Ba25  1  0.65967871  -0.32902331  0.90394303  1.0
  Ba  Ba26  1  1.34032129  0.32902331  0.09605697  1.0
  Ba  Ba27  1  0.67097669  -0.34032129  0.59605697  1.0
  Ba  Ba28  1  0.99556049  -0.00443951  0.25000000  1.0
  Ba  Ba29  1  1.00443951  0.00443951  0.75000000  1.0
