# generated using pymatgen
data_Ga2HgS4
_symmetry_space_group_name_H-M   'P 1'
_cell_length_a   6.55259551
_cell_length_b   6.55259551
_cell_length_c   6.55259551
_cell_angle_alpha   129.13943254
_cell_angle_beta   129.13943254
_cell_angle_gamma   74.78632417
_symmetry_Int_Tables_number   1
_chemical_formula_structural   Ga2HgS4
_chemical_formula_sum   'Ga2 Hg1 S4'
_cell_volume   164.86799280
_cell_formula_units_Z   1
loop_
 _symmetry_equiv_pos_site_id
 _symmetry_equiv_pos_as_xyz
  1  'x, y, z'
loop_
 _atom_site_type_symbol
 _atom_site_label
 _atom_site_symmetry_multiplicity
 _atom_site_fract_x
 _atom_site_fract_y
 _atom_site_fract_z
 _atom_site_occupancy
  Ga  Ga0  1  0.25000000  0.75000000  0.50000000  1.0
  Ga  Ga1  1  0.00000000  0.00000000  0.00000000  1.0
  Hg  Hg2  1  0.50000000  0.50000000  1.00000000  1.0
  S  S3  1  0.36500376  0.90608724  0.99808992  1.0
  S  S4  1  1.09391276  1.09200268  1.45891652  1.0
  S  S5  1  0.90799732  0.36691384  1.00191008  1.0
  S  S6  1  0.63308616  0.63499624  0.54108348  1.0
