# generated using pymatgen
data_PC2N3Cl4
_symmetry_space_group_name_H-M   'P 1'
_cell_length_a   7.58418197
_cell_length_b   7.58418197
_cell_length_c   9.40684410
_cell_angle_alpha   90.00000000
_cell_angle_beta   90.00000000
_cell_angle_gamma   116.84615379
_symmetry_Int_Tables_number   1
_chemical_formula_structural   PC2N3Cl4
_chemical_formula_sum   'P2 C4 N6 Cl8'
_cell_volume   482.76360882
_cell_formula_units_Z   2
loop_
 _symmetry_equiv_pos_site_id
 _symmetry_equiv_pos_as_xyz
  1  'x, y, z'
loop_
 _atom_site_type_symbol
 _atom_site_label
 _atom_site_symmetry_multiplicity
 _atom_site_fract_x
 _atom_site_fract_y
 _atom_site_fract_z
 _atom_site_occupancy
  P  P0  1  0.06288042  0.93711958  0.75000000  1.0
  P  P1  1  -0.06288042  0.06288042  0.25000000  1.0
  C  C2  1  0.23378589  0.76621411  0.87101130  1.0
  C  C3  1  0.23378589  0.76621411  0.62898870  1.0
  C  C4  1  -0.23378589  0.23378589  0.37101130  1.0
  C  C5  1  -0.23378589  0.23378589  0.12898870  1.0
  N  N6  1  0.13314222  0.86685778  0.89372390  1.0
  N  N7  1  0.13314222  0.86685778  0.60627610  1.0
  N  N8  1  -0.13314222  0.13314222  0.39372390  1.0
  N  N9  1  -0.13314222  0.13314222  0.10627610  1.0
  N  N10  1  0.28844092  0.71155908  0.75000000  1.0
  N  N11  1  -0.28844092  0.28844092  0.25000000  1.0
  Cl  Cl12  1  0.16619833  0.23046574  0.75000000  1.0
  Cl  Cl13  1  0.23046574  1.16619833  0.25000000  1.0
  Cl  Cl14  1  0.76953426  0.83380167  0.75000000  1.0
  Cl  Cl15  1  -0.16619833  0.76953426  0.25000000  1.0
  Cl  Cl16  1  0.31057689  0.68942311  0.47612761  1.0
  Cl  Cl17  1  0.31057689  0.68942311  0.02387239  1.0
  Cl  Cl18  1  -0.31057689  0.31057689  0.97612761  1.0
  Cl  Cl19  1  -0.31057689  0.31057689  0.52387239  1.0
