# generated using pymatgen
data_MgH12(BrO3)2
_symmetry_space_group_name_H-M   'P 1'
_cell_length_a   6.30697756
_cell_length_b   6.30697756
_cell_length_c   6.34358748
_cell_angle_alpha   85.94022398
_cell_angle_beta   94.05977602
_cell_angle_gamma   106.70810687
_symmetry_Int_Tables_number   1
_chemical_formula_structural   MgH12(BrO3)2
_chemical_formula_sum   'Mg1 H12 Br2 O6'
_cell_volume   240.73917385
_cell_formula_units_Z   1
loop_
 _symmetry_equiv_pos_site_id
 _symmetry_equiv_pos_as_xyz
  1  'x, y, z'
loop_
 _atom_site_type_symbol
 _atom_site_label
 _atom_site_symmetry_multiplicity
 _atom_site_fract_x
 _atom_site_fract_y
 _atom_site_fract_z
 _atom_site_occupancy
  Mg  Mg0  1  0.00000000  0.00000000  0.00000000  1.0
  H  H1  1  0.68965992  -0.26692433  0.72545175  1.0
  H  H2  1  1.26692433  0.31034008  0.72545175  1.0
  H  H3  1  0.73307567  -0.31034008  0.27454825  1.0
  H  H4  1  1.31034008  0.26692433  0.27454825  1.0
  H  H5  1  1.30248533  0.07457443  0.69360221  1.0
  H  H6  1  0.92542557  -0.30248533  0.69360221  1.0
  H  H7  1  1.07457443  0.30248533  0.30639779  1.0
  H  H8  1  0.69751467  -0.07457443  0.30639779  1.0
  H  H9  1  0.76013628  -0.76013628  0.74309144  1.0
  H  H10  1  0.23986372  -0.23986372  0.25690856  1.0
  H  H11  1  0.73003221  -0.73003221  0.98528989  1.0
  H  H12  1  0.26996779  -0.26996779  0.01471011  1.0
  Br  Br13  1  0.68245266  -0.68245266  0.38315679  1.0
  Br  Br14  1  0.31754734  -0.31754734  0.61684321  1.0
  O  O15  1  1.24011361  0.15688555  0.78549912  1.0
  O  O16  1  0.84311445  -0.24011361  0.78549912  1.0
  O  O17  1  1.15688555  0.24011361  0.21450088  1.0
  O  O18  1  0.75988639  -0.15688555  0.21450088  1.0
  O  O19  1  0.80075931  -0.80075931  0.89001602  1.0
  O  O20  1  0.19924069  -0.19924069  0.10998398  1.0
