# generated using pymatgen
data_Ba2MnZn2(AsO)2
_symmetry_space_group_name_H-M   'P 1'
_cell_length_a   10.30824620
_cell_length_b   10.30824620
_cell_length_c   10.30824620
_cell_angle_alpha   156.27398140
_cell_angle_beta   156.27398140
_cell_angle_gamma   33.80252624
_symmetry_Int_Tables_number   1
_chemical_formula_structural   Ba2MnZn2(AsO)2
_chemical_formula_sum   'Ba2 Mn1 Zn2 As2 O2'
_cell_volume   177.16111591
_cell_formula_units_Z   1
loop_
 _symmetry_equiv_pos_site_id
 _symmetry_equiv_pos_as_xyz
  1  'x, y, z'
loop_
 _atom_site_type_symbol
 _atom_site_label
 _atom_site_symmetry_multiplicity
 _atom_site_fract_x
 _atom_site_fract_y
 _atom_site_fract_z
 _atom_site_occupancy
  Ba  Ba0  1  0.59169359  0.59169359  1.00000000  1.0
  Ba  Ba1  1  0.40830641  0.40830641  0.00000000  1.0
  Mn  Mn2  1  0.00000000  0.00000000  0.00000000  1.0
  Zn  Zn3  1  0.25000000  0.75000000  0.50000000  1.0
  Zn  Zn4  1  0.75000000  0.25000000  0.50000000  1.0
  As  As5  1  0.82594501  0.82594501  1.00000000  1.0
  As  As6  1  0.17405499  0.17405499  0.00000000  1.0
  O  O7  1  0.50000000  0.00000000  0.50000000  1.0
  O  O8  1  0.00000000  0.50000000  0.50000000  1.0
