# generated using pymatgen
data_Hf13Co4
_symmetry_space_group_name_H-M   'P 1'
_cell_length_a   10.76224079
_cell_length_b   10.76224079
_cell_length_c   10.76224079
_cell_angle_alpha   60.00000000
_cell_angle_beta   60.00000000
_cell_angle_gamma   60.00000000
_symmetry_Int_Tables_number   1
_chemical_formula_structural   Hf13Co4
_chemical_formula_sum   'Hf26 Co8'
_cell_volume   881.44073225
_cell_formula_units_Z   2
loop_
 _symmetry_equiv_pos_site_id
 _symmetry_equiv_pos_as_xyz
  1  'x, y, z'
loop_
 _atom_site_type_symbol
 _atom_site_label
 _atom_site_symmetry_multiplicity
 _atom_site_fract_x
 _atom_site_fract_y
 _atom_site_fract_z
 _atom_site_occupancy
  Hf  Hf0  1  0.94764000  -0.57694655  0.68166656  1.0
  Hf  Hf1  1  -0.05236000  0.68166656  0.42305345  1.0
  Hf  Hf2  1  -0.17305345  0.30236000  0.30236000  1.0
  Hf  Hf3  1  0.56833344  0.30236000  0.30236000  1.0
  Hf  Hf4  1  -0.57694655  0.94764000  0.68166656  1.0
  Hf  Hf5  1  0.94764000  -0.05236000  0.68166656  1.0
  Hf  Hf6  1  0.94764000  -0.31833344  0.94764000  1.0
  Hf  Hf7  1  -0.57694655  0.68166656  0.94764000  1.0
  Hf  Hf8  1  0.30236000  -0.17305345  0.30236000  1.0
  Hf  Hf9  1  0.30236000  0.30236000  -0.17305345  1.0
  Hf  Hf10  1  0.56833344  0.30236000  -0.17305345  1.0
  Hf  Hf11  1  0.56833344  -0.17305345  0.30236000  1.0
  Hf  Hf12  1  0.68166656  -0.05236000  0.94764000  1.0
  Hf  Hf13  1  -0.57694655  0.94764000  0.94764000  1.0
  Hf  Hf14  1  0.30236000  0.56833344  -0.17305345  1.0
  Hf  Hf15  1  0.30236000  -0.17305345  0.56833344  1.0
  Hf  Hf16  1  -0.31833344  0.94764000  0.42305345  1.0
  Hf  Hf17  1  0.68166656  -0.57694655  0.94764000  1.0
  Hf  Hf18  1  0.94764000  -0.57694655  0.94764000  1.0
  Hf  Hf19  1  -0.05236000  0.94764000  0.42305345  1.0
  Hf  Hf20  1  0.30236000  0.56833344  0.30236000  1.0
  Hf  Hf21  1  -0.17305345  0.56833344  0.30236000  1.0
  Hf  Hf22  1  -0.17305345  0.30236000  0.56833344  1.0
  Hf  Hf23  1  0.30236000  0.30236000  0.56833344  1.0
  Hf  Hf24  1  0.50000000  0.50000000  -0.50000000  1.0
  Hf  Hf25  1  0.75000000  -0.25000000  0.75000000  1.0
  Co  Co26  1  0.66278155  -0.33721845  1.01165535  1.0
  Co  Co27  1  0.66278155  0.01165535  0.66278155  1.0
  Co  Co28  1  0.58721845  -0.41278155  0.58721845  1.0
  Co  Co29  1  1.23834465  -0.41278155  0.58721845  1.0
  Co  Co30  1  1.01165535  -0.33721845  0.66278155  1.0
  Co  Co31  1  0.66278155  -0.33721845  0.66278155  1.0
  Co  Co32  1  0.58721845  0.23834465  0.58721845  1.0
  Co  Co33  1  0.58721845  -0.41278155  1.23834465  1.0
