# generated using pymatgen
data_CeFePO
_symmetry_space_group_name_H-M   'P 1'
_cell_length_a   3.86120759
_cell_length_b   3.86120759
_cell_length_c   7.99694314
_cell_angle_alpha   90.00000000
_cell_angle_beta   90.00000000
_cell_angle_gamma   90.00000000
_symmetry_Int_Tables_number   1
_chemical_formula_structural   CeFePO
_chemical_formula_sum   'Ce2 Fe2 P2 O2'
_cell_volume   119.22581823
_cell_formula_units_Z   2
loop_
 _symmetry_equiv_pos_site_id
 _symmetry_equiv_pos_as_xyz
  1  'x, y, z'
loop_
 _atom_site_type_symbol
 _atom_site_label
 _atom_site_symmetry_multiplicity
 _atom_site_fract_x
 _atom_site_fract_y
 _atom_site_fract_z
 _atom_site_occupancy
  Ce  Ce0  1  0.50000000  0.00000000  0.16051666  1.0
  Ce  Ce1  1  0.00000000  0.50000000  0.83948334  1.0
  Fe  Fe2  1  0.00000000  0.00000000  0.50000000  1.0
  Fe  Fe3  1  0.50000000  0.50000000  0.50000000  1.0
  P  P4  1  0.50000000  0.00000000  0.63638573  1.0
  P  P5  1  0.00000000  0.50000000  0.36361427  1.0
  O  O6  1  0.00000000  0.00000000  0.00000000  1.0
  O  O7  1  0.50000000  0.50000000  0.00000000  1.0
