# generated using pymatgen
data_GdMn2O5
_symmetry_space_group_name_H-M   'P 1'
_cell_length_a   7.42847008
_cell_length_b   8.58880378
_cell_length_c   5.72991256
_cell_angle_alpha   90.00000000
_cell_angle_beta   90.00000000
_cell_angle_gamma   90.00000000
_symmetry_Int_Tables_number   1
_chemical_formula_structural   GdMn2O5
_chemical_formula_sum   'Gd4 Mn8 O20'
_cell_volume   365.57800094
_cell_formula_units_Z   4
loop_
 _symmetry_equiv_pos_site_id
 _symmetry_equiv_pos_as_xyz
  1  'x, y, z'
loop_
 _atom_site_type_symbol
 _atom_site_label
 _atom_site_symmetry_multiplicity
 _atom_site_fract_x
 _atom_site_fract_y
 _atom_site_fract_z
 _atom_site_occupancy
  Mn  Mn0  1  0.40975092  0.64934591  0.00000000  1.0
  Mn  Mn1  1  0.90975092  0.85065409  0.00000000  1.0
  Mn  Mn2  1  0.59024908  0.35065409  0.00000000  1.0
  Mn  Mn3  1  0.09024908  0.14934591  0.00000000  1.0
  Mn  Mn4  1  0.50000000  0.00000000  0.75587128  1.0
  Mn  Mn5  1  0.50000000  0.00000000  0.24412872  1.0
  Mn  Mn6  1  0.00000000  0.50000000  0.75587128  1.0
  Mn  Mn7  1  0.00000000  0.50000000  0.24412872  1.0
  O  O8  1  0.39787238  0.79274630  0.74719666  1.0
  O  O9  1  0.39787238  0.79274630  0.25280334  1.0
  O  O10  1  0.89787238  0.70725370  0.74719666  1.0
  O  O11  1  0.89787238  0.70725370  0.25280334  1.0
  O  O12  1  0.60212762  0.20725370  0.74719666  1.0
  O  O13  1  0.60212762  0.20725370  0.25280334  1.0
  O  O14  1  0.10212762  0.29274630  0.74719666  1.0
  O  O15  1  0.10212762  0.29274630  0.25280334  1.0
  O  O16  1  0.16043420  0.55414207  0.50000000  1.0
  O  O17  1  0.66043420  0.94585793  0.50000000  1.0
  O  O18  1  0.83956580  0.44585793  0.50000000  1.0
  O  O19  1  0.33956580  0.05414207  0.50000000  1.0
  O  O20  1  0.50000000  0.50000000  0.77466757  1.0
  O  O21  1  0.50000000  0.50000000  0.22533243  1.0
  O  O22  1  0.00000000  0.00000000  0.77466757  1.0
  O  O23  1  0.00000000  0.00000000  0.22533243  1.0
  O  O24  1  0.15337796  0.56417865  0.00000000  1.0
  O  O25  1  0.65337796  0.93582135  0.00000000  1.0
  O  O26  1  0.84662204  0.43582135  0.00000000  1.0
  O  O27  1  0.34662204  0.06417865  0.00000000  1.0
  Gd  Gd28  1  0.14059141  0.82826736  0.50000000  1.0
  Gd  Gd29  1  0.64059141  0.67173264  0.50000000  1.0
  Gd  Gd30  1  0.85940859  0.17173264  0.50000000  1.0
  Gd  Gd31  1  0.35940859  0.32826736  0.50000000  1.0
