# generated using pymatgen
data_In2(SO4)3
_symmetry_space_group_name_H-M   'P 1'
_cell_length_a   9.29939322
_cell_length_b   9.29939322
_cell_length_c   9.29939322
_cell_angle_alpha   55.07785280
_cell_angle_beta   55.07785280
_cell_angle_gamma   55.07785280
_symmetry_Int_Tables_number   1
_chemical_formula_structural   In2(SO4)3
_chemical_formula_sum   'In4 S6 O24'
_cell_volume   503.55141069
_cell_formula_units_Z   2
loop_
 _symmetry_equiv_pos_site_id
 _symmetry_equiv_pos_as_xyz
  1  'x, y, z'
loop_
 _atom_site_type_symbol
 _atom_site_label
 _atom_site_symmetry_multiplicity
 _atom_site_fract_x
 _atom_site_fract_y
 _atom_site_fract_z
 _atom_site_occupancy
  In  In0  1  0.14542273  0.14542273  0.14542273  1.0
  In  In1  1  0.85457727  -0.14542273  -0.14542273  1.0
  In  In2  1  0.34746131  0.34746131  -0.65253869  1.0
  In  In3  1  0.65253869  0.65253869  -0.34746131  1.0
  S  S4  1  0.54392921  0.24894118  -0.04274880  1.0
  S  S5  1  1.04274880  -0.54392921  -0.24894118  1.0
  S  S6  1  0.75105882  0.04274880  -0.54392921  1.0
  S  S7  1  0.45607079  -0.24894118  0.04274880  1.0
  S  S8  1  0.95725120  -0.45607079  0.24894118  1.0
  S  S9  1  1.24894118  -0.04274880  -0.45607079  1.0
  O  O10  1  0.20676873  0.97647460  -0.59968008  1.0
  O  O11  1  0.59968008  -0.20676873  0.02352540  1.0
  O  O12  1  1.02352540  -0.40031992  -0.20676873  1.0
  O  O13  1  0.79323127  0.02352540  -0.40031992  1.0
  O  O14  1  0.40031992  0.20676873  -0.02352540  1.0
  O  O15  1  0.97647460  0.40031992  -0.79323127  1.0
  O  O16  1  0.54896620  0.16482518  -0.51492255  1.0
  O  O17  1  0.51492255  0.45103380  -0.16482518  1.0
  O  O18  1  0.83517482  0.51492255  -0.54896620  1.0
  O  O19  1  0.45103380  0.83517482  -0.48507745  1.0
  O  O20  1  0.48507745  0.54896620  -0.83517482  1.0
  O  O21  1  0.16482518  0.48507745  -0.45103380  1.0
  O  O22  1  0.26368670  0.87170094  -0.86738760  1.0
  O  O23  1  0.86738760  -0.26368670  0.12829906  1.0
  O  O24  1  1.12829906  -0.13261240  -0.26368670  1.0
  O  O25  1  0.73631330  0.12829906  -0.13261240  1.0
  O  O26  1  0.13261240  0.26368670  -0.12829906  1.0
  O  O27  1  0.87170094  0.13261240  -0.73631330  1.0
  O  O28  1  0.52756977  0.20839842  0.14550411  1.0
  O  O29  1  0.85449589  -0.52756977  -0.20839842  1.0
  O  O30  1  0.79160158  -0.14550411  -0.52756977  1.0
  O  O31  1  0.47243023  -0.20839842  -0.14550411  1.0
  O  O32  1  1.14550411  -0.47243023  0.20839842  1.0
  O  O33  1  1.20839842  0.14550411  -0.47243023  1.0
