# generated using pymatgen
data_CaHg3
_symmetry_space_group_name_H-M   'P 1'
_cell_length_a   6.74231174
_cell_length_b   6.74231174
_cell_length_c   5.15575067
_cell_angle_alpha   90.00000000
_cell_angle_beta   90.00000000
_cell_angle_gamma   120.00000000
_symmetry_Int_Tables_number   1
_chemical_formula_structural   CaHg3
_chemical_formula_sum   'Ca2 Hg6'
_cell_volume   202.97390017
_cell_formula_units_Z   2
loop_
 _symmetry_equiv_pos_site_id
 _symmetry_equiv_pos_as_xyz
  1  'x, y, z'
loop_
 _atom_site_type_symbol
 _atom_site_label
 _atom_site_symmetry_multiplicity
 _atom_site_fract_x
 _atom_site_fract_y
 _atom_site_fract_z
 _atom_site_occupancy
  Ca  Ca0  1  0.33333333  0.66666667  0.75000000  1.0
  Ca  Ca1  1  0.66666667  0.33333333  0.25000000  1.0
  Hg  Hg2  1  0.16339926  0.83660074  0.25000000  1.0
  Hg  Hg3  1  0.16339926  0.32679853  0.25000000  1.0
  Hg  Hg4  1  0.83660074  0.16339926  0.75000000  1.0
  Hg  Hg5  1  0.83660074  0.67320147  0.75000000  1.0
  Hg  Hg6  1  0.67320147  0.83660074  0.25000000  1.0
  Hg  Hg7  1  0.32679853  0.16339926  0.75000000  1.0
