# generated using pymatgen
data_Gd2Re3Si5
_symmetry_space_group_name_H-M   'P 1'
_cell_length_a   11.00765383
_cell_length_b   11.00765383
_cell_length_c   5.56873126
_cell_angle_alpha   90.00000000
_cell_angle_beta   90.00000000
_cell_angle_gamma   90.00000000
_symmetry_Int_Tables_number   1
_chemical_formula_structural   Gd2Re3Si5
_chemical_formula_sum   'Gd8 Re12 Si20'
_cell_volume   674.75449541
_cell_formula_units_Z   4
loop_
 _symmetry_equiv_pos_site_id
 _symmetry_equiv_pos_as_xyz
  1  'x, y, z'
loop_
 _atom_site_type_symbol
 _atom_site_label
 _atom_site_symmetry_multiplicity
 _atom_site_fract_x
 _atom_site_fract_y
 _atom_site_fract_z
 _atom_site_occupancy
  Gd  Gd0  1  0.23717200  0.92226201  0.50000000  1.0
  Gd  Gd1  1  0.73717200  0.57773799  0.00000000  1.0
  Gd  Gd2  1  0.07773799  0.23717200  0.50000000  1.0
  Gd  Gd3  1  0.57773799  0.26282800  0.00000000  1.0
  Gd  Gd4  1  0.76282800  0.07773799  0.50000000  1.0
  Gd  Gd5  1  0.26282800  0.42226201  0.00000000  1.0
  Gd  Gd6  1  0.92226201  0.76282800  0.50000000  1.0
  Gd  Gd7  1  0.42226201  0.73717200  0.00000000  1.0
  Re  Re8  1  0.50000000  0.00000000  0.25000000  1.0
  Re  Re9  1  0.50000000  0.00000000  0.75000000  1.0
  Re  Re10  1  0.00000000  0.50000000  0.75000000  1.0
  Re  Re11  1  0.00000000  0.50000000  0.25000000  1.0
  Re  Re12  1  0.35272785  0.62308511  0.50000000  1.0
  Re  Re13  1  0.85272785  0.87691489  0.00000000  1.0
  Re  Re14  1  0.37691489  0.35272785  0.50000000  1.0
  Re  Re15  1  0.87691489  0.14727215  0.00000000  1.0
  Re  Re16  1  0.64727215  0.37691489  0.50000000  1.0
  Re  Re17  1  0.14727215  0.12308511  0.00000000  1.0
  Re  Re18  1  0.62308511  0.64727215  0.50000000  1.0
  Re  Re19  1  0.12308511  0.85272785  0.00000000  1.0
  Si  Si20  1  0.50000000  0.50000000  0.24578902  1.0
  Si  Si21  1  0.50000000  0.50000000  0.75421098  1.0
  Si  Si22  1  0.00000000  0.00000000  0.74578902  1.0
  Si  Si23  1  0.00000000  0.00000000  0.25421098  1.0
  Si  Si24  1  0.32810647  0.17189353  0.25000000  1.0
  Si  Si25  1  0.32810647  0.17189353  0.75000000  1.0
  Si  Si26  1  0.82810647  0.32810647  0.75000000  1.0
  Si  Si27  1  0.82810647  0.32810647  0.25000000  1.0
  Si  Si28  1  0.67189353  0.82810647  0.25000000  1.0
  Si  Si29  1  0.67189353  0.82810647  0.75000000  1.0
  Si  Si30  1  0.17189353  0.67189353  0.75000000  1.0
  Si  Si31  1  0.17189353  0.67189353  0.25000000  1.0
  Si  Si32  1  0.47240578  0.81441038  0.50000000  1.0
  Si  Si33  1  0.97240578  0.68558962  0.00000000  1.0
  Si  Si34  1  0.18558962  0.47240578  0.50000000  1.0
  Si  Si35  1  0.68558962  0.02759422  0.00000000  1.0
  Si  Si36  1  0.52759422  0.18558962  0.50000000  1.0
  Si  Si37  1  0.02759422  0.31441038  0.00000000  1.0
  Si  Si38  1  0.81441038  0.52759422  0.50000000  1.0
  Si  Si39  1  0.31441038  0.97240578  0.00000000  1.0
