# generated using pymatgen
data_Tl4SeCl2
_symmetry_space_group_name_H-M   'P 1'
_cell_length_a   12.82034603
_cell_length_b   12.82034603
_cell_length_c   15.78168397
_cell_angle_alpha   90.00000000
_cell_angle_beta   90.00000000
_cell_angle_gamma   90.00000000
_symmetry_Int_Tables_number   1
_chemical_formula_structural   Tl4SeCl2
_chemical_formula_sum   'Tl32 Se8 Cl16'
_cell_volume   2593.89765835
_cell_formula_units_Z   8
loop_
 _symmetry_equiv_pos_site_id
 _symmetry_equiv_pos_as_xyz
  1  'x, y, z'
loop_
 _atom_site_type_symbol
 _atom_site_label
 _atom_site_symmetry_multiplicity
 _atom_site_fract_x
 _atom_site_fract_y
 _atom_site_fract_z
 _atom_site_occupancy
  Tl  Tl0  1  0.19570622  0.90441932  0.90286727  1.0
  Tl  Tl1  1  0.19570622  0.09558068  0.40286727  1.0
  Tl  Tl2  1  0.69570622  0.40441932  0.09713273  1.0
  Tl  Tl3  1  0.69570622  0.59558068  0.59713273  1.0
  Tl  Tl4  1  0.90441932  0.19570622  0.59713273  1.0
  Tl  Tl5  1  0.90441932  0.80429378  0.09713273  1.0
  Tl  Tl6  1  0.40441932  0.69570622  0.40286727  1.0
  Tl  Tl7  1  0.40441932  0.30429378  0.90286727  1.0
  Tl  Tl8  1  0.80429378  0.90441932  0.40286727  1.0
  Tl  Tl9  1  0.80429378  0.09558068  0.90286727  1.0
  Tl  Tl10  1  0.30429378  0.40441932  0.59713273  1.0
  Tl  Tl11  1  0.30429378  0.59558068  0.09713273  1.0
  Tl  Tl12  1  0.09558068  0.19570622  0.09713273  1.0
  Tl  Tl13  1  0.09558068  0.80429378  0.59713273  1.0
  Tl  Tl14  1  0.59558068  0.69570622  0.90286727  1.0
  Tl  Tl15  1  0.59558068  0.30429378  0.40286727  1.0
  Tl  Tl16  1  0.22793238  0.11447414  0.62352979  1.0
  Tl  Tl17  1  0.22793238  0.88552586  0.12352979  1.0
  Tl  Tl18  1  0.72793238  0.61447414  0.37647021  1.0
  Tl  Tl19  1  0.72793238  0.38552586  0.87647021  1.0
  Tl  Tl20  1  0.11447414  0.22793238  0.87647021  1.0
  Tl  Tl21  1  0.11447414  0.77206762  0.37647021  1.0
  Tl  Tl22  1  0.61447414  0.72793238  0.12352979  1.0
  Tl  Tl23  1  0.61447414  0.27206762  0.62352979  1.0
  Tl  Tl24  1  0.77206762  0.11447414  0.12352979  1.0
  Tl  Tl25  1  0.77206762  0.88552586  0.62352979  1.0
  Tl  Tl26  1  0.27206762  0.61447414  0.87647021  1.0
  Tl  Tl27  1  0.27206762  0.38552586  0.37647021  1.0
  Tl  Tl28  1  0.88552586  0.22793238  0.37647021  1.0
  Tl  Tl29  1  0.88552586  0.77206762  0.87647021  1.0
  Tl  Tl30  1  0.38552586  0.72793238  0.62352979  1.0
  Tl  Tl31  1  0.38552586  0.27206762  0.12352979  1.0
  Se  Se32  1  0.22498303  0.77501697  0.75000000  1.0
  Se  Se33  1  0.22498303  0.22498303  0.25000000  1.0
  Se  Se34  1  0.72498303  0.27501697  0.25000000  1.0
  Se  Se35  1  0.72498303  0.72498303  0.75000000  1.0
  Se  Se36  1  0.77501697  0.22498303  0.75000000  1.0
  Se  Se37  1  0.77501697  0.77501697  0.25000000  1.0
  Se  Se38  1  0.27501697  0.72498303  0.25000000  1.0
  Se  Se39  1  0.27501697  0.27501697  0.75000000  1.0
  Cl  Cl40  1  0.20119414  0.37831707  1.00688693  1.0
  Cl  Cl41  1  0.20119414  0.62168293  0.50688693  1.0
  Cl  Cl42  1  0.70119414  0.87831707  -0.00688693  1.0
  Cl  Cl43  1  0.70119414  0.12168293  0.49311307  1.0
  Cl  Cl44  1  0.37831707  0.20119414  0.49311307  1.0
  Cl  Cl45  1  0.37831707  0.79880586  -0.00688693  1.0
  Cl  Cl46  1  0.87831707  0.70119414  0.50688693  1.0
  Cl  Cl47  1  0.87831707  0.29880586  1.00688693  1.0
  Cl  Cl48  1  0.79880586  0.37831707  0.50688693  1.0
  Cl  Cl49  1  0.79880586  0.62168293  1.00688693  1.0
  Cl  Cl50  1  0.29880586  0.87831707  0.49311307  1.0
  Cl  Cl51  1  0.29880586  0.12168293  -0.00688693  1.0
  Cl  Cl52  1  0.62168293  0.20119414  -0.00688693  1.0
  Cl  Cl53  1  0.62168293  0.79880586  0.49311307  1.0
  Cl  Cl54  1  0.12168293  0.70119414  1.00688693  1.0
  Cl  Cl55  1  0.12168293  0.29880586  0.50688693  1.0
