# generated using pymatgen
data_CuH8(BrO2)2
_symmetry_space_group_name_H-M   'P 1'
_cell_length_a   4.28189989
_cell_length_b   7.16137961
_cell_length_c   12.14398983
_cell_angle_alpha   90.00000000
_cell_angle_beta   104.11278804
_cell_angle_gamma   90.00000000
_symmetry_Int_Tables_number   1
_chemical_formula_structural   CuH8(BrO2)2
_chemical_formula_sum   'Cu2 H16 Br4 O8'
_cell_volume   361.14754707
_cell_formula_units_Z   2
loop_
 _symmetry_equiv_pos_site_id
 _symmetry_equiv_pos_as_xyz
  1  'x, y, z'
loop_
 _atom_site_type_symbol
 _atom_site_label
 _atom_site_symmetry_multiplicity
 _atom_site_fract_x
 _atom_site_fract_y
 _atom_site_fract_z
 _atom_site_occupancy
  Cu  Cu0  1  0.00000000  0.50000000  0.50000000  1.0
  Cu  Cu1  1  0.00000000  0.00000000  0.00000000  1.0
  H  H2  1  1.00160406  0.47920984  0.28841942  1.0
  H  H3  1  1.00160406  0.02079016  0.78841942  1.0
  H  H4  1  -0.00160406  0.97920984  0.21158058  1.0
  H  H5  1  -0.00160406  0.52079016  0.71158058  1.0
  H  H6  1  0.78099837  0.18183525  0.30845275  1.0
  H  H7  1  0.78099837  0.31816475  0.80845275  1.0
  H  H8  1  0.21900163  0.68183525  0.19154725  1.0
  H  H9  1  0.21900163  0.81816475  0.69154725  1.0
  H  H10  1  0.75591600  0.97715480  0.35577810  1.0
  H  H11  1  0.75591600  0.52284520  0.85577810  1.0
  H  H12  1  0.24408400  0.47715480  0.14422190  1.0
  H  H13  1  0.24408400  0.02284520  0.64422190  1.0
  H  H14  1  0.63229915  0.49543740  0.29612828  1.0
  H  H15  1  0.63229915  0.00456260  0.79612828  1.0
  H  H16  1  0.36770085  0.99543740  0.20387172  1.0
  H  H17  1  0.36770085  0.50456260  0.70387172  1.0
  Br  Br18  1  0.38100634  0.25646821  0.02002796  1.0
  Br  Br19  1  0.38100634  0.24353179  0.52002796  1.0
  Br  Br20  1  0.61899366  0.75646821  0.47997204  1.0
  Br  Br21  1  0.61899366  0.74353179  0.97997204  1.0
  O  O22  1  0.84419481  0.43537001  0.33298139  1.0
  O  O23  1  0.84419481  0.06462999  0.83298139  1.0
  O  O24  1  0.15580519  0.93537001  0.16701861  1.0
  O  O25  1  0.15580519  0.56462999  0.66701861  1.0
  O  O26  1  0.74274882  0.04924170  0.28528432  1.0
  O  O27  1  0.74274882  0.45075830  0.78528432  1.0
  O  O28  1  0.25725118  0.54924170  0.21471568  1.0
  O  O29  1  0.25725118  0.95075830  0.71471568  1.0
