# generated using pymatgen
data_YFeGe2O7
_symmetry_space_group_name_H-M   'P 1'
_cell_length_a   6.61968019
_cell_length_b   8.82841806
_cell_length_c   9.89454094
_cell_angle_alpha   90.00000000
_cell_angle_beta   99.99357374
_cell_angle_gamma   90.00000000
_symmetry_Int_Tables_number   1
_chemical_formula_structural   YFeGe2O7
_chemical_formula_sum   'Y4 Fe4 Ge8 O28'
_cell_volume   569.47621976
_cell_formula_units_Z   4
loop_
 _symmetry_equiv_pos_site_id
 _symmetry_equiv_pos_as_xyz
  1  'x, y, z'
loop_
 _atom_site_type_symbol
 _atom_site_label
 _atom_site_symmetry_multiplicity
 _atom_site_fract_x
 _atom_site_fract_y
 _atom_site_fract_z
 _atom_site_occupancy
  Fe  Fe0  1  0.74997663  0.95782030  0.74998255  1.0
  Fe  Fe1  1  0.74997663  0.54217970  0.74998255  1.0
  Fe  Fe2  1  0.25002337  0.45782030  0.25001745  1.0
  Fe  Fe3  1  0.25002337  0.04217970  0.25001745  1.0
  O  O4  1  0.25266879  0.75000000  0.93411635  1.0
  O  O5  1  0.74733121  0.25000000  0.06588365  1.0
  O  O6  1  0.52789016  0.92671106  0.85496335  1.0
  O  O7  1  0.52789016  0.57328894  0.85496335  1.0
  O  O8  1  0.47210984  0.42671106  0.14503665  1.0
  O  O9  1  0.47210984  0.07328894  0.14503665  1.0
  O  O10  1  0.85420360  0.75000000  0.38112261  1.0
  O  O11  1  0.14579640  0.25000000  0.61887739  1.0
  O  O12  1  0.24733409  0.75000000  0.56590981  1.0
  O  O13  1  0.75266591  0.25000000  0.43409019  1.0
  O  O14  1  0.64570304  0.75000000  0.11888744  1.0
  O  O15  1  0.35429696  0.25000000  0.88111256  1.0
  O  O16  1  0.83581561  0.75000000  0.89081596  1.0
  O  O17  1  0.16418439  0.25000000  0.10918404  1.0
  O  O18  1  0.95732578  0.41138851  0.86154113  1.0
  O  O19  1  0.95732578  0.08861149  0.86154113  1.0
  O  O20  1  0.04267422  0.91138851  0.13845887  1.0
  O  O21  1  0.04267422  0.58861149  0.13845887  1.0
  O  O22  1  0.66419918  0.75000000  0.60921079  1.0
  O  O23  1  0.33580082  0.25000000  0.39078921  1.0
  O  O24  1  0.54265779  0.41138378  0.63841625  1.0
  O  O25  1  0.54265779  0.08861622  0.63841625  1.0
  O  O26  1  0.45734221  0.91138378  0.36158375  1.0
  O  O27  1  0.45734221  0.58861622  0.36158375  1.0
  O  O28  1  0.97209225  0.92673577  0.64498911  1.0
  O  O29  1  0.97209225  0.57326423  0.64498911  1.0
  O  O30  1  0.02790775  0.42673577  0.35501089  1.0
  O  O31  1  0.02790775  0.07326423  0.35501089  1.0
  Y  Y32  1  0.75000107  0.95275248  0.25001548  1.0
  Y  Y33  1  0.75000107  0.54724752  0.25001548  1.0
  Y  Y34  1  0.24999893  0.45275248  0.74998452  1.0
  Y  Y35  1  0.24999893  0.04724752  0.74998452  1.0
  Ge  Ge36  1  0.96261228  0.75000000  0.55675181  1.0
  Ge  Ge37  1  0.03738772  0.25000000  0.44324819  1.0
  Ge  Ge38  1  0.05043361  0.75000000  0.02978783  1.0
  Ge  Ge39  1  0.94956639  0.25000000  0.97021217  1.0
  Ge  Ge40  1  0.53739030  0.75000000  0.94324288  1.0
  Ge  Ge41  1  0.46260970  0.25000000  0.05675712  1.0
  Ge  Ge42  1  0.44957561  0.75000000  0.47024765  1.0
  Ge  Ge43  1  0.55042439  0.25000000  0.52975235  1.0
