# generated using pymatgen
data_Tl2Mo9S11
_symmetry_space_group_name_H-M   'P 1'
_cell_length_a   13.01384725
_cell_length_b   13.01384725
_cell_length_c   13.01384725
_cell_angle_alpha   42.43013588
_cell_angle_beta   42.43013588
_cell_angle_gamma   42.43013588
_symmetry_Int_Tables_number   1
_chemical_formula_structural   Tl2Mo9S11
_chemical_formula_sum   'Tl4 Mo18 S22'
_cell_volume   908.33201108
_cell_formula_units_Z   2
loop_
 _symmetry_equiv_pos_site_id
 _symmetry_equiv_pos_as_xyz
  1  'x, y, z'
loop_
 _atom_site_type_symbol
 _atom_site_label
 _atom_site_symmetry_multiplicity
 _atom_site_fract_x
 _atom_site_fract_y
 _atom_site_fract_z
 _atom_site_occupancy
  Tl  Tl0  1  0.16689770  0.16689770  0.16689770  1.0
  Tl  Tl1  1  0.83310230  -0.16689770  -0.16689770  1.0
  Tl  Tl2  1  0.26995075  0.26995075  0.26995075  1.0
  Tl  Tl3  1  0.73004925  -0.26995075  -0.26995075  1.0
  Mo  Mo4  1  0.19246820  0.85962711  -0.95416915  1.0
  Mo  Mo5  1  0.95416915  -0.19246820  0.14037289  1.0
  Mo  Mo6  1  1.14037289  -0.04583085  -0.19246820  1.0
  Mo  Mo7  1  0.80753180  0.14037289  -0.04583085  1.0
  Mo  Mo8  1  0.04583085  0.19246820  -0.14037289  1.0
  Mo  Mo9  1  0.85962711  0.04583085  -0.80753180  1.0
  Mo  Mo10  1  0.62826757  0.29911799  -0.51995556  1.0
  Mo  Mo11  1  0.51995556  0.37173243  -0.29911799  1.0
  Mo  Mo12  1  0.70088201  0.51995556  -0.62826757  1.0
  Mo  Mo13  1  0.37173243  0.70088201  -0.48004444  1.0
  Mo  Mo14  1  0.48004444  0.62826757  -0.70088201  1.0
  Mo  Mo15  1  0.29911799  0.48004444  -0.37173243  1.0
  Mo  Mo16  1  0.57517255  0.38982985  -0.75197555  1.0
  Mo  Mo17  1  0.75197555  0.42482745  -0.38982985  1.0
  Mo  Mo18  1  0.61017015  0.75197555  -0.57517255  1.0
  Mo  Mo19  1  0.42482745  0.61017015  -0.24802445  1.0
  Mo  Mo20  1  0.24802445  0.57517255  -0.61017015  1.0
  Mo  Mo21  1  0.38982985  0.24802445  -0.42482745  1.0
  S  S22  1  0.17444325  0.78071049  -0.55175268  1.0
  S  S23  1  0.55175268  0.82555675  -0.78071049  1.0
  S  S24  1  0.21928951  0.55175268  -0.17444325  1.0
  S  S25  1  0.82555675  0.21928951  -0.44824732  1.0
  S  S26  1  0.44824732  0.17444325  -0.21928951  1.0
  S  S27  1  0.78071049  0.44824732  -0.82555675  1.0
  S  S28  1  0.30202325  0.90232311  -0.43661464  1.0
  S  S29  1  0.43661464  0.69797675  -0.90232311  1.0
  S  S30  1  0.09767689  0.43661464  -0.30202325  1.0
  S  S31  1  0.69797675  0.09767689  -0.56338536  1.0
  S  S32  1  0.56338536  0.30202325  -0.09767689  1.0
  S  S33  1  0.90232311  0.56338536  -0.69797675  1.0
  S  S34  1  0.33954951  -0.00106139  -0.25835185  1.0
  S  S35  1  1.25835185  -0.33954951  0.00106139  1.0
  S  S36  1  1.00106139  0.25835185  -0.33954951  1.0
  S  S37  1  0.66045049  0.00106139  0.25835185  1.0
  S  S38  1  0.74164815  -0.66045049  -0.00106139  1.0
  S  S39  1  0.99893861  -0.25835185  -0.66045049  1.0
  S  S40  1  0.08443200  0.08443200  0.08443200  1.0
  S  S41  1  0.91556800  -0.08443200  -0.08443200  1.0
  S  S42  1  0.35260672  0.35260672  -0.64739328  1.0
  S  S43  1  0.64739328  0.64739328  -0.35260672  1.0
