# generated using pymatgen
data_CsCdBO3
_symmetry_space_group_name_H-M   'P 1'
_cell_length_a   7.60759747
_cell_length_b   7.60759747
_cell_length_c   7.60759747
_cell_angle_alpha   90.00000000
_cell_angle_beta   90.00000000
_cell_angle_gamma   90.00000000
_symmetry_Int_Tables_number   1
_chemical_formula_structural   CsCdBO3
_chemical_formula_sum   'Cs4 Cd4 B4 O12'
_cell_volume   440.29380635
_cell_formula_units_Z   4
loop_
 _symmetry_equiv_pos_site_id
 _symmetry_equiv_pos_as_xyz
  1  'x, y, z'
loop_
 _atom_site_type_symbol
 _atom_site_label
 _atom_site_symmetry_multiplicity
 _atom_site_fract_x
 _atom_site_fract_y
 _atom_site_fract_z
 _atom_site_occupancy
  Cs  Cs0  1  0.13690081  0.63690081  0.86309919  1.0
  Cs  Cs1  1  0.63690081  0.86309919  0.13690081  1.0
  Cs  Cs2  1  0.86309919  0.13690081  0.63690081  1.0
  Cs  Cs3  1  0.36309919  0.36309919  0.36309919  1.0
  Cd  Cd4  1  0.85339761  0.35339761  0.14660239  1.0
  Cd  Cd5  1  0.35339761  0.14660239  0.85339761  1.0
  Cd  Cd6  1  0.14660239  0.85339761  0.35339761  1.0
  Cd  Cd7  1  0.64660239  0.64660239  0.64660239  1.0
  B  B8  1  0.40429376  0.90429376  0.59570624  1.0
  B  B9  1  0.90429376  0.59570624  0.40429376  1.0
  B  B10  1  0.59570624  0.40429376  0.90429376  1.0
  B  B11  1  0.09570624  0.09570624  0.09570624  1.0
  O  O12  1  0.47369496  0.41473007  0.76842228  1.0
  O  O13  1  0.97369496  0.08526993  0.23157772  1.0
  O  O14  1  0.91473007  0.73157772  0.52630504  1.0
  O  O15  1  0.41473007  0.76842228  0.47369496  1.0
  O  O16  1  0.23157772  0.97369496  0.08526993  1.0
  O  O17  1  0.73157772  0.52630504  0.91473007  1.0
  O  O18  1  0.52630504  0.91473007  0.73157772  1.0
  O  O19  1  0.02630504  0.58526993  0.26842228  1.0
  O  O20  1  0.08526993  0.23157772  0.97369496  1.0
  O  O21  1  0.58526993  0.26842228  0.02630504  1.0
  O  O22  1  0.76842228  0.47369496  0.41473007  1.0
  O  O23  1  0.26842228  0.02630504  0.58526993  1.0
