# generated using pymatgen
data_ScAlPt
_symmetry_space_group_name_H-M   'P 1'
_cell_length_a   6.46688201
_cell_length_b   4.33055939
_cell_length_c   7.57549547
_cell_angle_alpha   90.00000000
_cell_angle_beta   90.00000000
_cell_angle_gamma   90.00000000
_symmetry_Int_Tables_number   1
_chemical_formula_structural   ScAlPt
_chemical_formula_sum   'Sc4 Al4 Pt4'
_cell_volume   212.15339163
_cell_formula_units_Z   4
loop_
 _symmetry_equiv_pos_site_id
 _symmetry_equiv_pos_as_xyz
  1  'x, y, z'
loop_
 _atom_site_type_symbol
 _atom_site_label
 _atom_site_symmetry_multiplicity
 _atom_site_fract_x
 _atom_site_fract_y
 _atom_site_fract_z
 _atom_site_occupancy
  Sc  Sc0  1  0.02480553  0.25000000  0.31489950  1.0
  Sc  Sc1  1  0.52480553  0.25000000  0.18510050  1.0
  Sc  Sc2  1  0.97519447  0.75000000  0.68510050  1.0
  Sc  Sc3  1  0.47519447  0.75000000  0.81489950  1.0
  Al  Al4  1  0.15354296  0.25000000  0.93660842  1.0
  Al  Al5  1  0.65354296  0.25000000  0.56339158  1.0
  Al  Al6  1  0.84645704  0.75000000  0.06339158  1.0
  Al  Al7  1  0.34645704  0.75000000  0.43660842  1.0
  Pt  Pt8  1  0.26216489  0.25000000  0.61291920  1.0
  Pt  Pt9  1  0.76216489  0.25000000  0.88708080  1.0
  Pt  Pt10  1  0.73783511  0.75000000  0.38708080  1.0
  Pt  Pt11  1  0.23783511  0.75000000  0.11291920  1.0
