# generated using pymatgen
data_NaSb5O8
_symmetry_space_group_name_H-M   'P 1'
_cell_length_a   7.53785542
_cell_length_b   7.43219023
_cell_length_c   9.96223734
_cell_angle_alpha   73.53639839
_cell_angle_beta   75.16473998
_cell_angle_gamma   86.86533436
_symmetry_Int_Tables_number   1
_chemical_formula_structural   NaSb5O8
_chemical_formula_sum   'Na2 Sb10 O16'
_cell_volume   517.29197742
_cell_formula_units_Z   2
loop_
 _symmetry_equiv_pos_site_id
 _symmetry_equiv_pos_as_xyz
  1  'x, y, z'
loop_
 _atom_site_type_symbol
 _atom_site_label
 _atom_site_symmetry_multiplicity
 _atom_site_fract_x
 _atom_site_fract_y
 _atom_site_fract_z
 _atom_site_occupancy
  Na  Na0  1  -0.43796149  -0.74117380  -0.96192531  1.0
  Na  Na1  1  -0.56203851  -0.25882620  -0.03807469  1.0
  Sb  Sb2  1  -0.69042392  -0.98255607  -0.34232612  1.0
  Sb  Sb3  1  -0.30957608  -0.01744393  -0.65767388  1.0
  Sb  Sb4  1  -0.94466915  -0.74188237  -0.96673939  1.0
  Sb  Sb5  1  -0.05533085  -0.25811763  -0.03326061  1.0
  Sb  Sb6  1  -0.81592163  -0.53245906  -0.72629237  1.0
  Sb  Sb7  1  -0.18407837  -0.46754094  -0.27370763  1.0
  Sb  Sb8  1  -0.39939249  -0.53594420  -0.66359686  1.0
  Sb  Sb9  1  -0.60060751  -0.46405580  -0.33640314  1.0
  Sb  Sb10  1  -0.75765312  -0.10140774  -0.67526639  1.0
  Sb  Sb11  1  -0.24234688  -0.89859226  -0.32473361  1.0
  O  O12  1  -0.51457052  -0.94221109  -0.23264882  1.0
  O  O13  1  -0.48542948  -0.05778891  -0.76735118  1.0
  O  O14  1  -0.80276843  -0.85303926  -0.80756879  1.0
  O  O15  1  -0.19723157  -0.14696074  -0.19243121  1.0
  O  O16  1  -0.45631526  -0.82085700  -0.57284450  1.0
  O  O17  1  -0.54368474  -0.17914300  -0.42715550  1.0
  O  O18  1  -0.19366742  -0.80444137  -0.83272798  1.0
  O  O19  1  -0.80633258  -0.19555863  -0.16727202  1.0
  O  O20  1  -0.54969253  -0.53622243  -0.81805253  1.0
  O  O21  1  -0.45030747  -0.46377757  -0.18194747  1.0
  O  O22  1  -0.89129273  -0.50449042  -0.91925218  1.0
  O  O23  1  -0.10870727  -0.49550958  -0.08074782  1.0
  O  O24  1  -0.64056509  -0.45255599  -0.56068781  1.0
  O  O25  1  -0.35943491  -0.54744401  -0.43931219  1.0
  O  O26  1  -0.80860732  -0.24432679  -0.80299238  1.0
  O  O27  1  -0.19139268  -0.75567321  -0.19700762  1.0
