# generated using pymatgen
data_Sc3NiC4
_symmetry_space_group_name_H-M   'P 1'
_cell_length_a   6.57196099
_cell_length_b   6.57196099
_cell_length_c   6.57196099
_cell_angle_alpha   149.56699859
_cell_angle_beta   141.13036595
_cell_angle_gamma   50.14865661
_symmetry_Int_Tables_number   1
_chemical_formula_structural   Sc3NiC4
_chemical_formula_sum   'Sc3 Ni1 C4'
_cell_volume   89.81105822
_cell_formula_units_Z   1
loop_
 _symmetry_equiv_pos_site_id
 _symmetry_equiv_pos_as_xyz
  1  'x, y, z'
loop_
 _atom_site_type_symbol
 _atom_site_label
 _atom_site_symmetry_multiplicity
 _atom_site_fract_x
 _atom_site_fract_y
 _atom_site_fract_z
 _atom_site_occupancy
  Sc  Sc0  1  0.81271735  0.31271735  0.50000000  1.0
  Sc  Sc1  1  0.18728265  0.68728265  0.50000000  1.0
  Sc  Sc2  1  0.50000000  0.50000000  1.00000000  1.0
  Ni  Ni3  1  0.00000000  0.00000000  0.00000000  1.0
  C  C4  1  0.54222908  0.87590988  0.66631920  1.0
  C  C5  1  0.79040932  0.12409012  0.66631920  1.0
  C  C6  1  1.20959068  0.87590988  1.33368080  1.0
  C  C7  1  0.45777092  0.12409012  0.33368080  1.0
