# generated using pymatgen
data_Gd4CdCo
_symmetry_space_group_name_H-M   'P 1'
_cell_length_a   9.59740228
_cell_length_b   9.59740228
_cell_length_c   9.59740228
_cell_angle_alpha   60.00000000
_cell_angle_beta   60.00000000
_cell_angle_gamma   60.00000000
_symmetry_Int_Tables_number   1
_chemical_formula_structural   Gd4CdCo
_chemical_formula_sum   'Gd16 Cd4 Co4'
_cell_volume   625.09510659
_cell_formula_units_Z   4
loop_
 _symmetry_equiv_pos_site_id
 _symmetry_equiv_pos_as_xyz
  1  'x, y, z'
loop_
 _atom_site_type_symbol
 _atom_site_label
 _atom_site_symmetry_multiplicity
 _atom_site_fract_x
 _atom_site_fract_y
 _atom_site_fract_z
 _atom_site_occupancy
  Gd  Gd0  1  0.06133635  0.43866365  0.43866365  1.0
  Gd  Gd1  1  0.43866365  0.43866365  0.06133635  1.0
  Gd  Gd2  1  0.43866365  0.06133635  0.43866365  1.0
  Gd  Gd3  1  0.06133635  0.06133635  0.43866365  1.0
  Gd  Gd4  1  0.06133635  0.43866365  0.06133635  1.0
  Gd  Gd5  1  0.43866365  0.06133635  0.06133635  1.0
  Gd  Gd6  1  -0.81112271  0.81112271  0.81112271  1.0
  Gd  Gd7  1  -0.18887729  0.81112271  0.18887729  1.0
  Gd  Gd8  1  -0.18887729  0.18887729  0.81112271  1.0
  Gd  Gd9  1  0.18887729  1.18887729  -0.18887729  1.0
  Gd  Gd10  1  0.18887729  -0.18887729  0.18887729  1.0
  Gd  Gd11  1  -0.18887729  0.18887729  0.18887729  1.0
  Gd  Gd12  1  -0.34574236  0.65425764  0.65425764  1.0
  Gd  Gd13  1  1.03722707  0.65425764  -0.34574236  1.0
  Gd  Gd14  1  -0.34574236  0.65425764  1.03722707  1.0
  Gd  Gd15  1  0.65425764  1.03722707  -0.34574236  1.0
  Cd  Cd16  1  0.42020676  1.42020676  0.42020676  1.0
  Cd  Cd17  1  -0.26062028  0.42020676  0.42020676  1.0
  Cd  Cd18  1  0.42020676  1.42020676  -0.26062028  1.0
  Cd  Cd19  1  0.42020676  -0.26062028  0.42020676  1.0
  Co  Co20  1  0.85971312  0.85971312  -0.14028688  1.0
  Co  Co21  1  0.42086064  0.85971312  -0.14028688  1.0
  Co  Co22  1  0.85971312  0.85971312  -0.57913936  1.0
  Co  Co23  1  0.85971312  0.42086064  -0.14028688  1.0
