# generated using pymatgen
data_HgN6
_symmetry_space_group_name_H-M   'P 1'
_cell_length_a   11.02144326
_cell_length_b   6.54776331
_cell_length_c   6.64032388
_cell_angle_alpha   90.00000000
_cell_angle_beta   90.00000000
_cell_angle_gamma   90.00000000
_symmetry_Int_Tables_number   1
_chemical_formula_structural   HgN6
_chemical_formula_sum   'Hg4 N24'
_cell_volume   479.20429680
_cell_formula_units_Z   4
loop_
 _symmetry_equiv_pos_site_id
 _symmetry_equiv_pos_as_xyz
  1  'x, y, z'
loop_
 _atom_site_type_symbol
 _atom_site_label
 _atom_site_symmetry_multiplicity
 _atom_site_fract_x
 _atom_site_fract_y
 _atom_site_fract_z
 _atom_site_occupancy
  Hg  Hg0  1  0.02662594  0.25934728  0.64023571  1.0
  Hg  Hg1  1  0.52662594  0.74065272  0.64023571  1.0
  Hg  Hg2  1  0.97337406  0.74065272  0.14023571  1.0
  Hg  Hg3  1  0.47337406  0.25934728  0.14023571  1.0
  N  N4  1  0.46160236  0.01279619  0.52208938  1.0
  N  N5  1  0.96160236  0.98720381  0.52208938  1.0
  N  N6  1  0.53839764  0.98720381  0.02208938  1.0
  N  N7  1  0.03839764  0.01279619  0.02208938  1.0
  N  N8  1  0.38177205  0.09185748  0.62187776  1.0
  N  N9  1  0.88177205  0.90814252  0.62187776  1.0
  N  N10  1  0.61822795  0.90814252  0.12187776  1.0
  N  N11  1  0.11822795  0.09185748  0.12187776  1.0
  N  N12  1  0.30663994  0.17851623  0.70710559  1.0
  N  N13  1  0.80663994  0.82148377  0.70710559  1.0
  N  N14  1  0.69336006  0.82148377  0.20710559  1.0
  N  N15  1  0.19336006  0.17851623  0.20710559  1.0
  N  N16  1  0.27515691  0.67060334  0.75057858  1.0
  N  N17  1  0.77515691  0.32939666  0.75057858  1.0
  N  N18  1  0.72484309  0.32939666  0.25057858  1.0
  N  N19  1  0.22484309  0.67060334  0.25057858  1.0
  N  N20  1  0.18092397  0.59506019  0.75324829  1.0
  N  N21  1  0.68092397  0.40493981  0.75324829  1.0
  N  N22  1  0.81907603  0.40493981  0.25324829  1.0
  N  N23  1  0.31907603  0.59506019  0.25324829  1.0
  N  N24  1  0.07758868  0.53240324  0.76936469  1.0
  N  N25  1  0.57758868  0.46759676  0.76936469  1.0
  N  N26  1  0.92241132  0.46759676  0.26936469  1.0
  N  N27  1  0.42241132  0.53240324  0.26936469  1.0
