# generated using pymatgen
data_Sb2Ir
_symmetry_space_group_name_H-M   'P 1'
_cell_length_a   6.69105899
_cell_length_b   6.64025951
_cell_length_c   6.79548710
_cell_angle_alpha   90.00000000
_cell_angle_beta   114.94903749
_cell_angle_gamma   90.00000000
_symmetry_Int_Tables_number   1
_chemical_formula_structural   Sb2Ir
_chemical_formula_sum   'Sb8 Ir4'
_cell_volume   273.75126595
_cell_formula_units_Z   4
loop_
 _symmetry_equiv_pos_site_id
 _symmetry_equiv_pos_as_xyz
  1  'x, y, z'
loop_
 _atom_site_type_symbol
 _atom_site_label
 _atom_site_symmetry_multiplicity
 _atom_site_fract_x
 _atom_site_fract_y
 _atom_site_fract_z
 _atom_site_occupancy
  Sb  Sb0  1  0.84438991  0.86250664  0.17863181  1.0
  Sb  Sb1  1  0.84438991  0.63749336  0.67863181  1.0
  Sb  Sb2  1  0.15561009  0.36250664  0.32136819  1.0
  Sb  Sb3  1  0.15561009  0.13749336  0.82136819  1.0
  Sb  Sb4  1  0.64929751  0.13476087  0.37867274  1.0
  Sb  Sb5  1  0.64929751  0.36523913  0.87867274  1.0
  Sb  Sb6  1  0.35070249  0.63476087  0.12132726  1.0
  Sb  Sb7  1  0.35070249  0.86523913  0.62132726  1.0
  Ir  Ir8  1  0.77181284  0.49899180  0.29115378  1.0
  Ir  Ir9  1  0.77181284  0.00100820  0.79115378  1.0
  Ir  Ir10  1  0.22818716  0.99899180  0.20884622  1.0
  Ir  Ir11  1  0.22818716  0.50100820  0.70884622  1.0
