# generated using pymatgen
data_Y2Ge6Pt
_symmetry_space_group_name_H-M   'P 1'
_cell_length_a   11.18032962
_cell_length_b   11.18032962
_cell_length_c   4.12152048
_cell_angle_alpha   90.00000000
_cell_angle_beta   90.00000000
_cell_angle_gamma   159.06887025
_symmetry_Int_Tables_number   1
_chemical_formula_structural   Y2Ge6Pt
_chemical_formula_sum   'Y2 Ge6 Pt1'
_cell_volume   184.04900086
_cell_formula_units_Z   1
loop_
 _symmetry_equiv_pos_site_id
 _symmetry_equiv_pos_as_xyz
  1  'x, y, z'
loop_
 _atom_site_type_symbol
 _atom_site_label
 _atom_site_symmetry_multiplicity
 _atom_site_fract_x
 _atom_site_fract_y
 _atom_site_fract_z
 _atom_site_occupancy
  Y  Y0  1  -0.22242597  1.22242597  0.50000000  1.0
  Y  Y1  1  -0.88309843  0.88309843  0.50000000  1.0
  Ge  Ge2  1  -0.50653550  1.50653550  0.50000000  1.0
  Ge  Ge3  1  -0.62048232  0.62048232  0.50000000  1.0
  Ge  Ge4  1  -0.00775399  0.00775399  0.00000000  1.0
  Ge  Ge5  1  -0.12190936  1.12190936  0.00000000  1.0
  Ge  Ge6  1  -0.33060258  1.33060258  0.00000000  1.0
  Ge  Ge7  1  -0.75909476  0.75909476  0.00000000  1.0
  Pt  Pt8  1  -0.44109709  1.44109709  0.00000000  1.0
