# generated using pymatgen
data_La3In4Ge
_symmetry_space_group_name_H-M   'P 1'
_cell_length_a   8.65851411
_cell_length_b   8.65851411
_cell_length_c   8.65851411
_cell_angle_alpha   119.73342692
_cell_angle_beta   119.73342692
_cell_angle_gamma   90.46234160
_symmetry_Int_Tables_number   1
_chemical_formula_structural   La3In4Ge
_chemical_formula_sum   'La6 In8 Ge2'
_cell_volume   460.83575019
_cell_formula_units_Z   2
loop_
 _symmetry_equiv_pos_site_id
 _symmetry_equiv_pos_as_xyz
  1  'x, y, z'
loop_
 _atom_site_type_symbol
 _atom_site_label
 _atom_site_symmetry_multiplicity
 _atom_site_fract_x
 _atom_site_fract_y
 _atom_site_fract_z
 _atom_site_occupancy
  La  La0  1  0.33521993  0.83521993  1.17043986  1.0
  La  La1  1  0.16478007  0.33521993  0.50000000  1.0
  La  La2  1  0.83521993  0.66478007  0.50000000  1.0
  La  La3  1  0.66478007  1.16478007  0.82956014  1.0
  La  La4  1  0.25000000  0.25000000  0.00000000  1.0
  La  La5  1  0.75000000  0.75000000  0.00000000  1.0
  In  In6  1  0.67476101  1.17476101  1.21453813  1.0
  In  In7  1  1.03977711  0.53977711  1.21453813  1.0
  In  In8  1  0.46022289  0.67476101  0.50000000  1.0
  In  In9  1  0.82523899  1.03977711  1.50000000  1.0
  In  In10  1  1.17476101  0.96022289  1.50000000  1.0
  In  In11  1  0.53977711  0.32523899  0.50000000  1.0
  In  In12  1  0.96022289  0.46022289  0.78546187  1.0
  In  In13  1  0.32523899  0.82523899  0.78546187  1.0
  Ge  Ge14  1  0.50000000  0.50000000  0.00000000  1.0
  Ge  Ge15  1  0.00000000  0.00000000  0.00000000  1.0
