# generated using pymatgen
data_Sr2CeIrO6
_symmetry_space_group_name_H-M   'P 1'
_cell_length_a   5.85934641
_cell_length_b   5.92023367
_cell_length_c   10.11908678
_cell_angle_alpha   90.00000000
_cell_angle_beta   124.79508527
_cell_angle_gamma   90.00000000
_symmetry_Int_Tables_number   1
_chemical_formula_structural   Sr2CeIrO6
_chemical_formula_sum   'Sr4 Ce2 Ir2 O12'
_cell_volume   288.25530684
_cell_formula_units_Z   2
loop_
 _symmetry_equiv_pos_site_id
 _symmetry_equiv_pos_as_xyz
  1  'x, y, z'
loop_
 _atom_site_type_symbol
 _atom_site_label
 _atom_site_symmetry_multiplicity
 _atom_site_fract_x
 _atom_site_fract_y
 _atom_site_fract_z
 _atom_site_occupancy
  Sr  Sr0  1  0.23824030  0.46164957  0.24839820  1.0
  Sr  Sr1  1  0.23824030  0.03835043  0.74839820  1.0
  Sr  Sr2  1  0.76175970  0.96164957  0.25160180  1.0
  Sr  Sr3  1  0.76175970  0.53835043  0.75160180  1.0
  Ce  Ce4  1  0.50000000  0.00000000  0.50000000  1.0
  Ce  Ce5  1  0.50000000  0.50000000  -0.00000000  1.0
  Ir  Ir6  1  0.00000000  0.00000000  0.00000000  1.0
  Ir  Ir7  1  0.00000000  0.50000000  0.50000000  1.0
  O  O8  1  0.31208131  0.01911276  0.23574379  1.0
  O  O9  1  0.31208131  0.48088724  0.73574379  1.0
  O  O10  1  0.68791869  0.51911276  0.26425621  1.0
  O  O11  1  0.68791869  0.98088724  0.76425621  1.0
  O  O12  1  0.84339343  0.72608614  0.04079362  1.0
  O  O13  1  0.84339343  0.77391386  0.54079362  1.0
  O  O14  1  0.15660657  0.22608614  0.45920638  1.0
  O  O15  1  0.15660657  0.27391386  0.95920638  1.0
  O  O16  1  0.76783763  0.20152631  0.04062662  1.0
  O  O17  1  0.76783763  0.29847369  0.54062662  1.0
  O  O18  1  0.23216237  0.70152631  0.45937338  1.0
  O  O19  1  0.23216237  0.79847369  0.95937338  1.0
