# generated using pymatgen
data_Be
_symmetry_space_group_name_H-M   'P 1'
_cell_length_a   3.56340017
_cell_length_b   3.92189190
_cell_length_c   2.26141804
_cell_angle_alpha   90.00000000
_cell_angle_beta   90.00000000
_cell_angle_gamma   90.00000000
_symmetry_Int_Tables_number   1
_chemical_formula_structural   Be
_chemical_formula_sum   Be4
_cell_volume   31.60392828
_cell_formula_units_Z   4
loop_
 _symmetry_equiv_pos_site_id
 _symmetry_equiv_pos_as_xyz
  1  'x, y, z'
loop_
 _atom_site_type_symbol
 _atom_site_label
 _atom_site_symmetry_multiplicity
 _atom_site_fract_x
 _atom_site_fract_y
 _atom_site_fract_z
 _atom_site_occupancy
  Be  Be0  1  0.25000023  0.66641622  0.75002057  1.0
  Be  Be1  1  0.75000023  0.83358378  0.24997943  1.0
  Be  Be2  1  0.74999977  0.33358378  0.75002057  1.0
  Be  Be3  1  0.24999977  0.16641622  0.24997943  1.0
