# generated using pymatgen
data_SiO2
_symmetry_space_group_name_H-M   'P 1'
_cell_length_a   12.22853999
_cell_length_b   12.22853999
_cell_length_c   12.22853999
_cell_angle_alpha   135.40273527
_cell_angle_beta   135.40273527
_cell_angle_gamma   64.90507998
_symmetry_Int_Tables_number   1
_chemical_formula_structural   SiO2
_chemical_formula_sum   'Si16 O32'
_cell_volume   888.61704204
_cell_formula_units_Z   16
loop_
 _symmetry_equiv_pos_site_id
 _symmetry_equiv_pos_as_xyz
  1  'x, y, z'
loop_
 _atom_site_type_symbol
 _atom_site_label
 _atom_site_symmetry_multiplicity
 _atom_site_fract_x
 _atom_site_fract_y
 _atom_site_fract_z
 _atom_site_occupancy
  Si  Si0  1  0.47542896  0.47981533  0.33983691  1.0
  Si  Si1  1  1.13997841  1.13559205  1.66016309  1.0
  Si  Si2  1  0.61002159  1.11440795  0.83983691  1.0
  Si  Si3  1  1.27457104  0.77018467  1.16016309  1.0
  Si  Si4  1  0.47542896  1.13559205  0.99561363  1.0
  Si  Si5  1  1.13997841  0.47981533  1.00438637  1.0
  Si  Si6  1  0.61002159  0.77018467  0.49561363  1.0
  Si  Si7  1  1.27457104  1.11440795  1.50438637  1.0
  Si  Si8  1  0.52018467  0.52457104  0.66016309  1.0
  Si  Si9  1  0.86440795  0.86002159  1.33983691  1.0
  Si  Si10  1  0.88559205  0.38997841  1.16016309  1.0
  Si  Si11  1  0.22981533  0.72542896  0.83983691  1.0
  Si  Si12  1  0.52018467  0.86002159  0.99561363  1.0
  Si  Si13  1  0.86440795  0.52457104  1.00438637  1.0
  Si  Si14  1  0.88559205  0.72542896  1.49561363  1.0
  Si  Si15  1  0.22981533  0.38997841  0.50438637  1.0
  O  O16  1  0.97921382  1.02078618  1.50000000  1.0
  O  O17  1  0.52078618  0.47921382  0.50000000  1.0
  O  O18  1  0.22921382  0.77078618  1.00000000  1.0
  O  O19  1  0.77078618  0.22921382  1.00000000  1.0
  O  O20  1  0.97921382  0.47921382  0.95842765  1.0
  O  O21  1  0.52078618  1.02078618  1.04157235  1.0
  O  O22  1  0.22921382  0.22921382  0.45842765  1.0
  O  O23  1  0.77078618  0.77078618  1.54157235  1.0
  O  O24  1  1.24390184  0.93388303  1.31001881  1.0
  O  O25  1  0.62386421  0.93388303  0.68998119  1.0
  O  O26  1  1.12613579  0.31611697  0.81001881  1.0
  O  O27  1  0.50609816  0.31611697  0.18998119  1.0
  O  O28  1  0.06611697  0.75609816  0.68998119  1.0
  O  O29  1  0.06611697  0.37613579  0.31001881  1.0
  O  O30  1  0.68388303  0.87386421  1.18998119  1.0
  O  O31  1  0.68388303  0.49390184  0.81001881  1.0
  O  O32  1  0.45977920  0.75063088  0.29085167  1.0
  O  O33  1  0.45977920  1.16892753  0.70914833  1.0
  O  O34  1  0.29022080  1.08107247  0.79085167  1.0
  O  O35  1  0.29022080  0.49936912  0.20914833  1.0
  O  O36  1  0.24936912  0.54022080  0.70914833  1.0
  O  O37  1  0.83107247  0.54022080  1.29085167  1.0
  O  O38  1  0.91892753  0.70977920  1.20914833  1.0
  O  O39  1  0.50063088  0.70977920  0.79085167  1.0
  O  O40  1  1.16044329  1.12500000  1.53544329  1.0
  O  O41  1  0.58955671  0.62500000  0.46455671  1.0
  O  O42  1  1.16044329  0.62500000  1.03544329  1.0
  O  O43  1  0.58955671  1.12500000  0.96455671  1.0
  O  O44  1  0.87500000  0.83955671  1.46455671  1.0
  O  O45  1  0.37500000  0.41044329  0.53544329  1.0
  O  O46  1  0.37500000  0.83955671  0.96455671  1.0
  O  O47  1  0.87500000  0.41044329  1.03544329  1.0
