# generated using pymatgen
data_Pb7(ClF6)2
_symmetry_space_group_name_H-M   'P 1'
_cell_length_a   10.42577901
_cell_length_b   10.42577901
_cell_length_c   4.03443570
_cell_angle_alpha   90.00000000
_cell_angle_beta   90.00000000
_cell_angle_gamma   120.00000000
_symmetry_Int_Tables_number   1
_chemical_formula_structural   Pb7(ClF6)2
_chemical_formula_sum   'Pb7 Cl2 F12'
_cell_volume   379.77857461
_cell_formula_units_Z   1
loop_
 _symmetry_equiv_pos_site_id
 _symmetry_equiv_pos_as_xyz
  1  'x, y, z'
loop_
 _atom_site_type_symbol
 _atom_site_label
 _atom_site_symmetry_multiplicity
 _atom_site_fract_x
 _atom_site_fract_y
 _atom_site_fract_z
 _atom_site_occupancy
  Pb  Pb0  1  0.44751133  0.38417168  0.50000000  1.0
  Pb  Pb1  1  0.93666035  0.55248867  0.50000000  1.0
  Pb  Pb2  1  0.61582832  0.06333965  0.50000000  1.0
  Pb  Pb3  1  0.02075399  0.24746972  0.00000000  1.0
  Pb  Pb4  1  0.22671572  0.97924601  0.00000000  1.0
  Pb  Pb5  1  0.75253028  0.77328428  0.00000000  1.0
  Pb  Pb6  1  0.33333333  0.66666667  0.00000000  1.0
  Cl  Cl7  1  0.00000000  0.00000000  0.50000000  1.0
  Cl  Cl8  1  0.66666667  0.33333333  0.00000000  1.0
  F  F9  1  0.72492223  0.63093688  0.50000000  1.0
  F  F10  1  0.90601465  0.27507777  0.50000000  1.0
  F  F11  1  0.36906312  0.09398535  0.50000000  1.0
  F  F12  1  0.26124828  0.46232493  0.50000000  1.0
  F  F13  1  0.20107665  0.73875172  0.50000000  1.0
  F  F14  1  0.53767507  0.79892335  0.50000000  1.0
  F  F15  1  0.50158807  0.55687242  0.00000000  1.0
  F  F16  1  0.05528436  0.49841193  0.00000000  1.0
  F  F17  1  0.44312758  0.94471564  0.00000000  1.0
  F  F18  1  0.28376280  0.23822840  0.00000000  1.0
  F  F19  1  0.95446560  0.71623720  0.00000000  1.0
  F  F20  1  0.76177160  0.04553440  0.00000000  1.0
