# generated using pymatgen
data_LiP7
_symmetry_space_group_name_H-M   'P 1'
_cell_length_a   12.18842030
_cell_length_b   12.18842030
_cell_length_c   12.18842030
_cell_angle_alpha   111.90674715
_cell_angle_beta   111.90674715
_cell_angle_gamma   104.70284159
_symmetry_Int_Tables_number   1
_chemical_formula_structural   LiP7
_chemical_formula_sum   'Li8 P56'
_cell_volume   1386.70308978
_cell_formula_units_Z   8
loop_
 _symmetry_equiv_pos_site_id
 _symmetry_equiv_pos_as_xyz
  1  'x, y, z'
loop_
 _atom_site_type_symbol
 _atom_site_label
 _atom_site_symmetry_multiplicity
 _atom_site_fract_x
 _atom_site_fract_y
 _atom_site_fract_z
 _atom_site_occupancy
  Li  Li0  1  0.61805947  0.61805947  0.73611894  1.0
  Li  Li1  1  1.11805947  1.38194053  1.00000000  1.0
  Li  Li2  1  0.86805947  0.36805947  1.23611894  1.0
  Li  Li3  1  0.36805947  0.13194053  0.50000000  1.0
  Li  Li4  1  1.13194053  0.63194053  0.76388106  1.0
  Li  Li5  1  0.63194053  0.86805947  1.50000000  1.0
  Li  Li6  1  0.88194053  0.88194053  0.26388106  1.0
  Li  Li7  1  1.38194053  1.11805947  1.00000000  1.0
  P  P8  1  1.58835700  1.61586255  1.38380337  1.0
  P  P9  1  1.08835700  1.70455363  0.97249445  1.0
  P  P10  1  0.86586255  1.33835700  0.88380337  1.0
  P  P11  1  0.36586255  0.48205918  0.52750555  1.0
  P  P12  1  1.16164300  1.63413745  1.11619663  1.0
  P  P13  1  1.66164300  1.54544637  1.52750555  1.0
  P  P14  1  0.88413745  0.91164300  1.61619663  1.0
  P  P15  1  1.38413745  0.76794082  0.97249445  1.0
  P  P16  1  1.73205918  1.11586255  1.02750555  1.0
  P  P17  1  1.23205918  1.20455363  0.61619663  1.0
  P  P18  1  0.95455363  0.83835700  1.47249445  1.0
  P  P19  1  1.45455363  0.98205918  1.11619663  1.0
  P  P20  1  1.01794082  1.13413745  0.47249445  1.0
  P  P21  1  1.51794082  1.04544637  0.88380337  1.0
  P  P22  1  0.79544637  1.41164300  1.02750555  1.0
  P  P23  1  0.29544637  0.26794082  0.38380337  1.0
  P  P24  1  1.66207782  1.53685073  1.24662048  1.0
  P  P25  1  1.16207782  1.91545734  1.12522709  1.0
  P  P26  1  0.78685073  0.41207782  0.74662048  1.0
  P  P27  1  0.28685073  0.54023025  0.37477291  1.0
  P  P28  1  1.08792218  1.71314927  1.25337952  1.0
  P  P29  1  1.58792218  1.33454266  1.37477291  1.0
  P  P30  1  0.96314927  0.83792218  0.75337952  1.0
  P  P31  1  1.46314927  0.70976975  1.12522709  1.0
  P  P32  1  1.79023025  1.03685073  0.87477291  1.0
  P  P33  1  1.29023025  1.41545734  1.75337952  1.0
  P  P34  1  1.16545734  0.91207782  1.62522709  1.0
  P  P35  1  1.66545734  1.04023025  1.25337952  1.0
  P  P36  1  0.95976975  1.21314927  0.62522709  1.0
  P  P37  1  0.45976975  0.83454266  0.74662048  1.0
  P  P38  1  0.58454266  1.33792218  0.87477291  1.0
  P  P39  1  0.08454266  0.20976975  0.24662048  1.0
  P  P40  1  1.87680219  1.62489364  1.59474100  1.0
  P  P41  1  1.37680219  1.78206119  1.25190855  1.0
  P  P42  1  0.87489364  1.62680219  1.09474100  1.0
  P  P43  1  1.37489364  1.28015264  1.24809145  1.0
  P  P44  1  0.87319781  1.62510636  0.90525900  1.0
  P  P45  1  1.37319781  1.46793881  1.24809145  1.0
  P  P46  1  0.87510636  0.62319781  1.40525900  1.0
  P  P47  1  0.37510636  0.96984736  1.25190855  1.0
  P  P48  1  1.53015264  1.12489364  0.74809145  1.0
  P  P49  1  1.03015264  1.28206119  0.40525900  1.0
  P  P50  1  1.03206119  1.12680219  0.75190855  1.0
  P  P51  1  1.53206119  0.78015264  0.90525900  1.0
  P  P52  1  1.21984736  1.12510636  0.75190855  1.0
  P  P53  1  1.71984736  0.96793881  1.09474100  1.0
  P  P54  1  0.71793881  0.12319781  0.74809145  1.0
  P  P55  1  0.21793881  0.46984736  0.59474100  1.0
  P  P56  1  1.16430772  0.87500000  0.78930772  1.0
  P  P57  1  0.66430772  0.87500000  0.28930772  1.0
  P  P58  1  1.12500000  0.91430772  0.28930772  1.0
  P  P59  1  1.62500000  1.33569228  1.21069228  1.0
  P  P60  1  0.58569228  0.37500000  0.71069228  1.0
  P  P61  1  1.08569228  0.37500000  1.21069228  1.0
  P  P62  1  1.12500000  0.41430772  0.78930772  1.0
  P  P63  1  0.62500000  0.83569228  0.71069228  1.0
