# generated using pymatgen
data_K2Ca3Si3O10
_symmetry_space_group_name_H-M   'P 1'
_cell_length_a   7.47851994
_cell_length_b   5.71177128
_cell_length_c   12.09055585
_cell_angle_alpha   80.24739402
_cell_angle_beta   85.32235521
_cell_angle_gamma   88.06044504
_symmetry_Int_Tables_number   1
_chemical_formula_structural   K2Ca3Si3O10
_chemical_formula_sum   'K4 Ca6 Si6 O20'
_cell_volume   507.19086131
_cell_formula_units_Z   2
loop_
 _symmetry_equiv_pos_site_id
 _symmetry_equiv_pos_as_xyz
  1  'x, y, z'
loop_
 _atom_site_type_symbol
 _atom_site_label
 _atom_site_symmetry_multiplicity
 _atom_site_fract_x
 _atom_site_fract_y
 _atom_site_fract_z
 _atom_site_occupancy
  K  K0  1  -0.56679804  -0.83538748  -0.15532714  1.0
  K  K1  1  -0.43320196  -0.16461252  -0.84467286  1.0
  K  K2  1  -0.45999853  -0.72120435  -0.62253746  1.0
  K  K3  1  -0.54000147  -0.27879565  -0.37746254  1.0
  Ca  Ca4  1  -0.99394347  -0.72313255  -0.66343797  1.0
  Ca  Ca5  1  -0.00605653  -0.27686745  -0.33656203  1.0
  Ca  Ca6  1  -0.74528324  -0.20479507  -0.62159909  1.0
  Ca  Ca7  1  -0.25471676  -0.79520493  -0.37840091  1.0
  Ca  Ca8  1  -0.96534053  -0.16109233  -0.85997614  1.0
  Ca  Ca9  1  -0.03465947  -0.83890767  -0.14002386  1.0
  Si  Si10  1  -0.77220540  -0.75093001  -0.42236186  1.0
  Si  Si11  1  -0.22779460  -0.24906999  -0.57763814  1.0
  Si  Si12  1  -0.67910321  -0.65518372  -0.84773934  1.0
  Si  Si13  1  -0.32089679  -0.34481628  -0.15226066  1.0
  Si  Si14  1  -0.24399918  -0.63122712  -0.91102390  1.0
  Si  Si15  1  -0.75600082  -0.36877288  -0.08897610  1.0
  O  O16  1  -0.75956989  -0.91258790  -0.79324558  1.0
  O  O17  1  -0.24043011  -0.08741210  -0.20675442  1.0
  O  O18  1  -0.78587314  -0.87914560  -0.53487954  1.0
  O  O19  1  -0.21412686  -0.12085440  -0.46512046  1.0
  O  O20  1  -0.16388221  -0.87260702  -0.95097293  1.0
  O  O21  1  -0.83611779  -0.12739298  -0.04902707  1.0
  O  O22  1  -0.92870630  -0.87586416  -0.32626368  1.0
  O  O23  1  -0.07129370  -0.12413584  -0.67373632  1.0
  O  O24  1  -0.56651464  -0.78846681  -0.38002176  1.0
  O  O25  1  -0.43348536  -0.21153319  -0.61997824  1.0
  O  O26  1  -0.45540100  -0.67964614  -0.85303184  1.0
  O  O27  1  -0.54459900  -0.32035386  -0.14696816  1.0
  O  O28  1  -0.73228133  -0.58293973  -0.97898276  1.0
  O  O29  1  -0.26771867  -0.41706027  -0.02101724  1.0
  O  O30  1  -0.13724220  -0.52025108  -0.82190514  1.0
  O  O31  1  -0.86275780  -0.47974892  -0.17809486  1.0
  O  O32  1  -0.81374799  -0.46121557  -0.45657862  1.0
  O  O33  1  -0.18625201  -0.53878443  -0.54342138  1.0
  O  O34  1  -0.74774069  -0.45530694  -0.77055134  1.0
  O  O35  1  -0.25225931  -0.54469306  -0.22944866  1.0
