# generated using pymatgen
data_CsYTe3O8
_symmetry_space_group_name_H-M   'P 1'
_cell_length_a   10.79271919
_cell_length_b   10.79271919
_cell_length_c   10.79271919
_cell_angle_alpha   40.59370587
_cell_angle_beta   40.59370587
_cell_angle_gamma   40.59370587
_symmetry_Int_Tables_number   1
_chemical_formula_structural   CsYTe3O8
_chemical_formula_sum   'Cs2 Y2 Te6 O16'
_cell_volume   480.15171439
_cell_formula_units_Z   2
loop_
 _symmetry_equiv_pos_site_id
 _symmetry_equiv_pos_as_xyz
  1  'x, y, z'
loop_
 _atom_site_type_symbol
 _atom_site_label
 _atom_site_symmetry_multiplicity
 _atom_site_fract_x
 _atom_site_fract_y
 _atom_site_fract_z
 _atom_site_occupancy
  Cs  Cs0  1  0.35728760  0.35728760  -0.64271240  1.0
  Cs  Cs1  1  0.64271240  0.64271240  -0.35728760  1.0
  Y  Y2  1  0.50000000  0.50000000  -0.50000000  1.0
  Y  Y3  1  0.00000000  0.00000000  0.00000000  1.0
  Te  Te4  1  0.44132919  -0.05578032  -0.06490035  1.0
  Te  Te5  1  1.06490035  -0.44132919  0.05578032  1.0
  Te  Te6  1  1.05578032  0.06490035  -0.44132919  1.0
  Te  Te7  1  0.55867081  0.05578032  0.06490035  1.0
  Te  Te8  1  0.93509965  -0.55867081  -0.05578032  1.0
  Te  Te9  1  0.94421968  -0.06490035  -0.55867081  1.0
  O  O10  1  0.20719729  0.68706806  -0.53820758  1.0
  O  O11  1  0.53820758  0.79280271  -0.68706806  1.0
  O  O12  1  0.31293194  0.53820758  -0.20719729  1.0
  O  O13  1  0.79280271  0.31293194  -0.46179242  1.0
  O  O14  1  0.46179242  0.20719729  -0.31293194  1.0
  O  O15  1  0.68706806  0.46179242  -0.79280271  1.0
  O  O16  1  0.33259538  -0.10321218  -0.10104757  1.0
  O  O17  1  1.10104757  -0.33259538  0.10321218  1.0
  O  O18  1  1.10321218  0.10104757  -0.33259538  1.0
  O  O19  1  0.66740462  0.10321218  0.10104757  1.0
  O  O20  1  0.89895243  -0.66740462  -0.10321218  1.0
  O  O21  1  0.89678782  -0.10104757  -0.66740462  1.0
  O  O22  1  0.11905735  0.11905735  0.11905735  1.0
  O  O23  1  0.88094265  -0.11905735  -0.11905735  1.0
  O  O24  1  0.23927039  0.23927039  0.23927039  1.0
  O  O25  1  0.76072961  -0.23927039  -0.23927039  1.0
