# generated using pymatgen
data_H4CSN2
_symmetry_space_group_name_H-M   'P 1'
_cell_length_a   7.68205983
_cell_length_b   6.82153888
_cell_length_c   9.42201796
_cell_angle_alpha   90.00000000
_cell_angle_beta   90.00000000
_cell_angle_gamma   90.00000000
_symmetry_Int_Tables_number   1
_chemical_formula_structural   H4CSN2
_chemical_formula_sum   'H16 C4 S4 N8'
_cell_volume   493.74643382
_cell_formula_units_Z   4
loop_
 _symmetry_equiv_pos_site_id
 _symmetry_equiv_pos_as_xyz
  1  'x, y, z'
loop_
 _atom_site_type_symbol
 _atom_site_label
 _atom_site_symmetry_multiplicity
 _atom_site_fract_x
 _atom_site_fract_y
 _atom_site_fract_z
 _atom_site_occupancy
  H  H0  1  0.85333436  1.06289104  0.75132860  1.0
  H  H1  1  0.85333436  -0.06289104  0.25132860  1.0
  H  H2  1  0.14666564  1.06289104  0.75132860  1.0
  H  H3  1  0.14666564  -0.06289104  0.25132860  1.0
  H  H4  1  0.73494733  1.06516285  0.12172669  1.0
  H  H5  1  0.73494733  -0.06516285  0.62172669  1.0
  H  H6  1  0.26505267  1.06516285  0.12172669  1.0
  H  H7  1  0.26505267  -0.06516285  0.62172669  1.0
  H  H8  1  0.75748818  0.43225048  1.01495711  1.0
  H  H9  1  0.75748818  0.56774952  0.51495711  1.0
  H  H10  1  0.24251182  0.43225048  1.01495711  1.0
  H  H11  1  0.24251182  0.56774952  0.51495711  1.0
  H  H12  1  0.62459481  -0.16503617  0.93787090  1.0
  H  H13  1  0.62459481  1.16503617  0.43787090  1.0
  H  H14  1  0.37540519  -0.16503617  0.93787090  1.0
  H  H15  1  0.37540519  1.16503617  0.43787090  1.0
  C  C16  1  0.50000000  0.49783833  1.04390916  1.0
  C  C17  1  0.50000000  0.50216167  0.54390916  1.0
  C  C18  1  0.00000000  0.91510845  0.60356968  1.0
  C  C19  1  0.00000000  0.08489155  0.10356968  1.0
  S  S20  1  0.50000000  1.02982147  0.40731886  1.0
  S  S21  1  0.50000000  -0.02982147  -0.09268114  1.0
  S  S22  1  0.00000000  0.76469028  0.45660822  1.0
  S  S23  1  0.00000000  0.23530972  -0.04339178  1.0
  N  N24  1  0.85129447  0.97504421  0.66329593  1.0
  N  N25  1  0.85129447  0.02495579  0.16329593  1.0
  N  N26  1  0.14870553  0.97504421  0.66329593  1.0
  N  N27  1  0.14870553  0.02495579  0.16329593  1.0
  N  N28  1  0.65772472  0.51954314  1.05071782  1.0
  N  N29  1  0.65772472  0.48045686  0.55071782  1.0
  N  N30  1  0.34227528  0.51954314  1.05071782  1.0
  N  N31  1  0.34227528  0.48045686  0.55071782  1.0
