# generated using pymatgen
data_ZnO
_symmetry_space_group_name_H-M   'P 1'
_cell_length_a   5.60676092
_cell_length_b   5.60676092
_cell_length_c   3.27834440
_cell_angle_alpha   90.00000000
_cell_angle_beta   90.00000000
_cell_angle_gamma   90.00000000
_symmetry_Int_Tables_number   1
_chemical_formula_structural   ZnO
_chemical_formula_sum   'Zn4 O4'
_cell_volume   103.05727398
_cell_formula_units_Z   4
loop_
 _symmetry_equiv_pos_site_id
 _symmetry_equiv_pos_as_xyz
  1  'x, y, z'
loop_
 _atom_site_type_symbol
 _atom_site_label
 _atom_site_symmetry_multiplicity
 _atom_site_fract_x
 _atom_site_fract_y
 _atom_site_fract_z
 _atom_site_occupancy
  Zn  Zn0  1  0.68182756  0.31817244  0.50000000  1.0
  Zn  Zn1  1  0.31817244  0.68182756  0.50000000  1.0
  Zn  Zn2  1  0.81817244  0.81817244  0.00000000  1.0
  Zn  Zn3  1  0.18182756  0.18182756  0.00000000  1.0
  O  O4  1  0.18147091  0.81852909  0.00000000  1.0
  O  O5  1  0.81852909  0.18147091  0.00000000  1.0
  O  O6  1  0.31852909  0.31852909  0.50000000  1.0
  O  O7  1  0.68147091  0.68147091  0.50000000  1.0
