# generated using pymatgen
data_Rb2S3
_symmetry_space_group_name_H-M   'P 1'
_cell_length_a   6.54403787
_cell_length_b   6.54403787
_cell_length_c   7.95563502
_cell_angle_alpha   90.00000000
_cell_angle_beta   90.00000000
_cell_angle_gamma   109.54343832
_symmetry_Int_Tables_number   1
_chemical_formula_structural   Rb2S3
_chemical_formula_sum   'Rb4 S6'
_cell_volume   321.06744607
_cell_formula_units_Z   2
loop_
 _symmetry_equiv_pos_site_id
 _symmetry_equiv_pos_as_xyz
  1  'x, y, z'
loop_
 _atom_site_type_symbol
 _atom_site_label
 _atom_site_symmetry_multiplicity
 _atom_site_fract_x
 _atom_site_fract_y
 _atom_site_fract_z
 _atom_site_occupancy
  Rb  Rb0  1  0.10640069  0.89359931  0.53704933  1.0
  Rb  Rb1  1  -0.10640069  1.10640069  0.03704933  1.0
  Rb  Rb2  1  0.41963753  0.58036247  0.30940705  1.0
  Rb  Rb3  1  -0.41963753  1.41963753  0.80940705  1.0
  S  S4  1  -0.06830552  1.61786825  0.15202836  1.0
  S  S5  1  0.61786825  0.93169448  0.65202836  1.0
  S  S6  1  -0.61786825  1.06830552  0.15202836  1.0
  S  S7  1  0.06830552  0.38213175  0.65202836  1.0
  S  S8  1  0.19948162  0.80051838  0.00688689  1.0
  S  S9  1  -0.19948162  1.19948162  0.50688689  1.0
