# generated using pymatgen
data_Rb3SbS4
_symmetry_space_group_name_H-M   'P 1'
_cell_length_a   9.75147305
_cell_length_b   11.26059292
_cell_length_c   10.13488885
_cell_angle_alpha   90.00000000
_cell_angle_beta   90.00000000
_cell_angle_gamma   90.00000000
_symmetry_Int_Tables_number   1
_chemical_formula_structural   Rb3SbS4
_chemical_formula_sum   'Rb12 Sb4 S16'
_cell_volume   1112.88547362
_cell_formula_units_Z   4
loop_
 _symmetry_equiv_pos_site_id
 _symmetry_equiv_pos_as_xyz
  1  'x, y, z'
loop_
 _atom_site_type_symbol
 _atom_site_label
 _atom_site_symmetry_multiplicity
 _atom_site_fract_x
 _atom_site_fract_y
 _atom_site_fract_z
 _atom_site_occupancy
  Rb  Rb0  1  0.43592838  0.95568064  0.79505927  1.0
  Rb  Rb1  1  0.43592838  0.54431936  0.79505927  1.0
  Rb  Rb2  1  0.93592838  0.95568064  0.70494073  1.0
  Rb  Rb3  1  0.93592838  0.54431936  0.70494073  1.0
  Rb  Rb4  1  0.56407162  0.45568064  0.20494073  1.0
  Rb  Rb5  1  0.56407162  0.04431936  0.20494073  1.0
  Rb  Rb6  1  0.06407162  0.45568064  0.29505927  1.0
  Rb  Rb7  1  0.06407162  0.04431936  0.29505927  1.0
  Rb  Rb8  1  0.36294057  0.25000000  0.57189502  1.0
  Rb  Rb9  1  0.86294057  0.25000000  0.92810498  1.0
  Rb  Rb10  1  0.63705943  0.75000000  0.42810498  1.0
  Rb  Rb11  1  0.13705943  0.75000000  0.07189502  1.0
  Sb  Sb12  1  0.27857183  0.25000000  0.01686656  1.0
  Sb  Sb13  1  0.77857183  0.25000000  0.48313344  1.0
  Sb  Sb14  1  0.72142817  0.75000000  0.98313344  1.0
  Sb  Sb15  1  0.22142817  0.75000000  0.51686656  1.0
  S  S16  1  0.15542628  0.42427481  0.96340406  1.0
  S  S17  1  0.15542628  0.07572519  0.96340406  1.0
  S  S18  1  0.65542628  0.42427481  0.53659594  1.0
  S  S19  1  0.65542628  0.07572519  0.53659594  1.0
  S  S20  1  0.84457372  0.92427481  0.03659594  1.0
  S  S21  1  0.84457372  0.57572519  0.03659594  1.0
  S  S22  1  0.34457372  0.92427481  0.46340406  1.0
  S  S23  1  0.34457372  0.57572519  0.46340406  1.0
  S  S24  1  0.49184896  0.25000000  0.90414881  1.0
  S  S25  1  0.99184896  0.25000000  0.59585119  1.0
  S  S26  1  0.50815104  0.75000000  0.09585119  1.0
  S  S27  1  0.00815104  0.75000000  0.40414881  1.0
  S  S28  1  0.31712969  0.25000000  0.24773761  1.0
  S  S29  1  0.81712969  0.25000000  0.25226239  1.0
  S  S30  1  0.68287031  0.75000000  0.75226239  1.0
  S  S31  1  0.18287031  0.75000000  0.74773761  1.0
