# generated using pymatgen
data_MoO5
_symmetry_space_group_name_H-M   'P 1'
_cell_length_a   4.07700060
_cell_length_b   6.02751232
_cell_length_c   8.64000745
_cell_angle_alpha   90.00000000
_cell_angle_beta   74.22924706
_cell_angle_gamma   90.00000000
_symmetry_Int_Tables_number   1
_chemical_formula_structural   MoO5
_chemical_formula_sum   'Mo2 O10'
_cell_volume   204.32859262
_cell_formula_units_Z   2
loop_
 _symmetry_equiv_pos_site_id
 _symmetry_equiv_pos_as_xyz
  1  'x, y, z'
loop_
 _atom_site_type_symbol
 _atom_site_label
 _atom_site_symmetry_multiplicity
 _atom_site_fract_x
 _atom_site_fract_y
 _atom_site_fract_z
 _atom_site_occupancy
  Mo  Mo0  1  -0.05091241  0.00000000  0.22466977  1.0
  Mo  Mo1  1  1.05091241  0.00000000  0.77533023  1.0
  O  O2  1  0.50000000  0.50000000  0.50000000  1.0
  O  O3  1  0.50000000  0.50000000  0.00000000  1.0
  O  O4  1  -0.19411015  0.74995328  0.32709020  1.0
  O  O5  1  -0.19411015  0.25004672  0.32709020  1.0
  O  O6  1  1.19411015  0.25004672  0.67290980  1.0
  O  O7  1  1.19411015  0.74995328  0.67290980  1.0
  O  O8  1  0.39653240  0.00000000  0.20679995  1.0
  O  O9  1  0.60346760  0.00000000  0.79320005  1.0
  O  O10  1  -0.00000000  0.00000000  0.50000000  1.0
  O  O11  1  0.00000000  0.00000000  0.00000000  1.0
