# generated using pymatgen
data_CrAgS2
_symmetry_space_group_name_H-M   'P 1'
_cell_length_a   7.09096863
_cell_length_b   7.09096863
_cell_length_c   7.09096863
_cell_angle_alpha   28.93460248
_cell_angle_beta   28.93460248
_cell_angle_gamma   28.93460248
_symmetry_Int_Tables_number   1
_chemical_formula_structural   CrAgS2
_chemical_formula_sum   'Cr1 Ag1 S2'
_cell_volume   73.81090871
_cell_formula_units_Z   1
loop_
 _symmetry_equiv_pos_site_id
 _symmetry_equiv_pos_as_xyz
  1  'x, y, z'
loop_
 _atom_site_type_symbol
 _atom_site_label
 _atom_site_symmetry_multiplicity
 _atom_site_fract_x
 _atom_site_fract_y
 _atom_site_fract_z
 _atom_site_occupancy
  Cr  Cr0  1  0.72948087  -0.27051913  -0.27051913  1.0
  Ag  Ag1  1  0.88279068  -0.11720932  -0.11720932  1.0
  S  S2  1  0.00216330  0.00216330  0.00216330  1.0
  S  S3  1  0.46176515  0.46176515  -0.53823485  1.0
