# generated using pymatgen
data_Na6P4W
_symmetry_space_group_name_H-M   'P 1'
_cell_length_a   9.15263092
_cell_length_b   9.15263092
_cell_length_c   7.17522365
_cell_angle_alpha   90.00000000
_cell_angle_beta   90.00000000
_cell_angle_gamma   120.00000000
_symmetry_Int_Tables_number   1
_chemical_formula_structural   Na6P4W
_chemical_formula_sum   'Na12 P8 W2'
_cell_volume   520.54463355
_cell_formula_units_Z   2
loop_
 _symmetry_equiv_pos_site_id
 _symmetry_equiv_pos_as_xyz
  1  'x, y, z'
loop_
 _atom_site_type_symbol
 _atom_site_label
 _atom_site_symmetry_multiplicity
 _atom_site_fract_x
 _atom_site_fract_y
 _atom_site_fract_z
 _atom_site_occupancy
  Na  Na0  1  0.70477730  0.85238865  0.28540585  1.0
  Na  Na1  1  0.85238865  0.70477730  0.78540585  1.0
  Na  Na2  1  0.85238865  0.14761135  0.78540585  1.0
  Na  Na3  1  0.14761135  0.85238865  0.28540585  1.0
  Na  Na4  1  0.14761135  0.29522270  0.28540585  1.0
  Na  Na5  1  0.29522270  0.14761135  0.78540585  1.0
  Na  Na6  1  0.93447642  0.46723821  0.10794678  1.0
  Na  Na7  1  0.46723821  0.93447642  0.60794678  1.0
  Na  Na8  1  0.46723821  0.53276179  0.60794678  1.0
  Na  Na9  1  0.53276179  0.46723821  0.10794678  1.0
  Na  Na10  1  0.53276179  0.06552358  0.10794678  1.0
  Na  Na11  1  0.06552358  0.53276179  0.60794678  1.0
  P  P12  1  0.38825719  0.19412860  0.39356929  1.0
  P  P13  1  0.19412860  0.38825719  0.89356929  1.0
  P  P14  1  0.19412860  0.80587140  0.89356929  1.0
  P  P15  1  0.80587140  0.19412860  0.39356929  1.0
  P  P16  1  0.80587140  0.61174281  0.39356929  1.0
  P  P17  1  0.61174281  0.80587140  0.89356929  1.0
  P  P18  1  0.33333333  0.66666667  0.31846670  1.0
  P  P19  1  0.66666667  0.33333333  0.81846670  1.0
  W  W20  1  0.33333333  0.66666667  -0.00433246  1.0
  W  W21  1  0.66666667  0.33333333  0.49566754  1.0
