# generated using pymatgen
data_NaTiAsO5
_symmetry_space_group_name_H-M   'P 1'
_cell_length_a   6.87000145
_cell_length_b   8.92112082
_cell_length_c   7.33342405
_cell_angle_alpha   90.00000000
_cell_angle_beta   114.88634912
_cell_angle_gamma   90.00000000
_symmetry_Int_Tables_number   1
_chemical_formula_structural   NaTiAsO5
_chemical_formula_sum   'Na4 Ti4 As4 O20'
_cell_volume   407.71756817
_cell_formula_units_Z   4
loop_
 _symmetry_equiv_pos_site_id
 _symmetry_equiv_pos_as_xyz
  1  'x, y, z'
loop_
 _atom_site_type_symbol
 _atom_site_label
 _atom_site_symmetry_multiplicity
 _atom_site_fract_x
 _atom_site_fract_y
 _atom_site_fract_z
 _atom_site_occupancy
  Na  Na0  1  0.75115851  0.57302264  0.76182930  1.0
  Na  Na1  1  0.24884149  0.07302264  0.73817070  1.0
  Na  Na2  1  0.24884149  0.42697736  0.23817070  1.0
  Na  Na3  1  0.75115851  0.92697736  0.26182930  1.0
  Ti  Ti4  1  0.25127488  0.75662193  0.97937162  1.0
  Ti  Ti5  1  0.74872512  0.25662193  0.52062838  1.0
  Ti  Ti6  1  0.74872512  0.24337807  0.02062838  1.0
  Ti  Ti7  1  0.25127488  0.74337807  0.47937162  1.0
  As  As8  1  0.75031675  0.93213175  0.75157710  1.0
  As  As9  1  0.24968325  0.43213175  0.74842290  1.0
  As  As10  1  0.24968325  0.06786825  0.24842290  1.0
  As  As11  1  0.75031675  0.56786825  0.25157710  1.0
  O  O12  1  0.94644662  0.81386290  0.91718062  1.0
  O  O13  1  0.05355338  0.31386290  0.58281938  1.0
  O  O14  1  0.05355338  0.18613710  0.08281938  1.0
  O  O15  1  0.94644662  0.68613710  0.41718062  1.0
  O  O16  1  0.56182104  0.80942949  0.58815572  1.0
  O  O17  1  0.43817896  0.30942949  0.91184428  1.0
  O  O18  1  0.43817896  0.19057051  0.41184428  1.0
  O  O19  1  0.56182104  0.69057051  0.08815572  1.0
  O  O20  1  0.84592867  0.04089575  0.60922356  1.0
  O  O21  1  0.15407133  0.54089575  0.89077644  1.0
  O  O22  1  0.15407133  0.95910425  0.39077644  1.0
  O  O23  1  0.84592867  0.45910425  0.10922356  1.0
  O  O24  1  0.64766674  0.03767219  0.88981519  1.0
  O  O25  1  0.35233326  0.53767219  0.61018481  1.0
  O  O26  1  0.35233326  0.96232781  0.11018481  1.0
  O  O27  1  0.64766674  0.46232781  0.38981519  1.0
  O  O28  1  0.25048587  0.81105873  0.75247627  1.0
  O  O29  1  0.74951413  0.31105873  0.74752373  1.0
  O  O30  1  0.74951413  0.18894127  0.24752373  1.0
  O  O31  1  0.25048587  0.68894127  0.25247627  1.0
