# generated using pymatgen
data_Ta2NiSe5
_symmetry_space_group_name_H-M   'P 1'
_cell_length_a   7.17416442
_cell_length_b   7.17416442
_cell_length_c   15.74789055
_cell_angle_alpha   89.88606423
_cell_angle_beta   90.11393577
_cell_angle_gamma   28.26439627
_symmetry_Int_Tables_number   1
_chemical_formula_structural   Ta2NiSe5
_chemical_formula_sum   'Ta4 Ni2 Se10'
_cell_volume   383.80286292
_cell_formula_units_Z   2
loop_
 _symmetry_equiv_pos_site_id
 _symmetry_equiv_pos_as_xyz
  1  'x, y, z'
loop_
 _atom_site_type_symbol
 _atom_site_label
 _atom_site_symmetry_multiplicity
 _atom_site_fract_x
 _atom_site_fract_y
 _atom_site_fract_z
 _atom_site_occupancy
  Ta  Ta0  1  0.28654495  0.26751243  0.88962263  1.0
  Ta  Ta1  1  0.73248757  -0.28654495  0.38962263  1.0
  Ta  Ta2  1  1.26751243  -0.71345505  0.61037737  1.0
  Ta  Ta3  1  0.71345505  -0.26751243  0.11037737  1.0
  Ni  Ni4  1  0.79563544  -0.20436456  0.75000000  1.0
  Ni  Ni5  1  0.20436456  0.20436456  0.25000000  1.0
  Se  Se6  1  0.17914472  0.17914472  0.75000000  1.0
  Se  Se7  1  0.82085528  -0.17914472  0.25000000  1.0
  Se  Se8  1  0.64747288  -0.34114761  0.95081017  1.0
  Se  Se9  1  1.34114761  -0.64747288  0.45081017  1.0
  Se  Se10  1  0.65885239  -0.35252712  0.54918983  1.0
  Se  Se11  1  0.35252712  0.34114761  0.04918983  1.0
  Se  Se12  1  0.90321561  -0.08669170  0.86114749  1.0
  Se  Se13  1  1.08669170  -0.90321561  0.36114749  1.0
  Se  Se14  1  0.91330830  -0.09678439  0.63885251  1.0
  Se  Se15  1  0.09678439  0.08669170  0.13885251  1.0
