# generated using pymatgen
data_KAg2AsS3
_symmetry_space_group_name_H-M   'P 1'
_cell_length_a   9.38175323
_cell_length_b   6.77869833
_cell_length_c   10.95901397
_cell_angle_alpha   92.45738263
_cell_angle_beta   91.86713645
_cell_angle_gamma   89.30932509
_symmetry_Int_Tables_number   1
_chemical_formula_structural   KAg2AsS3
_chemical_formula_sum   'K4 Ag8 As4 S12'
_cell_volume   695.90002121
_cell_formula_units_Z   4
loop_
 _symmetry_equiv_pos_site_id
 _symmetry_equiv_pos_as_xyz
  1  'x, y, z'
loop_
 _atom_site_type_symbol
 _atom_site_label
 _atom_site_symmetry_multiplicity
 _atom_site_fract_x
 _atom_site_fract_y
 _atom_site_fract_z
 _atom_site_occupancy
  K  K0  1  -0.43505598  -0.71811436  -0.36984727  1.0
  K  K1  1  -0.56494402  -0.28188564  -0.63015273  1.0
  K  K2  1  -0.57140125  -0.79142306  -0.87798966  1.0
  K  K3  1  -0.42859875  -0.20857694  -0.12201034  1.0
  Ag  Ag4  1  -0.25758376  -0.48321562  -0.84929630  1.0
  Ag  Ag5  1  -0.74241624  -0.51678438  -0.15070370  1.0
  Ag  Ag6  1  -0.90182378  -1.00489853  -0.66366523  1.0
  Ag  Ag7  1  -0.09817622  0.00489853  -0.33633477  1.0
  Ag  Ag8  1  -0.15701406  -0.90966651  -0.95317236  1.0
  Ag  Ag9  1  -0.84298594  -0.09033349  -0.04682764  1.0
  Ag  Ag10  1  -0.85804580  -0.57437959  -0.43436857  1.0
  Ag  Ag11  1  -0.14195420  -0.42562041  -0.56563143  1.0
  As  As12  1  -0.20547740  -0.95528991  -0.66180017  1.0
  As  As13  1  -0.79452260  -0.04471009  -0.33819983  1.0
  As  As14  1  -0.93565620  -0.48299493  -0.85678813  1.0
  As  As15  1  -0.06434380  -0.51700507  -0.14321187  1.0
  S  S16  1  -0.28290122  -0.11212073  -0.49650453  1.0
  S  S17  1  -0.71709878  -0.88787927  -0.50349547  1.0
  S  S18  1  -0.27840298  -0.62636044  -0.07028714  1.0
  S  S19  1  -0.72159702  -0.37363956  -0.92971286  1.0
  S  S20  1  -0.33300488  -0.66107867  -0.65944448  1.0
  S  S21  1  -0.66699512  -0.33892133  -0.34055552  1.0
  S  S22  1  -0.90795741  -0.82320405  -0.85896874  1.0
  S  S23  1  -0.09204259  -0.17679595  -0.14103126  1.0
  S  S24  1  -0.32338169  -0.11586371  -0.82499931  1.0
  S  S25  1  -0.67661831  -0.88413629  -0.17500069  1.0
  S  S26  1  -0.89990727  -0.38156861  -0.65576819  1.0
  S  S27  1  -0.10009273  -0.61843139  -0.34423181  1.0
