# generated using pymatgen
data_Mo3S4
_symmetry_space_group_name_H-M   'P 1'
_cell_length_a   6.48426234
_cell_length_b   6.48426234
_cell_length_c   6.48426234
_cell_angle_alpha   91.17417914
_cell_angle_beta   91.17417914
_cell_angle_gamma   91.17417915
_symmetry_Int_Tables_number   1
_chemical_formula_structural   Mo3S4
_chemical_formula_sum   'Mo6 S8'
_cell_volume   272.46095015
_cell_formula_units_Z   2
loop_
 _symmetry_equiv_pos_site_id
 _symmetry_equiv_pos_as_xyz
  1  'x, y, z'
loop_
 _atom_site_type_symbol
 _atom_site_label
 _atom_site_symmetry_multiplicity
 _atom_site_fract_x
 _atom_site_fract_y
 _atom_site_fract_z
 _atom_site_occupancy
  Mo  Mo0  1  0.71294071  0.90489889  0.05149008  1.0
  Mo  Mo1  1  1.09510111  -0.05149008  0.28705929  1.0
  Mo  Mo2  1  0.94850992  0.28705929  0.09510111  1.0
  Mo  Mo3  1  1.28705929  0.09510111  -0.05149008  1.0
  Mo  Mo4  1  0.90489889  1.05149008  -0.28705929  1.0
  Mo  Mo5  1  1.05149008  0.71294071  -0.09510111  1.0
  S  S6  1  0.89031282  0.63177343  0.23260989  1.0
  S  S7  1  1.36822657  -0.23260989  0.10968718  1.0
  S  S8  1  0.76739011  0.10968718  0.36822657  1.0
  S  S9  1  1.10968718  0.36822657  -0.23260989  1.0
  S  S10  1  0.63177343  1.23260989  -0.10968718  1.0
  S  S11  1  1.23260989  0.89031282  -0.36822657  1.0
  S  S12  1  0.72220176  0.72220176  0.72220176  1.0
  S  S13  1  0.27779824  0.27779824  0.27779824  1.0
