# generated using pymatgen
data_Tl3SnSe4
_symmetry_space_group_name_H-M   'P 1'
_cell_length_a   8.35467487
_cell_length_b   9.01504429
_cell_length_c   15.35991852
_cell_angle_alpha   90.00000000
_cell_angle_beta   97.34108245
_cell_angle_gamma   90.00000000
_symmetry_Int_Tables_number   1
_chemical_formula_structural   Tl3SnSe4
_chemical_formula_sum   'Tl12 Sn4 Se16'
_cell_volume   1147.39190825
_cell_formula_units_Z   4
loop_
 _symmetry_equiv_pos_site_id
 _symmetry_equiv_pos_as_xyz
  1  'x, y, z'
loop_
 _atom_site_type_symbol
 _atom_site_label
 _atom_site_symmetry_multiplicity
 _atom_site_fract_x
 _atom_site_fract_y
 _atom_site_fract_z
 _atom_site_occupancy
  Tl  Tl0  1  0.51233601  0.47174827  0.12033673  1.0
  Tl  Tl1  1  0.48766399  0.97174827  0.37966327  1.0
  Tl  Tl2  1  0.48766399  0.52825173  0.87966327  1.0
  Tl  Tl3  1  0.51233601  0.02825173  0.62033673  1.0
  Tl  Tl4  1  0.76757359  0.13047818  0.15231975  1.0
  Tl  Tl5  1  0.23242641  0.63047818  0.34768025  1.0
  Tl  Tl6  1  0.23242641  0.86952182  0.84768025  1.0
  Tl  Tl7  1  0.76757359  0.36952182  0.65231975  1.0
  Tl  Tl8  1  0.88093768  0.68228008  0.11543776  1.0
  Tl  Tl9  1  0.11906232  0.18228008  0.38456224  1.0
  Tl  Tl10  1  0.11906232  0.31771992  0.88456224  1.0
  Tl  Tl11  1  0.88093768  0.81771992  0.61543776  1.0
  Sn  Sn12  1  0.31457795  0.85626478  0.12839232  1.0
  Sn  Sn13  1  0.68542205  0.35626478  0.37160768  1.0
  Sn  Sn14  1  0.68542205  0.14373522  0.87160768  1.0
  Sn  Sn15  1  0.31457795  0.64373522  0.62839232  1.0
  Se  Se16  1  0.60023120  0.92339319  0.97250682  1.0
  Se  Se17  1  0.39976880  0.42339319  0.52749318  1.0
  Se  Se18  1  0.39976880  0.07660681  0.02749318  1.0
  Se  Se19  1  0.60023120  0.57660681  0.47250682  1.0
  Se  Se20  1  0.09481964  0.93042231  0.22081507  1.0
  Se  Se21  1  0.90518036  0.43042231  0.27918493  1.0
  Se  Se22  1  0.90518036  0.06957769  0.77918493  1.0
  Se  Se23  1  0.09481964  0.56957769  0.72081507  1.0
  Se  Se24  1  0.20521323  0.84455809  0.52030220  1.0
  Se  Se25  1  0.79478677  0.34455809  0.97969780  1.0
  Se  Se26  1  0.79478677  0.15544191  0.47969780  1.0
  Se  Se27  1  0.20521323  0.65544191  0.02030220  1.0
  Se  Se28  1  0.42698170  0.27887348  0.27737257  1.0
  Se  Se29  1  0.57301830  0.77887348  0.22262743  1.0
  Se  Se30  1  0.57301830  0.72112652  0.72262743  1.0
  Se  Se31  1  0.42698170  0.22112652  0.77737257  1.0
