# generated using pymatgen
data_Ca3(B3Rh4)2
_symmetry_space_group_name_H-M   'P 1'
_cell_length_a   9.83491808
_cell_length_b   8.96692769
_cell_length_c   5.62226554
_cell_angle_alpha   81.27781730
_cell_angle_beta   64.31624279
_cell_angle_gamma   34.40593991
_symmetry_Int_Tables_number   1
_chemical_formula_structural   Ca3(B3Rh4)2
_chemical_formula_sum   'Ca3 B6 Rh8'
_cell_volume   230.91672187
_cell_formula_units_Z   1
loop_
 _symmetry_equiv_pos_site_id
 _symmetry_equiv_pos_as_xyz
  1  'x, y, z'
loop_
 _atom_site_type_symbol
 _atom_site_label
 _atom_site_symmetry_multiplicity
 _atom_site_fract_x
 _atom_site_fract_y
 _atom_site_fract_z
 _atom_site_occupancy
  Ca  Ca0  1  0.81741521  0.81741521  -0.81741521  1.0
  Ca  Ca1  1  0.18258479  1.18258479  -0.18258479  1.0
  Ca  Ca2  1  0.00000000  0.00000000  0.00000000  1.0
  B  B3  1  1.51128258  -0.16897734  0.16897734  1.0
  B  B4  1  1.16897734  0.48871742  0.51128258  1.0
  B  B5  1  0.83102266  0.51128258  0.48871742  1.0
  B  B6  1  1.48871742  0.16897734  -0.16897734  1.0
  B  B7  1  0.66651630  -0.66651630  0.66651630  1.0
  B  B8  1  0.33348370  -0.33348370  1.33348370  1.0
  Rh  Rh9  1  0.91515790  0.91515790  0.58484210  1.0
  Rh  Rh10  1  1.08484210  0.08484210  0.41515790  1.0
  Rh  Rh11  1  1.41515790  0.41515790  0.08484210  1.0
  Rh  Rh12  1  0.58484210  0.58484210  0.91515790  1.0
  Rh  Rh13  1  0.58665071  0.58665071  -0.58665071  1.0
  Rh  Rh14  1  0.41334929  1.41334929  -0.41334929  1.0
  Rh  Rh15  1  0.75000000  0.75000000  0.75000000  1.0
  Rh  Rh16  1  1.25000000  0.25000000  0.25000000  1.0
