# generated using pymatgen
data_BeCN2
_symmetry_space_group_name_H-M   'P 1'
_cell_length_a   4.40966422
_cell_length_b   5.30553694
_cell_length_c   4.25196687
_cell_angle_alpha   90.00000000
_cell_angle_beta   90.00000000
_cell_angle_gamma   90.00000000
_symmetry_Int_Tables_number   1
_chemical_formula_structural   BeCN2
_chemical_formula_sum   'Be4 C4 N8'
_cell_volume   99.47747113
_cell_formula_units_Z   4
loop_
 _symmetry_equiv_pos_site_id
 _symmetry_equiv_pos_as_xyz
  1  'x, y, z'
loop_
 _atom_site_type_symbol
 _atom_site_label
 _atom_site_symmetry_multiplicity
 _atom_site_fract_x
 _atom_site_fract_y
 _atom_site_fract_z
 _atom_site_occupancy
  Be  Be0  1  0.58580698  0.87498257  0.99244438  1.0
  Be  Be1  1  0.41419302  0.12501743  0.49244438  1.0
  Be  Be2  1  0.91419302  0.37498257  0.49244438  1.0
  Be  Be3  1  0.08580698  0.62501743  0.99244438  1.0
  C  C4  1  0.56776260  0.37502662  0.99341944  1.0
  C  C5  1  0.43223740  0.62497338  0.49341944  1.0
  C  C6  1  0.93223740  0.87502662  0.49341944  1.0
  C  C7  1  0.06776260  0.12497338  0.99341944  1.0
  N  N8  1  0.55853645  0.39712459  0.34794556  1.0
  N  N9  1  0.44146355  0.60287541  0.84794556  1.0
  N  N10  1  0.94146355  0.89712459  0.84794556  1.0
  N  N11  1  0.05853645  0.10287541  0.34794556  1.0
  N  N12  1  0.60812990  0.85210517  0.39149062  1.0
  N  N13  1  0.39187010  0.14789483  0.89149062  1.0
  N  N14  1  0.89187010  0.35210517  0.89149062  1.0
  N  N15  1  0.10812990  0.64789483  0.39149062  1.0
