# generated using pymatgen
data_Y2FeC4
_symmetry_space_group_name_H-M   'P 1'
_cell_length_a   6.60244332
_cell_length_b   6.60244332
_cell_length_c   6.60244332
_cell_angle_alpha   111.12203026
_cell_angle_beta   86.00278879
_cell_angle_gamma   135.18225051
_symmetry_Int_Tables_number   1
_chemical_formula_structural   Y2FeC4
_chemical_formula_sum   'Y4 Fe2 C8'
_cell_volume   181.51576062
_cell_formula_units_Z   2
loop_
 _symmetry_equiv_pos_site_id
 _symmetry_equiv_pos_as_xyz
  1  'x, y, z'
loop_
 _atom_site_type_symbol
 _atom_site_label
 _atom_site_symmetry_multiplicity
 _atom_site_fract_x
 _atom_site_fract_y
 _atom_site_fract_z
 _atom_site_occupancy
  Y  Y0  1  0.64417236  0.84309339  0.48726574  1.0
  Y  Y1  1  0.85582764  0.34309339  1.19892103  1.0
  Y  Y2  1  0.14417236  0.65690661  0.80107897  1.0
  Y  Y3  1  1.35582764  1.15690661  1.51273426  1.0
  Fe  Fe4  1  0.75000000  0.75000000  -0.00000000  1.0
  Fe  Fe5  1  0.25000000  0.25000000  0.00000000  1.0
  C  C6  1  0.92190279  0.83543374  1.75733653  1.0
  C  C7  1  0.57809721  1.33543374  0.91353096  1.0
  C  C8  1  1.42190279  0.66456626  1.08646904  1.0
  C  C9  1  0.07809721  0.16456626  0.24266347  1.0
  C  C10  1  0.87125170  0.66351429  1.53476599  1.0
  C  C11  1  0.62874830  1.16351429  0.79226260  1.0
  C  C12  1  1.37125170  0.83648571  1.20773740  1.0
  C  C13  1  0.12874830  0.33648571  0.46523401  1.0
