# generated using pymatgen
data_V(BiO3)2
_symmetry_space_group_name_H-M   'P 1'
_cell_length_a   6.94435599
_cell_length_b   8.11534639
_cell_length_c   10.75697426
_cell_angle_alpha   90.00000000
_cell_angle_beta   108.45318683
_cell_angle_gamma   90.00000000
_symmetry_Int_Tables_number   1
_chemical_formula_structural   V(BiO3)2
_chemical_formula_sum   'V4 Bi8 O24'
_cell_volume   575.04829071
_cell_formula_units_Z   4
loop_
 _symmetry_equiv_pos_site_id
 _symmetry_equiv_pos_as_xyz
  1  'x, y, z'
loop_
 _atom_site_type_symbol
 _atom_site_label
 _atom_site_symmetry_multiplicity
 _atom_site_fract_x
 _atom_site_fract_y
 _atom_site_fract_z
 _atom_site_occupancy
  O  O0  1  0.03041302  0.90343183  0.91107477  1.0
  O  O1  1  0.03041302  0.59656817  0.41107477  1.0
  O  O2  1  0.96958698  0.40343183  0.58892523  1.0
  O  O3  1  0.96958698  0.09656817  0.08892523  1.0
  O  O4  1  0.63673427  0.33893192  0.95968581  1.0
  O  O5  1  0.63673427  0.16106808  0.45968581  1.0
  O  O6  1  0.36326573  0.83893192  0.54031419  1.0
  O  O7  1  0.36326573  0.66106808  0.04031419  1.0
  O  O8  1  0.34428401  0.86957384  0.80671603  1.0
  O  O9  1  0.34428401  0.63042616  0.30671603  1.0
  O  O10  1  0.65571599  0.36957384  0.69328397  1.0
  O  O11  1  0.65571599  0.13042616  0.19328397  1.0
  O  O12  1  0.93796806  0.76669500  0.64481735  1.0
  O  O13  1  0.93796806  0.73330500  0.14481735  1.0
  O  O14  1  0.06203194  0.26669500  0.85518265  1.0
  O  O15  1  0.06203194  0.23330500  0.35518265  1.0
  O  O16  1  0.78390581  0.62909448  0.87615527  1.0
  O  O17  1  0.78390581  0.87090552  0.37615527  1.0
  O  O18  1  0.21609419  0.12909448  0.62384473  1.0
  O  O19  1  0.21609419  0.37090552  0.12384473  1.0
  O  O20  1  0.63053311  0.02911449  0.73491703  1.0
  O  O21  1  0.63053311  0.47088551  0.23491703  1.0
  O  O22  1  0.36946689  0.52911449  0.76508297  1.0
  O  O23  1  0.36946689  0.97088551  0.26508297  1.0
  Bi  Bi24  1  0.87481629  0.18223497  0.66890058  1.0
  Bi  Bi25  1  0.87481629  0.31776503  0.16890058  1.0
  Bi  Bi26  1  0.12518371  0.68223497  0.83109942  1.0
  Bi  Bi27  1  0.12518371  0.81776503  0.33109942  1.0
  Bi  Bi28  1  0.77319636  0.88229213  0.98269325  1.0
  Bi  Bi29  1  0.77319636  0.61770787  0.48269325  1.0
  Bi  Bi30  1  0.22680364  0.38229213  0.51730675  1.0
  Bi  Bi31  1  0.22680364  0.11770787  0.01730675  1.0
  V  V32  1  0.61531903  0.46490080  0.82752530  1.0
  V  V33  1  0.61531903  0.03509920  0.32752530  1.0
  V  V34  1  0.38468097  0.96490080  0.67247470  1.0
  V  V35  1  0.38468097  0.53509920  0.17247470  1.0
