# generated using pymatgen
data_CuNiF6
_symmetry_space_group_name_H-M   'P 1'
_cell_length_a   5.24348129
_cell_length_b   5.24348129
_cell_length_c   5.24348129
_cell_angle_alpha   57.10885292
_cell_angle_beta   57.10885292
_cell_angle_gamma   57.10885292
_symmetry_Int_Tables_number   1
_chemical_formula_structural   CuNiF6
_chemical_formula_sum   'Cu1 Ni1 F6'
_cell_volume   95.14792849
_cell_formula_units_Z   1
loop_
 _symmetry_equiv_pos_site_id
 _symmetry_equiv_pos_as_xyz
  1  'x, y, z'
loop_
 _atom_site_type_symbol
 _atom_site_label
 _atom_site_symmetry_multiplicity
 _atom_site_fract_x
 _atom_site_fract_y
 _atom_site_fract_z
 _atom_site_occupancy
  Cu  Cu0  1  0.50000000  0.50000000  -0.50000000  1.0
  Ni  Ni1  1  -0.00000000  0.00000000  -0.00000000  1.0
  F  F2  1  0.12897520  0.75846787  -0.64526855  1.0
  F  F3  1  0.64526855  -0.12897520  0.24153213  1.0
  F  F4  1  1.24153213  -0.35473145  -0.12897520  1.0
  F  F5  1  0.87102480  0.24153213  -0.35473145  1.0
  F  F6  1  0.35473145  0.12897520  -0.24153213  1.0
  F  F7  1  0.75846787  0.35473145  -0.87102480  1.0
