# generated using pymatgen
data_CsLi2(H2N)3
_symmetry_space_group_name_H-M   'P 1'
_cell_length_a   7.20017822
_cell_length_b   7.20017822
_cell_length_c   5.47210740
_cell_angle_alpha   90.00000000
_cell_angle_beta   90.00000000
_cell_angle_gamma   103.99969914
_symmetry_Int_Tables_number   1
_chemical_formula_structural   CsLi2(H2N)3
_chemical_formula_sum   'Cs2 Li4 H12 N6'
_cell_volume   275.26170312
_cell_formula_units_Z   2
loop_
 _symmetry_equiv_pos_site_id
 _symmetry_equiv_pos_as_xyz
  1  'x, y, z'
loop_
 _atom_site_type_symbol
 _atom_site_label
 _atom_site_symmetry_multiplicity
 _atom_site_fract_x
 _atom_site_fract_y
 _atom_site_fract_z
 _atom_site_occupancy
  Cs  Cs0  1  -0.28742077  1.28742077  0.25000000  1.0
  Cs  Cs1  1  0.28742077  0.71257923  0.75000000  1.0
  Li  Li2  1  0.85741001  0.85741001  0.50000000  1.0
  Li  Li3  1  0.85741001  0.85741001  0.00000000  1.0
  Li  Li4  1  0.14258999  0.14258999  0.50000000  1.0
  Li  Li5  1  0.14258999  0.14258999  0.00000000  1.0
  H  H6  1  0.06320037  0.75760975  0.25000000  1.0
  H  H7  1  -0.24239025  1.06320037  0.75000000  1.0
  H  H8  1  0.24239025  0.93679963  0.25000000  1.0
  H  H9  1  -0.06320037  1.24239025  0.75000000  1.0
  H  H10  1  0.31611488  0.43217107  0.25000000  1.0
  H  H11  1  -0.56782893  1.31611488  0.75000000  1.0
  H  H12  1  0.56782893  0.68388512  0.25000000  1.0
  H  H13  1  -0.31611488  1.56782893  0.75000000  1.0
  H  H14  1  0.10964736  0.47653388  0.25000000  1.0
  H  H15  1  -0.52346612  1.10964736  0.75000000  1.0
  H  H16  1  0.52346612  0.89035264  0.25000000  1.0
  H  H17  1  -0.10964736  1.52346612  0.75000000  1.0
  N  N18  1  0.17321318  0.36349002  0.25000000  1.0
  N  N19  1  -0.63650998  1.17321318  0.75000000  1.0
  N  N20  1  0.63650998  0.82678682  0.25000000  1.0
  N  N21  1  -0.17321318  1.63650998  0.75000000  1.0
  N  N22  1  0.09513636  0.90486364  0.25000000  1.0
  N  N23  1  -0.09513636  1.09513636  0.75000000  1.0
