# generated using pymatgen
data_Sm3CuSiSe7
_symmetry_space_group_name_H-M   'P 1'
_cell_length_a   10.60603099
_cell_length_b   10.60603099
_cell_length_c   6.09375457
_cell_angle_alpha   90.00000000
_cell_angle_beta   90.00000000
_cell_angle_gamma   120.00000000
_symmetry_Int_Tables_number   1
_chemical_formula_structural   Sm3CuSiSe7
_chemical_formula_sum   'Sm6 Cu2 Si2 Se14'
_cell_volume   593.63756431
_cell_formula_units_Z   2
loop_
 _symmetry_equiv_pos_site_id
 _symmetry_equiv_pos_as_xyz
  1  'x, y, z'
loop_
 _atom_site_type_symbol
 _atom_site_label
 _atom_site_symmetry_multiplicity
 _atom_site_fract_x
 _atom_site_fract_y
 _atom_site_fract_z
 _atom_site_occupancy
  Cu  Cu0  1  0.00000000  0.00000000  -0.02988907  1.0
  Cu  Cu1  1  0.00000000  0.00000000  0.47011093  1.0
  Si  Si2  1  0.33333333  0.66666667  0.58263297  1.0
  Si  Si3  1  0.66666667  0.33333333  0.08263297  1.0
  Sm  Sm4  1  0.22882278  0.87224483  0.99844202  1.0
  Sm  Sm5  1  0.87224483  0.64342205  0.49844202  1.0
  Sm  Sm6  1  0.64342205  0.77117722  0.99844202  1.0
  Sm  Sm7  1  0.12775517  0.35657795  0.99844202  1.0
  Sm  Sm8  1  0.77117722  0.12775517  0.49844202  1.0
  Sm  Sm9  1  0.35657795  0.22882278  0.49844202  1.0
  Se  Se10  1  0.33333333  0.66666667  0.20995535  1.0
  Se  Se11  1  0.66666667  0.33333333  0.70995535  1.0
  Se  Se12  1  0.90939208  0.74577049  0.98398805  1.0
  Se  Se13  1  0.74577049  0.83637841  0.48398805  1.0
  Se  Se14  1  0.83637841  0.09060792  0.98398805  1.0
  Se  Se15  1  0.25422951  0.16362159  0.98398805  1.0
  Se  Se16  1  0.09060792  0.25422951  0.48398805  1.0
  Se  Se17  1  0.16362159  0.90939208  0.48398805  1.0
  Se  Se18  1  0.58343116  0.47808436  0.23107018  1.0
  Se  Se19  1  0.47808436  0.89465319  0.73107018  1.0
  Se  Se20  1  0.89465319  0.41656884  0.23107018  1.0
  Se  Se21  1  0.52191564  0.10534681  0.23107018  1.0
  Se  Se22  1  0.41656884  0.52191564  0.73107018  1.0
  Se  Se23  1  0.10534681  0.58343116  0.73107018  1.0
