# generated using pymatgen
data_ZrNCl
_symmetry_space_group_name_H-M   'P 1'
_cell_length_a   3.43701530
_cell_length_b   3.43701530
_cell_length_c   12.99575152
_cell_angle_alpha   90.00000000
_cell_angle_beta   90.00000000
_cell_angle_gamma   120.00000000
_symmetry_Int_Tables_number   1
_chemical_formula_structural   ZrNCl
_chemical_formula_sum   'Zr2 N2 Cl2'
_cell_volume   132.95202665
_cell_formula_units_Z   2
loop_
 _symmetry_equiv_pos_site_id
 _symmetry_equiv_pos_as_xyz
  1  'x, y, z'
loop_
 _atom_site_type_symbol
 _atom_site_label
 _atom_site_symmetry_multiplicity
 _atom_site_fract_x
 _atom_site_fract_y
 _atom_site_fract_z
 _atom_site_occupancy
  Zr  Zr0  1  0.00000000  0.00000000  0.79629378  1.0
  Zr  Zr1  1  0.00000000  0.00000000  0.20370622  1.0
  N  N2  1  0.66666667  0.33333333  0.84395540  1.0
  N  N3  1  0.33333333  0.66666667  0.15604460  1.0
  Cl  Cl4  1  0.33333333  0.66666667  0.65296042  1.0
  Cl  Cl5  1  0.66666667  0.33333333  0.34703958  1.0
