# generated using pymatgen
data_BaAl4(SbO6)2
_symmetry_space_group_name_H-M   'P 1'
_cell_length_a   8.35505706
_cell_length_b   8.35505706
_cell_length_c   8.35505706
_cell_angle_alpha   106.46551820
_cell_angle_beta   106.46551820
_cell_angle_gamma   115.66594855
_symmetry_Int_Tables_number   1
_chemical_formula_structural   BaAl4(SbO6)2
_chemical_formula_sum   'Ba2 Al8 Sb4 O24'
_cell_volume   445.00112417
_cell_formula_units_Z   2
loop_
 _symmetry_equiv_pos_site_id
 _symmetry_equiv_pos_as_xyz
  1  'x, y, z'
loop_
 _atom_site_type_symbol
 _atom_site_label
 _atom_site_symmetry_multiplicity
 _atom_site_fract_x
 _atom_site_fract_y
 _atom_site_fract_z
 _atom_site_occupancy
  Ba  Ba0  1  0.21824376  0.21824376  0.00000000  1.0
  Ba  Ba1  1  0.78175624  0.78175624  0.00000000  1.0
  Al  Al2  1  0.83148053  0.31540411  0.81593514  1.0
  Al  Al3  1  0.50053103  0.98445461  0.81593514  1.0
  Al  Al4  1  0.31540411  0.49946897  0.48392358  1.0
  Al  Al5  1  0.98445461  1.16851947  1.48392358  1.0
  Al  Al6  1  0.49946897  1.01554539  1.18406486  1.0
  Al  Al7  1  1.16851947  0.68459589  1.18406486  1.0
  Al  Al8  1  1.01554539  0.83148053  1.51607642  1.0
  Al  Al9  1  0.68459589  0.50053103  0.51607642  1.0
  Sb  Sb10  1  0.83723187  1.35064980  1.18788168  1.0
  Sb  Sb11  1  1.35064980  1.16276813  1.51341793  1.0
  Sb  Sb12  1  0.16276813  0.64935020  0.81211832  1.0
  Sb  Sb13  1  0.64935020  0.83723187  1.48658207  1.0
  O  O14  1  1.12860954  1.48683267  0.95403324  1.0
  O  O15  1  0.46720058  0.82542370  0.95403324  1.0
  O  O16  1  1.48683267  1.53279942  1.35822312  1.0
  O  O17  1  0.82542370  0.87139046  1.35822312  1.0
  O  O18  1  0.53279942  1.17457630  1.04596676  1.0
  O  O19  1  0.87139046  1.51316733  1.04596676  1.0
  O  O20  1  1.17457630  1.12860954  1.64177688  1.0
  O  O21  1  1.51316733  1.46720058  1.64177688  1.0
  O  O22  1  1.13683735  0.50583245  1.29271948  1.0
  O  O23  1  0.78688703  1.15588214  1.29271948  1.0
  O  O24  1  0.50583245  0.21311297  0.36899510  1.0
  O  O25  1  1.15588214  0.86316265  1.36899510  1.0
  O  O26  1  0.21311297  0.84411786  0.70728052  1.0
  O  O27  1  0.86316265  0.49416755  0.70728052  1.0
  O  O28  1  0.84411786  1.13683735  1.63100490  1.0
  O  O29  1  0.49416755  0.78688703  0.63100490  1.0
  O  O30  1  0.79958916  1.14917211  0.94876127  1.0
  O  O31  1  0.14917211  0.20041084  0.34958295  1.0
  O  O32  1  0.20041084  0.85082789  1.05123873  1.0
  O  O33  1  0.85082789  0.79958916  0.65041705  1.0
  O  O34  1  0.54827439  1.15857270  0.70684709  1.0
  O  O35  1  0.15857270  0.45172561  0.61029832  1.0
  O  O36  1  0.45172561  0.84142730  1.29315291  1.0
  O  O37  1  0.84142730  0.54827439  0.38970168  1.0
