# generated using pymatgen
data_Cd5As3ClO12
_symmetry_space_group_name_H-M   'P 1'
_cell_length_a   10.32138867
_cell_length_b   10.32138867
_cell_length_c   6.61375814
_cell_angle_alpha   90.00000000
_cell_angle_beta   90.00000000
_cell_angle_gamma   120.00000000
_symmetry_Int_Tables_number   1
_chemical_formula_structural   Cd5As3ClO12
_chemical_formula_sum   'Cd10 As6 Cl2 O24'
_cell_volume   610.17611824
_cell_formula_units_Z   2
loop_
 _symmetry_equiv_pos_site_id
 _symmetry_equiv_pos_as_xyz
  1  'x, y, z'
loop_
 _atom_site_type_symbol
 _atom_site_label
 _atom_site_symmetry_multiplicity
 _atom_site_fract_x
 _atom_site_fract_y
 _atom_site_fract_z
 _atom_site_occupancy
  Cd  Cd0  1  0.96116849  0.72509283  0.25000000  1.0
  Cd  Cd1  1  0.72509283  0.76392434  0.75000000  1.0
  Cd  Cd2  1  0.76392434  0.03883151  0.25000000  1.0
  Cd  Cd3  1  0.27490717  0.23607566  0.25000000  1.0
  Cd  Cd4  1  0.03883151  0.27490717  0.75000000  1.0
  Cd  Cd5  1  0.23607566  0.96116849  0.75000000  1.0
  Cd  Cd6  1  0.33333333  0.66666667  0.49940473  1.0
  Cd  Cd7  1  0.33333333  0.66666667  0.00059527  1.0
  Cd  Cd8  1  0.66666667  0.33333333  0.99940473  1.0
  Cd  Cd9  1  0.66666667  0.33333333  0.50059527  1.0
  As  As10  1  0.61726145  0.59493003  0.25000000  1.0
  As  As11  1  0.59493003  0.97766859  0.75000000  1.0
  As  As12  1  0.97766859  0.38273855  0.25000000  1.0
  As  As13  1  0.40506997  0.02233141  0.25000000  1.0
  As  As14  1  0.38273855  0.40506997  0.75000000  1.0
  As  As15  1  0.02233141  0.61726145  0.75000000  1.0
  Cl  Cl16  1  -0.00000000  -0.00000000  0.25000000  1.0
  Cl  Cl17  1  0.00000000  0.00000000  0.75000000  1.0
  O  O18  1  0.73883236  0.65831205  0.45608430  1.0
  O  O19  1  0.73883236  0.65831205  0.04391570  1.0
  O  O20  1  0.65831205  0.91947969  0.95608430  1.0
  O  O21  1  0.65831205  0.91947969  0.54391570  1.0
  O  O22  1  0.91947969  0.26116764  0.45608430  1.0
  O  O23  1  0.91947969  0.26116764  0.04391570  1.0
  O  O24  1  0.34168795  0.08052031  0.45608430  1.0
  O  O25  1  0.34168795  0.08052031  0.04391570  1.0
  O  O26  1  0.26116764  0.34168795  0.95608430  1.0
  O  O27  1  0.26116764  0.34168795  0.54391570  1.0
  O  O28  1  0.08052031  0.73883236  0.95608430  1.0
  O  O29  1  0.08052031  0.73883236  0.54391570  1.0
  O  O30  1  0.35606120  0.83682416  0.25000000  1.0
  O  O31  1  0.83682416  0.48076295  0.75000000  1.0
  O  O32  1  0.48076295  0.64393880  0.25000000  1.0
  O  O33  1  0.16317584  0.51923705  0.25000000  1.0
  O  O34  1  0.64393880  0.16317584  0.75000000  1.0
  O  O35  1  0.51923705  0.35606120  0.75000000  1.0
  O  O36  1  0.53941411  0.39798936  0.25000000  1.0
  O  O37  1  0.39798936  0.85857525  0.75000000  1.0
  O  O38  1  0.85857525  0.46058589  0.25000000  1.0
  O  O39  1  0.60201064  0.14142475  0.25000000  1.0
  O  O40  1  0.46058589  0.60201064  0.75000000  1.0
  O  O41  1  0.14142475  0.53941411  0.75000000  1.0
