# generated using pymatgen
data_Fe2CO5
_symmetry_space_group_name_H-M   'P 1'
_cell_length_a   2.90205957
_cell_length_b   9.26205563
_cell_length_c   12.75998310
_cell_angle_alpha   90.00000000
_cell_angle_beta   92.38744854
_cell_angle_gamma   90.00000000
_symmetry_Int_Tables_number   1
_chemical_formula_structural   Fe2CO5
_chemical_formula_sum   'Fe8 C4 O20'
_cell_volume   342.67835002
_cell_formula_units_Z   4
loop_
 _symmetry_equiv_pos_site_id
 _symmetry_equiv_pos_as_xyz
  1  'x, y, z'
loop_
 _atom_site_type_symbol
 _atom_site_label
 _atom_site_symmetry_multiplicity
 _atom_site_fract_x
 _atom_site_fract_y
 _atom_site_fract_z
 _atom_site_occupancy
  Fe  Fe0  1  0.97631578  0.23646105  0.10545230  1.0
  Fe  Fe1  1  0.97631578  0.26353895  0.60545230  1.0
  Fe  Fe2  1  0.02368422  0.73646105  0.39454770  1.0
  Fe  Fe3  1  0.02368422  0.76353895  0.89454770  1.0
  Fe  Fe4  1  0.50049228  0.50523096  0.21708373  1.0
  Fe  Fe5  1  0.50049228  -0.00523096  0.71708373  1.0
  Fe  Fe6  1  0.49950772  1.00523096  0.28291627  1.0
  Fe  Fe7  1  0.49950772  0.49476904  0.78291627  1.0
  C  C8  1  -0.00892207  0.27666531  0.36550810  1.0
  C  C9  1  -0.00892207  0.22333469  0.86550810  1.0
  C  C10  1  1.00892207  0.77666531  0.13449190  1.0
  C  C11  1  1.00892207  0.72333469  0.63449190  1.0
  O  O12  1  1.00603384  0.35601572  0.27950051  1.0
  O  O13  1  1.00603384  0.14398428  0.77950051  1.0
  O  O14  1  -0.00603384  0.85601572  0.22049949  1.0
  O  O15  1  -0.00603384  0.64398428  0.72049949  1.0
  O  O16  1  0.98273466  0.63578006  0.14625206  1.0
  O  O17  1  0.98273466  0.86421994  0.64625206  1.0
  O  O18  1  0.01726534  0.13578006  0.35374794  1.0
  O  O19  1  0.01726534  0.36421994  0.85374794  1.0
  O  O20  1  0.94520320  0.33497246  0.45284284  1.0
  O  O21  1  0.94520320  0.16502754  0.95284284  1.0
  O  O22  1  0.05479680  0.83497246  0.04715716  1.0
  O  O23  1  0.05479680  0.66502754  0.54715716  1.0
  O  O24  1  0.52641737  0.87030516  0.40292144  1.0
  O  O25  1  0.52641737  0.62969484  0.90292144  1.0
  O  O26  1  0.47358263  0.37030516  0.09707856  1.0
  O  O27  1  0.47358263  0.12969484  0.59707856  1.0
  O  O28  1  0.48631319  0.11996124  0.15513503  1.0
  O  O29  1  0.48631319  0.38003876  0.65513503  1.0
  O  O30  1  0.51368681  0.61996124  0.34486497  1.0
  O  O31  1  0.51368681  0.88003876  0.84486497  1.0
