# generated using pymatgen
data_Rb2PbO3
_symmetry_space_group_name_H-M   'P 1'
_cell_length_a   6.17641924
_cell_length_b   11.16267360
_cell_length_c   7.44473568
_cell_angle_alpha   90.00000000
_cell_angle_beta   90.00000000
_cell_angle_gamma   90.00000000
_symmetry_Int_Tables_number   1
_chemical_formula_structural   Rb2PbO3
_chemical_formula_sum   'Rb8 Pb4 O12'
_cell_volume   513.27992149
_cell_formula_units_Z   4
loop_
 _symmetry_equiv_pos_site_id
 _symmetry_equiv_pos_as_xyz
  1  'x, y, z'
loop_
 _atom_site_type_symbol
 _atom_site_label
 _atom_site_symmetry_multiplicity
 _atom_site_fract_x
 _atom_site_fract_y
 _atom_site_fract_z
 _atom_site_occupancy
  Rb  Rb0  1  0.23532230  0.41408675  0.60782403  1.0
  Rb  Rb1  1  0.23532230  0.08591325  0.60782403  1.0
  Rb  Rb2  1  0.73532230  0.41408675  0.89217597  1.0
  Rb  Rb3  1  0.73532230  0.08591325  0.89217597  1.0
  Rb  Rb4  1  0.76467770  0.91408675  0.39217597  1.0
  Rb  Rb5  1  0.76467770  0.58591325  0.39217597  1.0
  Rb  Rb6  1  0.26467770  0.91408675  0.10782403  1.0
  Rb  Rb7  1  0.26467770  0.58591325  0.10782403  1.0
  Pb  Pb8  1  0.27058548  0.25000000  0.15695698  1.0
  Pb  Pb9  1  0.77058548  0.25000000  0.34304302  1.0
  Pb  Pb10  1  0.72941452  0.75000000  0.84304302  1.0
  Pb  Pb11  1  0.22941452  0.75000000  0.65695698  1.0
  O  O12  1  0.34110521  0.25000000  0.88498670  1.0
  O  O13  1  0.84110521  0.25000000  0.61501330  1.0
  O  O14  1  0.65889479  0.75000000  0.11501330  1.0
  O  O15  1  0.15889479  0.75000000  0.38498670  1.0
  O  O16  1  0.48912220  0.87941330  0.72747540  1.0
  O  O17  1  0.48912220  0.62058670  0.72747540  1.0
  O  O18  1  0.98912220  0.87941330  0.77252460  1.0
  O  O19  1  0.98912220  0.62058670  0.77252460  1.0
  O  O20  1  0.51087780  0.37941330  0.27252460  1.0
  O  O21  1  0.51087780  0.12058670  0.27252460  1.0
  O  O22  1  0.01087780  0.37941330  0.22747540  1.0
  O  O23  1  0.01087780  0.12058670  0.22747540  1.0
