# generated using pymatgen
data_InClO
_symmetry_space_group_name_H-M   'P 1'
_cell_length_a   3.57827710
_cell_length_b   4.15667015
_cell_length_c   8.98458349
_cell_angle_alpha   90.00000000
_cell_angle_beta   90.00000000
_cell_angle_gamma   90.00000000
_symmetry_Int_Tables_number   1
_chemical_formula_structural   InClO
_chemical_formula_sum   'In2 Cl2 O2'
_cell_volume   133.63415737
_cell_formula_units_Z   2
loop_
 _symmetry_equiv_pos_site_id
 _symmetry_equiv_pos_as_xyz
  1  'x, y, z'
loop_
 _atom_site_type_symbol
 _atom_site_label
 _atom_site_symmetry_multiplicity
 _atom_site_fract_x
 _atom_site_fract_y
 _atom_site_fract_z
 _atom_site_occupancy
  In  In0  1  0.00000000  0.50000000  0.11231809  1.0
  In  In1  1  0.50000000  0.00000000  0.88768191  1.0
  Cl  Cl2  1  0.00000000  0.00000000  0.68465925  1.0
  Cl  Cl3  1  0.50000000  0.50000000  0.31534075  1.0
  O  O4  1  0.00000000  0.00000000  0.04113781  1.0
  O  O5  1  0.50000000  0.50000000  0.95886219  1.0
