# generated using pymatgen
data_Ba2Mn3(SbO)2
_symmetry_space_group_name_H-M   'P 1'
_cell_length_a   11.21032115
_cell_length_b   11.21032115
_cell_length_c   11.21032115
_cell_angle_alpha   158.17905488
_cell_angle_beta   158.17905488
_cell_angle_gamma   31.05194444
_symmetry_Int_Tables_number   1
_chemical_formula_structural   Ba2Mn3(SbO)2
_chemical_formula_sum   'Ba2 Mn3 Sb2 O2'
_cell_volume   194.51638171
_cell_formula_units_Z   1
loop_
 _symmetry_equiv_pos_site_id
 _symmetry_equiv_pos_as_xyz
  1  'x, y, z'
loop_
 _atom_site_type_symbol
 _atom_site_label
 _atom_site_symmetry_multiplicity
 _atom_site_fract_x
 _atom_site_fract_y
 _atom_site_fract_z
 _atom_site_occupancy
  Ba  Ba0  1  0.58399547  0.58399547  1.00000000  1.0
  Ba  Ba1  1  0.41600453  0.41600453  -0.00000000  1.0
  Mn  Mn2  1  0.25000000  0.75000000  0.50000000  1.0
  Mn  Mn3  1  0.75000000  0.25000000  0.50000000  1.0
  Mn  Mn4  1  0.00000000  0.00000000  0.00000000  1.0
  Sb  Sb5  1  0.82727440  0.82727440  1.00000000  1.0
  Sb  Sb6  1  0.17272560  0.17272560  -0.00000000  1.0
  O  O7  1  0.50000000  0.00000000  0.50000000  1.0
  O  O8  1  -0.00000000  0.50000000  0.50000000  1.0
