# generated using pymatgen
data_CdGe2O5
_symmetry_space_group_name_H-M   'P 1'
_cell_length_a   5.44699917
_cell_length_b   7.04838097
_cell_length_c   5.59883583
_cell_angle_alpha   105.36323905
_cell_angle_beta   106.12112133
_cell_angle_gamma   102.99758615
_symmetry_Int_Tables_number   1
_chemical_formula_structural   CdGe2O5
_chemical_formula_sum   'Cd2 Ge4 O10'
_cell_volume   188.50236855
_cell_formula_units_Z   2
loop_
 _symmetry_equiv_pos_site_id
 _symmetry_equiv_pos_as_xyz
  1  'x, y, z'
loop_
 _atom_site_type_symbol
 _atom_site_label
 _atom_site_symmetry_multiplicity
 _atom_site_fract_x
 _atom_site_fract_y
 _atom_site_fract_z
 _atom_site_occupancy
  Cd  Cd0  1  -0.33320182  -0.73809888  -0.68603577  1.0
  Cd  Cd1  1  -0.66679818  -0.26190112  -0.31396423  1.0
  Ge  Ge2  1  -0.68444169  -0.74831105  -0.31913435  1.0
  Ge  Ge3  1  -0.31555831  -0.25168895  -0.68086565  1.0
  Ge  Ge4  1  0.00000000  -0.50000000  -0.00000000  1.0
  Ge  Ge5  1  0.00000000  0.00000000  0.00000000  1.0
  O  O6  1  -0.92721604  -0.61563462  -0.32140848  1.0
  O  O7  1  -0.07278396  -0.38436538  -0.67859152  1.0
  O  O8  1  -0.72266913  -0.89711851  -0.64582338  1.0
  O  O9  1  -0.27733087  -0.10288149  -0.35417662  1.0
  O  O10  1  -0.70983404  -0.91110606  -0.12792812  1.0
  O  O11  1  -0.29016596  -0.08889394  -0.87207188  1.0
  O  O12  1  -0.62951296  -0.44614191  -0.77627579  1.0
  O  O13  1  -0.37048704  -0.55385809  -0.22372421  1.0
  O  O14  1  -0.08599417  -0.75295256  -0.94474132  1.0
  O  O15  1  -0.91400583  -0.24704744  -0.05525868  1.0
