# generated using pymatgen
data_CuCSN
_symmetry_space_group_name_H-M   'P 1'
_cell_length_a   6.70438812
_cell_length_b   11.02598962
_cell_length_c   7.26255750
_cell_angle_alpha   90.00000000
_cell_angle_beta   90.00000000
_cell_angle_gamma   90.00000000
_symmetry_Int_Tables_number   1
_chemical_formula_structural   CuCSN
_chemical_formula_sum   'Cu8 C8 S8 N8'
_cell_volume   536.86650710
_cell_formula_units_Z   8
loop_
 _symmetry_equiv_pos_site_id
 _symmetry_equiv_pos_as_xyz
  1  'x, y, z'
loop_
 _atom_site_type_symbol
 _atom_site_label
 _atom_site_symmetry_multiplicity
 _atom_site_fract_x
 _atom_site_fract_y
 _atom_site_fract_z
 _atom_site_occupancy
  Cu  Cu0  1  0.35503005  0.31438410  0.15266434  1.0
  Cu  Cu1  1  0.35503005  0.18561590  0.65266434  1.0
  Cu  Cu2  1  0.85503005  0.31438410  0.34733566  1.0
  Cu  Cu3  1  0.85503005  0.18561590  0.84733566  1.0
  Cu  Cu4  1  0.64496995  0.81438410  0.34733566  1.0
  Cu  Cu5  1  0.64496995  0.68561590  0.84733566  1.0
  Cu  Cu6  1  0.14496995  0.81438410  0.15266434  1.0
  Cu  Cu7  1  0.14496995  0.68561590  0.65266434  1.0
  C  C8  1  0.13916335  0.07602202  0.29410061  1.0
  C  C9  1  0.13916335  0.42397798  0.79410061  1.0
  C  C10  1  0.63916335  0.07602202  0.20589939  1.0
  C  C11  1  0.63916335  0.42397798  0.70589939  1.0
  C  C12  1  0.86083665  0.57602202  0.20589939  1.0
  C  C13  1  0.86083665  0.92397798  0.70589939  1.0
  C  C14  1  0.36083665  0.57602202  0.29410061  1.0
  C  C15  1  0.36083665  0.92397798  0.79410061  1.0
  S  S16  1  0.16731312  0.21559671  0.37966642  1.0
  S  S17  1  0.16731312  0.28440329  0.87966642  1.0
  S  S18  1  0.66731312  0.21559671  0.12033358  1.0
  S  S19  1  0.66731312  0.28440329  0.62033358  1.0
  S  S20  1  0.83268688  0.71559671  0.12033358  1.0
  S  S21  1  0.83268688  0.78440329  0.62033358  1.0
  S  S22  1  0.33268688  0.71559671  0.37966642  1.0
  S  S23  1  0.33268688  0.78440329  0.87966642  1.0
  N  N24  1  0.37710074  0.47826747  0.23180227  1.0
  N  N25  1  0.37710074  0.02173253  0.73180227  1.0
  N  N26  1  0.87710074  0.47826747  0.26819773  1.0
  N  N27  1  0.87710074  0.02173253  0.76819773  1.0
  N  N28  1  0.62289926  0.97826747  0.26819773  1.0
  N  N29  1  0.62289926  0.52173253  0.76819773  1.0
  N  N30  1  0.12289926  0.97826747  0.23180227  1.0
  N  N31  1  0.12289926  0.52173253  0.73180227  1.0
