# generated using pymatgen
data_Rb2Mo(SO)2
_symmetry_space_group_name_H-M   'P 1'
_cell_length_a   6.88911715
_cell_length_b   8.69180212
_cell_length_c   14.27533181
_cell_angle_alpha   90.00000000
_cell_angle_beta   114.12912284
_cell_angle_gamma   90.00000000
_symmetry_Int_Tables_number   1
_chemical_formula_structural   Rb2Mo(SO)2
_chemical_formula_sum   'Rb8 Mo4 S8 O8'
_cell_volume   780.10433610
_cell_formula_units_Z   4
loop_
 _symmetry_equiv_pos_site_id
 _symmetry_equiv_pos_as_xyz
  1  'x, y, z'
loop_
 _atom_site_type_symbol
 _atom_site_label
 _atom_site_symmetry_multiplicity
 _atom_site_fract_x
 _atom_site_fract_y
 _atom_site_fract_z
 _atom_site_occupancy
  Rb  Rb0  1  0.84127746  0.01346389  0.20217177  1.0
  Rb  Rb1  1  0.84127746  0.48653611  0.70217177  1.0
  Rb  Rb2  1  0.15872254  0.51346389  0.29782823  1.0
  Rb  Rb3  1  0.15872254  0.98653611  0.79782823  1.0
  Rb  Rb4  1  0.67523252  0.81440162  0.44950707  1.0
  Rb  Rb5  1  0.67523252  0.68559838  0.94950707  1.0
  Rb  Rb6  1  0.32476748  0.31440162  0.05049293  1.0
  Rb  Rb7  1  0.32476748  0.18559838  0.55049293  1.0
  Mo  Mo8  1  0.72763636  0.29307098  0.41674263  1.0
  Mo  Mo9  1  0.72763636  0.20692902  0.91674263  1.0
  Mo  Mo10  1  0.27236364  0.79307098  0.08325737  1.0
  Mo  Mo11  1  0.27236364  0.70692902  0.58325737  1.0
  S  S12  1  0.84519838  0.33154949  0.06779476  1.0
  S  S13  1  0.84519838  0.16845051  0.56779476  1.0
  S  S14  1  0.15480162  0.83154949  0.43220524  1.0
  S  S15  1  0.15480162  0.66845051  0.93220524  1.0
  S  S16  1  0.44576360  0.16780513  0.30476798  1.0
  S  S17  1  0.44576360  0.33219487  0.80476798  1.0
  S  S18  1  0.55423640  0.66780513  0.19523202  1.0
  S  S19  1  0.55423640  0.83219487  0.69523202  1.0
  O  O20  1  0.93174590  0.29514377  0.37284569  1.0
  O  O21  1  0.93174590  0.20485623  0.87284569  1.0
  O  O22  1  0.06825410  0.79514377  0.12715431  1.0
  O  O23  1  0.06825410  0.70485623  0.62715431  1.0
  O  O24  1  0.65129585  0.47897708  0.43410787  1.0
  O  O25  1  0.65129585  0.02102292  0.93410787  1.0
  O  O26  1  0.34870415  0.97897708  0.06589213  1.0
  O  O27  1  0.34870415  0.52102292  0.56589213  1.0
