# generated using pymatgen
data_ScAsO4
_symmetry_space_group_name_H-M   'P 1'
_cell_length_a   5.75013144
_cell_length_b   5.75013144
_cell_length_c   5.75013144
_cell_angle_alpha   106.92342552
_cell_angle_beta   106.92342552
_cell_angle_gamma   114.69660689
_symmetry_Int_Tables_number   1
_chemical_formula_structural   ScAsO4
_chemical_formula_sum   'Sc2 As2 O8'
_cell_volume   145.43485630
_cell_formula_units_Z   2
loop_
 _symmetry_equiv_pos_site_id
 _symmetry_equiv_pos_as_xyz
  1  'x, y, z'
loop_
 _atom_site_type_symbol
 _atom_site_label
 _atom_site_symmetry_multiplicity
 _atom_site_fract_x
 _atom_site_fract_y
 _atom_site_fract_z
 _atom_site_occupancy
  Sc  Sc0  1  0.25000000  0.75000000  0.50000000  1.0
  Sc  Sc1  1  0.50000000  0.50000000  -0.00000000  1.0
  As  As2  1  0.00000000  0.00000000  0.00000000  1.0
  As  As3  1  0.75000000  1.25000000  0.50000000  1.0
  O  O4  1  0.18856720  0.37526050  0.18669330  1.0
  O  O5  1  1.12526050  1.43856720  0.68669330  1.0
  O  O6  1  0.75187390  0.43856720  0.31330670  1.0
  O  O7  1  0.18856720  1.00187390  0.81330670  1.0
  O  O8  1  0.56143280  0.87473950  0.31330670  1.0
  O  O9  1  1.62473950  0.81143280  0.81330670  1.0
  O  O10  1  0.99812610  0.81143280  1.18669330  1.0
  O  O11  1  0.56143280  1.24812610  0.68669330  1.0
