# generated using pymatgen
data_K2MnN4
_symmetry_space_group_name_H-M   'P 1'
_cell_length_a   7.74644624
_cell_length_b   6.44630625
_cell_length_c   12.50625556
_cell_angle_alpha   90.00000000
_cell_angle_beta   108.34560502
_cell_angle_gamma   90.00000000
_symmetry_Int_Tables_number   1
_chemical_formula_structural   K2MnN4
_chemical_formula_sum   'K8 Mn4 N16'
_cell_volume   592.77127582
_cell_formula_units_Z   4
loop_
 _symmetry_equiv_pos_site_id
 _symmetry_equiv_pos_as_xyz
  1  'x, y, z'
loop_
 _atom_site_type_symbol
 _atom_site_label
 _atom_site_symmetry_multiplicity
 _atom_site_fract_x
 _atom_site_fract_y
 _atom_site_fract_z
 _atom_site_occupancy
  K  K0  1  0.97638558  0.23244823  0.15356238  1.0
  K  K1  1  0.97638558  0.26755177  0.65356238  1.0
  K  K2  1  0.02361442  0.73244823  0.34643762  1.0
  K  K3  1  0.02361442  0.76755177  0.84643762  1.0
  K  K4  1  0.42535217  0.25348233  0.09593266  1.0
  K  K5  1  0.42535217  0.24651767  0.59593266  1.0
  K  K6  1  0.57464783  0.75348233  0.40406734  1.0
  K  K7  1  0.57464783  0.74651767  0.90406734  1.0
  Mn  Mn8  1  0.78856044  0.24663334  0.36494166  1.0
  Mn  Mn9  1  0.78856044  0.25336666  0.86494166  1.0
  Mn  Mn10  1  0.21143956  0.74663334  0.13505834  1.0
  Mn  Mn11  1  0.21143956  0.75336666  0.63505834  1.0
  N  N12  1  0.98683620  0.75834469  0.06630438  1.0
  N  N13  1  0.98683620  0.74165531  0.56630438  1.0
  N  N14  1  0.01316380  0.25834469  0.43369562  1.0
  N  N15  1  0.01316380  0.24165531  0.93369562  1.0
  N  N16  1  0.73031617  0.45410280  0.28139089  1.0
  N  N17  1  0.73031617  0.04589720  0.78139089  1.0
  N  N18  1  0.26968383  0.95410280  0.21860911  1.0
  N  N19  1  0.26968383  0.54589720  0.71860911  1.0
  N  N20  1  0.74651938  1.03402153  0.28458897  1.0
  N  N21  1  0.74651938  0.46597847  0.78458897  1.0
  N  N22  1  0.25348062  0.53402153  0.21541103  1.0
  N  N23  1  0.25348062  -0.03402153  0.71541103  1.0
  N  N24  1  0.67237783  0.24160668  0.45752537  1.0
  N  N25  1  0.67237783  0.25839332  0.95752537  1.0
  N  N26  1  0.32762217  0.74160668  0.04247463  1.0
  N  N27  1  0.32762217  0.75839332  0.54247463  1.0
