# generated using pymatgen
data_CaO2
_symmetry_space_group_name_H-M   'P 1'
_cell_length_a   4.24928143
_cell_length_b   4.24928143
_cell_length_c   4.24928143
_cell_angle_alpha   134.58703985
_cell_angle_beta   134.58703985
_cell_angle_gamma   66.17252791
_symmetry_Int_Tables_number   1
_chemical_formula_structural   CaO2
_chemical_formula_sum   'Ca1 O2'
_cell_volume   38.31514852
_cell_formula_units_Z   1
loop_
 _symmetry_equiv_pos_site_id
 _symmetry_equiv_pos_as_xyz
  1  'x, y, z'
loop_
 _atom_site_type_symbol
 _atom_site_label
 _atom_site_symmetry_multiplicity
 _atom_site_fract_x
 _atom_site_fract_y
 _atom_site_fract_z
 _atom_site_occupancy
  Ca  Ca0  1  0.50000000  0.50000000  0.00000000  1.0
  O  O1  1  0.10649427  0.10649427  0.00000000  1.0
  O  O2  1  0.89350573  0.89350573  0.00000000  1.0
