# generated using pymatgen
data_CsAlF4
_symmetry_space_group_name_H-M   'P 1'
_cell_length_a   10.88774484
_cell_length_b   10.88774484
_cell_length_c   10.88774484
_cell_angle_alpha   113.03369498
_cell_angle_beta   113.03369498
_cell_angle_gamma   102.55960859
_symmetry_Int_Tables_number   1
_chemical_formula_structural   CsAlF4
_chemical_formula_sum   'Cs10 Al10 F40'
_cell_volume   982.89335506
_cell_formula_units_Z   10
loop_
 _symmetry_equiv_pos_site_id
 _symmetry_equiv_pos_as_xyz
  1  'x, y, z'
loop_
 _atom_site_type_symbol
 _atom_site_label
 _atom_site_symmetry_multiplicity
 _atom_site_fract_x
 _atom_site_fract_y
 _atom_site_fract_z
 _atom_site_occupancy
  Cs  Cs0  1  0.77406899  1.09323323  1.00018218  1.0
  Cs  Cs1  1  0.59305105  0.59323323  0.31916425  1.0
  Cs  Cs2  1  0.40676677  0.72593101  0.99981782  1.0
  Cs  Cs3  1  0.22611319  0.22593101  0.31916425  1.0
  Cs  Cs4  1  1.27406899  1.27388681  0.68083575  1.0
  Cs  Cs5  1  1.09305105  1.77388681  0.99981782  1.0
  Cs  Cs6  1  0.90676677  0.90694895  0.68083575  1.0
  Cs  Cs7  1  0.72611319  1.40694895  1.00018218  1.0
  Cs  Cs8  1  0.50000000  0.00000000  0.50000000  1.0
  Cs  Cs9  1  0.00000000  0.50000000  0.50000000  1.0
  Al  Al10  1  0.54198329  1.17450254  1.21645608  1.0
  Al  Al11  1  0.45804646  0.67450254  0.63251924  1.0
  Al  Al12  1  0.32549746  0.95801671  0.78354392  1.0
  Al  Al13  1  0.67447278  0.45801671  0.63251924  1.0
  Al  Al14  1  1.04198329  0.82552722  1.36748076  1.0
  Al  Al15  1  0.95804646  0.32552722  0.78354392  1.0
  Al  Al16  1  0.82549746  1.04195354  1.36748076  1.0
  Al  Al17  1  1.17447278  0.54195354  1.21645608  1.0
  Al  Al18  1  0.75000000  0.75000000  -0.00000000  1.0
  Al  Al19  1  0.25000000  0.25000000  -0.00000000  1.0
  F  F20  1  0.59522759  0.75057759  0.84578216  1.0
  F  F21  1  0.40479543  1.25057759  1.15535000  1.0
  F  F22  1  0.74942241  0.90477241  1.15421784  1.0
  F  F23  1  1.25055457  1.40477241  1.15535000  1.0
  F  F24  1  1.09522759  1.24944543  0.84465000  1.0
  F  F25  1  0.90479543  0.74944543  0.15421784  1.0
  F  F26  1  0.24942241  1.09520457  0.84465000  1.0
  F  F27  1  1.75055457  1.59520457  1.84578216  1.0
  F  F28  1  0.39297955  0.81814485  0.71113077  1.0
  F  F29  1  0.60701408  0.31814485  0.42516530  1.0
  F  F30  1  0.68185515  1.10702045  1.28886923  1.0
  F  F31  1  0.31815122  0.60702045  0.42516530  1.0
  F  F32  1  0.89297955  1.18184878  1.57483470  1.0
  F  F33  1  1.10701408  0.68184878  1.28886923  1.0
  F  F34  1  1.18185515  0.89298592  1.57483470  1.0
  F  F35  1  0.81815122  0.39298592  0.71113077  1.0
  F  F36  1  0.45790527  1.08977002  0.78639258  1.0
  F  F37  1  0.80337745  0.58977002  0.63186475  1.0
  F  F38  1  0.41022998  1.04209473  1.21360742  1.0
  F  F39  1  0.32848731  0.54209473  0.63186475  1.0
  F  F40  1  0.95790527  1.17151269  1.36813525  1.0
  F  F41  1  1.30337745  1.67151269  1.21360742  1.0
  F  F42  1  0.91022998  0.69662255  0.36813525  1.0
  F  F43  1  0.82848731  0.19662255  0.78639258  1.0
  F  F44  1  0.67156304  1.30342487  1.21363699  1.0
  F  F45  1  0.58978788  0.80342487  0.63186183  1.0
  F  F46  1  0.19657513  0.82843696  0.78636301  1.0
  F  F47  1  1.54207395  1.32843696  1.63186183  1.0
  F  F48  1  1.17156304  0.95792605  1.36813817  1.0
  F  F49  1  1.08978788  1.45792605  0.78636301  1.0
  F  F50  1  0.69657513  0.91021212  1.36813817  1.0
  F  F51  1  1.04207395  0.41021212  1.21363699  1.0
  F  F52  1  0.88048321  0.88048321  -0.00000000  1.0
  F  F53  1  0.38048321  0.38048321  -0.00000000  1.0
  F  F54  1  0.61951679  0.61951679  0.00000000  1.0
  F  F55  1  0.11951679  0.11951679  -0.00000000  1.0
  F  F56  1  0.46577948  1.03422052  1.00000000  1.0
  F  F57  1  1.53422052  1.53422052  1.56844103  1.0
  F  F58  1  0.96577948  0.96577948  0.43155897  1.0
  F  F59  1  1.03422052  1.46577948  1.00000000  1.0
