# generated using pymatgen
data_Y2ZnSe4
_symmetry_space_group_name_H-M   'P 1'
_cell_length_a   8.14996669
_cell_length_b   8.14996669
_cell_length_c   8.14996669
_cell_angle_alpha   60.00000000
_cell_angle_beta   60.00000000
_cell_angle_gamma   60.00000000
_symmetry_Int_Tables_number   1
_chemical_formula_structural   Y2ZnSe4
_chemical_formula_sum   'Y4 Zn2 Se8'
_cell_volume   382.78287847
_cell_formula_units_Z   2
loop_
 _symmetry_equiv_pos_site_id
 _symmetry_equiv_pos_as_xyz
  1  'x, y, z'
loop_
 _atom_site_type_symbol
 _atom_site_label
 _atom_site_symmetry_multiplicity
 _atom_site_fract_x
 _atom_site_fract_y
 _atom_site_fract_z
 _atom_site_occupancy
  Y  Y0  1  1.12500000  -0.37500000  0.62500000  1.0
  Y  Y1  1  0.62500000  1.12500000  -0.37500000  1.0
  Y  Y2  1  0.62500000  0.62500000  0.12500000  1.0
  Y  Y3  1  0.62500000  0.62500000  -0.37500000  1.0
  Zn  Zn4  1  0.25000000  0.25000000  0.25000000  1.0
  Zn  Zn5  1  0.00000000  1.00000000  -0.00000000  1.0
  Se  Se6  1  -0.13009802  0.37669934  0.37669934  1.0
  Se  Se7  1  0.37669934  0.86990198  0.37669934  1.0
  Se  Se8  1  0.37669934  1.37669934  -0.13009802  1.0
  Se  Se9  1  0.37669934  0.37669934  0.37669934  1.0
  Se  Se10  1  0.38009802  0.87330066  -0.12669934  1.0
  Se  Se11  1  0.87330066  -0.61990198  0.87330066  1.0
  Se  Se12  1  0.87330066  0.87330066  -0.61990198  1.0
  Se  Se13  1  0.87330066  -0.12669934  0.87330066  1.0
