# generated using pymatgen
data_Sr3Al2
_symmetry_space_group_name_H-M   'P 1'
_cell_length_a   13.02975350
_cell_length_b   13.02975350
_cell_length_c   13.02975350
_cell_angle_alpha   90.00000000
_cell_angle_beta   90.00000000
_cell_angle_gamma   90.00000000
_symmetry_Int_Tables_number   1
_chemical_formula_structural   Sr3Al2
_chemical_formula_sum   'Sr36 Al24'
_cell_volume   2212.11957607
_cell_formula_units_Z   12
loop_
 _symmetry_equiv_pos_site_id
 _symmetry_equiv_pos_as_xyz
  1  'x, y, z'
loop_
 _atom_site_type_symbol
 _atom_site_label
 _atom_site_symmetry_multiplicity
 _atom_site_fract_x
 _atom_site_fract_y
 _atom_site_fract_z
 _atom_site_occupancy
  Sr  Sr0  1  0.06355439  0.56355439  0.93644561  1.0
  Sr  Sr1  1  0.56355439  0.93644561  0.06355439  1.0
  Sr  Sr2  1  0.93644561  0.06355439  0.56355439  1.0
  Sr  Sr3  1  0.43644561  0.43644561  0.43644561  1.0
  Sr  Sr4  1  0.67710098  0.17710098  0.32289902  1.0
  Sr  Sr5  1  0.17710098  0.32289902  0.67710098  1.0
  Sr  Sr6  1  0.32289902  0.67710098  0.17710098  1.0
  Sr  Sr7  1  0.82289902  0.82289902  0.82289902  1.0
  Sr  Sr8  1  0.33193917  0.83193917  0.66806083  1.0
  Sr  Sr9  1  0.83193917  0.66806083  0.33193917  1.0
  Sr  Sr10  1  0.66806083  0.33193917  0.83193917  1.0
  Sr  Sr11  1  0.16806083  0.16806083  0.16806083  1.0
  Sr  Sr12  1  0.46921069  0.21906853  0.05985727  1.0
  Sr  Sr13  1  0.94014273  0.96921069  0.28093147  1.0
  Sr  Sr14  1  0.71906853  0.44014273  0.53078931  1.0
  Sr  Sr15  1  0.96921069  0.28093147  0.94014273  1.0
  Sr  Sr16  1  0.44014273  0.53078931  0.71906853  1.0
  Sr  Sr17  1  0.21906853  0.05985727  0.46921069  1.0
  Sr  Sr18  1  0.53078931  0.71906853  0.44014273  1.0
  Sr  Sr19  1  0.05985727  0.46921069  0.21906853  1.0
  Sr  Sr20  1  0.28093147  0.94014273  0.96921069  1.0
  Sr  Sr21  1  0.03078931  0.78093147  0.55985727  1.0
  Sr  Sr22  1  0.55985727  0.03078931  0.78093147  1.0
  Sr  Sr23  1  0.78093147  0.55985727  0.03078931  1.0
  Sr  Sr24  1  0.56459118  0.46703227  0.19520015  1.0
  Sr  Sr25  1  0.80479985  0.06459118  0.03296773  1.0
  Sr  Sr26  1  0.96703227  0.30479985  0.43540882  1.0
  Sr  Sr27  1  0.06459118  0.03296773  0.80479985  1.0
  Sr  Sr28  1  0.30479985  0.43540882  0.96703227  1.0
  Sr  Sr29  1  0.46703227  0.19520015  0.56459118  1.0
  Sr  Sr30  1  0.43540882  0.96703227  0.30479985  1.0
  Sr  Sr31  1  0.19520015  0.56459118  0.46703227  1.0
  Sr  Sr32  1  0.03296773  0.80479985  0.06459118  1.0
  Sr  Sr33  1  0.93540882  0.53296773  0.69520015  1.0
  Sr  Sr34  1  0.69520015  0.93540882  0.53296773  1.0
  Sr  Sr35  1  0.53296773  0.69520015  0.93540882  1.0
  Al  Al36  1  0.89754253  0.27538230  0.68887396  1.0
  Al  Al37  1  0.31112604  0.39754253  0.22461770  1.0
  Al  Al38  1  0.77538230  0.81112604  0.10245747  1.0
  Al  Al39  1  0.39754253  0.22461770  0.31112604  1.0
  Al  Al40  1  0.81112604  0.10245747  0.77538230  1.0
  Al  Al41  1  0.27538230  0.68887396  0.89754253  1.0
  Al  Al42  1  0.10245747  0.77538230  0.81112604  1.0
  Al  Al43  1  0.68887396  0.89754253  0.27538230  1.0
  Al  Al44  1  0.22461770  0.31112604  0.39754253  1.0
  Al  Al45  1  0.60245747  0.72461770  0.18887396  1.0
  Al  Al46  1  0.18887396  0.60245747  0.72461770  1.0
  Al  Al47  1  0.72461770  0.18887396  0.60245747  1.0
  Al  Al48  1  0.90834815  0.23934222  0.19341476  1.0
  Al  Al49  1  0.80658524  0.40834815  0.26065778  1.0
  Al  Al50  1  0.73934222  0.30658524  0.09165185  1.0
  Al  Al51  1  0.40834815  0.26065778  0.80658524  1.0
  Al  Al52  1  0.30658524  0.09165185  0.73934222  1.0
  Al  Al53  1  0.23934222  0.19341476  0.90834815  1.0
  Al  Al54  1  0.09165185  0.73934222  0.30658524  1.0
  Al  Al55  1  0.19341476  0.90834815  0.23934222  1.0
  Al  Al56  1  0.26065778  0.80658524  0.40834815  1.0
  Al  Al57  1  0.59165185  0.76065778  0.69341476  1.0
  Al  Al58  1  0.69341476  0.59165185  0.76065778  1.0
  Al  Al59  1  0.76065778  0.69341476  0.59165185  1.0
