# generated using pymatgen
data_Si(Bi3O5)4
_symmetry_space_group_name_H-M   'P 1'
_cell_length_a   8.89742561
_cell_length_b   8.89742561
_cell_length_c   8.89742561
_cell_angle_alpha   109.47122063
_cell_angle_beta   109.47122063
_cell_angle_gamma   109.47122063
_symmetry_Int_Tables_number   1
_chemical_formula_structural   Si(Bi3O5)4
_chemical_formula_sum   'Si1 Bi12 O20'
_cell_volume   542.21459764
_cell_formula_units_Z   1
loop_
 _symmetry_equiv_pos_site_id
 _symmetry_equiv_pos_as_xyz
  1  'x, y, z'
loop_
 _atom_site_type_symbol
 _atom_site_label
 _atom_site_symmetry_multiplicity
 _atom_site_fract_x
 _atom_site_fract_y
 _atom_site_fract_z
 _atom_site_occupancy
  Si  Si0  1  -0.00000000  -0.00000000  -0.00000000  1.0
  Bi  Bi1  1  0.49421126  0.33354219  0.19326196  1.0
  Bi  Bi2  1  1.14028023  1.30094931  0.80673804  1.0
  Bi  Bi3  1  0.19326196  0.49421126  0.33354219  1.0
  Bi  Bi4  1  1.16066908  0.85971977  1.66645781  1.0
  Bi  Bi5  1  0.33354219  0.19326196  0.49421126  1.0
  Bi  Bi6  1  0.69905069  0.83933092  0.50578874  1.0
  Bi  Bi7  1  0.85971977  1.66645781  1.16066908  1.0
  Bi  Bi8  1  0.50578874  0.69905069  0.83933092  1.0
  Bi  Bi9  1  0.83933092  0.50578874  0.69905069  1.0
  Bi  Bi10  1  0.80673804  1.14028023  1.30094931  1.0
  Bi  Bi11  1  1.30094931  0.80673804  1.14028023  1.0
  Bi  Bi12  1  1.66645781  1.16066908  0.85971977  1.0
  O  O13  1  0.73740546  0.61959711  0.38209733  1.0
  O  O14  1  1.23749978  1.35530813  0.61790267  1.0
  O  O15  1  0.38209733  0.73740546  0.61959711  1.0
  O  O16  1  1.11780835  0.76250022  1.38040289  1.0
  O  O17  1  0.61959711  0.38209733  0.73740546  1.0
  O  O18  1  0.64469187  0.88219165  0.26259454  1.0
  O  O19  1  0.76250022  1.38040289  1.11780835  1.0
  O  O20  1  0.26259454  0.64469187  0.88219165  1.0
  O  O21  1  0.88219165  0.26259454  0.64469187  1.0
  O  O22  1  0.61790267  1.23749978  1.35530813  1.0
  O  O23  1  1.35530813  0.61790267  1.23749978  1.0
  O  O24  1  1.38040289  1.11780835  0.76250022  1.0
  O  O25  1  0.81218843  0.81218843  0.81218843  1.0
  O  O26  1  1.00000000  1.00000000  0.18781157  1.0
  O  O27  1  1.00000000  0.18781157  1.00000000  1.0
  O  O28  1  0.18781157  1.00000000  1.00000000  1.0
  O  O29  1  0.39487377  0.39487377  0.39487377  1.0
  O  O30  1  1.00000000  1.00000000  0.60512623  1.0
  O  O31  1  1.00000000  0.60512623  1.00000000  1.0
  O  O32  1  0.60512623  1.00000000  1.00000000  1.0
