# generated using pymatgen
data_CuSiO3
_symmetry_space_group_name_H-M   'P 1'
_cell_length_a   8.84930988
_cell_length_b   8.84930988
_cell_length_c   8.84930988
_cell_angle_alpha   111.79159728
_cell_angle_beta   111.79159728
_cell_angle_gamma   111.79159728
_symmetry_Int_Tables_number   1
_chemical_formula_structural   CuSiO3
_chemical_formula_sum   'Si6 Cu6 O18'
_cell_volume   482.23483787
_cell_formula_units_Z   6
loop_
 _symmetry_equiv_pos_site_id
 _symmetry_equiv_pos_as_xyz
  1  'x, y, z'
loop_
 _atom_site_type_symbol
 _atom_site_label
 _atom_site_symmetry_multiplicity
 _atom_site_fract_x
 _atom_site_fract_y
 _atom_site_fract_z
 _atom_site_occupancy
  Si  Si0  1  0.82160312  0.08005343  0.21236088  1.0
  Si  Si1  1  0.78763912  0.17839688  -0.08005343  1.0
  Si  Si2  1  0.91994657  0.78763912  0.17839688  1.0
  Si  Si3  1  1.17839688  0.91994657  0.78763912  1.0
  Si  Si4  1  0.21236088  0.82160312  -0.91994657  1.0
  Si  Si5  1  1.08005343  1.21236088  -0.17839688  1.0
  O  O6  1  0.97378186  0.01385186  0.26564070  1.0
  O  O7  1  0.73435930  0.02621814  -0.01385186  1.0
  O  O8  1  0.98614814  0.73435930  0.02621814  1.0
  O  O9  1  1.02621814  0.98614814  0.73435930  1.0
  O  O10  1  0.26564070  -0.02621814  0.01385186  1.0
  O  O11  1  1.01385186  1.26564070  -0.02621814  1.0
  O  O12  1  1.05033303  0.78815087  0.36919107  1.0
  O  O13  1  0.63080893  -0.05033303  0.21184913  1.0
  O  O14  1  1.21184913  1.63080893  -0.05033303  1.0
  O  O15  1  0.94966697  1.21184913  -0.36919107  1.0
  O  O16  1  0.36919107  0.05033303  -0.21184913  1.0
  O  O17  1  0.78815087  0.36919107  0.05033303  1.0
  O  O18  1  0.93896618  0.32261857  0.37354598  1.0
  O  O19  1  0.62645402  0.06103382  -0.32261857  1.0
  O  O20  1  0.67738143  0.62645402  0.06103382  1.0
  O  O21  1  1.06103382  0.67738143  0.62645402  1.0
  O  O22  1  0.37354598  0.93896618  -0.67738143  1.0
  O  O23  1  1.32261857  1.37354598  -0.06103382  1.0
  Cu  Cu24  1  0.95369324  0.53519724  0.34269857  1.0
  Cu  Cu25  1  0.65730143  1.04630676  -0.53519724  1.0
  Cu  Cu26  1  0.46480276  -0.34269857  0.04630676  1.0
  Cu  Cu27  1  1.04630676  0.46480276  0.65730143  1.0
  Cu  Cu28  1  1.34269857  0.95369324  0.53519724  1.0
  Cu  Cu29  1  0.53519724  0.34269857  -0.04630676  1.0
