# generated using pymatgen
data_CN4
_symmetry_space_group_name_H-M   'P 1'
_cell_length_a   9.29043426
_cell_length_b   9.29043426
_cell_length_c   6.26210934
_cell_angle_alpha   90.00000000
_cell_angle_beta   90.00000000
_cell_angle_gamma   120.00000000
_symmetry_Int_Tables_number   1
_chemical_formula_structural   CN4
_chemical_formula_sum   'C6 N24'
_cell_volume   468.08347321
_cell_formula_units_Z   6
loop_
 _symmetry_equiv_pos_site_id
 _symmetry_equiv_pos_as_xyz
  1  'x, y, z'
loop_
 _atom_site_type_symbol
 _atom_site_label
 _atom_site_symmetry_multiplicity
 _atom_site_fract_x
 _atom_site_fract_y
 _atom_site_fract_z
 _atom_site_occupancy
  C  C0  1  0.62243992  0.44511870  0.25000000  1.0
  C  C1  1  0.44511870  0.82267878  0.75000000  1.0
  C  C2  1  0.82267878  0.37756008  0.25000000  1.0
  C  C3  1  0.55488130  0.17732122  0.25000000  1.0
  C  C4  1  0.37756008  0.55488130  0.75000000  1.0
  C  C5  1  0.17732122  0.62243992  0.75000000  1.0
  N  N6  1  0.43980644  1.00774960  0.25000000  1.0
  N  N7  1  1.00774960  0.56794317  0.75000000  1.0
  N  N8  1  0.56794317  0.56019356  0.25000000  1.0
  N  N9  1  -0.00774960  0.43205683  0.25000000  1.0
  N  N10  1  0.56019356  -0.00774960  0.75000000  1.0
  N  N11  1  0.43205683  0.43980644  0.75000000  1.0
  N  N12  1  0.29027221  0.96747647  0.25000000  1.0
  N  N13  1  0.96747647  0.67720426  0.75000000  1.0
  N  N14  1  0.67720426  0.70972779  0.25000000  1.0
  N  N15  1  0.03252353  0.32279574  0.25000000  1.0
  N  N16  1  0.70972779  0.03252353  0.75000000  1.0
  N  N17  1  0.32279574  0.29027221  0.75000000  1.0
  N  N18  1  0.15011041  0.90977847  0.25000000  1.0
  N  N19  1  0.90977847  0.75966805  0.75000000  1.0
  N  N20  1  0.75966805  0.84988959  0.25000000  1.0
  N  N21  1  0.09022153  0.24033195  0.25000000  1.0
  N  N22  1  0.84988959  0.09022153  0.75000000  1.0
  N  N23  1  0.24033195  0.15011041  0.75000000  1.0
  N  N24  1  0.78623814  0.49997654  0.25000000  1.0
  N  N25  1  0.49997654  0.71373840  0.75000000  1.0
  N  N26  1  0.71373840  0.21376186  0.25000000  1.0
  N  N27  1  0.50002346  0.28626160  0.25000000  1.0
  N  N28  1  0.21376186  0.50002346  0.75000000  1.0
  N  N29  1  0.28626160  0.78623814  0.75000000  1.0
