# generated using pymatgen
data_CuC3(OF)3
_symmetry_space_group_name_H-M   'P 1'
_cell_length_a   8.66680188
_cell_length_b   8.66680188
_cell_length_c   10.33999134
_cell_angle_alpha   70.72987387
_cell_angle_beta   109.27012613
_cell_angle_gamma   113.63173790
_symmetry_Int_Tables_number   1
_chemical_formula_structural   CuC3(OF)3
_chemical_formula_sum   'Cu4 C12 O12 F12'
_cell_volume   653.88394888
_cell_formula_units_Z   4
loop_
 _symmetry_equiv_pos_site_id
 _symmetry_equiv_pos_as_xyz
  1  'x, y, z'
loop_
 _atom_site_type_symbol
 _atom_site_label
 _atom_site_symmetry_multiplicity
 _atom_site_fract_x
 _atom_site_fract_y
 _atom_site_fract_z
 _atom_site_occupancy
  Cu  Cu0  1  0.15629519  0.07100860  0.41047588  1.0
  Cu  Cu1  1  0.92899140  0.84370481  0.91047588  1.0
  Cu  Cu2  1  1.07100860  -0.84370481  0.08952412  1.0
  Cu  Cu3  1  1.84370481  -0.07100860  0.58952412  1.0
  C  C4  1  0.80691361  0.07651767  0.24583587  1.0
  C  C5  1  0.92348233  0.19308639  0.74583587  1.0
  C  C6  1  1.07651767  -0.19308639  0.25416413  1.0
  C  C7  1  1.19308639  -0.07651767  0.75416413  1.0
  C  C8  1  0.61417459  0.04910761  0.23428036  1.0
  C  C9  1  0.95089239  0.38582541  0.73428036  1.0
  C  C10  1  1.04910761  -0.38582541  0.26571964  1.0
  C  C11  1  1.38582541  -0.04910761  0.76571964  1.0
  C  C12  1  0.34769128  0.25417539  0.41893057  1.0
  C  C13  1  0.74582461  0.65230872  0.91893057  1.0
  C  C14  1  1.25417539  -0.65230872  0.08106943  1.0
  C  C15  1  1.65230872  -0.25417539  0.58106943  1.0
  O  O16  1  0.90110632  0.05427244  0.36958931  1.0
  O  O17  1  0.94572756  0.09889368  0.86958931  1.0
  O  O18  1  1.05427244  -0.09889368  0.13041069  1.0
  O  O19  1  1.09889368  -0.05427244  0.63041069  1.0
  O  O20  1  0.84691428  0.11340988  0.13110531  1.0
  O  O21  1  0.88659012  0.15308572  0.63110531  1.0
  O  O22  1  1.11340988  -0.15308572  0.36889469  1.0
  O  O23  1  1.15308572  -0.11340988  0.86889469  1.0
  O  O24  1  0.47364752  0.36945613  0.42176631  1.0
  O  O25  1  0.63054387  0.52635248  0.92176631  1.0
  O  O26  1  1.36945613  -0.52635248  0.07823369  1.0
  O  O27  1  1.52635248  -0.36945613  0.57823369  1.0
  F  F28  1  1.52126976  -0.12338036  0.24901262  1.0
  F  F29  1  1.12338036  -0.52126976  0.74901262  1.0
  F  F30  1  0.87661964  0.52126976  0.25098738  1.0
  F  F31  1  0.47873024  0.12338036  0.75098738  1.0
  F  F32  1  0.59624992  0.10228565  0.33690501  1.0
  F  F33  1  0.89771435  0.40375008  0.83690501  1.0
  F  F34  1  1.10228565  -0.40375008  0.16309499  1.0
  F  F35  1  1.40375008  -0.10228565  0.66309499  1.0
  F  F36  1  0.54183274  0.13421049  0.10901782  1.0
  F  F37  1  0.86578951  0.45816726  0.60901782  1.0
  F  F38  1  1.13421049  -0.45816726  0.39098218  1.0
  F  F39  1  1.45816726  -0.13421049  0.89098218  1.0
