# generated using pymatgen
data_EuI2
_symmetry_space_group_name_H-M   'P 1'
_cell_length_a   12.40416839
_cell_length_b   4.90927567
_cell_length_c   8.39081757
_cell_angle_alpha   90.00000000
_cell_angle_beta   90.00000000
_cell_angle_gamma   90.00000000
_symmetry_Int_Tables_number   1
_chemical_formula_structural   EuI2
_chemical_formula_sum   'Eu4 I8'
_cell_volume   510.96288090
_cell_formula_units_Z   4
loop_
 _symmetry_equiv_pos_site_id
 _symmetry_equiv_pos_as_xyz
  1  'x, y, z'
loop_
 _atom_site_type_symbol
 _atom_site_label
 _atom_site_symmetry_multiplicity
 _atom_site_fract_x
 _atom_site_fract_y
 _atom_site_fract_z
 _atom_site_occupancy
  Eu  Eu0  1  0.17042975  0.75000000  0.87332305  1.0
  Eu  Eu1  1  0.67042975  0.75000000  0.62667695  1.0
  Eu  Eu2  1  0.82957025  0.25000000  0.12667695  1.0
  Eu  Eu3  1  0.32957025  0.25000000  0.37332305  1.0
  I  I4  1  0.39323512  0.75000000  0.62756068  1.0
  I  I5  1  0.89323512  0.75000000  0.87243932  1.0
  I  I6  1  0.60676488  0.25000000  0.37243932  1.0
  I  I7  1  0.10676488  0.25000000  0.12756068  1.0
  I  I8  1  0.37523432  0.75000000  0.12312584  1.0
  I  I9  1  0.87523432  0.75000000  0.37687416  1.0
  I  I10  1  0.62476568  0.25000000  0.87687416  1.0
  I  I11  1  0.12476568  0.25000000  0.62312584  1.0
