# generated using pymatgen
data_La11V3GeO26
_symmetry_space_group_name_H-M   'P 1'
_cell_length_a   10.25695493
_cell_length_b   10.57096399
_cell_length_c   7.13652390
_cell_angle_alpha   68.58178564
_cell_angle_beta   69.58368174
_cell_angle_gamma   76.63876648
_symmetry_Int_Tables_number   1
_chemical_formula_structural   La11V3GeO26
_chemical_formula_sum   'La11 V3 Ge1 O26'
_cell_volume   670.31013362
_cell_formula_units_Z   1
loop_
 _symmetry_equiv_pos_site_id
 _symmetry_equiv_pos_as_xyz
  1  'x, y, z'
loop_
 _atom_site_type_symbol
 _atom_site_label
 _atom_site_symmetry_multiplicity
 _atom_site_fract_x
 _atom_site_fract_y
 _atom_site_fract_z
 _atom_site_occupancy
  La  La0  1  0.06649531  -0.30652250  0.32683001  1.0
  La  La1  1  0.74301604  -0.86627569  0.89727419  1.0
  La  La2  1  0.39617072  -0.41419363  0.53958463  1.0
  La  La3  1  0.73374544  -0.47257319  0.72962618  1.0
  La  La4  1  0.05702355  -0.50569890  0.93096824  1.0
  La  La5  1  0.70893876  -0.05464986  0.56158887  1.0
  La  La6  1  0.37714261  -0.63170973  1.15826567  1.0
  La  La7  1  0.08729630  -0.11946375  0.70304155  1.0
  La  La8  1  0.69718722  -0.65411904  1.32913965  1.0
  La  La9  1  0.75491163  -0.26745860  1.13464499  1.0
  La  La10  1  0.36088606  -0.79857836  1.75312042  1.0
  V  V11  1  -0.00122191  -0.91991396  1.13870877  1.0
  V  V12  1  0.45603113  -0.00405144  0.32153126  1.0
  V  V13  1  0.40945774  -0.27037736  0.95754295  1.0
  Ge  Ge14  1  0.04714158  -0.65467500  1.51222198  1.0
  O  O15  1  -0.00386424  0.03559708  -0.06729029  1.0
  O  O16  1  -0.00613309  -0.52449642  0.63962877  1.0
  O  O17  1  0.63465736  -0.05514619  0.22172829  1.0
  O  O18  1  0.81775477  -0.26426123  0.46042737  1.0
  O  O19  1  0.41077361  -0.86518922  1.12166682  1.0
  O  O20  1  0.09576796  -0.78810656  1.04744970  1.0
  O  O21  1  0.30751547  -0.59319326  0.84402312  1.0
  O  O22  1  0.14769759  -0.32614468  0.62434343  1.0
  O  O23  1  0.36068963  -0.13685790  0.41500650  1.0
  O  O24  1  0.04373590  -0.06130588  0.33592981  1.0
  O  O25  1  0.63142567  -0.66320109  1.01261973  1.0
  O  O26  1  0.82095417  -0.86816552  1.24221751  1.0
  O  O27  1  0.46615987  -0.39246537  0.82803698  1.0
  O  O28  1  0.80491838  -0.46836935  1.02266534  1.0
  O  O29  1  0.45886170  -0.95566894  1.52377893  1.0
  O  O30  1  0.55931987  -0.20243271  0.91834751  1.0
  O  O31  1  0.11708635  -0.54511349  1.24897994  1.0
  O  O32  1  0.83279608  -0.07726443  0.78703555  1.0
  O  O33  1  -0.00152373  -0.28962782  1.02705483  1.0
  O  O34  1  0.27449608  -0.15849045  0.88867221  1.0
  O  O35  1  0.19734745  -0.76794134  1.54915974  1.0
  O  O36  1  0.45274712  -0.62451644  1.43604689  1.0
  O  O37  1  0.61987047  -0.84450487  1.66944550  1.0
  O  O38  1  0.33513651  -0.36759482  1.21403419  1.0
  O  O39  1  0.87901983  -0.70507740  1.56732730  1.0
  O  O40  1  0.64546706  -0.45150068  1.43977494  1.0
