# generated using pymatgen
data_P2H6N2O5
_symmetry_space_group_name_H-M   'P 1'
_cell_length_a   8.47372690
_cell_length_b   14.15353363
_cell_length_c   5.01779055
_cell_angle_alpha   90.00000000
_cell_angle_beta   90.00000000
_cell_angle_gamma   90.00000000
_symmetry_Int_Tables_number   1
_chemical_formula_structural   P2H6N2O5
_chemical_formula_sum   'P8 H24 N8 O20'
_cell_volume   601.79957044
_cell_formula_units_Z   4
loop_
 _symmetry_equiv_pos_site_id
 _symmetry_equiv_pos_as_xyz
  1  'x, y, z'
loop_
 _atom_site_type_symbol
 _atom_site_label
 _atom_site_symmetry_multiplicity
 _atom_site_fract_x
 _atom_site_fract_y
 _atom_site_fract_z
 _atom_site_occupancy
  P  P0  1  0.29694826  0.57467569  0.97664310  1.0
  P  P1  1  0.79694826  0.92532431  0.02335690  1.0
  P  P2  1  0.70305174  0.42532431  0.97664310  1.0
  P  P3  1  0.20305174  0.07467569  0.02335690  1.0
  P  P4  1  0.12977312  0.87555742  0.88163375  1.0
  P  P5  1  0.62977312  0.62444258  0.11836625  1.0
  P  P6  1  0.87022688  0.12444258  0.88163375  1.0
  P  P7  1  0.37022688  0.37555742  0.11836625  1.0
  H  H8  1  0.52042187  0.77185681  0.38200269  1.0
  H  H9  1  1.02042187  0.72814319  0.61799731  1.0
  H  H10  1  0.47957813  0.22814319  0.38200269  1.0
  H  H11  1  -0.02042187  0.27185681  0.61799731  1.0
  H  H12  1  0.27056282  0.22112760  0.90227605  1.0
  H  H13  1  0.77056282  0.27887240  0.09772395  1.0
  H  H14  1  0.72943718  0.77887240  0.90227605  1.0
  H  H15  1  0.22943718  0.72112760  0.09772395  1.0
  H  H16  1  0.22460753  1.00046470  0.61446269  1.0
  H  H17  1  0.72460753  0.49953530  0.38553731  1.0
  H  H18  1  0.77539247  -0.00046470  0.61446269  1.0
  H  H19  1  0.27539247  0.50046470  0.38553731  1.0
  H  H20  1  0.06870902  0.61289109  0.65789540  1.0
  H  H21  1  0.56870902  0.88710891  0.34210460  1.0
  H  H22  1  0.93129098  0.38710891  0.65789540  1.0
  H  H23  1  0.43129098  0.11289109  0.34210460  1.0
  H  H24  1  0.00365801  0.87229948  0.29473117  1.0
  H  H25  1  0.50365801  0.62770052  0.70526883  1.0
  H  H26  1  0.99634199  0.12770052  0.29473117  1.0
  H  H27  1  0.49634199  0.37229948  0.70526883  1.0
  H  H28  1  0.89113541  0.65560936  0.76176897  1.0
  H  H29  1  0.39113541  0.84439064  0.23823103  1.0
  H  H30  1  0.10886459  0.34439064  0.76176897  1.0
  H  H31  1  0.60886459  0.15560936  0.23823103  1.0
  N  N32  1  0.47960684  0.61050171  0.90182061  1.0
  N  N33  1  0.97960684  0.88949829  0.09817939  1.0
  N  N34  1  0.52039316  0.38949829  0.90182061  1.0
  N  N35  1  0.02039316  0.11050171  0.09817939  1.0
  N  N36  1  0.19042448  0.98553051  0.80800110  1.0
  N  N37  1  0.69042448  0.51446949  0.19199890  1.0
  N  N38  1  0.80957552  0.01446949  0.80800110  1.0
  N  N39  1  0.30957552  0.48553051  0.19199890  1.0
  O  O40  1  0.47721091  0.84091900  0.38155565  1.0
  O  O41  1  0.97721091  0.65908100  0.61844435  1.0
  O  O42  1  0.52278909  0.15908100  0.38155565  1.0
  O  O43  1  0.02278909  0.34091900  0.61844435  1.0
  O  O44  1  0.28937866  0.15065335  0.85038647  1.0
  O  O45  1  0.78937866  0.34934665  0.14961353  1.0
  O  O46  1  0.71062134  0.84934665  0.85038647  1.0
  O  O47  1  0.21062134  0.65065335  0.14961353  1.0
  O  O48  1  0.21320987  0.54979547  0.71899368  1.0
  O  O49  1  0.71320987  0.95020453  0.28100632  1.0
  O  O50  1  0.78679013  0.45020453  0.71899368  1.0
  O  O51  1  0.28679013  0.04979547  0.28100632  1.0
  O  O52  1  0.07358581  0.83009892  0.62401770  1.0
  O  O53  1  0.57358581  0.66990108  0.37598230  1.0
  O  O54  1  0.92641419  0.16990108  0.62401770  1.0
  O  O55  1  0.42641419  0.33009892  0.37598230  1.0
  O  O56  1  0.75713307  0.67821847  0.96413202  1.0
  O  O57  1  0.25713307  0.82178153  0.03586798  1.0
  O  O58  1  0.24286693  0.32178153  0.96413202  1.0
  O  O59  1  0.74286693  0.17821847  0.03586798  1.0
