# generated using pymatgen
data_C3N2
_symmetry_space_group_name_H-M   'P 1'
_cell_length_a   5.08294953
_cell_length_b   5.08294953
_cell_length_c   5.08294953
_cell_angle_alpha   90.00000000
_cell_angle_beta   90.00000000
_cell_angle_gamma   90.00000000
_symmetry_Int_Tables_number   1
_chemical_formula_structural   C3N2
_chemical_formula_sum   'C12 N8'
_cell_volume   131.32499479
_cell_formula_units_Z   4
loop_
 _symmetry_equiv_pos_site_id
 _symmetry_equiv_pos_as_xyz
  1  'x, y, z'
loop_
 _atom_site_type_symbol
 _atom_site_label
 _atom_site_symmetry_multiplicity
 _atom_site_fract_x
 _atom_site_fract_y
 _atom_site_fract_z
 _atom_site_occupancy
  C  C0  1  0.50274128  0.84396107  0.15603893  1.0
  C  C1  1  0.84396107  0.84396107  0.49725872  1.0
  C  C2  1  0.84396107  0.50274128  0.15603893  1.0
  C  C3  1  0.50274128  0.15603893  0.84396107  1.0
  C  C4  1  0.84396107  0.15603893  0.50274128  1.0
  C  C5  1  0.84396107  0.49725872  0.84396107  1.0
  C  C6  1  0.49725872  0.84396107  0.84396107  1.0
  C  C7  1  0.15603893  0.84396107  0.50274128  1.0
  C  C8  1  0.15603893  0.50274128  0.84396107  1.0
  C  C9  1  0.49725872  0.15603893  0.15603893  1.0
  C  C10  1  0.15603893  0.15603893  0.49725872  1.0
  C  C11  1  0.15603893  0.49725872  0.15603893  1.0
  N  N12  1  0.75252710  0.75252710  0.24747290  1.0
  N  N13  1  0.75252710  0.24747290  0.75252710  1.0
  N  N14  1  0.24747290  0.75252710  0.75252710  1.0
  N  N15  1  0.24747290  0.24747290  0.24747290  1.0
  N  N16  1  0.26769605  0.26769605  0.73230395  1.0
  N  N17  1  0.26769605  0.73230395  0.26769605  1.0
  N  N18  1  0.73230395  0.26769605  0.26769605  1.0
  N  N19  1  0.73230395  0.73230395  0.73230395  1.0
