# generated using pymatgen
data_Ca3NbGa3(SiO7)2
_symmetry_space_group_name_H-M   'P 1'
_cell_length_a   8.19065655
_cell_length_b   8.19065655
_cell_length_c   5.02100647
_cell_angle_alpha   90.00000000
_cell_angle_beta   90.00000000
_cell_angle_gamma   120.00000000
_symmetry_Int_Tables_number   1
_chemical_formula_structural   Ca3NbGa3(SiO7)2
_chemical_formula_sum   'Ca3 Nb1 Ga3 Si2 O14'
_cell_volume   291.71505551
_cell_formula_units_Z   1
loop_
 _symmetry_equiv_pos_site_id
 _symmetry_equiv_pos_as_xyz
  1  'x, y, z'
loop_
 _atom_site_type_symbol
 _atom_site_label
 _atom_site_symmetry_multiplicity
 _atom_site_fract_x
 _atom_site_fract_y
 _atom_site_fract_z
 _atom_site_occupancy
  Ca  Ca0  1  0.42197772  0.42197772  -0.00000000  1.0
  Ca  Ca1  1  -0.00000000  0.57802228  -0.00000000  1.0
  Ca  Ca2  1  0.57802228  -0.00000000  0.00000000  1.0
  Nb  Nb3  1  0.00000000  -0.00000000  0.00000000  1.0
  Ga  Ga4  1  0.74417259  0.74417259  0.50000000  1.0
  Ga  Ga5  1  -0.00000000  0.25582741  0.50000000  1.0
  Ga  Ga6  1  0.25582741  -0.00000000  0.50000000  1.0
  Si  Si7  1  0.33333333  0.66666667  0.55119164  1.0
  Si  Si8  1  0.66666667  0.33333333  0.44880836  1.0
  O  O9  1  0.08397770  0.85907231  0.23539957  1.0
  O  O10  1  0.85907231  0.08397770  0.76460043  1.0
  O  O11  1  0.77509461  0.91602230  0.23539957  1.0
  O  O12  1  0.14092769  0.22490539  0.23539957  1.0
  O  O13  1  0.91602230  0.77509461  0.76460043  1.0
  O  O14  1  0.22490539  0.14092769  0.76460043  1.0
  O  O15  1  0.67615108  0.52201810  0.30813682  1.0
  O  O16  1  0.52201810  0.67615108  0.69186318  1.0
  O  O17  1  0.84586703  0.32384892  0.30813682  1.0
  O  O18  1  0.47798190  0.15413297  0.30813682  1.0
  O  O19  1  0.32384892  0.84586703  0.69186318  1.0
  O  O20  1  0.15413297  0.47798190  0.69186318  1.0
  O  O21  1  0.33333333  0.66666667  0.23051455  1.0
  O  O22  1  0.66666667  0.33333333  0.76948545  1.0
