# generated using pymatgen
data_Ba3Sb2S7
_symmetry_space_group_name_H-M   'P 1'
_cell_length_a   11.17701275
_cell_length_b   11.17701275
_cell_length_c   13.36474278
_cell_angle_alpha   73.25471150
_cell_angle_beta   106.74528850
_cell_angle_gamma   112.44977540
_symmetry_Int_Tables_number   1
_chemical_formula_structural   Ba3Sb2S7
_chemical_formula_sum   'Ba12 Sb8 S28'
_cell_volume   1447.40745709
_cell_formula_units_Z   4
loop_
 _symmetry_equiv_pos_site_id
 _symmetry_equiv_pos_as_xyz
  1  'x, y, z'
loop_
 _atom_site_type_symbol
 _atom_site_label
 _atom_site_symmetry_multiplicity
 _atom_site_fract_x
 _atom_site_fract_y
 _atom_site_fract_z
 _atom_site_occupancy
  Ba  Ba0  1  0.40625898  -0.39609301  0.32709100  1.0
  Ba  Ba1  1  1.39609301  0.59374102  0.82709100  1.0
  Ba  Ba2  1  0.60390699  -0.59374102  0.17290900  1.0
  Ba  Ba3  1  1.59374102  0.39609301  0.67290900  1.0
  Ba  Ba4  1  1.89156529  0.10308179  0.32386657  1.0
  Ba  Ba5  1  0.89691821  -0.89156529  0.82386657  1.0
  Ba  Ba6  1  1.10308179  0.89156529  0.17613343  1.0
  Ba  Ba7  1  0.10843471  -0.10308179  0.67613343  1.0
  Ba  Ba8  1  0.62129781  -0.11462826  0.05669181  1.0
  Ba  Ba9  1  1.11462826  0.37870219  0.55669181  1.0
  Ba  Ba10  1  0.88537174  -0.37870219  0.44330819  1.0
  Ba  Ba11  1  1.37870219  0.11462826  0.94330819  1.0
  Sb  Sb12  1  1.70185131  0.24030527  0.49005543  1.0
  Sb  Sb13  1  0.75969473  -0.70185131  0.99005543  1.0
  Sb  Sb14  1  1.24030527  0.70185131  0.00994457  1.0
  Sb  Sb15  1  0.29814869  -0.24030527  0.50994457  1.0
  Sb  Sb16  1  1.30447947  0.14602867  0.40683878  1.0
  Sb  Sb17  1  0.85397133  -0.30447947  0.90683878  1.0
  Sb  Sb18  1  1.14602867  0.30447947  0.09316122  1.0
  Sb  Sb19  1  0.69552053  -0.14602867  0.59316122  1.0
  S  S20  1  0.70120608  -0.19386684  0.31826555  1.0
  S  S21  1  1.19386684  0.29879392  0.81826555  1.0
  S  S22  1  0.80613316  -0.29879392  0.18173445  1.0
  S  S23  1  1.29879392  0.19386684  0.68173445  1.0
  S  S24  1  0.61365462  -0.11076957  0.38739453  1.0
  S  S25  1  1.11076957  0.38634538  0.88739453  1.0
  S  S26  1  0.88923043  -0.38634538  0.11260547  1.0
  S  S27  1  1.38634538  0.11076957  0.61260547  1.0
  S  S28  1  0.35334894  -0.14991936  0.13651074  1.0
  S  S29  1  1.14991936  0.64665106  0.63651074  1.0
  S  S30  1  0.85008064  -0.64665106  0.36348926  1.0
  S  S31  1  1.64665106  0.14991936  0.86348926  1.0
  S  S32  1  1.64552457  0.15393449  0.13394565  1.0
  S  S33  1  0.84606551  -0.64552457  0.63394565  1.0
  S  S34  1  1.15393449  0.64552457  0.36605435  1.0
  S  S35  1  0.35447543  -0.15393449  0.86605435  1.0
  S  S36  1  1.57676146  0.40518538  0.41430574  1.0
  S  S37  1  0.59481462  -0.57676146  0.91430574  1.0
  S  S38  1  1.40518538  0.57676146  0.08569426  1.0
  S  S39  1  0.42323854  -0.40518538  0.58569426  1.0
  S  S40  1  0.10248482  -0.05514529  0.41044814  1.0
  S  S41  1  1.05514529  0.89751518  0.91044814  1.0
  S  S42  1  0.94485471  -0.89751518  0.08955186  1.0
  S  S43  1  1.89751518  0.05514529  0.58955186  1.0
  S  S44  1  1.19203484  0.30571794  0.36783017  1.0
  S  S45  1  0.69428206  -0.19203484  0.86783017  1.0
  S  S46  1  1.30571794  0.19203484  0.13216983  1.0
  S  S47  1  0.80796516  -0.30571794  0.63216983  1.0
