# generated using pymatgen
data_La7Ir3
_symmetry_space_group_name_H-M   'P 1'
_cell_length_a   10.22959339
_cell_length_b   10.22959339
_cell_length_c   6.57251375
_cell_angle_alpha   90.00000000
_cell_angle_beta   90.00000000
_cell_angle_gamma   120.00000000
_symmetry_Int_Tables_number   1
_chemical_formula_structural   La7Ir3
_chemical_formula_sum   'La14 Ir6'
_cell_volume   595.63317477
_cell_formula_units_Z   2
loop_
 _symmetry_equiv_pos_site_id
 _symmetry_equiv_pos_as_xyz
  1  'x, y, z'
loop_
 _atom_site_type_symbol
 _atom_site_label
 _atom_site_symmetry_multiplicity
 _atom_site_fract_x
 _atom_site_fract_y
 _atom_site_fract_z
 _atom_site_occupancy
  La  La0  1  0.92378345  0.46189172  0.00338320  1.0
  La  La1  1  0.46189172  0.92378345  0.50338320  1.0
  La  La2  1  0.46189172  0.53810828  0.50338320  1.0
  La  La3  1  0.53810828  0.46189172  0.00338320  1.0
  La  La4  1  0.53810828  0.07621655  0.00338320  1.0
  La  La5  1  0.07621655  0.53810828  0.50338320  1.0
  La  La6  1  0.25163101  0.12581551  0.30753030  1.0
  La  La7  1  0.12581551  0.25163101  0.80753030  1.0
  La  La8  1  0.12581551  0.87418449  0.80753030  1.0
  La  La9  1  0.87418449  0.12581551  0.30753030  1.0
  La  La10  1  0.87418449  0.74836899  0.30753030  1.0
  La  La11  1  0.74836899  0.87418449  0.80753030  1.0
  La  La12  1  0.33333333  0.66666667  0.04446826  1.0
  La  La13  1  0.66666667  0.33333333  0.54446826  1.0
  Ir  Ir14  1  0.62540092  0.81270046  0.26426374  1.0
  Ir  Ir15  1  0.81270046  0.62540092  0.76426374  1.0
  Ir  Ir16  1  0.81270046  0.18729954  0.76426374  1.0
  Ir  Ir17  1  0.18729954  0.81270046  0.26426374  1.0
  Ir  Ir18  1  0.18729954  0.37459908  0.26426374  1.0
  Ir  Ir19  1  0.37459908  0.18729954  0.76426374  1.0
