# generated using pymatgen
data_Cs2GeSe4
_symmetry_space_group_name_H-M   'P 1'
_cell_length_a   8.76308213
_cell_length_b   8.76308213
_cell_length_c   10.44793125
_cell_angle_alpha   62.13543730
_cell_angle_beta   117.86456270
_cell_angle_gamma   127.06527741
_symmetry_Int_Tables_number   1
_chemical_formula_structural   Cs2GeSe4
_chemical_formula_sum   'Cs4 Ge2 Se8'
_cell_volume   546.01889004
_cell_formula_units_Z   2
loop_
 _symmetry_equiv_pos_site_id
 _symmetry_equiv_pos_as_xyz
  1  'x, y, z'
loop_
 _atom_site_type_symbol
 _atom_site_label
 _atom_site_symmetry_multiplicity
 _atom_site_fract_x
 _atom_site_fract_y
 _atom_site_fract_z
 _atom_site_occupancy
  Cs  Cs0  1  0.84203525  -0.84203525  0.20662400  1.0
  Cs  Cs1  1  0.15796475  -0.15796475  0.79337600  1.0
  Cs  Cs2  1  1.40349755  -0.40349755  0.63680775  1.0
  Cs  Cs3  1  0.59650245  0.40349755  0.36319225  1.0
  Ge  Ge4  1  0.84436960  0.15563040  0.79370190  1.0
  Ge  Ge5  1  1.15563040  -0.15563040  0.20629810  1.0
  Se  Se6  1  0.66568903  -0.16137462  0.96143581  1.0
  Se  Se7  1  1.16137462  0.33431097  0.96143581  1.0
  Se  Se8  1  0.83862538  -0.33431097  0.03856419  1.0
  Se  Se9  1  1.33431097  0.16137462  0.03856419  1.0
  Se  Se10  1  0.87653036  -0.87653036  0.60137357  1.0
  Se  Se11  1  0.12346964  -0.12346964  0.39862643  1.0
  Se  Se12  1  0.68718736  0.31281264  0.76755640  1.0
  Se  Se13  1  1.31281264  -0.31281264  0.23244360  1.0
