# generated using pymatgen
data_Bi2Te3
_symmetry_space_group_name_H-M   'P 1'
_cell_length_a   10.84926079
_cell_length_b   10.84926079
_cell_length_c   10.84926079
_cell_angle_alpha   23.64891538
_cell_angle_beta   23.64891538
_cell_angle_gamma   23.64891538
_symmetry_Int_Tables_number   1
_chemical_formula_structural   Bi2Te3
_chemical_formula_sum   'Bi2 Te3'
_cell_volume   180.47746294
_cell_formula_units_Z   1
loop_
 _symmetry_equiv_pos_site_id
 _symmetry_equiv_pos_as_xyz
  1  'x, y, z'
loop_
 _atom_site_type_symbol
 _atom_site_label
 _atom_site_symmetry_multiplicity
 _atom_site_fract_x
 _atom_site_fract_y
 _atom_site_fract_z
 _atom_site_occupancy
  Bi  Bi0  1  1.60189282  0.60189282  0.60189282  1.0
  Bi  Bi1  1  1.39810718  0.39810718  0.39810718  1.0
  Te  Te2  1  0.78587226  0.78587226  0.78587226  1.0
  Te  Te3  1  1.21412774  1.21412774  0.21412774  1.0
  Te  Te4  1  -0.00000000  0.00000000  -0.00000000  1.0
