# generated using pymatgen
data_KMnP3HO10
_symmetry_space_group_name_H-M   'P 1'
_cell_length_a   7.44744857
_cell_length_b   7.44744857
_cell_length_c   9.30836180
_cell_angle_alpha   73.76436089
_cell_angle_beta   106.23563911
_cell_angle_gamma   112.39570881
_symmetry_Int_Tables_number   1
_chemical_formula_structural   KMnP3HO10
_chemical_formula_sum   'K2 Mn2 P6 H2 O20'
_cell_volume   449.51200674
_cell_formula_units_Z   2
loop_
 _symmetry_equiv_pos_site_id
 _symmetry_equiv_pos_as_xyz
  1  'x, y, z'
loop_
 _atom_site_type_symbol
 _atom_site_label
 _atom_site_symmetry_multiplicity
 _atom_site_fract_x
 _atom_site_fract_y
 _atom_site_fract_z
 _atom_site_occupancy
  K  K0  1  0.94511591  0.94511591  0.75000000  1.0
  K  K1  1  0.05488409  0.05488409  0.25000000  1.0
  Mn  Mn2  1  1.50000000  0.00000000  0.00000000  1.0
  Mn  Mn3  1  1.00000000  0.50000000  0.50000000  1.0
  P  P4  1  1.36062303  -0.22634931  0.70646673  1.0
  P  P5  1  1.22634931  -0.36062303  0.20646673  1.0
  P  P6  1  0.77365069  0.36062303  0.79353327  1.0
  P  P7  1  0.63937697  0.22634931  0.29353327  1.0
  P  P8  1  0.36969899  0.36969899  0.75000000  1.0
  P  P9  1  0.63030101  0.63030101  0.25000000  1.0
  H  H10  1  1.50000000  0.00000000  0.50000000  1.0
  H  H11  1  1.00000000  0.50000000  -0.00000000  1.0
  O  O12  1  1.53157700  -0.11010875  0.61944311  1.0
  O  O13  1  1.11010875  -0.53157700  0.11944311  1.0
  O  O14  1  0.88989125  0.53157700  0.88055689  1.0
  O  O15  1  0.46842300  0.11010875  0.38055689  1.0
  O  O16  1  0.72014639  0.15428814  0.89865945  1.0
  O  O17  1  0.84571186  0.27985361  0.39865945  1.0
  O  O18  1  1.15428814  -0.27985361  0.60134055  1.0
  O  O19  1  1.27985361  -0.15428814  0.10134055  1.0
  O  O20  1  1.35015011  -0.12645195  0.82515260  1.0
  O  O21  1  1.12645195  -0.35015011  0.32515260  1.0
  O  O22  1  0.87354805  0.35015011  0.67484740  1.0
  O  O23  1  0.64984989  0.12645195  0.17484740  1.0
  O  O24  1  0.57260979  0.40672143  0.69781044  1.0
  O  O25  1  0.59327857  0.42739021  0.19781044  1.0
  O  O26  1  1.40672143  -0.42739021  0.80218956  1.0
  O  O27  1  1.42739021  -0.40672143  0.30218956  1.0
  O  O28  1  0.34267894  0.20971609  0.89133098  1.0
  O  O29  1  0.79028391  0.65732106  0.39133098  1.0
  O  O30  1  1.20971609  -0.65732106  0.60866902  1.0
  O  O31  1  1.65732106  -0.20971609  0.10866902  1.0
