# generated using pymatgen
data_Lu(BRu)4
_symmetry_space_group_name_H-M   'P 1'
_cell_length_a   9.15662765
_cell_length_b   9.15662765
_cell_length_c   9.15662765
_cell_angle_alpha   132.02498559
_cell_angle_beta   132.02498559
_cell_angle_gamma   70.18956773
_symmetry_Int_Tables_number   1
_chemical_formula_structural   Lu(BRu)4
_chemical_formula_sum   'Lu4 B16 Ru16'
_cell_volume   415.26786737
_cell_formula_units_Z   4
loop_
 _symmetry_equiv_pos_site_id
 _symmetry_equiv_pos_as_xyz
  1  'x, y, z'
loop_
 _atom_site_type_symbol
 _atom_site_label
 _atom_site_symmetry_multiplicity
 _atom_site_fract_x
 _atom_site_fract_y
 _atom_site_fract_z
 _atom_site_occupancy
  Lu  Lu0  1  0.75000000  0.75000000  -0.00000000  1.0
  Lu  Lu1  1  1.25000000  1.25000000  1.00000000  1.0
  Lu  Lu2  1  0.00000000  0.50000000  0.50000000  1.0
  Lu  Lu3  1  0.50000000  -0.00000000  0.50000000  1.0
  B  B4  1  0.72037985  0.41313426  0.97063183  1.0
  B  B5  1  0.22037985  0.24974802  0.30724559  1.0
  B  B6  1  1.66313426  1.47037985  1.47063183  1.0
  B  B7  1  1.16313426  1.69250243  1.19275441  1.0
  B  B8  1  1.02962015  0.83686574  0.52936817  1.0
  B  B9  1  1.52962015  1.00025198  1.19275441  1.0
  B  B10  1  1.08686574  1.77962015  1.02936817  1.0
  B  B11  1  1.58686574  1.55749757  1.30724559  1.0
  B  B12  1  0.94250243  0.91313426  1.69275441  1.0
  B  B13  1  0.44250243  0.74974802  1.02936817  1.0
  B  B14  1  1.49974802  0.97037985  0.80724559  1.0
  B  B15  1  0.99974802  1.19250243  0.52936817  1.0
  B  B16  1  0.80749757  1.33686574  0.80724559  1.0
  B  B17  1  1.30749757  1.50025198  1.47063183  1.0
  B  B18  1  1.25025198  1.27962015  0.69275441  1.0
  B  B19  1  1.75025198  1.05749757  0.97063183  1.0
  Ru  Ru20  1  1.03845549  1.57308490  1.23520548  1.0
  Ru  Ru21  1  1.53845549  1.30325002  1.46537059  1.0
  Ru  Ru22  1  1.82308490  1.78845549  1.73520548  1.0
  Ru  Ru23  1  1.32308490  1.58787942  1.03462941  1.0
  Ru  Ru24  1  0.71154451  0.67691510  1.26479452  1.0
  Ru  Ru25  1  0.21154451  0.94674998  1.03462941  1.0
  Ru  Ru26  1  0.92691510  1.46154451  0.76479452  1.0
  Ru  Ru27  1  1.42691510  1.66212058  1.46537059  1.0
  Ru  Ru28  1  0.83787942  1.07308490  0.53462941  1.0
  Ru  Ru29  1  1.33787942  0.80325002  0.76479452  1.0
  Ru  Ru30  1  1.55325002  1.28845549  0.96537059  1.0
  Ru  Ru31  1  1.05325002  1.08787942  0.26479452  1.0
  Ru  Ru32  1  0.91212058  0.17691510  0.96537059  1.0
  Ru  Ru33  1  0.41212058  0.44674998  0.73520548  1.0
  Ru  Ru34  1  1.19674998  0.96154451  0.53462941  1.0
  Ru  Ru35  1  1.69674998  1.16212058  1.23520548  1.0
