# generated using pymatgen
data_Ba(CdSb)2
_symmetry_space_group_name_H-M   'P 1'
_cell_length_a   4.86137279
_cell_length_b   4.86137279
_cell_length_c   8.14759133
_cell_angle_alpha   90.00000000
_cell_angle_beta   90.00000000
_cell_angle_gamma   120.00000000
_symmetry_Int_Tables_number   1
_chemical_formula_structural   Ba(CdSb)2
_chemical_formula_sum   'Ba1 Cd2 Sb2'
_cell_volume   166.75456064
_cell_formula_units_Z   1
loop_
 _symmetry_equiv_pos_site_id
 _symmetry_equiv_pos_as_xyz
  1  'x, y, z'
loop_
 _atom_site_type_symbol
 _atom_site_label
 _atom_site_symmetry_multiplicity
 _atom_site_fract_x
 _atom_site_fract_y
 _atom_site_fract_z
 _atom_site_occupancy
  Ba  Ba0  1  0.00000000  0.00000000  0.00000000  1.0
  Cd  Cd1  1  0.33333333  0.66666667  0.63288674  1.0
  Cd  Cd2  1  0.66666667  0.33333333  0.36711326  1.0
  Sb  Sb3  1  0.33333333  0.66666667  0.26298109  1.0
  Sb  Sb4  1  0.66666667  0.33333333  0.73701891  1.0
