# generated using pymatgen
data_CaFeO3
_symmetry_space_group_name_H-M   'P 1'
_cell_length_a   5.30659993
_cell_length_b   5.35457750
_cell_length_c   9.20275576
_cell_angle_alpha   90.00000000
_cell_angle_beta   125.21732334
_cell_angle_gamma   90.00000000
_symmetry_Int_Tables_number   1
_chemical_formula_structural   CaFeO3
_chemical_formula_sum   'Ca4 Fe4 O12'
_cell_volume   213.63178419
_cell_formula_units_Z   4
loop_
 _symmetry_equiv_pos_site_id
 _symmetry_equiv_pos_as_xyz
  1  'x, y, z'
loop_
 _atom_site_type_symbol
 _atom_site_label
 _atom_site_symmetry_multiplicity
 _atom_site_fract_x
 _atom_site_fract_y
 _atom_site_fract_z
 _atom_site_occupancy
  Ca  Ca0  1  0.24274490  0.46109870  0.25001699  1.0
  Ca  Ca1  1  0.24274490  0.03890130  0.75001699  1.0
  Ca  Ca2  1  0.75725510  0.96109870  0.24998301  1.0
  Ca  Ca3  1  0.75725510  0.53890130  0.74998301  1.0
  Fe  Fe4  1  0.50000000  0.00000000  0.50000000  1.0
  Fe  Fe5  1  0.50000000  0.50000000  -0.00000000  1.0
  Fe  Fe6  1  0.00000000  0.00000000  0.00000000  1.0
  Fe  Fe7  1  -0.00000000  0.50000000  0.50000000  1.0
  O  O8  1  0.31530438  0.01102152  0.25001038  1.0
  O  O9  1  0.31530438  0.48897848  0.75001038  1.0
  O  O10  1  0.68469562  0.51102152  0.24998962  1.0
  O  O11  1  0.68469562  0.98897848  0.74998962  1.0
  O  O12  1  0.82056464  0.71389794  0.03411650  1.0
  O  O13  1  0.82056464  0.78610206  0.53411650  1.0
  O  O14  1  0.17943536  0.21389794  0.46588350  1.0
  O  O15  1  0.17943536  0.28610206  0.96588350  1.0
  O  O16  1  0.74763411  0.21393649  0.03411246  1.0
  O  O17  1  0.74763411  0.28606351  0.53411246  1.0
  O  O18  1  0.25236589  0.71393649  0.46588754  1.0
  O  O19  1  0.25236589  0.78606351  0.96588754  1.0
