# generated using pymatgen
data_GdFe2SiC
_symmetry_space_group_name_H-M   'P 1'
_cell_length_a   5.54700077
_cell_length_b   5.54700077
_cell_length_c   6.78894377
_cell_angle_alpha   90.00000000
_cell_angle_beta   90.00000000
_cell_angle_gamma   140.15182271
_symmetry_Int_Tables_number   1
_chemical_formula_structural   GdFe2SiC
_chemical_formula_sum   'Gd2 Fe4 Si2 C2'
_cell_volume   133.84772591
_cell_formula_units_Z   2
loop_
 _symmetry_equiv_pos_site_id
 _symmetry_equiv_pos_as_xyz
  1  'x, y, z'
loop_
 _atom_site_type_symbol
 _atom_site_label
 _atom_site_symmetry_multiplicity
 _atom_site_fract_x
 _atom_site_fract_y
 _atom_site_fract_z
 _atom_site_occupancy
  Gd  Gd0  1  0.44913486  0.55086514  0.75000000  1.0
  Gd  Gd1  1  -0.44913486  0.44913486  0.25000000  1.0
  Fe  Fe2  1  0.16622384  0.83377616  0.93849544  1.0
  Fe  Fe3  1  0.16622384  0.83377616  0.56150456  1.0
  Fe  Fe4  1  -0.16622384  0.16622384  0.43849544  1.0
  Fe  Fe5  1  -0.16622384  0.16622384  0.06150456  1.0
  Si  Si6  1  -0.27103440  0.27103440  0.75000000  1.0
  Si  Si7  1  0.27103440  0.72896560  0.25000000  1.0
  C  C8  1  0.00000000  0.00000000  0.00000000  1.0
  C  C9  1  0.00000000  0.00000000  0.50000000  1.0
