# generated using pymatgen
data_Ba5Co5ClO13
_symmetry_space_group_name_H-M   'P 1'
_cell_length_a   5.70509724
_cell_length_b   5.70509724
_cell_length_c   24.57387766
_cell_angle_alpha   90.00000000
_cell_angle_beta   90.00000000
_cell_angle_gamma   120.00000000
_symmetry_Int_Tables_number   1
_chemical_formula_structural   Ba5Co5ClO13
_chemical_formula_sum   'Ba10 Co10 Cl2 O26'
_cell_volume   692.67645587
_cell_formula_units_Z   2
loop_
 _symmetry_equiv_pos_site_id
 _symmetry_equiv_pos_as_xyz
  1  'x, y, z'
loop_
 _atom_site_type_symbol
 _atom_site_label
 _atom_site_symmetry_multiplicity
 _atom_site_fract_x
 _atom_site_fract_y
 _atom_site_fract_z
 _atom_site_occupancy
  Cl  Cl0  1  0.33333333  0.66666667  0.75000000  1.0
  Cl  Cl1  1  0.66666667  0.33333333  0.25000000  1.0
  Ba  Ba2  1  0.33333333  0.66666667  0.46094480  1.0
  Ba  Ba3  1  0.33333333  0.66666667  0.03905520  1.0
  Ba  Ba4  1  0.66666667  0.33333333  0.96094480  1.0
  Ba  Ba5  1  0.66666667  0.33333333  0.53905520  1.0
  Ba  Ba6  1  0.33333333  0.66666667  0.87198442  1.0
  Ba  Ba7  1  0.33333333  0.66666667  0.62801558  1.0
  Ba  Ba8  1  0.66666667  0.33333333  0.37198442  1.0
  Ba  Ba9  1  0.66666667  0.33333333  0.12801558  1.0
  Ba  Ba10  1  -0.00000000  -0.00000000  0.25000000  1.0
  Ba  Ba11  1  0.00000000  0.00000000  0.75000000  1.0
  Co  Co12  1  0.33333333  0.66666667  0.32463501  1.0
  Co  Co13  1  0.33333333  0.66666667  0.17536499  1.0
  Co  Co14  1  0.66666667  0.33333333  0.82463501  1.0
  Co  Co15  1  0.66666667  0.33333333  0.67536499  1.0
  Co  Co16  1  -0.00000000  -0.00000000  0.39703941  1.0
  Co  Co17  1  -0.00000000  -0.00000000  0.10296059  1.0
  Co  Co18  1  0.00000000  0.00000000  0.89703941  1.0
  Co  Co19  1  0.00000000  0.00000000  0.60296059  1.0
  Co  Co20  1  0.00000000  0.00000000  0.50000000  1.0
  Co  Co21  1  0.00000000  0.00000000  -0.00000000  1.0
  O  O22  1  0.14573442  0.85426558  0.94950085  1.0
  O  O23  1  0.14573442  0.85426558  0.55049915  1.0
  O  O24  1  0.14573442  0.29146885  0.94950085  1.0
  O  O25  1  0.14573442  0.29146885  0.55049915  1.0
  O  O26  1  0.85426558  0.14573442  0.44950085  1.0
  O  O27  1  0.85426558  0.14573442  0.05049915  1.0
  O  O28  1  0.85426558  0.70853115  0.44950085  1.0
  O  O29  1  0.85426558  0.70853115  0.05049915  1.0
  O  O30  1  0.70853115  0.85426558  0.94950085  1.0
  O  O31  1  0.70853115  0.85426558  0.55049915  1.0
  O  O32  1  0.29146885  0.14573442  0.44950085  1.0
  O  O33  1  0.29146885  0.14573442  0.05049915  1.0
  O  O34  1  0.33333333  0.66666667  0.25000000  1.0
  O  O35  1  0.66666667  0.33333333  0.75000000  1.0
  O  O36  1  0.15957792  0.84042208  0.35148924  1.0
  O  O37  1  0.15957792  0.84042208  0.14851076  1.0
  O  O38  1  0.15957792  0.31915585  0.35148924  1.0
  O  O39  1  0.15957792  0.31915585  0.14851076  1.0
  O  O40  1  0.84042208  0.15957792  0.85148924  1.0
  O  O41  1  0.84042208  0.15957792  0.64851076  1.0
  O  O42  1  0.84042208  0.68084415  0.85148924  1.0
  O  O43  1  0.84042208  0.68084415  0.64851076  1.0
  O  O44  1  0.68084415  0.84042208  0.35148924  1.0
  O  O45  1  0.68084415  0.84042208  0.14851076  1.0
  O  O46  1  0.31915585  0.15957792  0.85148924  1.0
  O  O47  1  0.31915585  0.15957792  0.64851076  1.0
