# generated using pymatgen
data_YGaPt
_symmetry_space_group_name_H-M   'P 1'
_cell_length_a   6.92640007
_cell_length_b   4.44546758
_cell_length_c   7.69314254
_cell_angle_alpha   90.00000000
_cell_angle_beta   90.00000000
_cell_angle_gamma   90.00000000
_symmetry_Int_Tables_number   1
_chemical_formula_structural   YGaPt
_chemical_formula_sum   'Y4 Ga4 Pt4'
_cell_volume   236.88022105
_cell_formula_units_Z   4
loop_
 _symmetry_equiv_pos_site_id
 _symmetry_equiv_pos_as_xyz
  1  'x, y, z'
loop_
 _atom_site_type_symbol
 _atom_site_label
 _atom_site_symmetry_multiplicity
 _atom_site_fract_x
 _atom_site_fract_y
 _atom_site_fract_z
 _atom_site_occupancy
  Y  Y0  1  1.01346921  0.75000000  0.69948622  1.0
  Y  Y1  1  0.51346921  0.75000000  0.80051378  1.0
  Y  Y2  1  -0.01346921  0.25000000  0.30051378  1.0
  Y  Y3  1  0.48653079  0.25000000  0.19948622  1.0
  Ga  Ga4  1  0.67460909  0.75000000  0.42331536  1.0
  Ga  Ga5  1  0.17460909  0.75000000  0.07668464  1.0
  Ga  Ga6  1  0.32539091  0.25000000  0.57668464  1.0
  Ga  Ga7  1  0.82539091  0.25000000  0.92331536  1.0
  Pt  Pt8  1  0.77779184  0.75000000  0.09635859  1.0
  Pt  Pt9  1  0.27779184  0.75000000  0.40364141  1.0
  Pt  Pt10  1  0.22220816  0.25000000  0.90364141  1.0
  Pt  Pt11  1  0.72220816  0.25000000  0.59635859  1.0
