# generated using pymatgen
data_Zn2Te3O8
_symmetry_space_group_name_H-M   'P 1'
_cell_length_a   6.92331150
_cell_length_b   6.92331150
_cell_length_c   11.96851279
_cell_angle_alpha   81.37392257
_cell_angle_beta   98.62607743
_cell_angle_gamma   134.59919373
_symmetry_Int_Tables_number   1
_chemical_formula_structural   Zn2Te3O8
_chemical_formula_sum   'Zn4 Te6 O16'
_cell_volume   403.04446720
_cell_formula_units_Z   2
loop_
 _symmetry_equiv_pos_site_id
 _symmetry_equiv_pos_as_xyz
  1  'x, y, z'
loop_
 _atom_site_type_symbol
 _atom_site_label
 _atom_site_symmetry_multiplicity
 _atom_site_fract_x
 _atom_site_fract_y
 _atom_site_fract_z
 _atom_site_occupancy
  Zn  Zn0  1  0.44078303  -0.01981137  0.84206655  1.0
  Zn  Zn1  1  1.01981137  0.55921697  0.34206655  1.0
  Zn  Zn2  1  0.98018863  0.44078303  0.65793345  1.0
  Zn  Zn3  1  0.55921697  0.01981137  0.15793345  1.0
  Te  Te4  1  0.66495836  -0.06333839  0.44915220  1.0
  Te  Te5  1  1.06333839  0.33504164  0.94915220  1.0
  Te  Te6  1  0.93666161  0.66495836  0.05084780  1.0
  Te  Te7  1  0.33504164  0.06333839  0.55084780  1.0
  Te  Te8  1  0.85340573  0.85340573  0.75000000  1.0
  Te  Te9  1  0.14659427  0.14659427  0.25000000  1.0
  O  O10  1  0.76635288  -0.00632817  0.86249325  1.0
  O  O11  1  1.00632817  0.23364712  0.36249325  1.0
  O  O12  1  0.99367183  0.76635288  0.63750675  1.0
  O  O13  1  0.23364712  0.00632817  0.13750675  1.0
  O  O14  1  0.71325386  0.25343321  0.46256213  1.0
  O  O15  1  0.74656679  0.28674614  0.96256213  1.0
  O  O16  1  0.25343321  -0.28674614  0.03743787  1.0
  O  O17  1  0.28674614  -0.25343321  0.53743787  1.0
  O  O18  1  0.57761898  0.19202783  0.68968894  1.0
  O  O19  1  0.80797217  0.42238102  0.18968894  1.0
  O  O20  1  1.19202783  0.57761898  0.81031106  1.0
  O  O21  1  0.42238102  -0.19202783  0.31031106  1.0
  O  O22  1  0.15769686  -0.01323245  0.86081156  1.0
  O  O23  1  1.01323245  0.84230314  0.36081156  1.0
  O  O24  1  0.98676755  0.15769686  0.63918844  1.0
  O  O25  1  0.84230314  0.01323245  0.13918844  1.0
