# generated using pymatgen
data_Nb4CoTe4
_symmetry_space_group_name_H-M   'P 1'
_cell_length_a   10.93743933
_cell_length_b   18.93559061
_cell_length_c   4.83564130
_cell_angle_alpha   90.00000000
_cell_angle_beta   90.00000000
_cell_angle_gamma   90.00000000
_symmetry_Int_Tables_number   1
_chemical_formula_structural   Nb4CoTe4
_chemical_formula_sum   'Nb16 Co4 Te16'
_cell_volume   1001.49455057
_cell_formula_units_Z   4
loop_
 _symmetry_equiv_pos_site_id
 _symmetry_equiv_pos_as_xyz
  1  'x, y, z'
loop_
 _atom_site_type_symbol
 _atom_site_label
 _atom_site_symmetry_multiplicity
 _atom_site_fract_x
 _atom_site_fract_y
 _atom_site_fract_z
 _atom_site_occupancy
  Nb  Nb0  1  0.43636902  0.61674682  0.50000000  1.0
  Nb  Nb1  1  0.93636902  0.88325318  0.50000000  1.0
  Nb  Nb2  1  0.56363098  0.38325318  0.50000000  1.0
  Nb  Nb3  1  0.06363098  0.11674682  0.50000000  1.0
  Nb  Nb4  1  0.20322705  0.96347843  0.50000000  1.0
  Nb  Nb5  1  0.70322705  0.53652157  0.50000000  1.0
  Nb  Nb6  1  0.79677295  0.03652157  0.50000000  1.0
  Nb  Nb7  1  0.29677295  0.46347843  0.50000000  1.0
  Nb  Nb8  1  0.31134623  0.55695012  0.00000000  1.0
  Nb  Nb9  1  0.81134623  0.94304988  0.00000000  1.0
  Nb  Nb10  1  0.68865377  0.44304988  0.00000000  1.0
  Nb  Nb11  1  0.18865377  0.05695012  0.00000000  1.0
  Nb  Nb12  1  0.09862572  0.89166265  0.00000000  1.0
  Nb  Nb13  1  0.59862572  0.60833735  0.00000000  1.0
  Nb  Nb14  1  0.90137428  0.10833735  0.00000000  1.0
  Nb  Nb15  1  0.40137428  0.39166265  0.00000000  1.0
  Co  Co16  1  0.50000000  0.50000000  0.74998906  1.0
  Co  Co17  1  0.50000000  0.50000000  0.25001094  1.0
  Co  Co18  1  0.00000000  0.00000000  0.74998906  1.0
  Co  Co19  1  0.00000000  0.00000000  0.25001094  1.0
  Te  Te20  1  0.16812482  0.81417591  0.50000000  1.0
  Te  Te21  1  0.66812482  0.68582409  0.50000000  1.0
  Te  Te22  1  0.83187518  0.18582409  0.50000000  1.0
  Te  Te23  1  0.33187518  0.31417591  0.50000000  1.0
  Te  Te24  1  0.17685655  0.59776692  0.50000000  1.0
  Te  Te25  1  0.67685655  0.90223308  0.50000000  1.0
  Te  Te26  1  0.82314345  0.40223308  0.50000000  1.0
  Te  Te27  1  0.32314345  0.09776692  0.50000000  1.0
  Te  Te28  1  0.39174854  0.70032384  0.00000000  1.0
  Te  Te29  1  0.89174854  0.79967616  0.00000000  1.0
  Te  Te30  1  0.60825146  0.29967616  0.00000000  1.0
  Te  Te31  1  0.10825146  0.20032384  0.00000000  1.0
  Te  Te32  1  0.34798282  0.93705424  0.00000000  1.0
  Te  Te33  1  0.84798282  0.56294576  0.00000000  1.0
  Te  Te34  1  0.65201718  0.06294576  0.00000000  1.0
  Te  Te35  1  0.15201718  0.43705424  0.00000000  1.0
