# generated using pymatgen
data_Tm3Si2(SnRh3)3
_symmetry_space_group_name_H-M   'P 1'
_cell_length_a   9.81891484
_cell_length_b   9.81891484
_cell_length_c   3.48173823
_cell_angle_alpha   90.00000000
_cell_angle_beta   90.00000000
_cell_angle_gamma   120.00000000
_symmetry_Int_Tables_number   1
_chemical_formula_structural   Tm3Si2(SnRh3)3
_chemical_formula_sum   'Tm3 Si2 Sn3 Rh9'
_cell_volume   290.70582495
_cell_formula_units_Z   1
loop_
 _symmetry_equiv_pos_site_id
 _symmetry_equiv_pos_as_xyz
  1  'x, y, z'
loop_
 _atom_site_type_symbol
 _atom_site_label
 _atom_site_symmetry_multiplicity
 _atom_site_fract_x
 _atom_site_fract_y
 _atom_site_fract_z
 _atom_site_occupancy
  Tm  Tm0  1  0.59708220  0.59708220  0.50000000  1.0
  Tm  Tm1  1  0.00000000  0.40291780  0.50000000  1.0
  Tm  Tm2  1  0.40291780  0.00000000  0.50000000  1.0
  Si  Si3  1  0.33333333  0.66666667  0.50000000  1.0
  Si  Si4  1  0.66666667  0.33333333  0.50000000  1.0
  Sn  Sn5  1  0.23905364  0.23905364  0.50000000  1.0
  Sn  Sn6  1  0.00000000  0.76094636  0.50000000  1.0
  Sn  Sn7  1  0.76094636  0.00000000  0.50000000  1.0
  Rh  Rh8  1  0.83529281  0.83529281  -0.00000000  1.0
  Rh  Rh9  1  0.00000000  0.16470719  0.00000000  1.0
  Rh  Rh10  1  0.16470719  -0.00000000  0.00000000  1.0
  Rh  Rh11  1  0.18553197  0.70338530  -0.00000000  1.0
  Rh  Rh12  1  0.70338530  0.18553197  0.00000000  1.0
  Rh  Rh13  1  0.51785332  0.81446803  -0.00000000  1.0
  Rh  Rh14  1  0.29661470  0.48214668  0.00000000  1.0
  Rh  Rh15  1  0.81446803  0.51785332  0.00000000  1.0
  Rh  Rh16  1  0.48214668  0.29661470  0.00000000  1.0
