# generated using pymatgen
data_LiYMo3O8
_symmetry_space_group_name_H-M   'P 1'
_cell_length_a   5.81846527
_cell_length_b   5.81846527
_cell_length_c   5.21290345
_cell_angle_alpha   90.00000000
_cell_angle_beta   90.00000000
_cell_angle_gamma   120.00000000
_symmetry_Int_Tables_number   1
_chemical_formula_structural   LiYMo3O8
_chemical_formula_sum   'Li1 Y1 Mo3 O8'
_cell_volume   152.83654283
_cell_formula_units_Z   1
loop_
 _symmetry_equiv_pos_site_id
 _symmetry_equiv_pos_as_xyz
  1  'x, y, z'
loop_
 _atom_site_type_symbol
 _atom_site_label
 _atom_site_symmetry_multiplicity
 _atom_site_fract_x
 _atom_site_fract_y
 _atom_site_fract_z
 _atom_site_occupancy
  Li  Li0  1  0.00000000  0.00000000  -0.01817139  1.0
  Y  Y1  1  0.33333333  0.66666667  0.01348252  1.0
  Mo  Mo2  1  0.37397984  0.18698992  0.53974747  1.0
  Mo  Mo3  1  0.81301008  0.18698992  0.53974747  1.0
  Mo  Mo4  1  0.81301008  0.62602016  0.53974747  1.0
  O  O5  1  0.68812711  0.84406356  0.75602092  1.0
  O  O6  1  0.15593644  0.84406356  0.75602092  1.0
  O  O7  1  0.15593644  0.31187289  0.75602092  1.0
  O  O8  1  -0.00567048  0.49716476  0.31027731  1.0
  O  O9  1  0.50283524  0.49716476  0.31027731  1.0
  O  O10  1  0.50283524  0.00567048  0.31027731  1.0
  O  O11  1  0.66666667  0.33333333  0.81312491  1.0
  O  O12  1  0.00000000  0.00000000  0.34342685  1.0
