# generated using pymatgen
data_Pb3(ClO)2
_symmetry_space_group_name_H-M   'P 1'
_cell_length_a   12.01809235
_cell_length_b   5.96009144
_cell_length_c   10.03866570
_cell_angle_alpha   90.00000000
_cell_angle_beta   90.00000000
_cell_angle_gamma   90.00000000
_symmetry_Int_Tables_number   1
_chemical_formula_structural   Pb3(ClO)2
_chemical_formula_sum   'Pb12 Cl8 O8'
_cell_volume   719.05887592
_cell_formula_units_Z   4
loop_
 _symmetry_equiv_pos_site_id
 _symmetry_equiv_pos_as_xyz
  1  'x, y, z'
loop_
 _atom_site_type_symbol
 _atom_site_label
 _atom_site_symmetry_multiplicity
 _atom_site_fract_x
 _atom_site_fract_y
 _atom_site_fract_z
 _atom_site_occupancy
  Pb  Pb0  1  0.44603804  0.75000000  0.70902203  1.0
  Pb  Pb1  1  0.94603804  0.75000000  0.79097797  1.0
  Pb  Pb2  1  0.55396196  0.25000000  0.29097797  1.0
  Pb  Pb3  1  0.05396196  0.25000000  0.20902203  1.0
  Pb  Pb4  1  0.41529268  0.75000000  0.07175539  1.0
  Pb  Pb5  1  0.91529268  0.75000000  0.42824461  1.0
  Pb  Pb6  1  0.58470732  0.25000000  0.92824461  1.0
  Pb  Pb7  1  0.08470732  0.25000000  0.57175539  1.0
  Pb  Pb8  1  0.21131226  0.75000000  0.35336014  1.0
  Pb  Pb9  1  0.71131226  0.75000000  0.14663986  1.0
  Pb  Pb10  1  0.78868774  0.25000000  0.64663986  1.0
  Pb  Pb11  1  0.28868774  0.25000000  0.85336014  1.0
  Cl  Cl12  1  0.19774831  0.75000000  0.68703142  1.0
  Cl  Cl13  1  0.69774831  0.75000000  0.81296858  1.0
  Cl  Cl14  1  0.80225169  0.25000000  0.31296858  1.0
  Cl  Cl15  1  0.30225169  0.25000000  0.18703142  1.0
  Cl  Cl16  1  0.12506500  0.75000000  0.08919022  1.0
  Cl  Cl17  1  0.62506500  0.75000000  0.41080978  1.0
  Cl  Cl18  1  0.87493500  0.25000000  0.91080978  1.0
  Cl  Cl19  1  0.37493500  0.25000000  0.58919022  1.0
  O  O20  1  0.42514890  0.99546194  0.88468889  1.0
  O  O21  1  0.42514890  0.50453806  0.88468889  1.0
  O  O22  1  0.92514890  0.99546194  0.61531111  1.0
  O  O23  1  0.92514890  0.50453806  0.61531111  1.0
  O  O24  1  0.57485110  0.49546194  0.11531111  1.0
  O  O25  1  0.57485110  0.00453806  0.11531111  1.0
  O  O26  1  0.07485110  0.49546194  0.38468889  1.0
  O  O27  1  0.07485110  0.00453806  0.38468889  1.0
