# generated using pymatgen
data_Cs3YSi4(O5F)2
_symmetry_space_group_name_H-M   'P 1'
_cell_length_a   7.17340956
_cell_length_b   16.44013946
_cell_length_c   7.24411746
_cell_angle_alpha   95.98395268
_cell_angle_beta   119.65212839
_cell_angle_gamma   89.87985687
_symmetry_Int_Tables_number   1
_chemical_formula_structural   Cs3YSi4(O5F)2
_chemical_formula_sum   'Cs6 Y2 Si8 O20 F4'
_cell_volume   737.17954308
_cell_formula_units_Z   2
loop_
 _symmetry_equiv_pos_site_id
 _symmetry_equiv_pos_as_xyz
  1  'x, y, z'
loop_
 _atom_site_type_symbol
 _atom_site_label
 _atom_site_symmetry_multiplicity
 _atom_site_fract_x
 _atom_site_fract_y
 _atom_site_fract_z
 _atom_site_occupancy
  Cs  Cs0  1  -0.15881841  0.04996885  0.68397845  1.0
  Cs  Cs1  1  0.15881841  0.95003115  0.31602155  1.0
  Cs  Cs2  1  0.14107894  0.68006661  0.26881433  1.0
  Cs  Cs3  1  -0.14107894  0.31993339  0.73118567  1.0
  Cs  Cs4  1  -0.17656799  0.57926931  0.63661883  1.0
  Cs  Cs5  1  0.17656799  0.42073069  0.36338117  1.0
  Y  Y6  1  -0.50000000  0.00000000  -0.00000000  1.0
  Y  Y7  1  -0.50000000  0.50000000  0.00000000  1.0
  Si  Si8  1  -0.45414838  0.28373539  0.09273088  1.0
  Si  Si9  1  0.45414838  0.71626461  0.90726912  1.0
  Si  Si10  1  -0.08099372  0.16605656  0.29263401  1.0
  Si  Si11  1  0.08099372  0.83394344  0.70736599  1.0
  Si  Si12  1  0.37151192  0.16891124  0.66277318  1.0
  Si  Si13  1  -0.37151192  0.83108876  0.33722682  1.0
  Si  Si14  1  -0.70990980  0.17225165  0.21174139  1.0
  Si  Si15  1  0.70990980  0.82774835  0.78825861  1.0
  O  O16  1  0.03673298  0.18519071  0.15233200  1.0
  O  O17  1  -0.03673298  0.81480929  0.84766800  1.0
  O  O18  1  -0.65695741  0.25300871  0.12286012  1.0
  O  O19  1  0.65695741  0.74699129  0.87713988  1.0
  O  O20  1  0.10851744  0.18119305  0.55041071  1.0
  O  O21  1  -0.10851744  0.81880695  0.44958929  1.0
  O  O22  1  0.49657149  0.24653814  0.85085912  1.0
  O  O23  1  -0.49657149  0.75346186  0.14914088  1.0
  O  O24  1  -0.19375001  0.07636295  0.22930503  1.0
  O  O25  1  0.19375001  0.92363705  0.77069497  1.0
  O  O26  1  -0.41611737  0.38059636  0.13519599  1.0
  O  O27  1  0.41611737  0.61940364  0.86480401  1.0
  O  O28  1  0.43768039  0.18596110  0.47819208  1.0
  O  O29  1  -0.43768039  0.81403890  0.52180792  1.0
  O  O30  1  -0.68442803  0.08525848  0.10980641  1.0
  O  O31  1  0.68442803  0.91474152  0.89019359  1.0
  O  O32  1  0.43606242  0.08068104  0.74004769  1.0
  O  O33  1  -0.43606242  0.91931896  0.25995231  1.0
  O  O34  1  -0.23909603  0.24148047  0.27169477  1.0
  O  O35  1  0.23909603  0.75851953  0.72830523  1.0
  F  F36  1  -0.16477429  0.54739619  0.23074518  1.0
  F  F37  1  0.16477429  0.45260381  0.76925482  1.0
  F  F38  1  -0.60019563  0.54130852  0.23813633  1.0
  F  F39  1  0.60019563  0.45869148  0.76186367  1.0
