# generated using pymatgen
data_Ba2NiOsO6
_symmetry_space_group_name_H-M   'P 1'
_cell_length_a   5.77961386
_cell_length_b   5.77961386
_cell_length_c   14.17855131
_cell_angle_alpha   90.00000000
_cell_angle_beta   90.00000000
_cell_angle_gamma   120.00000000
_symmetry_Int_Tables_number   1
_chemical_formula_structural   Ba2NiOsO6
_chemical_formula_sum   'Ba6 Ni3 Os3 O18'
_cell_volume   410.16645483
_cell_formula_units_Z   3
loop_
 _symmetry_equiv_pos_site_id
 _symmetry_equiv_pos_as_xyz
  1  'x, y, z'
loop_
 _atom_site_type_symbol
 _atom_site_label
 _atom_site_symmetry_multiplicity
 _atom_site_fract_x
 _atom_site_fract_y
 _atom_site_fract_z
 _atom_site_occupancy
  Ba  Ba0  1  0.33333333  0.66666667  0.59452834  1.0
  Ba  Ba1  1  0.66666667  0.33333333  0.40547166  1.0
  Ba  Ba2  1  0.33333333  0.66666667  0.91129601  1.0
  Ba  Ba3  1  0.66666667  0.33333333  0.08870399  1.0
  Ba  Ba4  1  0.00000000  0.00000000  0.24938820  1.0
  Ba  Ba5  1  0.00000000  0.00000000  0.75061180  1.0
  Ni  Ni6  1  0.33333333  0.66666667  0.34570073  1.0
  Ni  Ni7  1  0.66666667  0.33333333  0.65429927  1.0
  Ni  Ni8  1  0.00000000  0.00000000  0.00000000  1.0
  Os  Os9  1  0.33333333  0.66666667  0.15857826  1.0
  Os  Os10  1  0.66666667  0.33333333  0.84142174  1.0
  Os  Os11  1  0.00000000  0.00000000  0.50000000  1.0
  O  O12  1  0.65799258  0.82899629  0.08324701  1.0
  O  O13  1  0.82899629  0.65799258  0.91675299  1.0
  O  O14  1  0.82899629  0.17100371  0.91675299  1.0
  O  O15  1  0.17100371  0.82899629  0.08324701  1.0
  O  O16  1  0.17100371  0.34200742  0.08324701  1.0
  O  O17  1  0.34200742  0.17100371  0.91675299  1.0
  O  O18  1  0.68176083  0.84088042  0.42185851  1.0
  O  O19  1  0.84088042  0.68176083  0.57814149  1.0
  O  O20  1  0.84088042  0.15911958  0.57814149  1.0
  O  O21  1  0.15911958  0.84088042  0.42185851  1.0
  O  O22  1  0.15911958  0.31823917  0.42185851  1.0
  O  O23  1  0.31823917  0.15911958  0.57814149  1.0
  O  O24  1  1.02817614  0.51408807  0.24605773  1.0
  O  O25  1  0.51408807  1.02817614  0.75394227  1.0
  O  O26  1  0.51408807  0.48591193  0.75394227  1.0
  O  O27  1  0.48591193  0.51408807  0.24605773  1.0
  O  O28  1  0.48591193  -0.02817614  0.24605773  1.0
  O  O29  1  -0.02817614  0.48591193  0.75394227  1.0
