# generated using pymatgen
data_KHfCuS3
_symmetry_space_group_name_H-M   'P 1'
_cell_length_a   7.41250180
_cell_length_b   7.41250180
_cell_length_c   9.77443081
_cell_angle_alpha   90.00000000
_cell_angle_beta   90.00000000
_cell_angle_gamma   150.78942401
_symmetry_Int_Tables_number   1
_chemical_formula_structural   KHfCuS3
_chemical_formula_sum   'K2 Hf2 Cu2 S6'
_cell_volume   262.09540973
_cell_formula_units_Z   2
loop_
 _symmetry_equiv_pos_site_id
 _symmetry_equiv_pos_as_xyz
  1  'x, y, z'
loop_
 _atom_site_type_symbol
 _atom_site_label
 _atom_site_symmetry_multiplicity
 _atom_site_fract_x
 _atom_site_fract_y
 _atom_site_fract_z
 _atom_site_occupancy
  K  K0  1  -0.25479722  0.25479722  0.75000000  1.0
  K  K1  1  0.25479722  0.74520278  0.25000000  1.0
  Hf  Hf2  1  0.00000000  0.00000000  0.00000000  1.0
  Hf  Hf3  1  0.00000000  0.00000000  0.50000000  1.0
  Cu  Cu4  1  0.46600160  0.53399840  0.75000000  1.0
  Cu  Cu5  1  -0.46600160  0.46600160  0.25000000  1.0
  S  S6  1  0.38095904  0.61904096  0.94842162  1.0
  S  S7  1  0.38095904  0.61904096  0.55157838  1.0
  S  S8  1  -0.38095904  0.38095904  0.44842162  1.0
  S  S9  1  -0.38095904  0.38095904  0.05157838  1.0
  S  S10  1  0.06334401  0.93665599  0.75000000  1.0
  S  S11  1  -0.06334401  0.06334401  0.25000000  1.0
