# generated using pymatgen
data_La(ClO)3
_symmetry_space_group_name_H-M   'P 1'
_cell_length_a   7.53174013
_cell_length_b   7.53174013
_cell_length_c   4.02483964
_cell_angle_alpha   90.00000000
_cell_angle_beta   90.00000000
_cell_angle_gamma   120.00000000
_symmetry_Int_Tables_number   1
_chemical_formula_structural   La(ClO)3
_chemical_formula_sum   'La1 Cl3 O3'
_cell_volume   197.72877116
_cell_formula_units_Z   1
loop_
 _symmetry_equiv_pos_site_id
 _symmetry_equiv_pos_as_xyz
  1  'x, y, z'
loop_
 _atom_site_type_symbol
 _atom_site_label
 _atom_site_symmetry_multiplicity
 _atom_site_fract_x
 _atom_site_fract_y
 _atom_site_fract_z
 _atom_site_occupancy
  La  La0  1  0.00000000  0.00000000  0.00000000  1.0
  Cl  Cl1  1  0.71855846  0.71855846  0.50000000  1.0
  Cl  Cl2  1  -0.00000000  0.28144154  0.50000000  1.0
  Cl  Cl3  1  0.28144154  0.00000000  0.50000000  1.0
  O  O4  1  0.32932010  0.32932010  0.00000000  1.0
  O  O5  1  0.00000000  0.67067990  0.00000000  1.0
  O  O6  1  0.67067990  0.00000000  0.00000000  1.0
