# generated using pymatgen
data_H3N
_symmetry_space_group_name_H-M   'P 1'
_cell_length_a   5.16978375
_cell_length_b   5.16978375
_cell_length_c   5.16978375
_cell_angle_alpha   90.00000000
_cell_angle_beta   90.00000000
_cell_angle_gamma   90.00000000
_symmetry_Int_Tables_number   1
_chemical_formula_structural   H3N
_chemical_formula_sum   'H12 N4'
_cell_volume   138.17107311
_cell_formula_units_Z   4
loop_
 _symmetry_equiv_pos_site_id
 _symmetry_equiv_pos_as_xyz
  1  'x, y, z'
loop_
 _atom_site_type_symbol
 _atom_site_label
 _atom_site_symmetry_multiplicity
 _atom_site_fract_x
 _atom_site_fract_y
 _atom_site_fract_z
 _atom_site_occupancy
  H  H0  1  0.47948919  0.60118746  0.84630224  1.0
  H  H1  1  0.97948919  0.89881254  0.15369776  1.0
  H  H2  1  0.10118746  0.65369776  0.52051081  1.0
  H  H3  1  0.60118746  0.84630224  0.47948919  1.0
  H  H4  1  0.15369776  0.97948919  0.89881254  1.0
  H  H5  1  0.65369776  0.52051081  0.10118746  1.0
  H  H6  1  0.52051081  0.10118746  0.65369776  1.0
  H  H7  1  0.02051081  0.39881254  0.34630224  1.0
  H  H8  1  0.89881254  0.15369776  0.97948919  1.0
  H  H9  1  0.39881254  0.34630224  0.02051081  1.0
  H  H10  1  0.84630224  0.47948919  0.60118746  1.0
  H  H11  1  0.34630224  0.02051081  0.39881254  1.0
  N  N12  1  0.44669932  0.94669932  0.55330068  1.0
  N  N13  1  0.94669932  0.55330068  0.44669932  1.0
  N  N14  1  0.55330068  0.44669932  0.94669932  1.0
  N  N15  1  0.05330068  0.05330068  0.05330068  1.0
