# generated using pymatgen
data_Na6Bi
_symmetry_space_group_name_H-M   'P 1'
_cell_length_a   7.23525963
_cell_length_b   7.23525963
_cell_length_c   7.23525963
_cell_angle_alpha   54.39403010
_cell_angle_beta   54.39403010
_cell_angle_gamma   54.39403010
_symmetry_Int_Tables_number   1
_chemical_formula_structural   Na6Bi
_chemical_formula_sum   'Na6 Bi1'
_cell_volume   232.80543211
_cell_formula_units_Z   1
loop_
 _symmetry_equiv_pos_site_id
 _symmetry_equiv_pos_as_xyz
  1  'x, y, z'
loop_
 _atom_site_type_symbol
 _atom_site_label
 _atom_site_symmetry_multiplicity
 _atom_site_fract_x
 _atom_site_fract_y
 _atom_site_fract_z
 _atom_site_occupancy
  Na  Na0  1  0.91062327  0.41311713  -0.58688287  1.0
  Na  Na1  1  0.41311713  0.41311713  -0.08937673  1.0
  Na  Na2  1  0.41311713  0.91062327  -0.58688287  1.0
  Na  Na3  1  1.08937673  -0.41311713  -0.41311713  1.0
  Na  Na4  1  0.58688287  -0.41311713  0.08937673  1.0
  Na  Na5  1  0.58688287  0.08937673  -0.41311713  1.0
  Bi  Bi6  1  0.00000000  0.00000000  0.00000000  1.0
