# generated using pymatgen
data_Bi2Pd5
_symmetry_space_group_name_H-M   'P 1'
_cell_length_a   7.76590302
_cell_length_b   7.76590302
_cell_length_c   6.86288346
_cell_angle_alpha   65.00071042
_cell_angle_beta   114.99928958
_cell_angle_gamma   135.41085996
_symmetry_Int_Tables_number   1
_chemical_formula_structural   Bi2Pd5
_chemical_formula_sum   'Bi4 Pd10'
_cell_volume   258.48237856
_cell_formula_units_Z   2
loop_
 _symmetry_equiv_pos_site_id
 _symmetry_equiv_pos_as_xyz
  1  'x, y, z'
loop_
 _atom_site_type_symbol
 _atom_site_label
 _atom_site_symmetry_multiplicity
 _atom_site_fract_x
 _atom_site_fract_y
 _atom_site_fract_z
 _atom_site_occupancy
  Bi  Bi0  1  0.90126691  -0.90126691  0.59398653  1.0
  Bi  Bi1  1  1.09873309  -0.09873309  0.40601347  1.0
  Bi  Bi2  1  0.62990398  -0.62990398  0.85446647  1.0
  Bi  Bi3  1  1.37009602  -0.37009602  0.14553353  1.0
  Pd  Pd4  1  0.86575981  -0.86575981  0.13781516  1.0
  Pd  Pd5  1  1.13424019  -0.13424019  0.86218484  1.0
  Pd  Pd6  1  1.52189689  -0.02562079  0.73418739  1.0
  Pd  Pd7  1  1.02562079  -0.52189689  0.73418739  1.0
  Pd  Pd8  1  0.97437921  -0.47810311  0.26581261  1.0
  Pd  Pd9  1  1.47810311  0.02562079  0.26581261  1.0
  Pd  Pd10  1  0.59610354  -0.59610354  0.41111277  1.0
  Pd  Pd11  1  1.40389646  -0.40389646  0.58888723  1.0
  Pd  Pd12  1  0.75154648  0.75154648  0.00000000  1.0
  Pd  Pd13  1  0.24845352  0.24845352  0.00000000  1.0
