# generated using pymatgen
data_CaTiSiO5
_symmetry_space_group_name_H-M   'P 1'
_cell_length_a   5.50356775
_cell_length_b   5.50356775
_cell_length_c   7.11978375
_cell_angle_alpha   75.68866259
_cell_angle_beta   104.31133741
_cell_angle_gamma   74.51498278
_symmetry_Int_Tables_number   1
_chemical_formula_structural   CaTiSiO5
_chemical_formula_sum   'Ca2 Ti2 Si2 O10'
_cell_volume   189.71140646
_cell_formula_units_Z   2
loop_
 _symmetry_equiv_pos_site_id
 _symmetry_equiv_pos_as_xyz
  1  'x, y, z'
loop_
 _atom_site_type_symbol
 _atom_site_label
 _atom_site_symmetry_multiplicity
 _atom_site_fract_x
 _atom_site_fract_y
 _atom_site_fract_z
 _atom_site_occupancy
  Ca  Ca0  1  0.67240730  -0.32759270  0.25000000  1.0
  Ca  Ca1  1  1.32759270  0.32759270  0.75000000  1.0
  Ti  Ti2  1  -0.00000000  0.00000000  0.50000000  1.0
  Ti  Ti3  1  0.00000000  0.00000000  0.00000000  1.0
  Si  Si4  1  1.32005834  0.32005834  0.25000000  1.0
  Si  Si5  1  0.67994166  -0.32005834  0.75000000  1.0
  O  O6  1  1.62388030  0.25098605  0.40736131  1.0
  O  O7  1  0.74901395  -0.62388030  0.90736131  1.0
  O  O8  1  1.25098605  0.62388030  0.09263869  1.0
  O  O9  1  0.37611970  -0.25098605  0.59263869  1.0
  O  O10  1  1.31233724  0.11507264  0.11503560  1.0
  O  O11  1  0.88492736  -0.31233724  0.61503560  1.0
  O  O12  1  1.11507264  0.31233724  0.38496440  1.0
  O  O13  1  0.68766276  -0.11507264  0.88496440  1.0
  O  O14  1  0.93151071  -0.06848929  0.25000000  1.0
  O  O15  1  1.06848929  0.06848929  0.75000000  1.0
