# generated using pymatgen
data_Al3Pt5
_symmetry_space_group_name_H-M   'P 1'
_cell_length_a   5.46461859
_cell_length_b   10.86487790
_cell_length_c   3.99887928
_cell_angle_alpha   90.00000000
_cell_angle_beta   90.00000000
_cell_angle_gamma   90.00000000
_symmetry_Int_Tables_number   1
_chemical_formula_structural   Al3Pt5
_chemical_formula_sum   'Al6 Pt10'
_cell_volume   237.42311528
_cell_formula_units_Z   2
loop_
 _symmetry_equiv_pos_site_id
 _symmetry_equiv_pos_as_xyz
  1  'x, y, z'
loop_
 _atom_site_type_symbol
 _atom_site_label
 _atom_site_symmetry_multiplicity
 _atom_site_fract_x
 _atom_site_fract_y
 _atom_site_fract_z
 _atom_site_occupancy
  Al  Al0  1  0.31757033  0.63988259  0.50000000  1.0
  Al  Al1  1  0.81757033  0.86011741  0.50000000  1.0
  Al  Al2  1  0.68242967  0.36011741  0.50000000  1.0
  Al  Al3  1  0.18242967  0.13988259  0.50000000  1.0
  Al  Al4  1  0.50000000  0.00000000  0.00000000  1.0
  Al  Al5  1  0.00000000  0.50000000  0.00000000  1.0
  Pt  Pt6  1  0.29278611  0.89268654  0.50000000  1.0
  Pt  Pt7  1  0.79278611  0.60731346  0.50000000  1.0
  Pt  Pt8  1  0.70721389  0.10731346  0.50000000  1.0
  Pt  Pt9  1  0.20721389  0.39268654  0.50000000  1.0
  Pt  Pt10  1  0.06938848  0.73174284  0.00000000  1.0
  Pt  Pt11  1  0.56938848  0.76825716  0.00000000  1.0
  Pt  Pt12  1  0.93061152  0.26825716  0.00000000  1.0
  Pt  Pt13  1  0.43061152  0.23174284  0.00000000  1.0
  Pt  Pt14  1  0.50000000  0.50000000  0.00000000  1.0
  Pt  Pt15  1  0.00000000  0.00000000  0.00000000  1.0
