# generated using pymatgen
data_Ca(YS2)2
_symmetry_space_group_name_H-M   'P 1'
_cell_length_a   6.75310500
_cell_length_b   6.75310500
_cell_length_c   13.25631138
_cell_angle_alpha   90.00000000
_cell_angle_beta   90.00000000
_cell_angle_gamma   146.38999041
_symmetry_Int_Tables_number   1
_chemical_formula_structural   Ca(YS2)2
_chemical_formula_sum   'Ca2 Y4 S8'
_cell_volume   334.63888005
_cell_formula_units_Z   2
loop_
 _symmetry_equiv_pos_site_id
 _symmetry_equiv_pos_as_xyz
  1  'x, y, z'
loop_
 _atom_site_type_symbol
 _atom_site_label
 _atom_site_symmetry_multiplicity
 _atom_site_fract_x
 _atom_site_fract_y
 _atom_site_fract_z
 _atom_site_occupancy
  Ca  Ca0  1  0.11243896  0.88756104  0.51406699  1.0
  Ca  Ca1  1  -0.11243896  0.11243896  0.01406699  1.0
  Y  Y2  1  0.37242099  0.62757901  0.68112355  1.0
  Y  Y3  1  -0.37242099  0.37242099  0.18112355  1.0
  Y  Y4  1  -0.35948594  0.35948594  0.82399909  1.0
  Y  Y5  1  0.35948594  0.64051406  0.32399909  1.0
  S  S6  1  0.01077770  0.98922230  0.74263947  1.0
  S  S7  1  -0.01077770  0.01077770  0.24263947  1.0
  S  S8  1  0.26583432  0.73416568  0.13532346  1.0
  S  S9  1  -0.26583432  0.26583432  0.63532346  1.0
  S  S10  1  0.27840741  0.72159259  0.87087556  1.0
  S  S11  1  -0.27840741  0.27840741  0.37087556  1.0
  S  S12  1  0.46118886  0.53881114  0.49927188  1.0
  S  S13  1  -0.46118886  0.46118886  -0.00072812  1.0
