# generated using pymatgen
data_TbMoO5
_symmetry_space_group_name_H-M   'P 1'
_cell_length_a   5.27922184
_cell_length_b   12.49977453
_cell_length_c   6.70069480
_cell_angle_alpha   90.00000000
_cell_angle_beta   116.03895897
_cell_angle_gamma   90.00000000
_symmetry_Int_Tables_number   1
_chemical_formula_structural   TbMoO5
_chemical_formula_sum   'Tb4 Mo4 O20'
_cell_volume   397.29030058
_cell_formula_units_Z   4
loop_
 _symmetry_equiv_pos_site_id
 _symmetry_equiv_pos_as_xyz
  1  'x, y, z'
loop_
 _atom_site_type_symbol
 _atom_site_label
 _atom_site_symmetry_multiplicity
 _atom_site_fract_x
 _atom_site_fract_y
 _atom_site_fract_z
 _atom_site_occupancy
  Tb  Tb0  1  0.63483777  0.04676900  0.30869378  1.0
  Tb  Tb1  1  0.63483777  0.45323100  0.80869378  1.0
  Tb  Tb2  1  0.36516223  0.54676900  0.19130622  1.0
  Tb  Tb3  1  0.36516223  0.95323100  0.69130622  1.0
  Mo  Mo4  1  0.88211994  0.35949544  0.35143277  1.0
  Mo  Mo5  1  0.88211994  0.14050456  0.85143277  1.0
  Mo  Mo6  1  0.11788006  0.85949544  0.14856723  1.0
  Mo  Mo7  1  0.11788006  0.64050456  0.64856723  1.0
  O  O8  1  0.98567138  0.92982243  0.33711424  1.0
  O  O9  1  0.98567138  0.57017757  0.83711424  1.0
  O  O10  1  0.01432862  0.42982243  0.16288576  1.0
  O  O11  1  0.01432862  0.07017757  0.66288576  1.0
  O  O12  1  0.80429945  0.22273291  0.30741324  1.0
  O  O13  1  0.80429945  0.27726709  0.80741324  1.0
  O  O14  1  0.19570055  0.72273291  0.19258676  1.0
  O  O15  1  0.19570055  0.77726709  0.69258676  1.0
  O  O16  1  0.78578742  0.63672632  0.41231061  1.0
  O  O17  1  0.78578742  0.86327368  0.91231061  1.0
  O  O18  1  0.21421258  0.13672632  0.08768939  1.0
  O  O19  1  0.21421258  0.36327368  0.58768939  1.0
  O  O20  1  0.67546346  0.42836129  0.47361451  1.0
  O  O21  1  0.67546346  0.07163871  0.97361451  1.0
  O  O22  1  0.32453654  0.92836129  0.02638549  1.0
  O  O23  1  0.32453654  0.57163871  0.52638549  1.0
  O  O24  1  0.50749695  0.40389846  0.06521222  1.0
  O  O25  1  0.50749695  0.09610154  0.56521222  1.0
  O  O26  1  0.49250305  0.90389846  0.43478778  1.0
  O  O27  1  0.49250305  0.59610154  0.93478778  1.0
