# generated using pymatgen
data_Li4CO4
_symmetry_space_group_name_H-M   'P 1'
_cell_length_a   4.93815774
_cell_length_b   4.93815774
_cell_length_c   4.93815774
_cell_angle_alpha   129.00447529
_cell_angle_beta   129.00447529
_cell_angle_gamma   75.00337293
_symmetry_Int_Tables_number   1
_chemical_formula_structural   Li4CO4
_chemical_formula_sum   'Li4 C1 O4'
_cell_volume   70.81239605
_cell_formula_units_Z   1
loop_
 _symmetry_equiv_pos_site_id
 _symmetry_equiv_pos_as_xyz
  1  'x, y, z'
loop_
 _atom_site_type_symbol
 _atom_site_label
 _atom_site_symmetry_multiplicity
 _atom_site_fract_x
 _atom_site_fract_y
 _atom_site_fract_z
 _atom_site_occupancy
  Li  Li0  1  0.84652426  0.44144233  1.00000000  1.0
  Li  Li1  1  0.44144233  0.84652426  1.00000000  1.0
  Li  Li2  1  1.15347574  1.15347574  1.59491808  1.0
  Li  Li3  1  0.55855767  0.55855767  0.40508192  1.0
  C  C4  1  0.00000000  0.00000000  0.00000000  1.0
  O  O5  1  0.70201112  1.08415461  1.00000000  1.0
  O  O6  1  1.08415461  0.70201112  1.00000000  1.0
  O  O7  1  0.29798888  0.29798888  0.38214349  1.0
  O  O8  1  0.91584539  0.91584539  1.61785651  1.0
