# generated using pymatgen
data_Na2Ca2(CO3)3
_symmetry_space_group_name_H-M   'P 1'
_cell_length_a   6.63988152
_cell_length_b   6.63988152
_cell_length_c   5.00195844
_cell_angle_alpha   90.00000000
_cell_angle_beta   90.00000000
_cell_angle_gamma   65.77392469
_symmetry_Int_Tables_number   1
_chemical_formula_structural   Na2Ca2(CO3)3
_chemical_formula_sum   'Na2 Ca2 C3 O9'
_cell_volume   201.10547428
_cell_formula_units_Z   1
loop_
 _symmetry_equiv_pos_site_id
 _symmetry_equiv_pos_as_xyz
  1  'x, y, z'
loop_
 _atom_site_type_symbol
 _atom_site_label
 _atom_site_symmetry_multiplicity
 _atom_site_fract_x
 _atom_site_fract_y
 _atom_site_fract_z
 _atom_site_occupancy
  Na  Na0  1  0.30025139  0.69974861  0.50000000  1.0
  Na  Na1  1  -0.38638627  1.38638627  0.00000000  1.0
  Ca  Ca2  1  0.44312049  0.98919223  0.00000000  1.0
  Ca  Ca3  1  0.01080777  0.55687951  0.00000000  1.0
  C  C4  1  -0.64948067  1.23936267  0.50000000  1.0
  C  C5  1  -0.23936267  1.64948067  0.50000000  1.0
  C  C6  1  -0.00121455  0.00121455  0.00000000  1.0
  O  O7  1  -0.64537484  1.33441465  0.72605181  1.0
  O  O8  1  -0.33441465  1.64537484  0.72605181  1.0
  O  O9  1  -0.64537484  1.33441465  0.27394819  1.0
  O  O10  1  -0.33441465  1.64537484  0.27394819  1.0
  O  O11  1  -0.65161087  1.04633453  0.50000000  1.0
  O  O12  1  -0.04633453  1.65161087  0.50000000  1.0
  O  O13  1  0.81179516  0.98539855  0.00000000  1.0
  O  O14  1  0.01460145  0.18820484  0.00000000  1.0
  O  O15  1  0.18209229  0.81790771  0.00000000  1.0
