# generated using pymatgen
data_TcH24C8(NF3)2
_symmetry_space_group_name_H-M   'P 1'
_cell_length_a   8.22880351
_cell_length_b   8.22880351
_cell_length_c   8.22880351
_cell_angle_alpha   59.89334163
_cell_angle_beta   59.89334163
_cell_angle_gamma   59.89334163
_symmetry_Int_Tables_number   1
_chemical_formula_structural   TcH24C8(NF3)2
_chemical_formula_sum   'Tc1 H24 C8 N2 F6'
_cell_volume   393.04555212
_cell_formula_units_Z   1
loop_
 _symmetry_equiv_pos_site_id
 _symmetry_equiv_pos_as_xyz
  1  'x, y, z'
loop_
 _atom_site_type_symbol
 _atom_site_label
 _atom_site_symmetry_multiplicity
 _atom_site_fract_x
 _atom_site_fract_y
 _atom_site_fract_z
 _atom_site_occupancy
  Tc  Tc0  1  1.00000000  0.00000000  -0.00000000  1.0
  H  H1  1  0.27102282  0.26591274  -0.02571310  1.0
  H  H2  1  0.97428690  0.27102282  -0.73408726  1.0
  H  H3  1  0.26591274  0.97428690  -0.72897718  1.0
  H  H4  1  0.72897718  -0.26591274  0.02571310  1.0
  H  H5  1  1.02571310  -0.27102282  -0.26591274  1.0
  H  H6  1  0.73408726  0.02571310  -0.27102282  1.0
  H  H7  1  0.27182472  0.48546229  -0.02744802  1.0
  H  H8  1  0.97255198  0.27182472  -0.51453771  1.0
  H  H9  1  0.48546229  0.97255198  -0.72817528  1.0
  H  H10  1  0.72817528  -0.48546229  0.02744802  1.0
  H  H11  1  1.02744802  -0.27182472  -0.48546229  1.0
  H  H12  1  0.51453771  0.02744802  -0.27182472  1.0
  H  H13  1  0.48987201  0.26487365  -0.02427943  1.0
  H  H14  1  0.97572057  -0.51012799  0.26487365  1.0
  H  H15  1  1.26487365  -0.02427943  -0.51012799  1.0
  H  H16  1  0.51012799  -0.26487365  0.02427943  1.0
  H  H17  1  1.02427943  -0.48987201  -0.26487365  1.0
  H  H18  1  0.73512635  0.02427943  -0.48987201  1.0
  H  H19  1  0.48743812  0.26699219  -0.73087077  1.0
  H  H20  1  0.26912923  0.48743812  -0.73300781  1.0
  H  H21  1  0.26699219  0.26912923  -0.51256188  1.0
  H  H22  1  0.51256188  0.73300781  -0.26912923  1.0
  H  H23  1  0.73087077  0.51256188  -0.26699219  1.0
  H  H24  1  0.73300781  0.73087077  -0.48743812  1.0
  C  C25  1  0.32648999  0.32200613  0.02581263  1.0
  C  C26  1  1.02581263  0.32648999  -0.67799387  1.0
  C  C27  1  0.32200613  1.02581263  -0.67351001  1.0
  C  C28  1  0.67351001  -0.32200613  -0.02581263  1.0
  C  C29  1  0.97418737  -0.32648999  -0.32200613  1.0
  C  C30  1  0.67799387  -0.02581263  -0.32648999  1.0
  C  C31  1  0.32400921  0.32400921  0.32400921  1.0
  C  C32  1  0.67599079  -0.32400921  -0.32400921  1.0
  N  N33  1  0.24957652  0.24957652  0.24957652  1.0
  N  N34  1  0.75042348  -0.24957652  -0.24957652  1.0
  F  F35  1  0.83058549  0.17174018  -0.83339611  1.0
  F  F36  1  0.16660389  0.83058549  -0.82825982  1.0
  F  F37  1  0.17174018  0.16660389  -0.16941451  1.0
  F  F38  1  1.16941451  -0.17174018  -0.16660389  1.0
  F  F39  1  0.83339611  0.16941451  -0.17174018  1.0
  F  F40  1  0.82825982  -0.16660389  0.16941451  1.0
