# generated using pymatgen
data_RbSiBiS4
_symmetry_space_group_name_H-M   'P 1'
_cell_length_a   6.59934257
_cell_length_b   6.86518399
_cell_length_c   18.14409130
_cell_angle_alpha   90.00000000
_cell_angle_beta   107.41191391
_cell_angle_gamma   90.00000000
_symmetry_Int_Tables_number   1
_chemical_formula_structural   RbSiBiS4
_chemical_formula_sum   'Rb4 Si4 Bi4 S16'
_cell_volume   784.36378433
_cell_formula_units_Z   4
loop_
 _symmetry_equiv_pos_site_id
 _symmetry_equiv_pos_as_xyz
  1  'x, y, z'
loop_
 _atom_site_type_symbol
 _atom_site_label
 _atom_site_symmetry_multiplicity
 _atom_site_fract_x
 _atom_site_fract_y
 _atom_site_fract_z
 _atom_site_occupancy
  Rb  Rb0  1  0.71967984  0.75062051  0.46571811  1.0
  Rb  Rb1  1  0.71967984  0.74937949  0.96571811  1.0
  Rb  Rb2  1  0.28032016  0.25062051  0.03428189  1.0
  Rb  Rb3  1  0.28032015  0.24937949  0.53428189  1.0
  Si  Si4  1  0.79139765  0.23142705  0.33856157  1.0
  Si  Si5  1  0.79139765  0.26857295  0.83856157  1.0
  Si  Si6  1  0.20860235  0.73142705  0.16143843  1.0
  Si  Si7  1  0.20860235  0.76857295  0.66143843  1.0
  Bi  Bi8  1  0.76144033  0.80330769  0.22320737  1.0
  Bi  Bi9  1  0.76144033  0.69669231  0.72320737  1.0
  Bi  Bi10  1  0.23855967  0.30330769  0.27679263  1.0
  Bi  Bi11  1  0.23855967  0.19669231  0.77679263  1.0
  S  S12  1  0.98378938  0.48825491  0.35173926  1.0
  S  S13  1  0.98378938  0.01174509  0.85173926  1.0
  S  S14  1  0.01621062  0.98825491  0.14826074  1.0
  S  S15  1  0.01621062  0.51174509  0.64826074  1.0
  S  S16  1  0.98841893  0.49690708  0.13697479  1.0
  S  S17  1  0.98841893  0.00309292  0.63697479  1.0
  S  S18  1  0.01158107  0.99690708  0.36302521  1.0
  S  S19  1  0.01158107  0.50309292  0.86302521  1.0
  S  S20  1  0.59728365  0.18075552  0.22095013  1.0
  S  S21  1  0.59728365  0.31924448  0.72095013  1.0
  S  S22  1  0.40271635  0.68075552  0.27904987  1.0
  S  S23  1  0.40271635  0.81924448  0.77904987  1.0
  S  S24  1  0.58794071  0.25107031  0.40994249  1.0
  S  S25  1  0.58794071  0.24892969  0.90994249  1.0
  S  S26  1  0.41205929  0.75107031  0.09005751  1.0
  S  S27  1  0.41205929  0.74892969  0.59005751  1.0
