# generated using pymatgen
data_Zr5Al3
_symmetry_space_group_name_H-M   'P 1'
_cell_length_a   8.27703316
_cell_length_b   8.27703316
_cell_length_c   8.27703316
_cell_angle_alpha   96.10197227
_cell_angle_beta   96.10197227
_cell_angle_gamma   141.94351322
_symmetry_Int_Tables_number   1
_chemical_formula_structural   Zr5Al3
_chemical_formula_sum   'Zr10 Al6'
_cell_volume   330.45309431
_cell_formula_units_Z   2
loop_
 _symmetry_equiv_pos_site_id
 _symmetry_equiv_pos_as_xyz
  1  'x, y, z'
loop_
 _atom_site_type_symbol
 _atom_site_label
 _atom_site_symmetry_multiplicity
 _atom_site_fract_x
 _atom_site_fract_y
 _atom_site_fract_z
 _atom_site_occupancy
  Zr  Zr0  1  0.28079616  0.42124069  0.70203685  1.0
  Zr  Zr1  1  1.21920384  0.92124069  1.14044453  1.0
  Zr  Zr2  1  0.92124069  0.78079616  1.70203685  1.0
  Zr  Zr3  1  0.57875931  1.28079616  0.85955547  1.0
  Zr  Zr4  1  0.78079616  1.07875931  0.85955547  1.0
  Zr  Zr5  1  0.71920384  0.57875931  1.29796315  1.0
  Zr  Zr6  1  1.42124069  0.71920384  1.14044453  1.0
  Zr  Zr7  1  0.07875931  0.21920384  0.29796315  1.0
  Zr  Zr8  1  0.75000000  1.25000000  0.50000000  1.0
  Zr  Zr9  1  0.25000000  0.75000000  0.50000000  1.0
  Al  Al10  1  0.83677632  0.33677632  1.17355264  1.0
  Al  Al11  1  0.66322368  0.83677632  0.50000000  1.0
  Al  Al12  1  1.33677632  1.16322368  1.50000000  1.0
  Al  Al13  1  0.16322368  0.66322368  0.82644736  1.0
  Al  Al14  1  0.25000000  0.25000000  -0.00000000  1.0
  Al  Al15  1  0.75000000  0.75000000  0.00000000  1.0
