# generated using pymatgen
data_Rb3YCl6
_symmetry_space_group_name_H-M   'P 1'
_cell_length_a   13.59028333
_cell_length_b   13.59028333
_cell_length_c   13.21584666
_cell_angle_alpha   81.16338972
_cell_angle_beta   98.83661028
_cell_angle_gamma   145.32003696
_symmetry_Int_Tables_number   1
_chemical_formula_structural   Rb3YCl6
_chemical_formula_sum   'Rb12 Y4 Cl24'
_cell_volume   1370.75611220
_cell_formula_units_Z   4
loop_
 _symmetry_equiv_pos_site_id
 _symmetry_equiv_pos_as_xyz
  1  'x, y, z'
loop_
 _atom_site_type_symbol
 _atom_site_label
 _atom_site_symmetry_multiplicity
 _atom_site_fract_x
 _atom_site_fract_y
 _atom_site_fract_z
 _atom_site_occupancy
  Rb  Rb0  1  1.64701136  -0.02442155  0.19052262  1.0
  Rb  Rb1  1  1.02442155  -0.64701136  0.69052262  1.0
  Rb  Rb2  1  0.97557845  -0.35298864  0.30947738  1.0
  Rb  Rb3  1  1.35298864  0.02442155  0.80947738  1.0
  Rb  Rb4  1  1.46915821  0.16530578  0.14580604  1.0
  Rb  Rb5  1  0.83469422  -0.46915821  0.64580604  1.0
  Rb  Rb6  1  1.16530578  -0.53084179  0.35419396  1.0
  Rb  Rb7  1  1.53084179  -0.16530578  0.85419396  1.0
  Rb  Rb8  1  1.27814746  0.16540643  0.44713053  1.0
  Rb  Rb9  1  0.83459357  -0.27814746  0.94713053  1.0
  Rb  Rb10  1  1.16540643  -0.72185254  0.05286947  1.0
  Rb  Rb11  1  1.72185254  -0.16540643  0.55286947  1.0
  Y  Y12  1  0.79944199  0.79944199  0.25000000  1.0
  Y  Y13  1  0.20055801  0.20055801  0.75000000  1.0
  Y  Y14  1  1.50000000  0.00000000  0.50000000  1.0
  Y  Y15  1  1.00000000  -0.50000000  -0.00000000  1.0
  Cl  Cl16  1  1.52237903  -0.35079992  0.31768589  1.0
  Cl  Cl17  1  1.35079992  -0.52237903  0.81768589  1.0
  Cl  Cl18  1  0.64920008  -0.47762097  0.18231411  1.0
  Cl  Cl19  1  1.47762097  0.35079992  0.68231411  1.0
  Cl  Cl20  1  1.89309933  0.01830128  0.79033406  1.0
  Cl  Cl21  1  0.98169872  -0.89309933  0.29033406  1.0
  Cl  Cl22  1  1.01830128  -0.10690067  0.70966594  1.0
  Cl  Cl23  1  1.10690067  -0.01830128  0.20966594  1.0
  Cl  Cl24  1  1.74111017  -0.15145787  0.06303697  1.0
  Cl  Cl25  1  1.15145787  -0.74111017  0.56303697  1.0
  Cl  Cl26  1  0.84854213  -0.25888983  0.43696303  1.0
  Cl  Cl27  1  1.25888983  0.15145787  0.93696303  1.0
  Cl  Cl28  1  1.79283018  0.15394823  0.46649898  1.0
  Cl  Cl29  1  0.84605177  -0.79283018  0.96649898  1.0
  Cl  Cl30  1  1.15394823  -0.20716982  0.03350102  1.0
  Cl  Cl31  1  1.20716982  -0.15394823  0.53350102  1.0
  Cl  Cl32  1  1.37010196  -0.12996132  0.31424684  1.0
  Cl  Cl33  1  1.12996132  -0.37010196  0.81424684  1.0
  Cl  Cl34  1  0.87003868  -0.62989804  0.18575316  1.0
  Cl  Cl35  1  1.62989804  0.12996132  0.68575316  1.0
  Cl  Cl36  1  1.61534106  0.27546520  0.42778771  1.0
  Cl  Cl37  1  0.72453480  -0.61534106  0.92778771  1.0
  Cl  Cl38  1  1.27546520  -0.38465894  0.07221229  1.0
  Cl  Cl39  1  1.38465894  -0.27546520  0.57221229  1.0
