# generated using pymatgen
data_CsTaGeS5
_symmetry_space_group_name_H-M   'P 1'
_cell_length_a   9.67701424
_cell_length_b   7.05280009
_cell_length_c   7.76655702
_cell_angle_alpha   74.14286674
_cell_angle_beta   65.53470109
_cell_angle_gamma   77.06353367
_symmetry_Int_Tables_number   1
_chemical_formula_structural   CsTaGeS5
_chemical_formula_sum   'Cs2 Ta2 Ge2 S10'
_cell_volume   460.38916525
_cell_formula_units_Z   2
loop_
 _symmetry_equiv_pos_site_id
 _symmetry_equiv_pos_as_xyz
  1  'x, y, z'
loop_
 _atom_site_type_symbol
 _atom_site_label
 _atom_site_symmetry_multiplicity
 _atom_site_fract_x
 _atom_site_fract_y
 _atom_site_fract_z
 _atom_site_occupancy
  Cs  Cs0  1  0.69596540  0.38718652  0.65683223  1.0
  Cs  Cs1  1  0.30403460  0.61281348  0.34316777  1.0
  Ta  Ta2  1  0.99632316  0.75900592  0.97685633  1.0
  Ta  Ta3  1  0.00367684  0.24099408  0.02314367  1.0
  Ge  Ge4  1  0.37093637  0.97806866  0.69975826  1.0
  Ge  Ge5  1  0.62906363  0.02193134  0.30024174  1.0
  S  S6  1  0.01658545  0.07153481  0.76639397  1.0
  S  S7  1  0.98341455  0.92846519  0.23360603  1.0
  S  S8  1  0.63236974  0.92492410  0.60319443  1.0
  S  S9  1  0.36763026  0.07507590  0.39680557  1.0
  S  S10  1  0.71147392  0.78658574  0.12846424  1.0
  S  S11  1  0.28852608  0.21341426  0.87153576  1.0
  S  S12  1  0.28504117  0.69003987  0.86449750  1.0
  S  S13  1  0.71495883  0.30996013  0.13550250  1.0
  S  S14  1  0.96894039  0.56626173  0.79138469  1.0
  S  S15  1  0.03105961  0.43373827  0.20861531  1.0
