# generated using pymatgen
data_Cs3SbO3
_symmetry_space_group_name_H-M   'P 1'
_cell_length_a   9.35511392
_cell_length_b   9.35511392
_cell_length_c   9.35511392
_cell_angle_alpha   90.00000000
_cell_angle_beta   90.00000000
_cell_angle_gamma   90.00000000
_symmetry_Int_Tables_number   1
_chemical_formula_structural   Cs3SbO3
_chemical_formula_sum   'Cs12 Sb4 O12'
_cell_volume   818.74232303
_cell_formula_units_Z   4
loop_
 _symmetry_equiv_pos_site_id
 _symmetry_equiv_pos_as_xyz
  1  'x, y, z'
loop_
 _atom_site_type_symbol
 _atom_site_label
 _atom_site_symmetry_multiplicity
 _atom_site_fract_x
 _atom_site_fract_y
 _atom_site_fract_z
 _atom_site_occupancy
  Cs  Cs0  1  0.47866274  0.97866274  0.52133726  1.0
  Cs  Cs1  1  0.97866274  0.52133726  0.47866274  1.0
  Cs  Cs2  1  0.52133726  0.47866274  0.97866274  1.0
  Cs  Cs3  1  0.02133726  0.02133726  0.02133726  1.0
  Cs  Cs4  1  0.97402629  0.47402629  0.02597371  1.0
  Cs  Cs5  1  0.47402629  0.02597371  0.97402629  1.0
  Cs  Cs6  1  0.02597371  0.97402629  0.47402629  1.0
  Cs  Cs7  1  0.52597371  0.52597371  0.52597371  1.0
  Cs  Cs8  1  0.73815489  0.23815489  0.26184511  1.0
  Cs  Cs9  1  0.23815489  0.26184511  0.73815489  1.0
  Cs  Cs10  1  0.26184511  0.73815489  0.23815489  1.0
  Cs  Cs11  1  0.76184511  0.76184511  0.76184511  1.0
  Sb  Sb12  1  0.25058867  0.75058867  0.74941133  1.0
  Sb  Sb13  1  0.75058867  0.74941133  0.25058867  1.0
  Sb  Sb14  1  0.74941133  0.25058867  0.75058867  1.0
  Sb  Sb15  1  0.24941133  0.24941133  0.24941133  1.0
  O  O16  1  0.45837051  0.74639123  0.78563128  1.0
  O  O17  1  0.95837051  0.75360877  0.21436872  1.0
  O  O18  1  0.24639123  0.71436872  0.54162949  1.0
  O  O19  1  0.74639123  0.78563128  0.45837051  1.0
  O  O20  1  0.21436872  0.95837051  0.75360877  1.0
  O  O21  1  0.71436872  0.54162949  0.24639123  1.0
  O  O22  1  0.54162949  0.24639123  0.71436872  1.0
  O  O23  1  0.04162949  0.25360877  0.28563128  1.0
  O  O24  1  0.75360877  0.21436872  0.95837051  1.0
  O  O25  1  0.25360877  0.28563128  0.04162949  1.0
  O  O26  1  0.78563128  0.45837051  0.74639123  1.0
  O  O27  1  0.28563128  0.04162949  0.25360877  1.0
