# generated using pymatgen
data_Nb7(B4Ru3)2
_symmetry_space_group_name_H-M   'P 1'
_cell_length_a   9.57133458
_cell_length_b   9.57133458
_cell_length_c   3.12478879
_cell_angle_alpha   90.00000000
_cell_angle_beta   90.00000000
_cell_angle_gamma   120.00000000
_symmetry_Int_Tables_number   1
_chemical_formula_structural   Nb7(B4Ru3)2
_chemical_formula_sum   'Nb7 B8 Ru6'
_cell_volume   247.91128477
_cell_formula_units_Z   1
loop_
 _symmetry_equiv_pos_site_id
 _symmetry_equiv_pos_as_xyz
  1  'x, y, z'
loop_
 _atom_site_type_symbol
 _atom_site_label
 _atom_site_symmetry_multiplicity
 _atom_site_fract_x
 _atom_site_fract_y
 _atom_site_fract_z
 _atom_site_occupancy
  Nb  Nb0  1  0.72393284  0.63766573  0.00000000  1.0
  Nb  Nb1  1  0.63766573  0.91373289  0.00000000  1.0
  Nb  Nb2  1  0.91373289  0.27606716  0.00000000  1.0
  Nb  Nb3  1  0.36233427  0.08626711  0.00000000  1.0
  Nb  Nb4  1  0.27606716  0.36233427  0.00000000  1.0
  Nb  Nb5  1  0.08626711  0.72393284  0.00000000  1.0
  Nb  Nb6  1  0.00000000  0.00000000  0.00000000  1.0
  B  B7  1  0.33333333  0.66666667  0.00000000  1.0
  B  B8  1  0.66666667  0.33333333  0.00000000  1.0
  B  B9  1  0.15292549  0.93488822  0.50000000  1.0
  B  B10  1  0.93488822  0.78196274  0.50000000  1.0
  B  B11  1  0.78196274  0.84707451  0.50000000  1.0
  B  B12  1  0.06511178  0.21803726  0.50000000  1.0
  B  B13  1  0.84707451  0.06511178  0.50000000  1.0
  B  B14  1  0.21803726  0.15292549  0.50000000  1.0
  Ru  Ru15  1  0.35969393  0.84576554  0.50000000  1.0
  Ru  Ru16  1  0.84576554  0.48607161  0.50000000  1.0
  Ru  Ru17  1  0.48607161  0.64030607  0.50000000  1.0
  Ru  Ru18  1  0.15423446  0.51392839  0.50000000  1.0
  Ru  Ru19  1  0.64030607  0.15423446  0.50000000  1.0
  Ru  Ru20  1  0.51392839  0.35969393  0.50000000  1.0
