# generated using pymatgen
data_K2O2
_symmetry_space_group_name_H-M   'P 1'
_cell_length_a   3.77059906
_cell_length_b   4.13277028
_cell_length_c   5.59698046
_cell_angle_alpha   90.00000000
_cell_angle_beta   97.88580116
_cell_angle_gamma   90.00000000
_symmetry_Int_Tables_number   1
_chemical_formula_structural   K2O2
_chemical_formula_sum   'K2 O2'
_cell_volume   86.39308083
_cell_formula_units_Z   1
loop_
 _symmetry_equiv_pos_site_id
 _symmetry_equiv_pos_as_xyz
  1  'x, y, z'
loop_
 _atom_site_type_symbol
 _atom_site_label
 _atom_site_symmetry_multiplicity
 _atom_site_fract_x
 _atom_site_fract_y
 _atom_site_fract_z
 _atom_site_occupancy
  K  K0  1  0.74998710  0.75000000  0.24990759  1.0
  K  K1  1  0.25001290  0.25000000  0.75009241  1.0
  O  O2  1  0.75016489  0.75000000  0.75007968  1.0
  O  O3  1  0.24983511  0.25000000  0.24992032  1.0
