# generated using pymatgen
data_Cu2NO6
_symmetry_space_group_name_H-M   'P 1'
_cell_length_a   5.51664932
_cell_length_b   5.80809175
_cell_length_c   15.43706905
_cell_angle_alpha   90.00000000
_cell_angle_beta   90.00000000
_cell_angle_gamma   90.00000000
_symmetry_Int_Tables_number   1
_chemical_formula_structural   Cu2NO6
_chemical_formula_sum   'Cu8 N4 O24'
_cell_volume   494.62230003
_cell_formula_units_Z   4
loop_
 _symmetry_equiv_pos_site_id
 _symmetry_equiv_pos_as_xyz
  1  'x, y, z'
loop_
 _atom_site_type_symbol
 _atom_site_label
 _atom_site_symmetry_multiplicity
 _atom_site_fract_x
 _atom_site_fract_y
 _atom_site_fract_z
 _atom_site_occupancy
  N  N0  1  0.19642726  1.00119407  0.53560817  1.0
  N  N1  1  0.69642726  0.49880593  0.46439183  1.0
  N  N2  1  0.80357274  0.50119407  0.96439183  1.0
  N  N3  1  0.30357274  -0.00119407  0.03560817  1.0
  O  O4  1  0.31655960  0.74981361  0.79142216  1.0
  O  O5  1  0.81655960  0.75018639  0.20857784  1.0
  O  O6  1  0.68344040  0.24981361  0.70857784  1.0
  O  O7  1  0.18344040  0.25018639  0.29142216  1.0
  O  O8  1  0.31607055  0.24648908  0.79122663  1.0
  O  O9  1  0.81607055  0.25351092  0.20877337  1.0
  O  O10  1  0.68392945  0.74648908  0.70877337  1.0
  O  O11  1  0.18392945  0.75351092  0.29122663  1.0
  O  O12  1  0.07194707  0.49882804  0.68639256  1.0
  O  O13  1  0.57194707  0.00117196  0.31360744  1.0
  O  O14  1  0.92805293  0.99882804  0.81360744  1.0
  O  O15  1  0.42805293  0.50117196  0.18639256  1.0
  O  O16  1  0.37657201  0.92378324  0.49726433  1.0
  O  O17  1  0.87657201  0.57621676  0.50273567  1.0
  O  O18  1  0.62342799  0.42378324  1.00273567  1.0
  O  O19  1  0.12342799  0.07621676  -0.00273567  1.0
  O  O20  1  0.48164444  0.92661564  -0.00488678  1.0
  O  O21  1  0.98164444  0.57338436  1.00488678  1.0
  O  O22  1  0.51835556  0.42661564  0.50488678  1.0
  O  O23  1  0.01835556  0.07338436  0.49511322  1.0
  O  O24  1  0.19666179  1.00568184  0.61787088  1.0
  O  O25  1  0.69666179  0.49431816  0.38212912  1.0
  O  O26  1  0.80333821  0.50568184  0.88212912  1.0
  O  O27  1  0.30333821  -0.00568184  0.11787088  1.0
  Cu  Cu28  1  0.49683947  0.49805592  0.74851021  1.0
  Cu  Cu29  1  0.99683947  0.00194408  0.25148979  1.0
  Cu  Cu30  1  0.50316053  0.99805592  0.75148979  1.0
  Cu  Cu31  1  0.00316053  0.50194408  0.24851021  1.0
  Cu  Cu32  1  0.99994653  0.74791118  0.75046720  1.0
  Cu  Cu33  1  0.49994653  0.75208882  0.24953280  1.0
  Cu  Cu34  1  0.00005347  0.24791118  0.74953280  1.0
  Cu  Cu35  1  0.50005347  0.25208882  0.25046720  1.0
