# generated using pymatgen
data_Nb(BiO3)2
_symmetry_space_group_name_H-M   'P 1'
_cell_length_a   5.39552381
_cell_length_b   16.81416318
_cell_length_c   5.68261592
_cell_angle_alpha   90.00000000
_cell_angle_beta   90.00000000
_cell_angle_gamma   90.00000000
_symmetry_Int_Tables_number   1
_chemical_formula_structural   Nb(BiO3)2
_chemical_formula_sum   'Nb4 Bi8 O24'
_cell_volume   515.53383650
_cell_formula_units_Z   4
loop_
 _symmetry_equiv_pos_site_id
 _symmetry_equiv_pos_as_xyz
  1  'x, y, z'
loop_
 _atom_site_type_symbol
 _atom_site_label
 _atom_site_symmetry_multiplicity
 _atom_site_fract_x
 _atom_site_fract_y
 _atom_site_fract_z
 _atom_site_occupancy
  O  O0  1  0.73074475  1.00364694  0.75831459  1.0
  O  O1  1  0.76925525  1.00364694  0.25831459  1.0
  O  O2  1  0.23074475  -0.00364694  0.75831459  1.0
  O  O3  1  0.26925525  -0.00364694  0.25831459  1.0
  O  O4  1  0.66089114  0.47167983  0.76508423  1.0
  O  O5  1  0.83910886  0.47167983  0.26508423  1.0
  O  O6  1  0.16089114  0.52832017  0.76508423  1.0
  O  O7  1  0.33910886  0.52832017  0.26508423  1.0
  O  O8  1  0.88335440  0.15289994  0.90305004  1.0
  O  O9  1  0.61664560  0.15289994  0.40305004  1.0
  O  O10  1  0.38335440  0.84710006  0.90305004  1.0
  O  O11  1  0.11664560  0.84710006  0.40305004  1.0
  O  O12  1  0.35745056  0.36665504  0.43362279  1.0
  O  O13  1  0.14254944  0.36665504  0.93362279  1.0
  O  O14  1  0.85745056  0.63334496  0.43362279  1.0
  O  O15  1  0.64254944  0.63334496  0.93362279  1.0
  O  O16  1  0.79112252  0.29820220  0.65551956  1.0
  O  O17  1  0.70887748  0.29820220  0.15551956  1.0
  O  O18  1  0.29112252  0.70179780  0.65551956  1.0
  O  O19  1  0.20887748  0.70179780  0.15551956  1.0
  O  O20  1  0.29221879  0.22953233  0.73388435  1.0
  O  O21  1  0.20778121  0.22953233  0.23388435  1.0
  O  O22  1  0.79221879  0.77046767  0.73388435  1.0
  O  O23  1  0.70778121  0.77046767  0.23388435  1.0
  Bi  Bi24  1  0.50056220  0.41730241  0.09893062  1.0
  Bi  Bi25  1  -0.00056220  0.41730241  0.59893062  1.0
  Bi  Bi26  1  1.00056220  0.58269759  0.09893062  1.0
  Bi  Bi27  1  0.49943780  0.58269759  0.59893062  1.0
  Bi  Bi28  1  0.52520969  0.07781161  0.03945753  1.0
  Bi  Bi29  1  0.97479031  0.07781161  0.53945753  1.0
  Bi  Bi30  1  0.02520969  0.92218839  0.03945753  1.0
  Bi  Bi31  1  0.47479031  0.92218839  0.53945753  1.0
  Nb  Nb32  1  -0.00014303  0.25441772  -0.01186372  1.0
  Nb  Nb33  1  0.50014303  0.25441772  0.48813628  1.0
  Nb  Nb34  1  0.49985697  0.74558228  -0.01186372  1.0
  Nb  Nb35  1  1.00014303  0.74558228  0.48813628  1.0
