# generated using pymatgen
data_LiNdGeO4
_symmetry_space_group_name_H-M   'P 1'
_cell_length_a   5.13697168
_cell_length_b   12.09927360
_cell_length_c   5.43113227
_cell_angle_alpha   90.00000000
_cell_angle_beta   90.00000000
_cell_angle_gamma   90.00000000
_symmetry_Int_Tables_number   1
_chemical_formula_structural   LiNdGeO4
_chemical_formula_sum   'Li4 Nd4 Ge4 O16'
_cell_volume   337.56456299
_cell_formula_units_Z   4
loop_
 _symmetry_equiv_pos_site_id
 _symmetry_equiv_pos_as_xyz
  1  'x, y, z'
loop_
 _atom_site_type_symbol
 _atom_site_label
 _atom_site_symmetry_multiplicity
 _atom_site_fract_x
 _atom_site_fract_y
 _atom_site_fract_z
 _atom_site_occupancy
  Li  Li0  1  0.50000000  0.76448195  0.25000000  1.0
  Li  Li1  1  0.50000000  0.23551805  0.75000000  1.0
  Li  Li2  1  0.00000000  0.26448195  0.25000000  1.0
  Li  Li3  1  0.00000000  0.73551805  0.75000000  1.0
  Nd  Nd4  1  0.50000000  0.10904380  0.25000000  1.0
  Nd  Nd5  1  0.50000000  0.89095620  0.75000000  1.0
  Nd  Nd6  1  -0.00000000  0.60904380  0.25000000  1.0
  Nd  Nd7  1  0.00000000  0.39095620  0.75000000  1.0
  Ge  Ge8  1  0.50000000  0.38709766  0.25000000  1.0
  Ge  Ge9  1  0.50000000  0.61290234  0.75000000  1.0
  Ge  Ge10  1  -0.00000000  0.88709766  0.25000000  1.0
  Ge  Ge11  1  0.00000000  0.11290234  0.75000000  1.0
  O  O12  1  0.32131067  0.29761773  0.04544861  1.0
  O  O13  1  0.32131067  0.70238227  0.54544861  1.0
  O  O14  1  0.82131067  0.79761773  0.45455139  1.0
  O  O15  1  0.82131067  0.20238227  0.95455139  1.0
  O  O16  1  0.67868933  0.29761773  0.45455139  1.0
  O  O17  1  0.67868933  0.70238227  0.95455139  1.0
  O  O18  1  0.17868933  0.79761773  0.04544861  1.0
  O  O19  1  0.17868933  0.20238227  0.54544861  1.0
  O  O20  1  0.24899070  0.45629197  0.41535784  1.0
  O  O21  1  0.24899070  0.54370803  0.91535784  1.0
  O  O22  1  0.74899070  0.95629197  0.08464216  1.0
  O  O23  1  0.74899070  0.04370803  0.58464216  1.0
  O  O24  1  0.75100930  0.45629197  0.08464216  1.0
  O  O25  1  0.75100930  0.54370803  0.58464216  1.0
  O  O26  1  0.25100930  0.95629197  0.41535784  1.0
  O  O27  1  0.25100930  0.04370803  0.91535784  1.0
