# generated using pymatgen
data_XeF2
_symmetry_space_group_name_H-M   'P 1'
_cell_length_a   6.49581411
_cell_length_b   6.50809885
_cell_length_c   7.23144170
_cell_angle_alpha   90.00000000
_cell_angle_beta   90.00000000
_cell_angle_gamma   90.00000000
_symmetry_Int_Tables_number   1
_chemical_formula_structural   XeF2
_chemical_formula_sum   'Xe4 F8'
_cell_volume   305.71209294
_cell_formula_units_Z   4
loop_
 _symmetry_equiv_pos_site_id
 _symmetry_equiv_pos_as_xyz
  1  'x, y, z'
loop_
 _atom_site_type_symbol
 _atom_site_label
 _atom_site_symmetry_multiplicity
 _atom_site_fract_x
 _atom_site_fract_y
 _atom_site_fract_z
 _atom_site_occupancy
  Xe  Xe0  1  0.25002595  0.25000000  1.00000253  1.0
  Xe  Xe1  1  0.75002595  0.25000000  0.49999747  1.0
  Xe  Xe2  1  0.74997405  0.75000000  -0.00000253  1.0
  Xe  Xe3  1  0.24997405  0.75000000  0.50000253  1.0
  F  F4  1  0.24999918  0.75000000  0.78362761  1.0
  F  F5  1  0.74999918  0.75000000  0.71637239  1.0
  F  F6  1  0.75000082  0.25000000  0.21637239  1.0
  F  F7  1  0.25000082  0.25000000  0.28362761  1.0
  F  F8  1  0.25024086  0.25000000  0.71637799  1.0
  F  F9  1  0.75024086  0.25000000  0.78362201  1.0
  F  F10  1  0.74975914  0.75000000  0.28362201  1.0
  F  F11  1  0.24975914  0.75000000  0.21637799  1.0
