# generated using pymatgen
data_PW
_symmetry_space_group_name_H-M   'P 1'
_cell_length_a   5.75538745
_cell_length_b   3.26804472
_cell_length_c   6.25219457
_cell_angle_alpha   90.00000000
_cell_angle_beta   90.00000000
_cell_angle_gamma   90.00000000
_symmetry_Int_Tables_number   1
_chemical_formula_structural   PW
_chemical_formula_sum   'P4 W4'
_cell_volume   117.59667494
_cell_formula_units_Z   4
loop_
 _symmetry_equiv_pos_site_id
 _symmetry_equiv_pos_as_xyz
  1  'x, y, z'
loop_
 _atom_site_type_symbol
 _atom_site_label
 _atom_site_symmetry_multiplicity
 _atom_site_fract_x
 _atom_site_fract_y
 _atom_site_fract_z
 _atom_site_occupancy
  P  P0  1  0.81609878  0.75000000  0.56607456  1.0
  P  P1  1  0.31609878  0.75000000  0.93392544  1.0
  P  P2  1  0.18390122  0.25000000  0.43392544  1.0
  P  P3  1  0.68390122  0.25000000  0.06607456  1.0
  W  W4  1  0.98619367  0.75000000  0.18798722  1.0
  W  W5  1  0.48619367  0.75000000  0.31201278  1.0
  W  W6  1  0.01380633  0.25000000  0.81201278  1.0
  W  W7  1  0.51380633  0.25000000  0.68798722  1.0
