# generated using pymatgen
data_V5S8
_symmetry_space_group_name_H-M   'P 1'
_cell_length_a   6.15625874
_cell_length_b   6.15625874
_cell_length_c   5.72398006
_cell_angle_alpha   88.09917472
_cell_angle_beta   91.90082528
_cell_angle_gamma   106.66071819
_symmetry_Int_Tables_number   1
_chemical_formula_structural   V5S8
_chemical_formula_sum   'V5 S8'
_cell_volume   207.65118881
_cell_formula_units_Z   1
loop_
 _symmetry_equiv_pos_site_id
 _symmetry_equiv_pos_as_xyz
  1  'x, y, z'
loop_
 _atom_site_type_symbol
 _atom_site_label
 _atom_site_symmetry_multiplicity
 _atom_site_fract_x
 _atom_site_fract_y
 _atom_site_fract_z
 _atom_site_occupancy
  V  V0  1  0.69021833  0.30978167  0.96610218  1.0
  V  V1  1  1.30978167  -0.30978167  0.03389782  1.0
  V  V2  1  0.00000000  0.00000000  0.00000000  1.0
  V  V3  1  0.19577606  0.19577606  0.50000000  1.0
  V  V4  1  0.80422394  0.80422394  0.50000000  1.0
  S  S5  1  1.05136961  0.35845186  0.17132956  1.0
  S  S6  1  1.35845186  0.05136961  0.82867044  1.0
  S  S7  1  0.94863039  -0.35845186  0.82867044  1.0
  S  S8  1  0.64154814  -0.05136961  0.17132956  1.0
  S  S9  1  0.85199763  0.14800237  0.65869749  1.0
  S  S10  1  1.14800237  -0.14800237  0.34130251  1.0
  S  S11  1  1.45696706  -0.45696706  0.72777957  1.0
  S  S12  1  0.54303294  0.45696706  0.27222043  1.0
