# generated using pymatgen
data_LiLa6PtI12
_symmetry_space_group_name_H-M   'P 1'
_cell_length_a   10.21312681
_cell_length_b   10.21312681
_cell_length_c   10.21312681
_cell_angle_alpha   107.66295630
_cell_angle_beta   107.66295630
_cell_angle_gamma   107.66295630
_symmetry_Int_Tables_number   1
_chemical_formula_structural   LiLa6PtI12
_chemical_formula_sum   'Li1 La6 Pt1 I12'
_cell_volume   870.65776483
_cell_formula_units_Z   1
loop_
 _symmetry_equiv_pos_site_id
 _symmetry_equiv_pos_as_xyz
  1  'x, y, z'
loop_
 _atom_site_type_symbol
 _atom_site_label
 _atom_site_symmetry_multiplicity
 _atom_site_fract_x
 _atom_site_fract_y
 _atom_site_fract_z
 _atom_site_occupancy
  Li  Li0  1  0.50000000  0.50000000  0.50000000  1.0
  La  La1  1  1.68311770  0.88726506  -0.03502247  1.0
  La  La2  1  1.11273494  0.03502247  -0.68311770  1.0
  La  La3  1  1.03502247  -0.68311770  0.11273494  1.0
  La  La4  1  0.31688230  0.11273494  0.03502247  1.0
  La  La5  1  0.88726506  0.96497753  0.68311770  1.0
  La  La6  1  0.96497753  1.68311770  -0.11273494  1.0
  Pt  Pt7  1  0.00000000  0.00000000  0.00000000  1.0
  I  I8  1  1.61169895  0.53136319  -0.17273067  1.0
  I  I9  1  0.46863681  1.17273067  -0.61169895  1.0
  I  I10  1  1.17273067  0.38830105  -0.53136319  1.0
  I  I11  1  0.38830105  0.46863681  0.17273067  1.0
  I  I12  1  1.53136319  -0.17273067  0.61169895  1.0
  I  I13  1  0.82726933  0.61169895  0.53136319  1.0
  I  I14  1  0.68147448  0.22174110  0.06989569  1.0
  I  I15  1  0.77825890  0.93010431  0.31852552  1.0
  I  I16  1  0.93010431  1.31852552  -0.22174110  1.0
  I  I17  1  1.31852552  0.77825890  -0.06989569  1.0
  I  I18  1  1.22174110  0.06989569  -0.31852552  1.0
  I  I19  1  1.06989569  -0.31852552  0.22174110  1.0
