# generated using pymatgen
data_CrAgO2
_symmetry_space_group_name_H-M   'P 1'
_cell_length_a   6.47799380
_cell_length_b   6.47799380
_cell_length_c   6.47799380
_cell_angle_alpha   26.92116575
_cell_angle_beta   26.92116575
_cell_angle_gamma   26.92116575
_symmetry_Int_Tables_number   1
_chemical_formula_structural   CrAgO2
_chemical_formula_sum   'Cr1 Ag1 O2'
_cell_volume   49.14804650
_cell_formula_units_Z   1
loop_
 _symmetry_equiv_pos_site_id
 _symmetry_equiv_pos_as_xyz
  1  'x, y, z'
loop_
 _atom_site_type_symbol
 _atom_site_label
 _atom_site_symmetry_multiplicity
 _atom_site_fract_x
 _atom_site_fract_y
 _atom_site_fract_z
 _atom_site_occupancy
  Cr  Cr0  1  1.50000000  0.50000000  0.50000000  1.0
  Ag  Ag1  1  0.00000000  0.00000000  0.00000000  1.0
  O  O2  1  0.88608714  0.88608714  0.88608714  1.0
  O  O3  1  1.11391286  1.11391286  0.11391286  1.0
