# generated using pymatgen
data_VBiO4
_symmetry_space_group_name_H-M   'P 1'
_cell_length_a   6.43158760
_cell_length_b   6.43158760
_cell_length_c   6.73381000
_cell_angle_alpha   75.07273066
_cell_angle_beta   104.92726934
_cell_angle_gamma   55.89985897
_symmetry_Int_Tables_number   1
_chemical_formula_structural   VBiO4
_chemical_formula_sum   'V2 Bi2 O8'
_cell_volume   192.69520918
_cell_formula_units_Z   2
loop_
 _symmetry_equiv_pos_site_id
 _symmetry_equiv_pos_as_xyz
  1  'x, y, z'
loop_
 _atom_site_type_symbol
 _atom_site_label
 _atom_site_symmetry_multiplicity
 _atom_site_fract_x
 _atom_site_fract_y
 _atom_site_fract_z
 _atom_site_occupancy
  V  V0  1  1.14029889  0.14029889  0.75000000  1.0
  V  V1  1  0.85970111  -0.14029889  0.25000000  1.0
  O  O2  1  1.15222426  -0.25597339  0.47667151  1.0
  O  O3  1  0.74402661  0.15222426  1.02332849  1.0
  O  O4  1  0.84777574  0.25597339  0.52332849  1.0
  O  O5  1  1.25597339  -0.15222426  -0.02332849  1.0
  O  O6  1  0.61234480  -0.06070894  0.35882062  1.0
  O  O7  1  0.93929106  -0.38765520  0.14117938  1.0
  O  O8  1  1.38765520  0.06070894  0.64117938  1.0
  O  O9  1  1.06070894  0.38765520  0.85882062  1.0
  Bi  Bi10  1  0.85200676  -0.14799324  0.75000000  1.0
  Bi  Bi11  1  1.14799324  0.14799324  0.25000000  1.0
