# generated using pymatgen
data_Eu3Sb5O12
_symmetry_space_group_name_H-M   'P 1'
_cell_length_a   9.58095283
_cell_length_b   9.58095283
_cell_length_c   9.58095283
_cell_angle_alpha   109.47122063
_cell_angle_beta   109.47122063
_cell_angle_gamma   109.47122063
_symmetry_Int_Tables_number   1
_chemical_formula_structural   Eu3Sb5O12
_chemical_formula_sum   'Eu6 Sb10 O24'
_cell_volume   677.02423622
_cell_formula_units_Z   2
loop_
 _symmetry_equiv_pos_site_id
 _symmetry_equiv_pos_as_xyz
  1  'x, y, z'
loop_
 _atom_site_type_symbol
 _atom_site_label
 _atom_site_symmetry_multiplicity
 _atom_site_fract_x
 _atom_site_fract_y
 _atom_site_fract_z
 _atom_site_occupancy
  Eu  Eu0  1  0.25000000  0.75000000  0.50000000  1.0
  Eu  Eu1  1  0.75000000  0.25000000  0.50000000  1.0
  Eu  Eu2  1  0.25000000  0.50000000  0.75000000  1.0
  Eu  Eu3  1  0.50000000  0.25000000  0.75000000  1.0
  Eu  Eu4  1  0.75000000  0.50000000  0.25000000  1.0
  Eu  Eu5  1  0.50000000  0.75000000  0.25000000  1.0
  Sb  Sb6  1  0.71998646  0.71998646  0.00000000  1.0
  Sb  Sb7  1  0.71998646  -0.00000000  0.71998646  1.0
  Sb  Sb8  1  -0.00000000  0.71998646  0.71998646  1.0
  Sb  Sb9  1  0.28001354  0.00000000  0.28001354  1.0
  Sb  Sb10  1  -0.00000000  0.28001354  0.28001354  1.0
  Sb  Sb11  1  0.28001354  0.28001354  0.00000000  1.0
  Sb  Sb12  1  0.50635208  0.50635208  0.50635208  1.0
  Sb  Sb13  1  1.00000000  1.00000000  0.49364792  1.0
  Sb  Sb14  1  1.00000000  0.49364792  1.00000000  1.0
  Sb  Sb15  1  0.49364792  1.00000000  1.00000000  1.0
  O  O16  1  0.79824725  0.50931542  0.50931542  1.0
  O  O17  1  0.50931542  0.79824725  0.50931542  1.0
  O  O18  1  1.00000000  1.28893183  0.49068458  1.0
  O  O19  1  1.28893183  1.00000000  0.49068458  1.0
  O  O20  1  0.50931542  0.50931542  0.79824725  1.0
  O  O21  1  0.71106817  0.71106817  0.20175275  1.0
  O  O22  1  1.00000000  0.49068458  1.28893183  1.0
  O  O23  1  0.71106817  0.20175275  0.71106817  1.0
  O  O24  1  0.20175275  0.71106817  0.71106817  1.0
  O  O25  1  0.49068458  1.00000000  1.28893183  1.0
  O  O26  1  1.28893183  0.49068458  1.00000000  1.0
  O  O27  1  0.49068458  1.28893183  1.00000000  1.0
  O  O28  1  0.27434014  0.47323367  0.47323367  1.0
  O  O29  1  0.47323367  0.27434014  0.47323367  1.0
  O  O30  1  1.00000000  0.80110647  1.52676633  1.0
  O  O31  1  0.80110647  1.00000000  1.52676633  1.0
  O  O32  1  0.47323367  0.47323367  0.27434014  1.0
  O  O33  1  1.19889353  1.19889353  0.72565986  1.0
  O  O34  1  1.00000000  1.52676633  0.80110647  1.0
  O  O35  1  1.19889353  0.72565986  1.19889353  1.0
  O  O36  1  0.72565986  1.19889353  1.19889353  1.0
  O  O37  1  1.52676633  1.00000000  0.80110647  1.0
  O  O38  1  0.80110647  1.52676633  1.00000000  1.0
  O  O39  1  1.52676633  0.80110647  1.00000000  1.0
