# generated using pymatgen
data_K4V5CuClO15
_symmetry_space_group_name_H-M   'P 1'
_cell_length_a   8.91793025
_cell_length_b   8.91793025
_cell_length_c   5.65942006
_cell_angle_alpha   90.00000000
_cell_angle_beta   90.00000000
_cell_angle_gamma   90.00000000
_symmetry_Int_Tables_number   1
_chemical_formula_structural   K4V5CuClO15
_chemical_formula_sum   'K4 V5 Cu1 Cl1 O15'
_cell_volume   450.09073406
_cell_formula_units_Z   1
loop_
 _symmetry_equiv_pos_site_id
 _symmetry_equiv_pos_as_xyz
  1  'x, y, z'
loop_
 _atom_site_type_symbol
 _atom_site_label
 _atom_site_symmetry_multiplicity
 _atom_site_fract_x
 _atom_site_fract_y
 _atom_site_fract_z
 _atom_site_occupancy
  K  K0  1  0.65186089  0.81129094  0.43090848  1.0
  K  K1  1  0.81129094  0.34813911  0.43090848  1.0
  K  K2  1  0.34813911  0.18870906  0.43090848  1.0
  K  K3  1  0.18870906  0.65186089  0.43090848  1.0
  V  V4  1  0.86947635  0.63778109  0.96076275  1.0
  V  V5  1  0.63778109  0.13052365  0.96076275  1.0
  V  V6  1  0.13052365  0.36221891  0.96076275  1.0
  V  V7  1  0.36221891  0.86947635  0.96076275  1.0
  V  V8  1  0.00000000  0.00000000  -0.00888064  1.0
  Cu  Cu9  1  0.50000000  0.50000000  0.01583958  1.0
  Cl  Cl10  1  0.50000000  0.50000000  0.56693533  1.0
  O  O11  1  0.91725684  0.81397874  0.07994073  1.0
  O  O12  1  0.81397874  0.08274316  0.07994073  1.0
  O  O13  1  0.08274316  0.18602126  0.07994073  1.0
  O  O14  1  0.18602126  0.91725684  0.07994073  1.0
  O  O15  1  0.87552382  0.63907303  0.67037262  1.0
  O  O16  1  0.63907303  0.12447618  0.67037262  1.0
  O  O17  1  0.12447618  0.36092697  0.67037262  1.0
  O  O18  1  0.36092697  0.87552382  0.67037262  1.0
  O  O19  1  0.69751468  0.59282753  0.06309374  1.0
  O  O20  1  0.59282753  0.30248532  0.06309374  1.0
  O  O21  1  0.30248532  0.40717247  0.06309374  1.0
  O  O22  1  0.40717247  0.69751468  0.06309374  1.0
  O  O23  1  0.00000000  0.50000000  0.07607826  1.0
  O  O24  1  0.50000000  0.00000000  0.07607826  1.0
  O  O25  1  0.00000000  0.00000000  0.70973593  1.0
