# generated using pymatgen
data_SbClO
_symmetry_space_group_name_H-M   'P 1'
_cell_length_a   8.15182815
_cell_length_b   11.71768593
_cell_length_c   9.62764884
_cell_angle_alpha   90.00000000
_cell_angle_beta   104.34957547
_cell_angle_gamma   90.00000000
_symmetry_Int_Tables_number   1
_chemical_formula_structural   SbClO
_chemical_formula_sum   'Sb12 Cl12 O12'
_cell_volume   890.94722793
_cell_formula_units_Z   12
loop_
 _symmetry_equiv_pos_site_id
 _symmetry_equiv_pos_as_xyz
  1  'x, y, z'
loop_
 _atom_site_type_symbol
 _atom_site_label
 _atom_site_symmetry_multiplicity
 _atom_site_fract_x
 _atom_site_fract_y
 _atom_site_fract_z
 _atom_site_occupancy
  Sb  Sb0  1  0.90167161  0.25431422  0.40909657  1.0
  Sb  Sb1  1  0.90167161  0.24568578  0.90909657  1.0
  Sb  Sb2  1  0.09832839  0.75431422  0.09090343  1.0
  Sb  Sb3  1  0.09832839  0.74568578  0.59090343  1.0
  Sb  Sb4  1  0.71569422  0.46573655  0.07948791  1.0
  Sb  Sb5  1  0.71569422  0.03426345  0.57948791  1.0
  Sb  Sb6  1  0.28430578  0.96573655  0.42051209  1.0
  Sb  Sb7  1  0.28430578  0.53426345  0.92051209  1.0
  Sb  Sb8  1  0.46130642  0.33115116  0.25937869  1.0
  Sb  Sb9  1  0.46130642  0.16884884  0.75937869  1.0
  Sb  Sb10  1  0.53869358  0.83115116  0.24062131  1.0
  Sb  Sb11  1  0.53869358  0.66884884  0.74062131  1.0
  Cl  Cl12  1  0.88954573  0.10675717  0.09496690  1.0
  Cl  Cl13  1  0.88954573  0.39324283  0.59496690  1.0
  Cl  Cl14  1  0.11045427  0.60675717  0.40503310  1.0
  Cl  Cl15  1  0.11045427  0.89324283  0.90503310  1.0
  Cl  Cl16  1  0.89646460  0.88930484  0.35143526  1.0
  Cl  Cl17  1  0.89646460  0.61069516  0.85143526  1.0
  Cl  Cl18  1  0.10353540  0.38930484  0.14856474  1.0
  Cl  Cl19  1  0.10353540  0.11069516  0.64856474  1.0
  Cl  Cl20  1  0.39393875  0.15664668  0.12160205  1.0
  Cl  Cl21  1  0.39393875  0.34335332  0.62160205  1.0
  Cl  Cl22  1  0.60606125  0.65664668  0.37839795  1.0
  Cl  Cl23  1  0.60606125  0.84335332  0.87839795  1.0
  O  O24  1  0.71639563  0.33947126  0.26021657  1.0
  O  O25  1  0.71639563  0.16052874  0.76021657  1.0
  O  O26  1  0.28360437  0.83947126  0.23978343  1.0
  O  O27  1  0.28360437  0.66052874  0.73978343  1.0
  O  O28  1  0.70887918  0.16195557  0.44198189  1.0
  O  O29  1  0.70887918  0.33804443  0.94198189  1.0
  O  O30  1  0.29112082  0.66195557  0.05801811  1.0
  O  O31  1  0.29112082  0.83804443  0.55801811  1.0
  O  O32  1  0.46617717  0.43419418  0.09068075  1.0
  O  O33  1  0.46617717  0.06580582  0.59068075  1.0
  O  O34  1  0.53382283  0.93419418  0.40931925  1.0
  O  O35  1  0.53382283  0.56580582  0.90931925  1.0
