# generated using pymatgen
data_Sn4Rh
_symmetry_space_group_name_H-M   'P 1'
_cell_length_a   6.87801798
_cell_length_b   6.87801798
_cell_length_c   8.75420556
_cell_angle_alpha   90.00000000
_cell_angle_beta   90.00000000
_cell_angle_gamma   120.00000000
_symmetry_Int_Tables_number   1
_chemical_formula_structural   Sn4Rh
_chemical_formula_sum   'Sn12 Rh3'
_cell_volume   358.65260187
_cell_formula_units_Z   3
loop_
 _symmetry_equiv_pos_site_id
 _symmetry_equiv_pos_as_xyz
  1  'x, y, z'
loop_
 _atom_site_type_symbol
 _atom_site_label
 _atom_site_symmetry_multiplicity
 _atom_site_fract_x
 _atom_site_fract_y
 _atom_site_fract_z
 _atom_site_occupancy
  Sn  Sn0  1  0.26211887  0.76156518  0.09564893  1.0
  Sn  Sn1  1  0.76156518  0.26211887  0.90435107  1.0
  Sn  Sn2  1  0.49944631  0.73788113  0.76231560  1.0
  Sn  Sn3  1  0.23843482  0.50055369  0.42898227  1.0
  Sn  Sn4  1  0.73788113  0.49944631  0.23768440  1.0
  Sn  Sn5  1  0.50055369  0.23843482  0.57101773  1.0
  Sn  Sn6  1  0.90779542  0.90779542  0.00000000  1.0
  Sn  Sn7  1  -0.00000000  0.09220458  0.66666667  1.0
  Sn  Sn8  1  0.09220458  0.00000000  0.33333333  1.0
  Sn  Sn9  1  0.36923797  0.36923797  0.00000000  1.0
  Sn  Sn10  1  0.00000000  0.63076203  0.66666667  1.0
  Sn  Sn11  1  0.63076203  0.00000000  0.33333333  1.0
  Rh  Rh12  1  0.69061872  0.69061872  0.50000000  1.0
  Rh  Rh13  1  -0.00000000  0.30938128  0.16666667  1.0
  Rh  Rh14  1  0.30938128  0.00000000  0.83333333  1.0
