# generated using pymatgen
data_Lu3Cu11Si4
_symmetry_space_group_name_H-M   'P 1'
_cell_length_a   8.34828853
_cell_length_b   8.34828853
_cell_length_c   8.54989112
_cell_angle_alpha   90.00000000
_cell_angle_beta   90.00000000
_cell_angle_gamma   120.00000000
_symmetry_Int_Tables_number   1
_chemical_formula_structural   Lu3Cu11Si4
_chemical_formula_sum   'Lu6 Cu22 Si8'
_cell_volume   516.04326801
_cell_formula_units_Z   2
loop_
 _symmetry_equiv_pos_site_id
 _symmetry_equiv_pos_as_xyz
  1  'x, y, z'
loop_
 _atom_site_type_symbol
 _atom_site_label
 _atom_site_symmetry_multiplicity
 _atom_site_fract_x
 _atom_site_fract_y
 _atom_site_fract_z
 _atom_site_occupancy
  Lu  Lu0  1  0.19958168  0.80041832  0.25000000  1.0
  Lu  Lu1  1  0.19958168  0.39916336  0.25000000  1.0
  Lu  Lu2  1  0.80041832  0.19958168  0.75000000  1.0
  Lu  Lu3  1  0.80041832  0.60083664  0.75000000  1.0
  Lu  Lu4  1  0.60083664  0.80041832  0.25000000  1.0
  Lu  Lu5  1  0.39916336  0.19958168  0.75000000  1.0
  Cu  Cu6  1  0.14883313  0.85116687  0.90928918  1.0
  Cu  Cu7  1  0.14883313  0.85116687  0.59071082  1.0
  Cu  Cu8  1  0.14883313  0.29766626  0.90928918  1.0
  Cu  Cu9  1  0.14883313  0.29766626  0.59071082  1.0
  Cu  Cu10  1  0.85116687  0.14883313  0.40928918  1.0
  Cu  Cu11  1  0.85116687  0.14883313  0.09071082  1.0
  Cu  Cu12  1  0.85116687  0.70233374  0.40928918  1.0
  Cu  Cu13  1  0.85116687  0.70233374  0.09071082  1.0
  Cu  Cu14  1  0.70233374  0.85116687  0.90928918  1.0
  Cu  Cu15  1  0.70233374  0.85116687  0.59071082  1.0
  Cu  Cu16  1  0.29766626  0.14883313  0.40928918  1.0
  Cu  Cu17  1  0.29766626  0.14883313  0.09071082  1.0
  Cu  Cu18  1  0.56523245  0.43476755  0.25000000  1.0
  Cu  Cu19  1  0.56523245  0.13046491  0.25000000  1.0
  Cu  Cu20  1  0.43476755  0.56523245  0.75000000  1.0
  Cu  Cu21  1  0.43476755  0.86953509  0.75000000  1.0
  Cu  Cu22  1  0.86953509  0.43476755  0.25000000  1.0
  Cu  Cu23  1  0.13046491  0.56523245  0.75000000  1.0
  Cu  Cu24  1  0.33333333  0.66666667  0.50595544  1.0
  Cu  Cu25  1  0.33333333  0.66666667  -0.00595544  1.0
  Cu  Cu26  1  0.66666667  0.33333333  1.00595544  1.0
  Cu  Cu27  1  0.66666667  0.33333333  0.49404456  1.0
  Si  Si28  1  0.50000000  0.50000000  0.50000000  1.0
  Si  Si29  1  0.50000000  0.50000000  0.00000000  1.0
  Si  Si30  1  0.50000000  0.00000000  0.50000000  1.0
  Si  Si31  1  0.50000000  -0.00000000  -0.00000000  1.0
  Si  Si32  1  -0.00000000  0.50000000  0.50000000  1.0
  Si  Si33  1  -0.00000000  0.50000000  -0.00000000  1.0
  Si  Si34  1  -0.00000000  -0.00000000  0.25000000  1.0
  Si  Si35  1  0.00000000  -0.00000000  0.75000000  1.0
