# generated using pymatgen
data_CoSn3
_symmetry_space_group_name_H-M   'P 1'
_cell_length_a   17.66839963
_cell_length_b   17.66839963
_cell_length_c   17.66839963
_cell_angle_alpha   159.43131473
_cell_angle_beta   159.43131473
_cell_angle_gamma   29.24913468
_symmetry_Int_Tables_number   1
_chemical_formula_structural   CoSn3
_chemical_formula_sum   'Co8 Sn24'
_cell_volume   680.43492821
_cell_formula_units_Z   8
loop_
 _symmetry_equiv_pos_site_id
 _symmetry_equiv_pos_as_xyz
  1  'x, y, z'
loop_
 _atom_site_type_symbol
 _atom_site_label
 _atom_site_symmetry_multiplicity
 _atom_site_fract_x
 _atom_site_fract_y
 _atom_site_fract_z
 _atom_site_occupancy
  Co  Co0  1  0.53970771  0.53970771  1.00000000  1.0
  Co  Co1  1  0.03970771  0.03970771  0.00000000  1.0
  Co  Co2  1  0.78970771  1.28970771  0.50000000  1.0
  Co  Co3  1  1.28970771  0.78970771  0.50000000  1.0
  Co  Co4  1  1.21029229  0.71029229  0.50000000  1.0
  Co  Co5  1  0.71029229  1.21029229  0.50000000  1.0
  Co  Co6  1  0.96029229  0.96029229  -0.00000000  1.0
  Co  Co7  1  1.46029229  1.46029229  1.00000000  1.0
  Sn  Sn8  1  1.01629705  1.64815179  0.99956211  1.0
  Sn  Sn9  1  1.51629705  1.51673493  1.36814525  1.0
  Sn  Sn10  1  0.89815179  0.76629705  1.49956211  1.0
  Sn  Sn11  1  0.39815179  0.89858968  1.13185475  1.0
  Sn  Sn12  1  1.73370295  1.60184821  1.50043789  1.0
  Sn  Sn13  1  1.23370295  1.73326507  1.13185475  1.0
  Sn  Sn14  1  0.85184821  1.48370295  1.00043789  1.0
  Sn  Sn15  1  1.35184821  1.35141032  1.36814525  1.0
  Sn  Sn16  1  1.14858968  1.14815179  0.63185475  1.0
  Sn  Sn17  1  1.64858968  1.01673493  1.00043789  1.0
  Sn  Sn18  1  0.76673493  0.26629705  0.86814525  1.0
  Sn  Sn19  1  0.26673493  0.39858968  0.50043789  1.0
  Sn  Sn20  1  1.60141032  1.10184821  0.86814525  1.0
  Sn  Sn21  1  1.10141032  1.23326507  0.49956211  1.0
  Sn  Sn22  1  0.98326507  0.98370295  0.63185475  1.0
  Sn  Sn23  1  1.48326507  0.85141032  0.99956211  1.0
  Sn  Sn24  1  0.91314031  0.91314031  0.32628062  1.0
  Sn  Sn25  1  1.41314031  1.08685969  1.00000000  1.0
  Sn  Sn26  1  0.16314031  0.66314031  0.82628062  1.0
  Sn  Sn27  1  0.66314031  0.83685969  1.50000000  1.0
  Sn  Sn28  1  0.83685969  0.33685969  1.17371938  1.0
  Sn  Sn29  1  0.33685969  0.16314031  0.50000000  1.0
  Sn  Sn30  1  1.58685969  1.58685969  1.67371938  1.0
  Sn  Sn31  1  1.08685969  1.41314031  1.00000000  1.0
