# generated using pymatgen
data_B12S
_symmetry_space_group_name_H-M   'P 1'
_cell_length_a   5.11817683
_cell_length_b   5.11817683
_cell_length_c   5.11817683
_cell_angle_alpha   68.71664127
_cell_angle_beta   68.71664127
_cell_angle_gamma   68.71664127
_symmetry_Int_Tables_number   1
_chemical_formula_structural   B12S
_chemical_formula_sum   'B12 S1'
_cell_volume   112.20546983
_cell_formula_units_Z   1
loop_
 _symmetry_equiv_pos_site_id
 _symmetry_equiv_pos_as_xyz
  1  'x, y, z'
loop_
 _atom_site_type_symbol
 _atom_site_label
 _atom_site_symmetry_multiplicity
 _atom_site_fract_x
 _atom_site_fract_y
 _atom_site_fract_z
 _atom_site_occupancy
  B  B0  1  1.29115971  -0.18926456  -0.18926456  1.0
  B  B1  1  0.81073544  -0.18926456  0.29115971  1.0
  B  B2  1  0.81073544  0.29115971  -0.18926456  1.0
  B  B3  1  0.70884029  0.18926456  -0.81073544  1.0
  B  B4  1  0.18926456  0.18926456  -0.29115971  1.0
  B  B5  1  0.18926456  0.70884029  -0.81073544  1.0
  B  B6  1  0.67014006  0.99122087  -0.00877913  1.0
  B  B7  1  0.99122087  0.99122087  -0.32985994  1.0
  B  B8  1  0.99122087  0.67014006  -0.00877913  1.0
  B  B9  1  1.32985994  1.00877913  0.00877913  1.0
  B  B10  1  1.00877913  1.00877913  0.32985994  1.0
  B  B11  1  1.00877913  1.32985994  0.00877913  1.0
  S  S12  1  0.50000000  0.50000000  -0.50000000  1.0
