# generated using pymatgen
data_KLuH8(CO3)4
_symmetry_space_group_name_H-M   'P 1'
_cell_length_a   9.25735772
_cell_length_b   9.25735772
_cell_length_c   9.25735772
_cell_angle_alpha   103.51566057
_cell_angle_beta   103.51566057
_cell_angle_gamma   122.17978814
_symmetry_Int_Tables_number   1
_chemical_formula_structural   KLuH8(CO3)4
_chemical_formula_sum   'K2 Lu2 H16 C8 O24'
_cell_volume   587.79156502
_cell_formula_units_Z   2
loop_
 _symmetry_equiv_pos_site_id
 _symmetry_equiv_pos_as_xyz
  1  'x, y, z'
loop_
 _atom_site_type_symbol
 _atom_site_label
 _atom_site_symmetry_multiplicity
 _atom_site_fract_x
 _atom_site_fract_y
 _atom_site_fract_z
 _atom_site_occupancy
  K  K0  1  0.00000000  0.00000000  0.00000000  1.0
  K  K1  1  0.75000000  1.25000000  0.50000000  1.0
  Lu  Lu2  1  0.50000000  0.50000000  -0.00000000  1.0
  Lu  Lu3  1  0.25000000  0.75000000  0.50000000  1.0
  H  H4  1  1.21922893  1.87188406  1.15155637  1.0
  H  H5  1  0.72032769  1.06767256  0.84844363  1.0
  H  H6  1  0.62188406  0.97032769  1.15265512  1.0
  H  H7  1  0.81767256  1.46922893  0.84734488  1.0
  H  H8  1  1.53077107  1.37811594  1.34844363  1.0
  H  H9  1  1.02967231  1.18232744  1.65155637  1.0
  H  H10  1  1.12811594  1.27967231  1.34734488  1.0
  H  H11  1  0.93232744  0.78077107  1.65265512  1.0
  H  H12  1  0.35929454  0.94176203  1.06921880  1.0
  H  H13  1  0.87254323  1.29007574  0.93078120  1.0
  H  H14  1  0.69176203  1.12254323  1.08246749  1.0
  H  H15  1  1.04007574  1.60929454  0.91753251  1.0
  H  H16  1  1.39070546  1.30823797  1.43078120  1.0
  H  H17  1  0.87745677  0.95992426  1.56921880  1.0
  H  H18  1  1.05823797  1.12745677  1.41753251  1.0
  H  H19  1  1.70992426  1.64070546  1.58246749  1.0
  C  C20  1  1.47883943  0.70978940  0.77842439  1.0
  C  C21  1  0.93136500  1.70041504  1.22157561  1.0
  C  C22  1  0.45978940  1.18136500  0.73094997  1.0
  C  C23  1  1.45041504  0.72883943  1.26905003  1.0
  C  C24  1  0.27116057  0.54021060  0.72157561  1.0
  C  C25  1  0.81863500  0.54958496  1.27842439  1.0
  C  C26  1  1.29021060  1.06863500  1.76905003  1.0
  C  C27  1  0.29958496  0.52116057  0.23094997  1.0
  O  O28  1  0.22327372  0.86538284  1.04521813  1.0
  O  O29  1  0.82016470  1.17805559  0.95478187  1.0
  O  O30  1  0.61538284  1.07016470  1.14210912  1.0
  O  O31  1  0.92805559  1.47327372  0.85789088  1.0
  O  O32  1  1.52672628  1.38461716  1.45478187  1.0
  O  O33  1  0.92983530  1.07194441  1.54521813  1.0
  O  O34  1  1.13461716  1.17983530  1.35789088  1.0
  O  O35  1  1.82194441  1.77672628  1.64210912  1.0
  O  O36  1  1.60220470  0.72727387  0.89067979  1.0
  O  O37  1  0.83659408  1.71152491  1.10932021  1.0
  O  O38  1  0.47727387  1.08659408  0.62506917  1.0
  O  O39  1  1.46152491  0.85220470  1.37493083  1.0
  O  O40  1  0.14779530  0.52272613  0.60932021  1.0
  O  O41  1  0.91340592  0.53847509  1.39067979  1.0
  O  O42  1  1.27272613  1.16340592  1.87493083  1.0
  O  O43  1  0.28847509  0.39779530  0.12506917  1.0
  O  O44  1  0.50659184  0.81768096  0.70700707  1.0
  O  O45  1  1.11067389  0.79958477  1.29299293  1.0
  O  O46  1  0.56768096  1.36067389  0.81108911  1.0
  O  O47  1  1.54958477  0.75659184  1.18891089  1.0
  O  O48  1  1.24340816  1.43231904  1.79299293  1.0
  O  O49  1  0.63932611  0.45041523  0.20700707  1.0
  O  O50  1  1.18231904  0.88932611  1.68891089  1.0
  O  O51  1  0.20041523  0.49340816  0.31108911  1.0
