# generated using pymatgen
data_LuNiSn4
_symmetry_space_group_name_H-M   'P 1'
_cell_length_a   14.31879229
_cell_length_b   14.31879229
_cell_length_c   4.46960655
_cell_angle_alpha   90.00000000
_cell_angle_beta   90.00000000
_cell_angle_gamma   162.27681290
_symmetry_Int_Tables_number   1
_chemical_formula_structural   LuNiSn4
_chemical_formula_sum   'Lu2 Ni2 Sn8'
_cell_volume   278.96724553
_cell_formula_units_Z   2
loop_
 _symmetry_equiv_pos_site_id
 _symmetry_equiv_pos_as_xyz
  1  'x, y, z'
loop_
 _atom_site_type_symbol
 _atom_site_label
 _atom_site_symmetry_multiplicity
 _atom_site_fract_x
 _atom_site_fract_y
 _atom_site_fract_z
 _atom_site_occupancy
  Lu  Lu0  1  -0.80526449  0.80526449  0.50000000  1.0
  Lu  Lu1  1  -0.19473551  1.19473551  0.50000000  1.0
  Ni  Ni2  1  -0.55324462  0.55324462  0.00000000  1.0
  Ni  Ni3  1  -0.44675538  1.44675538  0.00000000  1.0
  Sn  Sn4  1  -0.61059284  0.61059284  0.50000000  1.0
  Sn  Sn5  1  -0.38940716  1.38940716  0.50000000  1.0
  Sn  Sn6  1  -0.88885187  0.88885187  0.00000000  1.0
  Sn  Sn7  1  -0.11114813  1.11114813  0.00000000  1.0
  Sn  Sn8  1  -0.71352663  0.71352663  0.00000000  1.0
  Sn  Sn9  1  -0.28647337  1.28647337  0.00000000  1.0
  Sn  Sn10  1  0.50000000  0.50000000  0.50000000  1.0
  Sn  Sn11  1  0.00000000  0.00000000  0.00000000  1.0
