# generated using pymatgen
data_Be2GeO4
_symmetry_space_group_name_H-M   'P 1'
_cell_length_a   7.96007506
_cell_length_b   7.96007506
_cell_length_c   7.96007506
_cell_angle_alpha   107.99099737
_cell_angle_beta   107.99099737
_cell_angle_gamma   107.99099737
_symmetry_Int_Tables_number   1
_chemical_formula_structural   Be2GeO4
_chemical_formula_sum   'Be12 Ge6 O24'
_cell_volume   408.15901748
_cell_formula_units_Z   6
loop_
 _symmetry_equiv_pos_site_id
 _symmetry_equiv_pos_as_xyz
  1  'x, y, z'
loop_
 _atom_site_type_symbol
 _atom_site_label
 _atom_site_symmetry_multiplicity
 _atom_site_fract_x
 _atom_site_fract_y
 _atom_site_fract_z
 _atom_site_occupancy
  Be  Be0  1  0.70714950  1.10950258  -0.06990884  1.0
  Be  Be1  1  0.89049742  0.06990884  0.29285050  1.0
  Be  Be2  1  1.06990884  0.29285050  -0.10950258  1.0
  Be  Be3  1  1.29285050  -0.10950258  0.06990884  1.0
  Be  Be4  1  1.10950258  0.93009116  -0.29285050  1.0
  Be  Be5  1  0.93009116  0.70714950  0.10950258  1.0
  Be  Be6  1  1.37157046  0.77868563  -0.39540558  1.0
  Be  Be7  1  1.22131437  0.39540558  -0.37157046  1.0
  Be  Be8  1  1.39540558  -0.37157046  0.22131437  1.0
  Be  Be9  1  0.62842954  0.22131437  0.39540558  1.0
  Be  Be10  1  0.77868563  0.60459442  0.37157046  1.0
  Be  Be11  1  0.60459442  1.37157046  -0.22131437  1.0
  Ge  Ge12  1  1.55510546  0.73195816  -0.03744848  1.0
  Ge  Ge13  1  0.26804184  1.03744848  -0.55510546  1.0
  Ge  Ge14  1  1.03744848  0.44489454  -0.73195816  1.0
  Ge  Ge15  1  0.44489454  0.26804184  0.03744848  1.0
  Ge  Ge16  1  1.73195816  -0.03744848  0.55510546  1.0
  Ge  Ge17  1  0.96255152  0.55510546  0.73195816  1.0
  O  O18  1  0.80592877  0.83647596  0.13520437  1.0
  O  O19  1  1.16352404  -0.13520437  0.19407123  1.0
  O  O20  1  0.86479563  0.19407123  0.16352404  1.0
  O  O21  1  1.19407123  0.16352404  -0.13520437  1.0
  O  O22  1  0.83647596  1.13520437  -0.19407123  1.0
  O  O23  1  1.13520437  0.80592877  -0.16352404  1.0
  O  O24  1  1.45595704  0.48057287  -0.21201030  1.0
  O  O25  1  0.51942713  1.21201030  -0.45595704  1.0
  O  O26  1  1.21201030  0.54404296  -0.48057287  1.0
  O  O27  1  0.54404296  0.51942713  0.21201030  1.0
  O  O28  1  1.48057287  -0.21201030  0.45595704  1.0
  O  O29  1  0.78798970  0.45595704  0.48057287  1.0
  O  O30  1  1.54429814  0.87538731  -0.16956041  1.0
  O  O31  1  1.12461269  0.16956041  -0.54429814  1.0
  O  O32  1  1.16956041  -0.54429814  0.12461269  1.0
  O  O33  1  0.45570186  0.12461269  0.16956041  1.0
  O  O34  1  0.87538731  0.83043959  0.54429814  1.0
  O  O35  1  0.83043959  1.54429814  -0.12461269  1.0
  O  O36  1  0.59129676  1.24802626  -0.08905373  1.0
  O  O37  1  0.75197374  0.08905373  0.40870324  1.0
  O  O38  1  1.08905373  0.40870324  -0.24802626  1.0
  O  O39  1  1.40870324  -0.24802626  0.08905373  1.0
  O  O40  1  1.24802626  0.91094627  -0.40870324  1.0
  O  O41  1  0.91094627  0.59129676  0.24802626  1.0
