# generated using pymatgen
data_Ba2Co9O14
_symmetry_space_group_name_H-M   'P 1'
_cell_length_a   10.20370935
_cell_length_b   10.20370935
_cell_length_c   10.20370935
_cell_angle_alpha   32.60581571
_cell_angle_beta   32.60581571
_cell_angle_gamma   32.60581571
_symmetry_Int_Tables_number   1
_chemical_formula_structural   Ba2Co9O14
_chemical_formula_sum   'Ba2 Co9 O14'
_cell_volume   274.34204483
_cell_formula_units_Z   1
loop_
 _symmetry_equiv_pos_site_id
 _symmetry_equiv_pos_as_xyz
  1  'x, y, z'
loop_
 _atom_site_type_symbol
 _atom_site_label
 _atom_site_symmetry_multiplicity
 _atom_site_fract_x
 _atom_site_fract_y
 _atom_site_fract_z
 _atom_site_occupancy
  O  O0  1  1.21685538  0.21685538  0.67615279  1.0
  O  O1  1  1.21685538  0.67615279  0.21685538  1.0
  O  O2  1  1.32384721  0.78314462  0.78314462  1.0
  O  O3  1  1.78314462  0.32384721  0.78314462  1.0
  O  O4  1  1.78314462  0.78314462  0.32384721  1.0
  O  O5  1  1.67615279  0.21685538  0.21685538  1.0
  O  O6  1  0.70198633  0.70198633  0.70198633  1.0
  O  O7  1  1.29801367  1.29801367  0.29801367  1.0
  O  O8  1  1.39486900  0.39486900  0.84489230  1.0
  O  O9  1  1.39486900  0.84489230  0.39486900  1.0
  O  O10  1  1.15510770  0.60513100  0.60513100  1.0
  O  O11  1  1.60513100  0.15510770  0.60513100  1.0
  O  O12  1  1.60513100  0.60513100  0.15510770  1.0
  O  O13  1  1.84489230  0.39486900  0.39486900  1.0
  Ba  Ba14  1  0.88628825  0.88628825  0.88628825  1.0
  Ba  Ba15  1  1.11371175  1.11371175  0.11371175  1.0
  Co  Co16  1  0.50000000  -0.00000000  -0.50000000  1.0
  Co  Co17  1  0.50000000  -0.50000000  -0.00000000  1.0
  Co  Co18  1  -0.00000000  0.50000000  -0.50000000  1.0
  Co  Co19  1  1.58705483  0.58705483  0.58705483  1.0
  Co  Co20  1  1.41294517  0.41294517  0.41294517  1.0
  Co  Co21  1  0.00000000  0.00000000  0.00000000  1.0
  Co  Co22  1  0.77012826  0.77012826  0.77012826  1.0
  Co  Co23  1  1.22987174  1.22987174  0.22987174  1.0
  Co  Co24  1  1.50000000  0.50000000  0.50000000  1.0
