# generated using pymatgen
data_Cs2MoS3O
_symmetry_space_group_name_H-M   'P 1'
_cell_length_a   9.99797752
_cell_length_b   7.47657621
_cell_length_c   12.51637983
_cell_angle_alpha   90.00000000
_cell_angle_beta   90.00000000
_cell_angle_gamma   90.00000000
_symmetry_Int_Tables_number   1
_chemical_formula_structural   Cs2MoS3O
_chemical_formula_sum   'Cs8 Mo4 S12 O4'
_cell_volume   935.60741373
_cell_formula_units_Z   4
loop_
 _symmetry_equiv_pos_site_id
 _symmetry_equiv_pos_as_xyz
  1  'x, y, z'
loop_
 _atom_site_type_symbol
 _atom_site_label
 _atom_site_symmetry_multiplicity
 _atom_site_fract_x
 _atom_site_fract_y
 _atom_site_fract_z
 _atom_site_occupancy
  Cs  Cs0  1  0.03795774  0.75000000  0.68584805  1.0
  Cs  Cs1  1  0.53795774  0.75000000  0.81415195  1.0
  Cs  Cs2  1  0.96204226  0.25000000  0.31415195  1.0
  Cs  Cs3  1  0.46204226  0.25000000  0.18584805  1.0
  Cs  Cs4  1  0.83732925  0.75000000  0.12001802  1.0
  Cs  Cs5  1  0.33732925  0.75000000  0.37998198  1.0
  Cs  Cs6  1  0.16267075  0.25000000  0.87998198  1.0
  Cs  Cs7  1  0.66267075  0.25000000  0.62001802  1.0
  Mo  Mo8  1  0.76102161  0.75000000  0.44558956  1.0
  Mo  Mo9  1  0.26102161  0.75000000  0.05441044  1.0
  Mo  Mo10  1  0.23897839  0.25000000  0.55441044  1.0
  Mo  Mo11  1  0.73897839  0.25000000  0.94558956  1.0
  S  S12  1  0.66273671  0.99071972  0.37842668  1.0
  S  S13  1  0.66273671  0.50928028  0.37842668  1.0
  S  S14  1  0.16273671  0.99071972  0.12157332  1.0
  S  S15  1  0.16273671  0.50928028  0.12157332  1.0
  S  S16  1  0.33726329  0.49071972  0.62157332  1.0
  S  S17  1  0.33726329  0.00928028  0.62157332  1.0
  S  S18  1  0.83726329  0.49071972  0.87842668  1.0
  S  S19  1  0.83726329  0.00928028  0.87842668  1.0
  S  S20  1  0.97482149  0.75000000  0.39909997  1.0
  S  S21  1  0.47482149  0.75000000  0.10090003  1.0
  S  S22  1  0.02517851  0.25000000  0.60090003  1.0
  S  S23  1  0.52517851  0.25000000  0.89909997  1.0
  O  O24  1  0.74802213  0.75000000  0.58457803  1.0
  O  O25  1  0.24802213  0.75000000  0.91542197  1.0
  O  O26  1  0.25197787  0.25000000  0.41542197  1.0
  O  O27  1  0.75197787  0.25000000  0.08457803  1.0
