# generated using pymatgen
data_TiNi(OF)6
_symmetry_space_group_name_H-M   'P 1'
_cell_length_a   6.36409192
_cell_length_b   6.36409192
_cell_length_c   6.36409192
_cell_angle_alpha   70.76514644
_cell_angle_beta   70.76514644
_cell_angle_gamma   70.76514644
_symmetry_Int_Tables_number   1
_chemical_formula_structural   TiNi(OF)6
_chemical_formula_sum   'Ti1 Ni1 O6 F6'
_cell_volume   222.61480903
_cell_formula_units_Z   1
loop_
 _symmetry_equiv_pos_site_id
 _symmetry_equiv_pos_as_xyz
  1  'x, y, z'
loop_
 _atom_site_type_symbol
 _atom_site_label
 _atom_site_symmetry_multiplicity
 _atom_site_fract_x
 _atom_site_fract_y
 _atom_site_fract_z
 _atom_site_occupancy
  Ti  Ti0  1  -0.00000000  0.00000000  -0.00000000  1.0
  Ni  Ni1  1  0.50000000  0.50000000  0.50000000  1.0
  O  O2  1  1.42962341  0.53362671  -0.21011897  1.0
  O  O3  1  1.46637329  0.21011897  -0.42962341  1.0
  O  O4  1  1.21011897  -0.42962341  0.46637329  1.0
  O  O5  1  0.57037659  0.46637329  0.21011897  1.0
  O  O6  1  0.53362671  0.78988103  0.42962341  1.0
  O  O7  1  0.78988103  1.42962341  -0.46637329  1.0
  F  F8  1  0.85476145  0.75570185  0.15543792  1.0
  F  F9  1  1.24429815  -0.15543792  0.14523855  1.0
  F  F10  1  0.84456208  0.14523855  0.24429815  1.0
  F  F11  1  1.14523855  0.24429815  -0.15543792  1.0
  F  F12  1  0.75570185  1.15543792  -0.14523855  1.0
  F  F13  1  1.15543792  0.85476145  -0.24429815  1.0
