# generated using pymatgen
data_ZnH6(Se2N)2
_symmetry_space_group_name_H-M   'P 1'
_cell_length_a   5.99231321
_cell_length_b   11.68968608
_cell_length_c   6.59119599
_cell_angle_alpha   90.00000000
_cell_angle_beta   113.85837519
_cell_angle_gamma   90.00000000
_symmetry_Int_Tables_number   1
_chemical_formula_structural   ZnH6(Se2N)2
_chemical_formula_sum   'Zn2 H12 Se8 N4'
_cell_volume   422.24849012
_cell_formula_units_Z   2
loop_
 _symmetry_equiv_pos_site_id
 _symmetry_equiv_pos_as_xyz
  1  'x, y, z'
loop_
 _atom_site_type_symbol
 _atom_site_label
 _atom_site_symmetry_multiplicity
 _atom_site_fract_x
 _atom_site_fract_y
 _atom_site_fract_z
 _atom_site_occupancy
  Zn  Zn0  1  0.67404683  0.32019480  0.61591668  1.0
  Zn  Zn1  1  0.32595317  0.82019480  0.38408332  1.0
  H  H2  1  0.75768584  0.73645156  0.46977555  1.0
  H  H3  1  0.24231416  0.23645156  0.53022445  1.0
  H  H4  1  0.78313817  0.13612872  0.44918194  1.0
  H  H5  1  0.21686183  0.63612872  0.55081806  1.0
  H  H6  1  0.70278790  0.23462394  0.25320118  1.0
  H  H7  1  0.29721210  0.73462394  0.74679882  1.0
  H  H8  1  0.49235521  0.16351102  0.30530347  1.0
  H  H9  1  0.50764479  0.66351102  0.69469653  1.0
  H  H10  1  0.31900039  0.31531156  0.75523422  1.0
  H  H11  1  0.68099961  0.81531156  0.24476578  1.0
  H  H12  1  0.20218096  0.37658691  0.50968819  1.0
  H  H13  1  0.79781904  0.87658691  0.49031181  1.0
  Se  Se14  1  0.93919947  0.25067898  0.98485098  1.0
  Se  Se15  1  0.06080053  0.75067898  0.01514902  1.0
  Se  Se16  1  0.87393524  0.04926605  0.92616973  1.0
  Se  Se17  1  0.12606476  0.54926605  0.07383027  1.0
  Se  Se18  1  0.78130412  0.50837959  0.52053847  1.0
  Se  Se19  1  0.21869588  0.00837959  0.47946153  1.0
  Se  Se20  1  0.46935465  0.00068461  0.87098871  1.0
  Se  Se21  1  0.53064535  0.50068461  0.12901129  1.0
  N  N22  1  0.66101272  0.20109447  0.37821561  1.0
  N  N23  1  0.33898728  0.70109447  0.62178439  1.0
  N  N24  1  0.31889719  0.31328779  0.59966833  1.0
  N  N25  1  0.68110281  0.81328779  0.40033167  1.0
