# generated using pymatgen
data_RbZr2(AsO4)3
_symmetry_space_group_name_H-M   'P 1'
_cell_length_a   9.99940599
_cell_length_b   9.99940599
_cell_length_c   9.99940599
_cell_angle_alpha   54.70715233
_cell_angle_beta   54.70715233
_cell_angle_gamma   54.70715233
_symmetry_Int_Tables_number   1
_chemical_formula_structural   RbZr2(AsO4)3
_chemical_formula_sum   'Rb2 Zr4 As6 O24'
_cell_volume   619.81421069
_cell_formula_units_Z   2
loop_
 _symmetry_equiv_pos_site_id
 _symmetry_equiv_pos_as_xyz
  1  'x, y, z'
loop_
 _atom_site_type_symbol
 _atom_site_label
 _atom_site_symmetry_multiplicity
 _atom_site_fract_x
 _atom_site_fract_y
 _atom_site_fract_z
 _atom_site_occupancy
  Rb  Rb0  1  1.00000000  0.00000000  -0.00000000  1.0
  Rb  Rb1  1  0.50000000  0.50000000  0.50000000  1.0
  Zr  Zr2  1  0.85118902  -0.14881098  -0.14881098  1.0
  Zr  Zr3  1  0.35118902  0.35118902  0.35118902  1.0
  Zr  Zr4  1  0.64881098  0.64881098  -0.35118902  1.0
  Zr  Zr5  1  1.14881098  0.14881098  0.14881098  1.0
  As  As6  1  0.46958923  0.75000000  0.03041077  1.0
  As  As7  1  0.96958923  -0.46958923  0.25000000  1.0
  As  As8  1  0.25000000  0.96958923  -0.46958923  1.0
  As  As9  1  0.75000000  1.03041077  -0.53041077  1.0
  As  As10  1  0.53041077  0.25000000  -0.03041077  1.0
  As  As11  1  1.03041077  0.46958923  -0.25000000  1.0
  O  O12  1  0.74683420  1.01195682  -0.34625527  1.0
  O  O13  1  1.24683420  0.15374473  -0.48804318  1.0
  O  O14  1  0.84625527  0.48804318  -0.24683420  1.0
  O  O15  1  0.34625527  0.25316580  -0.01195682  1.0
  O  O16  1  0.98804318  0.34625527  -0.74683420  1.0
  O  O17  1  0.48804318  0.75316580  -0.15374473  1.0
  O  O18  1  0.25316580  0.98804318  -0.65374473  1.0
  O  O19  1  0.75316580  0.84625527  -0.51195682  1.0
  O  O20  1  0.65374473  0.74683420  0.01195682  1.0
  O  O21  1  1.15374473  -0.48804318  0.24683420  1.0
  O  O22  1  0.51195682  0.24683420  0.15374473  1.0
  O  O23  1  1.01195682  0.65374473  -0.25316580  1.0
  O  O24  1  0.70886347  0.06433923  -0.06784146  1.0
  O  O25  1  1.20886347  0.43215854  -0.43566077  1.0
  O  O26  1  0.56784146  0.43566077  -0.20886347  1.0
  O  O27  1  1.06784146  0.29113653  -0.06433923  1.0
  O  O28  1  0.93566077  0.06784146  0.29113653  1.0
  O  O29  1  0.43566077  0.79113653  -0.43215854  1.0
  O  O30  1  1.29113653  -0.06433923  0.06784146  1.0
  O  O31  1  0.79113653  0.56784146  -0.56433923  1.0
  O  O32  1  0.93215854  -0.29113653  0.06433923  1.0
  O  O33  1  0.43215854  0.56433923  0.20886347  1.0
  O  O34  1  0.56433923  1.20886347  -0.56784146  1.0
  O  O35  1  1.06433923  -0.06784146  -0.29113653  1.0
