# generated using pymatgen
data_Ca3Al2S(OF)8
_symmetry_space_group_name_H-M   'P 1'
_cell_length_a   8.30318687
_cell_length_b   8.30318687
_cell_length_c   10.29059088
_cell_angle_alpha   88.68740828
_cell_angle_beta   91.31259172
_cell_angle_gamma   118.34070306
_symmetry_Int_Tables_number   1
_chemical_formula_structural   Ca3Al2S(OF)8
_chemical_formula_sum   'Ca6 Al4 S2 O16 F16'
_cell_volume   624.20504903
_cell_formula_units_Z   2
loop_
 _symmetry_equiv_pos_site_id
 _symmetry_equiv_pos_as_xyz
  1  'x, y, z'
loop_
 _atom_site_type_symbol
 _atom_site_label
 _atom_site_symmetry_multiplicity
 _atom_site_fract_x
 _atom_site_fract_y
 _atom_site_fract_z
 _atom_site_occupancy
  F  F0  1  0.45460263  -0.37455127  0.92133498  1.0
  F  F1  1  1.37455127  0.54539737  0.42133498  1.0
  F  F2  1  0.62544873  -0.54539737  0.57866502  1.0
  F  F3  1  1.54539737  0.37455127  0.07866502  1.0
  F  F4  1  1.62098592  0.16497208  0.47541634  1.0
  F  F5  1  0.83502792  -0.62098592  0.97541634  1.0
  F  F6  1  1.16497208  0.62098592  0.02458366  1.0
  F  F7  1  0.37901408  -0.16497208  0.52458366  1.0
  F  F8  1  0.29809104  -0.19479203  0.82397936  1.0
  F  F9  1  1.19479203  0.70190896  0.32397936  1.0
  F  F10  1  0.80520797  -0.70190896  0.67602064  1.0
  F  F11  1  1.70190896  0.19479203  0.17602064  1.0
  F  F12  1  1.52569412  0.25086491  0.84899277  1.0
  F  F13  1  0.74913509  -0.52569412  0.34899277  1.0
  F  F14  1  1.25086491  0.52569412  0.65100723  1.0
  F  F15  1  0.47430588  -0.25086491  0.15100723  1.0
  Ca  Ca16  1  1.52865514  0.02567062  0.69566804  1.0
  Ca  Ca17  1  0.97432938  -0.52865514  0.19566804  1.0
  Ca  Ca18  1  1.02567062  0.52865514  0.80433196  1.0
  Ca  Ca19  1  0.47134486  -0.02567062  0.30433196  1.0
  Ca  Ca20  1  1.47889240  0.47889240  0.75000000  1.0
  Ca  Ca21  1  0.52110760  -0.47889240  0.25000000  1.0
  Al  Al22  1  0.39758446  -0.21254823  0.98802972  1.0
  Al  Al23  1  1.21254823  0.60241554  0.48802972  1.0
  Al  Al24  1  0.78745177  -0.60241554  0.51197028  1.0
  Al  Al25  1  1.60241554  0.21254823  0.01197028  1.0
  S  S26  1  0.87400114  -0.12599886  0.75000000  1.0
  S  S27  1  1.12599886  0.12599886  0.25000000  1.0
  O  O28  1  1.30132073  0.14521920  0.66486003  1.0
  O  O29  1  0.85478080  -0.30132073  0.16486003  1.0
  O  O30  1  1.14521920  0.30132073  0.83513997  1.0
  O  O31  1  0.69867927  -0.14521920  0.33513997  1.0
  O  O32  1  1.60633910  0.00574972  0.94161438  1.0
  O  O33  1  0.99425028  -0.60633910  0.44161438  1.0
  O  O34  1  1.00574972  0.60633910  0.55838562  1.0
  O  O35  1  0.39366090  -0.00574972  0.05838562  1.0
  O  O36  1  0.94065298  0.00460617  0.86072280  1.0
  O  O37  1  0.99539383  0.05934702  0.36072280  1.0
  O  O38  1  1.00460617  -0.05934702  0.63927720  1.0
  O  O39  1  1.05934702  -0.00460617  0.13927720  1.0
  O  O40  1  0.69010802  -0.15416654  0.70132160  1.0
  O  O41  1  1.15416654  0.30989198  0.20132160  1.0
  O  O42  1  0.84583346  -0.30989198  0.79867840  1.0
  O  O43  1  1.30989198  0.15416654  0.29867840  1.0
