# generated using pymatgen
data_YAlPd
_symmetry_space_group_name_H-M   'P 1'
_cell_length_a   6.94123487
_cell_length_b   4.45851761
_cell_length_c   7.75651384
_cell_angle_alpha   90.00000000
_cell_angle_beta   90.00000000
_cell_angle_gamma   90.00000000
_symmetry_Int_Tables_number   1
_chemical_formula_structural   YAlPd
_chemical_formula_sum   'Y4 Al4 Pd4'
_cell_volume   240.04562632
_cell_formula_units_Z   4
loop_
 _symmetry_equiv_pos_site_id
 _symmetry_equiv_pos_as_xyz
  1  'x, y, z'
loop_
 _atom_site_type_symbol
 _atom_site_label
 _atom_site_symmetry_multiplicity
 _atom_site_fract_x
 _atom_site_fract_y
 _atom_site_fract_z
 _atom_site_occupancy
  Y  Y0  1  0.97079845  0.75000000  0.68264575  1.0
  Y  Y1  1  0.47079845  0.75000000  0.81735425  1.0
  Y  Y2  1  0.02920155  0.25000000  0.31735425  1.0
  Y  Y3  1  0.52920155  0.25000000  0.18264575  1.0
  Al  Al4  1  0.85147879  0.75000000  0.06485429  1.0
  Al  Al5  1  0.35147879  0.75000000  0.43514571  1.0
  Al  Al6  1  0.14852121  0.25000000  0.93514571  1.0
  Al  Al7  1  0.64852121  0.25000000  0.56485429  1.0
  Pd  Pd8  1  0.72453479  0.75000000  0.38609522  1.0
  Pd  Pd9  1  0.22453479  0.75000000  0.11390478  1.0
  Pd  Pd10  1  0.27546521  0.25000000  0.61390478  1.0
  Pd  Pd11  1  0.77546521  0.25000000  0.88609522  1.0
