# generated using pymatgen
data_LaVO4
_symmetry_space_group_name_H-M   'P 1'
_cell_length_a   6.25497691
_cell_length_b   6.25497691
_cell_length_c   6.25497691
_cell_angle_alpha   105.97436521
_cell_angle_beta   105.97436521
_cell_angle_gamma   116.71709333
_symmetry_Int_Tables_number   1
_chemical_formula_structural   LaVO4
_chemical_formula_sum   'La2 V2 O8'
_cell_volume   186.10194121
_cell_formula_units_Z   2
loop_
 _symmetry_equiv_pos_site_id
 _symmetry_equiv_pos_as_xyz
  1  'x, y, z'
loop_
 _atom_site_type_symbol
 _atom_site_label
 _atom_site_symmetry_multiplicity
 _atom_site_fract_x
 _atom_site_fract_y
 _atom_site_fract_z
 _atom_site_occupancy
  La  La0  1  0.25000000  0.75000000  0.50000000  1.0
  La  La1  1  0.50000000  0.50000000  0.00000000  1.0
  V  V2  1  0.00000000  0.00000000  0.00000000  1.0
  V  V3  1  0.75000000  1.25000000  0.50000000  1.0
  O  O4  1  0.16690937  0.34357050  0.17666113  1.0
  O  O5  1  1.09357050  1.41690937  0.67666113  1.0
  O  O6  1  0.74024825  0.41690937  0.32333887  1.0
  O  O7  1  0.16690937  0.99024825  0.82333887  1.0
  O  O8  1  0.58309063  0.90642950  0.32333887  1.0
  O  O9  1  1.65642950  0.83309063  0.82333887  1.0
  O  O10  1  1.00975175  0.83309063  1.17666113  1.0
  O  O11  1  0.58309063  1.25975175  0.67666113  1.0
