# generated using pymatgen
data_Y7Rh3
_symmetry_space_group_name_H-M   'P 1'
_cell_length_a   9.83317509
_cell_length_b   9.83317509
_cell_length_c   6.21036748
_cell_angle_alpha   90.00000000
_cell_angle_beta   90.00000000
_cell_angle_gamma   120.00000000
_symmetry_Int_Tables_number   1
_chemical_formula_structural   Y7Rh3
_chemical_formula_sum   'Y14 Rh6'
_cell_volume   520.03847414
_cell_formula_units_Z   2
loop_
 _symmetry_equiv_pos_site_id
 _symmetry_equiv_pos_as_xyz
  1  'x, y, z'
loop_
 _atom_site_type_symbol
 _atom_site_label
 _atom_site_symmetry_multiplicity
 _atom_site_fract_x
 _atom_site_fract_y
 _atom_site_fract_z
 _atom_site_occupancy
  Y  Y0  1  0.91654299  0.45827149  0.01107978  1.0
  Y  Y1  1  0.45827149  0.91654299  0.51107978  1.0
  Y  Y2  1  0.45827149  0.54172851  0.51107978  1.0
  Y  Y3  1  0.54172851  0.45827149  0.01107978  1.0
  Y  Y4  1  0.54172851  0.08345701  0.01107978  1.0
  Y  Y5  1  0.08345701  0.54172851  0.51107978  1.0
  Y  Y6  1  0.24794233  0.12397117  0.32126166  1.0
  Y  Y7  1  0.12397117  0.24794233  0.82126166  1.0
  Y  Y8  1  0.12397117  0.87602883  0.82126166  1.0
  Y  Y9  1  0.87602883  0.12397117  0.32126166  1.0
  Y  Y10  1  0.87602883  0.75205767  0.32126166  1.0
  Y  Y11  1  0.75205767  0.87602883  0.82126166  1.0
  Y  Y12  1  0.33333333  0.66666667  0.02715132  1.0
  Y  Y13  1  0.66666667  0.33333333  0.52715132  1.0
  Rh  Rh14  1  0.62084128  0.81042064  0.24860811  1.0
  Rh  Rh15  1  0.81042064  0.62084128  0.74860811  1.0
  Rh  Rh16  1  0.81042064  0.18957936  0.74860811  1.0
  Rh  Rh17  1  0.18957936  0.81042064  0.24860811  1.0
  Rh  Rh18  1  0.18957936  0.37915872  0.24860811  1.0
  Rh  Rh19  1  0.37915872  0.18957936  0.74860811  1.0
