# generated using pymatgen
data_SrSi
_symmetry_space_group_name_H-M   'P 1'
_cell_length_a   8.89634357
_cell_length_b   4.03917653
_cell_length_c   6.14761741
_cell_angle_alpha   90.00000000
_cell_angle_beta   90.00000000
_cell_angle_gamma   90.00000000
_symmetry_Int_Tables_number   1
_chemical_formula_structural   SrSi
_chemical_formula_sum   'Sr4 Si4'
_cell_volume   220.90788281
_cell_formula_units_Z   4
loop_
 _symmetry_equiv_pos_site_id
 _symmetry_equiv_pos_as_xyz
  1  'x, y, z'
loop_
 _atom_site_type_symbol
 _atom_site_label
 _atom_site_symmetry_multiplicity
 _atom_site_fract_x
 _atom_site_fract_y
 _atom_site_fract_z
 _atom_site_occupancy
  Sr  Sr0  1  0.68040052  0.25000000  0.39165017  1.0
  Sr  Sr1  1  0.18040052  0.25000000  0.10834983  1.0
  Sr  Sr2  1  0.31959948  0.75000000  0.60834983  1.0
  Sr  Sr3  1  0.81959948  0.75000000  0.89165017  1.0
  Si  Si4  1  0.53185383  0.25000000  0.89204859  1.0
  Si  Si5  1  0.03185383  0.25000000  0.60795141  1.0
  Si  Si6  1  0.46814617  0.75000000  0.10795141  1.0
  Si  Si7  1  0.96814617  0.75000000  0.39204859  1.0
