# generated using pymatgen
data_KEu(WO4)2
_symmetry_space_group_name_H-M   'P 1'
_cell_length_a   7.45008809
_cell_length_b   7.45008809
_cell_length_c   7.58620764
_cell_angle_alpha   66.09899436
_cell_angle_beta   113.90100564
_cell_angle_gamma   87.48100432
_symmetry_Int_Tables_number   1
_chemical_formula_structural   KEu(WO4)2
_chemical_formula_sum   'K2 Eu2 W4 O16'
_cell_volume   340.86216206
_cell_formula_units_Z   2
loop_
 _symmetry_equiv_pos_site_id
 _symmetry_equiv_pos_as_xyz
  1  'x, y, z'
loop_
 _atom_site_type_symbol
 _atom_site_label
 _atom_site_symmetry_multiplicity
 _atom_site_fract_x
 _atom_site_fract_y
 _atom_site_fract_z
 _atom_site_occupancy
  K  K0  1  0.68949641  -0.68949641  0.52669711  1.0
  K  K1  1  0.31050359  -0.31050359  0.47330289  1.0
  Eu  Eu2  1  0.69376197  -0.30623803  0.00000000  1.0
  Eu  Eu3  1  1.30623803  0.30623803  0.00000000  1.0
  W  W4  1  0.19833215  -0.19833215  0.93904943  1.0
  W  W5  1  0.80166785  -0.80166785  0.06095057  1.0
  W  W6  1  0.83306311  -0.16693689  0.50000000  1.0
  W  W7  1  1.16693689  0.16693689  0.50000000  1.0
  O  O8  1  0.68822429  -0.22311084  0.64647380  1.0
  O  O9  1  1.22311084  0.31177571  0.64647380  1.0
  O  O10  1  0.77688916  -0.31177571  0.35352620  1.0
  O  O11  1  1.31177571  0.22311084  0.35352620  1.0
  O  O12  1  1.70718959  0.03557536  0.94185992  1.0
  O  O13  1  0.96442464  -0.70718959  0.94185992  1.0
  O  O14  1  1.03557536  0.70718959  0.05814008  1.0
  O  O15  1  0.29281041  -0.03557536  0.05814008  1.0
  O  O16  1  0.34615553  -0.09079073  0.73484093  1.0
  O  O17  1  1.09079073  0.65384447  0.73484093  1.0
  O  O18  1  0.90920927  -0.65384447  0.26515907  1.0
  O  O19  1  1.65384447  0.09079073  0.26515907  1.0
  O  O20  1  0.98349627  -0.98349627  0.65561776  1.0
  O  O21  1  0.01650373  -0.01650373  0.34438224  1.0
  O  O22  1  0.57843184  -0.57843184  0.90028026  1.0
  O  O23  1  0.42156816  -0.42156816  0.09971974  1.0
