# generated using pymatgen
data_Ti3FeS6
_symmetry_space_group_name_H-M   'P 1'
_cell_length_a   5.85027654
_cell_length_b   5.85027654
_cell_length_c   11.47764196
_cell_angle_alpha   90.00000000
_cell_angle_beta   90.00000000
_cell_angle_gamma   120.00000000
_symmetry_Int_Tables_number   1
_chemical_formula_structural   Ti3FeS6
_chemical_formula_sum   'Ti6 Fe2 S12'
_cell_volume   340.20139903
_cell_formula_units_Z   2
loop_
 _symmetry_equiv_pos_site_id
 _symmetry_equiv_pos_as_xyz
  1  'x, y, z'
loop_
 _atom_site_type_symbol
 _atom_site_label
 _atom_site_symmetry_multiplicity
 _atom_site_fract_x
 _atom_site_fract_y
 _atom_site_fract_z
 _atom_site_occupancy
  Ti  Ti0  1  0.33333333  0.66666667  0.25000000  1.0
  Ti  Ti1  1  0.66666667  0.33333333  0.75000000  1.0
  Ti  Ti2  1  0.33333333  0.66666667  0.50046643  1.0
  Ti  Ti3  1  0.66666667  0.33333333  0.00046643  1.0
  Ti  Ti4  1  0.66666667  0.33333333  0.49953357  1.0
  Ti  Ti5  1  0.33333333  0.66666667  -0.00046643  1.0
  Fe  Fe6  1  0.00000000  0.00000000  0.50000000  1.0
  Fe  Fe7  1  0.00000000  0.00000000  0.00000000  1.0
  S  S8  1  0.67811921  0.00028518  0.37696679  1.0
  S  S9  1  0.32216597  0.32188079  0.37696679  1.0
  S  S10  1  -0.00028518  0.67783403  0.37696679  1.0
  S  S11  1  0.32188079  0.32216597  0.87696679  1.0
  S  S12  1  0.00028518  0.67811921  0.87696679  1.0
  S  S13  1  0.67783403  -0.00028518  0.87696679  1.0
  S  S14  1  0.32188079  -0.00028518  0.62303321  1.0
  S  S15  1  0.67783403  0.67811921  0.62303321  1.0
  S  S16  1  0.00028518  0.32216597  0.62303321  1.0
  S  S17  1  0.67811921  0.67783403  0.12303321  1.0
  S  S18  1  -0.00028518  0.32188079  0.12303321  1.0
  S  S19  1  0.32216597  0.00028518  0.12303321  1.0
