# generated using pymatgen
data_ZrMnGe
_symmetry_space_group_name_H-M   'P 1'
_cell_length_a   6.73091581
_cell_length_b   3.80748812
_cell_length_c   7.82110902
_cell_angle_alpha   90.00000000
_cell_angle_beta   90.00000000
_cell_angle_gamma   90.00000000
_symmetry_Int_Tables_number   1
_chemical_formula_structural   ZrMnGe
_chemical_formula_sum   'Zr4 Mn4 Ge4'
_cell_volume   200.43845915
_cell_formula_units_Z   4
loop_
 _symmetry_equiv_pos_site_id
 _symmetry_equiv_pos_as_xyz
  1  'x, y, z'
loop_
 _atom_site_type_symbol
 _atom_site_label
 _atom_site_symmetry_multiplicity
 _atom_site_fract_x
 _atom_site_fract_y
 _atom_site_fract_z
 _atom_site_occupancy
  Zr  Zr0  1  0.96610653  0.75000000  0.67823824  1.0
  Zr  Zr1  1  0.46610653  0.75000000  0.82176176  1.0
  Zr  Zr2  1  0.03389347  0.25000000  0.32176176  1.0
  Zr  Zr3  1  0.53389347  0.25000000  0.17823824  1.0
  Mn  Mn4  1  0.86682669  0.75000000  0.05976560  1.0
  Mn  Mn5  1  0.36682669  0.75000000  0.44023440  1.0
  Mn  Mn6  1  0.13317331  0.25000000  0.94023440  1.0
  Mn  Mn7  1  0.63317331  0.25000000  0.55976560  1.0
  Ge  Ge8  1  0.73956989  0.75000000  0.37407410  1.0
  Ge  Ge9  1  0.23956989  0.75000000  0.12592590  1.0
  Ge  Ge10  1  0.26043011  0.25000000  0.62592590  1.0
  Ge  Ge11  1  0.76043011  0.25000000  0.87407410  1.0
