# generated using pymatgen
data_Fe2TeO5
_symmetry_space_group_name_H-M   'P 1'
_cell_length_a   7.91536411
_cell_length_b   4.90897578
_cell_length_c   10.70696492
_cell_angle_alpha   90.00000000
_cell_angle_beta   101.21763987
_cell_angle_gamma   90.00000000
_symmetry_Int_Tables_number   1
_chemical_formula_structural   Fe2TeO5
_chemical_formula_sum   'Fe8 Te4 O20'
_cell_volume   408.08518055
_cell_formula_units_Z   4
loop_
 _symmetry_equiv_pos_site_id
 _symmetry_equiv_pos_as_xyz
  1  'x, y, z'
loop_
 _atom_site_type_symbol
 _atom_site_label
 _atom_site_symmetry_multiplicity
 _atom_site_fract_x
 _atom_site_fract_y
 _atom_site_fract_z
 _atom_site_occupancy
  Fe  Fe0  1  0.48232171  0.43894893  0.13240699  1.0
  Fe  Fe1  1  0.48232171  0.06105107  0.63240699  1.0
  Fe  Fe2  1  0.51767829  0.93894893  0.36759301  1.0
  Fe  Fe3  1  0.51767829  0.56105107  0.86759301  1.0
  Fe  Fe4  1  0.31249102  0.44901802  0.41231112  1.0
  Fe  Fe5  1  0.31249102  0.05098198  0.91231112  1.0
  Fe  Fe6  1  0.68750898  0.94901802  0.08768888  1.0
  Fe  Fe7  1  0.68750898  0.55098198  0.58768888  1.0
  Te  Te8  1  0.86170297  0.42067168  0.33074038  1.0
  Te  Te9  1  0.86170297  0.07932832  0.83074038  1.0
  Te  Te10  1  0.13829703  0.92067168  0.16925962  1.0
  Te  Te11  1  0.13829703  0.57932832  0.66925962  1.0
  O  O12  1  0.91944480  0.12689767  0.16229041  1.0
  O  O13  1  0.91944480  0.37310233  0.66229041  1.0
  O  O14  1  0.08055520  0.62689767  0.33770959  1.0
  O  O15  1  0.08055520  0.87310233  0.83770959  1.0
  O  O16  1  0.75648051  0.69665183  0.43421486  1.0
  O  O17  1  0.75648051  0.80334817  0.93421486  1.0
  O  O18  1  0.24351949  0.19665183  0.06578514  1.0
  O  O19  1  0.24351949  0.30334817  0.56578514  1.0
  O  O20  1  0.58774971  0.13051559  0.23377586  1.0
  O  O21  1  0.58774971  0.36948441  0.73377586  1.0
  O  O22  1  0.41225029  0.63051559  0.26622414  1.0
  O  O23  1  0.41225029  0.86948441  0.76622414  1.0
  O  O24  1  0.56225323  0.23348794  0.49007581  1.0
  O  O25  1  0.56225323  0.26651206  0.99007581  1.0
  O  O26  1  0.43774677  0.73348794  0.00992419  1.0
  O  O27  1  0.43774677  0.76651206  0.50992419  1.0
  O  O28  1  0.26298226  0.10515759  0.32172473  1.0
  O  O29  1  0.26298226  0.39484241  0.82172473  1.0
  O  O30  1  0.73701774  0.60515759  0.17827527  1.0
  O  O31  1  0.73701774  0.89484241  0.67827527  1.0
