# generated using pymatgen
data_Zr2H2Pd
_symmetry_space_group_name_H-M   'P 1'
_cell_length_a   6.72327450
_cell_length_b   6.72327450
_cell_length_c   6.72327450
_cell_angle_alpha   152.42703662
_cell_angle_beta   152.42703662
_cell_angle_gamma   39.39001297
_symmetry_Int_Tables_number   1
_chemical_formula_structural   Zr2H2Pd
_chemical_formula_sum   'Zr2 H2 Pd1'
_cell_volume   64.99600280
_cell_formula_units_Z   1
loop_
 _symmetry_equiv_pos_site_id
 _symmetry_equiv_pos_as_xyz
  1  'x, y, z'
loop_
 _atom_site_type_symbol
 _atom_site_label
 _atom_site_symmetry_multiplicity
 _atom_site_fract_x
 _atom_site_fract_y
 _atom_site_fract_z
 _atom_site_occupancy
  Zr  Zr0  1  0.64336093  0.64336093  1.00000000  1.0
  Zr  Zr1  1  0.35663907  0.35663907  -0.00000000  1.0
  H  H2  1  0.25000000  0.75000000  0.50000000  1.0
  H  H3  1  0.75000000  0.25000000  0.50000000  1.0
  Pd  Pd4  1  0.00000000  0.00000000  0.00000000  1.0
