# generated using pymatgen
data_ZnHgC4(SeN)4
_symmetry_space_group_name_H-M   'P 1'
_cell_length_a   8.49402504
_cell_length_b   8.49402504
_cell_length_c   8.49402504
_cell_angle_alpha   95.64103716
_cell_angle_beta   95.64103716
_cell_angle_gamma   143.45684558
_symmetry_Int_Tables_number   1
_chemical_formula_structural   ZnHgC4(SeN)4
_chemical_formula_sum   'Zn1 Hg1 C4 Se4 N4'
_cell_volume   346.49900339
_cell_formula_units_Z   1
loop_
 _symmetry_equiv_pos_site_id
 _symmetry_equiv_pos_as_xyz
  1  'x, y, z'
loop_
 _atom_site_type_symbol
 _atom_site_label
 _atom_site_symmetry_multiplicity
 _atom_site_fract_x
 _atom_site_fract_y
 _atom_site_fract_z
 _atom_site_occupancy
  Zn  Zn0  1  0.00000000  0.00000000  0.00000000  1.0
  Hg  Hg1  1  0.75000000  0.25000000  0.50000000  1.0
  C  C2  1  0.59553538  0.44070165  0.72550210  1.0
  C  C3  1  1.12996671  0.40446462  0.84516626  1.0
  C  C4  1  0.71519955  0.87003329  1.27449790  1.0
  C  C5  1  0.55929835  1.28480045  1.15483374  1.0
  Se  Se6  1  1.55121602  1.78532697  1.43481076  1.0
  Se  Se7  1  0.88359475  1.44878398  1.23411096  1.0
  Se  Se8  1  1.35051621  1.11640525  0.56518924  1.0
  Se  Se9  1  1.21467303  0.64948379  0.76588904  1.0
  N  N10  1  0.74871485  0.64970121  0.82889036  1.0
  N  N11  1  1.08017551  0.25128515  0.90098635  1.0
  N  N12  1  0.82081085  0.91982449  1.17110964  1.0
  N  N13  1  0.35029879  1.17918915  1.09901365  1.0
