# generated using pymatgen
data_SrY2O4
_symmetry_space_group_name_H-M   'P 1'
_cell_length_a   10.15378889
_cell_length_b   3.42576380
_cell_length_c   11.97780803
_cell_angle_alpha   90.00000000
_cell_angle_beta   90.00000000
_cell_angle_gamma   90.00000000
_symmetry_Int_Tables_number   1
_chemical_formula_structural   SrY2O4
_chemical_formula_sum   'Sr4 Y8 O16'
_cell_volume   416.64185217
_cell_formula_units_Z   4
loop_
 _symmetry_equiv_pos_site_id
 _symmetry_equiv_pos_as_xyz
  1  'x, y, z'
loop_
 _atom_site_type_symbol
 _atom_site_label
 _atom_site_symmetry_multiplicity
 _atom_site_fract_x
 _atom_site_fract_y
 _atom_site_fract_z
 _atom_site_occupancy
  Sr  Sr0  1  0.75359940  0.75000000  0.64881569  1.0
  Sr  Sr1  1  0.25359940  0.75000000  0.85118431  1.0
  Sr  Sr2  1  0.24640060  0.25000000  0.35118431  1.0
  Sr  Sr3  1  0.74640060  0.25000000  0.14881569  1.0
  Y  Y4  1  0.92251576  0.75000000  0.38947849  1.0
  Y  Y5  1  0.42251576  0.75000000  0.11052151  1.0
  Y  Y6  1  0.07748424  0.25000000  0.61052151  1.0
  Y  Y7  1  0.57748424  0.25000000  0.88947849  1.0
  Y  Y8  1  0.42422866  0.75000000  0.61249207  1.0
  Y  Y9  1  0.92422866  0.75000000  0.88750793  1.0
  Y  Y10  1  0.57577134  0.25000000  0.38750793  1.0
  Y  Y11  1  0.07577134  0.25000000  0.11249207  1.0
  O  O12  1  0.92452683  0.75000000  0.07686200  1.0
  O  O13  1  0.42452683  0.75000000  0.42313800  1.0
  O  O14  1  0.07547317  0.25000000  0.92313800  1.0
  O  O15  1  0.57547317  0.25000000  0.57686200  1.0
  O  O16  1  0.71046110  0.75000000  0.32637007  1.0
  O  O17  1  0.21046110  0.75000000  0.17362993  1.0
  O  O18  1  0.28953890  0.25000000  0.67362993  1.0
  O  O19  1  0.78953890  0.25000000  0.82637007  1.0
  O  O20  1  0.62467252  0.75000000  0.02083643  1.0
  O  O21  1  0.12467252  0.75000000  0.47916357  1.0
  O  O22  1  0.37532748  0.25000000  0.97916357  1.0
  O  O23  1  0.87532748  0.25000000  0.52083643  1.0
  O  O24  1  0.51614314  0.75000000  0.78380856  1.0
  O  O25  1  0.01614314  0.75000000  0.71619144  1.0
  O  O26  1  0.48385686  0.25000000  0.21619144  1.0
  O  O27  1  0.98385686  0.25000000  0.28380856  1.0
