# generated using pymatgen
data_Hf4Co4Si7
_symmetry_space_group_name_H-M   'P 1'
_cell_length_a   9.43538642
_cell_length_b   9.43538642
_cell_length_c   9.43538642
_cell_angle_alpha   94.09398873
_cell_angle_beta   94.09398873
_cell_angle_gamma   149.00524090
_symmetry_Int_Tables_number   1
_chemical_formula_structural   Hf4Co4Si7
_chemical_formula_sum   'Hf8 Co8 Si14'
_cell_volume   416.83896818
_cell_formula_units_Z   2
loop_
 _symmetry_equiv_pos_site_id
 _symmetry_equiv_pos_as_xyz
  1  'x, y, z'
loop_
 _atom_site_type_symbol
 _atom_site_label
 _atom_site_symmetry_multiplicity
 _atom_site_fract_x
 _atom_site_fract_y
 _atom_site_fract_z
 _atom_site_occupancy
  Hf  Hf0  1  -0.00000000  0.80367416  0.80367416  1.0
  Hf  Hf1  1  0.80367416  1.00000000  0.80367416  1.0
  Hf  Hf2  1  1.19632584  1.00000000  1.19632584  1.0
  Hf  Hf3  1  -0.00000000  0.19632584  0.19632584  1.0
  Hf  Hf4  1  0.63749384  0.63749384  0.27498767  1.0
  Hf  Hf5  1  1.36250616  0.63749384  1.00000000  1.0
  Hf  Hf6  1  0.63749384  0.36250616  1.00000000  1.0
  Hf  Hf7  1  0.36250616  0.36250616  0.72501233  1.0
  Co  Co8  1  1.10210805  0.60210805  1.20421610  1.0
  Co  Co9  1  1.60210805  1.10210805  1.20421610  1.0
  Co  Co10  1  0.39789195  0.60210805  0.50000000  1.0
  Co  Co11  1  0.89789195  1.10210805  0.50000000  1.0
  Co  Co12  1  1.10210805  0.89789195  1.50000000  1.0
  Co  Co13  1  1.60210805  1.39789195  1.50000000  1.0
  Co  Co14  1  0.39789195  0.89789195  0.79578390  1.0
  Co  Co15  1  0.89789195  1.39789195  0.79578390  1.0
  Si  Si16  1  0.50000000  0.80119522  0.30119522  1.0
  Si  Si17  1  0.80119522  0.50000000  1.30119522  1.0
  Si  Si18  1  0.19880478  0.50000000  0.69880478  1.0
  Si  Si19  1  0.50000000  1.19880478  0.69880478  1.0
  Si  Si20  1  -0.00000000  0.59184361  0.59184361  1.0
  Si  Si21  1  0.59184361  1.00000000  0.59184361  1.0
  Si  Si22  1  1.40815639  1.00000000  1.40815639  1.0
  Si  Si23  1  -0.00000000  0.40815639  0.40815639  1.0
  Si  Si24  1  0.78981637  0.78981637  0.57963273  1.0
  Si  Si25  1  1.21018363  0.78981637  1.00000000  1.0
  Si  Si26  1  0.78981637  0.21018363  1.00000000  1.0
  Si  Si27  1  0.21018363  0.21018363  0.42036727  1.0
  Si  Si28  1  0.75081717  0.75081717  0.00000000  1.0
  Si  Si29  1  0.24918283  0.24918283  0.00000000  1.0
