# generated using pymatgen
data_CoP2
_symmetry_space_group_name_H-M   'P 1'
_cell_length_a   5.53929719
_cell_length_b   5.54524938
_cell_length_c   5.61386474
_cell_angle_alpha   90.00000000
_cell_angle_beta   114.43739774
_cell_angle_gamma   90.00000000
_symmetry_Int_Tables_number   1
_chemical_formula_structural   CoP2
_chemical_formula_sum   'Co4 P8'
_cell_volume   156.99164438
_cell_formula_units_Z   4
loop_
 _symmetry_equiv_pos_site_id
 _symmetry_equiv_pos_as_xyz
  1  'x, y, z'
loop_
 _atom_site_type_symbol
 _atom_site_label
 _atom_site_symmetry_multiplicity
 _atom_site_fract_x
 _atom_site_fract_y
 _atom_site_fract_z
 _atom_site_occupancy
  Co  Co0  1  0.77189586  0.50116218  0.28856318  1.0
  Co  Co1  1  0.77189586  -0.00116218  0.78856318  1.0
  Co  Co2  1  0.22810414  1.00116218  0.21143682  1.0
  Co  Co3  1  0.22810414  0.49883782  0.71143682  1.0
  P  P4  1  0.83913000  0.87106355  0.18232018  1.0
  P  P5  1  0.83913000  0.62893645  0.68232018  1.0
  P  P6  1  0.16087000  0.37106355  0.31767982  1.0
  P  P7  1  0.16087000  0.12893645  0.81767982  1.0
  P  P8  1  0.65797586  0.12737019  0.36884514  1.0
  P  P9  1  0.65797586  0.37262981  0.86884514  1.0
  P  P10  1  0.34202414  0.62737019  0.13115486  1.0
  P  P11  1  0.34202414  0.87262981  0.63115486  1.0
