# generated using pymatgen
data_VPO5
_symmetry_space_group_name_H-M   'P 1'
_cell_length_a   8.00614386
_cell_length_b   6.20621448
_cell_length_c   7.25494188
_cell_angle_alpha   90.00000000
_cell_angle_beta   90.00000000
_cell_angle_gamma   90.00000000
_symmetry_Int_Tables_number   1
_chemical_formula_structural   VPO5
_chemical_formula_sum   'V4 P4 O20'
_cell_volume   360.48243433
_cell_formula_units_Z   4
loop_
 _symmetry_equiv_pos_site_id
 _symmetry_equiv_pos_as_xyz
  1  'x, y, z'
loop_
 _atom_site_type_symbol
 _atom_site_label
 _atom_site_symmetry_multiplicity
 _atom_site_fract_x
 _atom_site_fract_y
 _atom_site_fract_z
 _atom_site_occupancy
  V  V0  1  0.18021347  0.75000000  0.22007723  1.0
  V  V1  1  0.68021347  0.75000000  0.27992277  1.0
  V  V2  1  0.81978653  0.25000000  0.77992277  1.0
  V  V3  1  0.31978653  0.25000000  0.72007723  1.0
  P  P4  1  0.37760563  0.75000000  0.60597081  1.0
  P  P5  1  0.87760563  0.75000000  0.89402919  1.0
  P  P6  1  0.62239437  0.25000000  0.39402919  1.0
  P  P7  1  0.12239437  0.25000000  0.10597081  1.0
  O  O8  1  0.36644306  0.94973840  0.73275390  1.0
  O  O9  1  0.36644306  0.55026160  0.73275390  1.0
  O  O10  1  0.86644306  0.94973840  0.76724610  1.0
  O  O11  1  0.86644306  0.55026160  0.76724610  1.0
  O  O12  1  0.63355694  0.44973840  0.26724610  1.0
  O  O13  1  0.63355694  0.05026160  0.26724610  1.0
  O  O14  1  0.13355694  0.44973840  0.23275390  1.0
  O  O15  1  0.13355694  0.05026160  0.23275390  1.0
  O  O16  1  0.36231200  0.75000000  0.13710762  1.0
  O  O17  1  0.86231200  0.75000000  0.36289238  1.0
  O  O18  1  0.63768800  0.25000000  0.86289238  1.0
  O  O19  1  0.13768800  0.25000000  0.63710762  1.0
  O  O20  1  0.22482686  0.75000000  0.47012178  1.0
  O  O21  1  0.72482686  0.75000000  1.02987822  1.0
  O  O22  1  0.77517314  0.25000000  0.52987822  1.0
  O  O23  1  0.27517314  0.25000000  -0.02987822  1.0
  O  O24  1  0.04435315  0.75000000  1.00011553  1.0
  O  O25  1  0.54435315  0.75000000  0.49988447  1.0
  O  O26  1  0.95564685  0.25000000  -0.00011553  1.0
  O  O27  1  0.45564685  0.25000000  0.50011553  1.0
