# generated using pymatgen
data_Sr2FeClO3
_symmetry_space_group_name_H-M   'P 1'
_cell_length_a   3.94249718
_cell_length_b   3.94249718
_cell_length_c   14.64626102
_cell_angle_alpha   90.00000000
_cell_angle_beta   90.00000000
_cell_angle_gamma   90.00000000
_symmetry_Int_Tables_number   1
_chemical_formula_structural   Sr2FeClO3
_chemical_formula_sum   'Sr4 Fe2 Cl2 O6'
_cell_volume   227.65099486
_cell_formula_units_Z   2
loop_
 _symmetry_equiv_pos_site_id
 _symmetry_equiv_pos_as_xyz
  1  'x, y, z'
loop_
 _atom_site_type_symbol
 _atom_site_label
 _atom_site_symmetry_multiplicity
 _atom_site_fract_x
 _atom_site_fract_y
 _atom_site_fract_z
 _atom_site_occupancy
  Sr  Sr0  1  0.50000000  0.00000000  0.59554264  1.0
  Sr  Sr1  1  0.00000000  0.50000000  0.40445736  1.0
  Sr  Sr2  1  0.50000000  0.00000000  0.83891516  1.0
  Sr  Sr3  1  0.00000000  0.50000000  0.16108484  1.0
  Fe  Fe4  1  0.50000000  0.00000000  0.29600114  1.0
  Fe  Fe5  1  0.00000000  0.50000000  0.70399886  1.0
  Cl  Cl6  1  0.50000000  0.00000000  0.07923955  1.0
  Cl  Cl7  1  0.00000000  0.50000000  0.92076045  1.0
  O  O8  1  0.00000000  0.00000000  0.27407818  1.0
  O  O9  1  0.50000000  0.50000000  0.72592182  1.0
  O  O10  1  0.50000000  0.50000000  0.27407818  1.0
  O  O11  1  0.00000000  0.00000000  0.72592182  1.0
  O  O12  1  0.50000000  0.00000000  0.42669636  1.0
  O  O13  1  0.00000000  0.50000000  0.57330364  1.0
