# generated using pymatgen
data_Ca3SiBr2
_symmetry_space_group_name_H-M   'P 1'
_cell_length_a   12.01905418
_cell_length_b   12.01905418
_cell_length_c   12.01905418
_cell_angle_alpha   19.87251064
_cell_angle_beta   19.87251064
_cell_angle_gamma   19.87251064
_symmetry_Int_Tables_number   1
_chemical_formula_structural   Ca3SiBr2
_chemical_formula_sum   'Ca3 Si1 Br2'
_cell_volume   175.48793563
_cell_formula_units_Z   1
loop_
 _symmetry_equiv_pos_site_id
 _symmetry_equiv_pos_as_xyz
  1  'x, y, z'
loop_
 _atom_site_type_symbol
 _atom_site_label
 _atom_site_symmetry_multiplicity
 _atom_site_fract_x
 _atom_site_fract_y
 _atom_site_fract_z
 _atom_site_occupancy
  Si  Si0  1  0.71412314  -0.28587686  -0.28587686  1.0
  Ca  Ca1  1  0.00075473  0.00075473  0.00075473  1.0
  Ca  Ca2  1  0.42723461  0.42723461  -0.57276539  1.0
  Ca  Ca3  1  0.54868940  0.54868940  -0.45131060  1.0
  Br  Br4  1  0.15869682  0.15869682  0.15869682  1.0
  Br  Br5  1  0.27150131  0.27150131  0.27150131  1.0
