# generated using pymatgen
data_Al3Ni
_symmetry_space_group_name_H-M   'P 1'
_cell_length_a   6.61522081
_cell_length_b   7.38539634
_cell_length_c   4.82607795
_cell_angle_alpha   90.00000000
_cell_angle_beta   90.00000000
_cell_angle_gamma   90.00000000
_symmetry_Int_Tables_number   1
_chemical_formula_structural   Al3Ni
_chemical_formula_sum   'Al12 Ni4'
_cell_volume   235.78299712
_cell_formula_units_Z   4
loop_
 _symmetry_equiv_pos_site_id
 _symmetry_equiv_pos_as_xyz
  1  'x, y, z'
loop_
 _atom_site_type_symbol
 _atom_site_label
 _atom_site_symmetry_multiplicity
 _atom_site_fract_x
 _atom_site_fract_y
 _atom_site_fract_z
 _atom_site_occupancy
  Al  Al0  1  0.32862781  0.94487003  0.63616129  1.0
  Al  Al1  1  0.32862781  0.55512997  0.63616129  1.0
  Al  Al2  1  0.82862781  0.94487003  0.86383871  1.0
  Al  Al3  1  0.82862781  0.55512997  0.86383871  1.0
  Al  Al4  1  0.67137219  0.44487003  0.36383871  1.0
  Al  Al5  1  0.67137219  0.05512997  0.36383871  1.0
  Al  Al6  1  0.17137219  0.44487003  0.13616129  1.0
  Al  Al7  1  0.17137219  0.05512997  0.13616129  1.0
  Al  Al8  1  0.49260725  0.75000000  0.08407902  1.0
  Al  Al9  1  0.99260725  0.75000000  0.41592098  1.0
  Al  Al10  1  0.50739275  0.25000000  0.91592098  1.0
  Al  Al11  1  0.00739275  0.25000000  0.58407902  1.0
  Ni  Ni12  1  0.12960756  0.75000000  0.94312240  1.0
  Ni  Ni13  1  0.62960756  0.75000000  0.55687760  1.0
  Ni  Ni14  1  0.87039244  0.25000000  0.05687760  1.0
  Ni  Ni15  1  0.37039244  0.25000000  0.44312240  1.0
