# generated using pymatgen
data_Rb2WS4
_symmetry_space_group_name_H-M   'P 1'
_cell_length_a   9.91192041
_cell_length_b   7.11329652
_cell_length_c   12.67450048
_cell_angle_alpha   90.00000000
_cell_angle_beta   90.00000000
_cell_angle_gamma   90.00000000
_symmetry_Int_Tables_number   1
_chemical_formula_structural   Rb2WS4
_chemical_formula_sum   'Rb8 W4 S16'
_cell_volume   893.63376748
_cell_formula_units_Z   4
loop_
 _symmetry_equiv_pos_site_id
 _symmetry_equiv_pos_as_xyz
  1  'x, y, z'
loop_
 _atom_site_type_symbol
 _atom_site_label
 _atom_site_symmetry_multiplicity
 _atom_site_fract_x
 _atom_site_fract_y
 _atom_site_fract_z
 _atom_site_occupancy
  Rb  Rb0  1  0.46053275  0.25000000  0.83272526  1.0
  Rb  Rb1  1  0.96053275  0.25000000  0.66727474  1.0
  Rb  Rb2  1  0.53946725  0.75000000  0.16727474  1.0
  Rb  Rb3  1  0.03946725  0.75000000  0.33272526  1.0
  Rb  Rb4  1  0.15530205  0.25000000  0.10744150  1.0
  Rb  Rb5  1  0.65530205  0.25000000  0.39255850  1.0
  Rb  Rb6  1  0.84469795  0.75000000  0.89255850  1.0
  Rb  Rb7  1  0.34469795  0.75000000  0.60744150  1.0
  W  W8  1  0.24537418  0.25000000  0.42833067  1.0
  W  W9  1  0.74537418  0.25000000  0.07166933  1.0
  W  W10  1  0.75462582  0.75000000  0.57166933  1.0
  W  W11  1  0.25462582  0.75000000  0.92833067  1.0
  S  S12  1  0.15990089  0.49937872  0.85812653  1.0
  S  S13  1  0.65990089  0.00062128  0.64187347  1.0
  S  S14  1  0.84009911  0.99937872  0.14187347  1.0
  S  S15  1  0.34009911  0.50062128  0.35812653  1.0
  S  S16  1  0.84009911  0.50062128  0.14187347  1.0
  S  S17  1  0.34009911  0.99937872  0.35812653  1.0
  S  S18  1  0.15990089  0.00062128  0.85812653  1.0
  S  S19  1  0.65990089  0.49937872  0.64187347  1.0
  S  S20  1  0.52641514  0.25000000  0.10638427  1.0
  S  S21  1  1.02641514  0.25000000  0.39361573  1.0
  S  S22  1  0.47358486  0.75000000  0.89361573  1.0
  S  S23  1  -0.02641514  0.75000000  0.60638427  1.0
  S  S24  1  0.28295778  0.25000000  0.60001576  1.0
  S  S25  1  0.78295778  0.25000000  0.89998424  1.0
  S  S26  1  0.71704222  0.75000000  0.39998424  1.0
  S  S27  1  0.21704222  0.75000000  0.10001576  1.0
