# generated using pymatgen
data_LiInS2
_symmetry_space_group_name_H-M   'P 1'
_cell_length_a   6.58105671
_cell_length_b   6.58105671
_cell_length_c   6.58105671
_cell_angle_alpha   33.30836557
_cell_angle_beta   33.30836557
_cell_angle_gamma   33.30836557
_symmetry_Int_Tables_number   1
_chemical_formula_structural   LiInS2
_chemical_formula_sum   'Li1 In1 S2'
_cell_volume   76.52907501
_cell_formula_units_Z   1
loop_
 _symmetry_equiv_pos_site_id
 _symmetry_equiv_pos_as_xyz
  1  'x, y, z'
loop_
 _atom_site_type_symbol
 _atom_site_label
 _atom_site_symmetry_multiplicity
 _atom_site_fract_x
 _atom_site_fract_y
 _atom_site_fract_z
 _atom_site_occupancy
  Li  Li0  1  0.00000000  0.00000000  0.00000000  1.0
  In  In1  1  1.50000000  0.50000000  0.50000000  1.0
  S  S2  1  0.75194647  0.75194647  0.75194647  1.0
  S  S3  1  1.24805353  1.24805353  0.24805353  1.0
