# generated using pymatgen
data_Nd(Ge3Pt)4
_symmetry_space_group_name_H-M   'P 1'
_cell_length_a   7.53419040
_cell_length_b   7.53419040
_cell_length_c   7.53419040
_cell_angle_alpha   109.47122063
_cell_angle_beta   109.47122063
_cell_angle_gamma   109.47122063
_symmetry_Int_Tables_number   1
_chemical_formula_structural   Nd(Ge3Pt)4
_chemical_formula_sum   'Nd1 Ge12 Pt4'
_cell_volume   329.22126762
_cell_formula_units_Z   1
loop_
 _symmetry_equiv_pos_site_id
 _symmetry_equiv_pos_as_xyz
  1  'x, y, z'
loop_
 _atom_site_type_symbol
 _atom_site_label
 _atom_site_symmetry_multiplicity
 _atom_site_fract_x
 _atom_site_fract_y
 _atom_site_fract_z
 _atom_site_occupancy
  Nd  Nd0  1  0.00000000  0.00000000  0.00000000  1.0
  Ge  Ge1  1  0.85028765  1.35254086  1.20282851  1.0
  Ge  Ge2  1  0.85028765  0.64745914  0.49774679  1.0
  Ge  Ge3  1  0.14971235  0.35254086  0.50225321  1.0
  Ge  Ge4  1  0.14971235  0.64745914  0.79717149  1.0
  Ge  Ge5  1  0.49774679  0.85028765  0.64745914  1.0
  Ge  Ge6  1  1.20282851  0.85028765  1.35254086  1.0
  Ge  Ge7  1  0.64745914  0.79717149  0.14971235  1.0
  Ge  Ge8  1  0.64745914  0.49774679  0.85028765  1.0
  Ge  Ge9  1  0.79717149  0.14971235  0.64745914  1.0
  Ge  Ge10  1  0.50225321  0.14971235  0.35254086  1.0
  Ge  Ge11  1  0.35254086  0.50225321  0.14971235  1.0
  Ge  Ge12  1  1.35254086  1.20282851  0.85028765  1.0
  Pt  Pt13  1  0.50000000  1.00000000  1.00000000  1.0
  Pt  Pt14  1  0.50000000  0.50000000  0.50000000  1.0
  Pt  Pt15  1  1.00000000  1.00000000  0.50000000  1.0
  Pt  Pt16  1  1.00000000  0.50000000  1.00000000  1.0
