# generated using pymatgen
data_Cr3B7BrO13
_symmetry_space_group_name_H-M   'P 1'
_cell_length_a   8.63670608
_cell_length_b   8.63670608
_cell_length_c   8.63670608
_cell_angle_alpha   60.00000000
_cell_angle_beta   60.00000000
_cell_angle_gamma   60.00000000
_symmetry_Int_Tables_number   1
_chemical_formula_structural   Cr3B7BrO13
_chemical_formula_sum   'Cr6 B14 Br2 O26'
_cell_volume   455.54304753
_cell_formula_units_Z   2
loop_
 _symmetry_equiv_pos_site_id
 _symmetry_equiv_pos_as_xyz
  1  'x, y, z'
loop_
 _atom_site_type_symbol
 _atom_site_label
 _atom_site_symmetry_multiplicity
 _atom_site_fract_x
 _atom_site_fract_y
 _atom_site_fract_z
 _atom_site_occupancy
  Cr  Cr0  1  0.50000000  -0.00000000  0.00000000  1.0
  Cr  Cr1  1  1.00000000  0.50000000  -0.50000000  1.0
  Cr  Cr2  1  -0.50000000  0.50000000  1.00000000  1.0
  Cr  Cr3  1  -0.00000000  0.50000000  0.00000000  1.0
  Cr  Cr4  1  -0.00000000  0.00000000  0.50000000  1.0
  Cr  Cr5  1  0.50000000  1.00000000  -0.50000000  1.0
  B  B6  1  0.91967648  0.91967648  -0.08032352  1.0
  B  B7  1  0.41967648  1.41967648  0.41967648  1.0
  B  B8  1  0.24097055  0.91967648  -0.08032352  1.0
  B  B9  1  -0.25902945  0.41967648  0.41967648  1.0
  B  B10  1  0.91967648  0.91967648  -0.75902945  1.0
  B  B11  1  0.41967648  1.41967648  -0.25902945  1.0
  B  B12  1  0.91967648  0.24097055  -0.08032352  1.0
  B  B13  1  0.41967648  -0.25902945  0.41967648  1.0
  B  B14  1  -0.75000000  0.75000000  0.75000000  1.0
  B  B15  1  -0.25000000  0.25000000  0.25000000  1.0
  B  B16  1  0.25000000  1.25000000  -0.25000000  1.0
  B  B17  1  -0.25000000  0.25000000  0.75000000  1.0
  B  B18  1  -0.25000000  0.75000000  0.25000000  1.0
  B  B19  1  0.25000000  -0.25000000  0.25000000  1.0
  Br  Br20  1  0.75000000  0.75000000  -0.25000000  1.0
  Br  Br21  1  0.25000000  0.25000000  0.25000000  1.0
  O  O22  1  0.74282370  1.06406842  -0.10293046  1.0
  O  O23  1  0.24282370  1.39706954  0.56406842  1.0
  O  O24  1  -0.70396166  0.89706954  1.06406842  1.0
  O  O25  1  -0.20396166  0.56406842  0.39706954  1.0
  O  O26  1  0.39706954  1.56406842  0.24282370  1.0
  O  O27  1  -0.10293046  0.74282370  1.06406842  1.0
  O  O28  1  -0.20396166  0.24282370  0.56406842  1.0
  O  O29  1  0.29603834  1.06406842  -0.25717630  1.0
  O  O30  1  1.06406842  0.89706954  -0.25717630  1.0
  O  O31  1  0.56406842  1.24282370  0.39706954  1.0
  O  O32  1  -0.70396166  0.74282370  0.89706954  1.0
  O  O33  1  -0.20396166  0.39706954  0.24282370  1.0
  O  O34  1  1.06406842  0.74282370  -0.70396166  1.0
  O  O35  1  0.39706954  1.24282370  -0.20396166  1.0
  O  O36  1  -0.10293046  0.29603834  0.74282370  1.0
  O  O37  1  0.56406842  -0.20396166  0.24282370  1.0
  O  O38  1  0.56406842  1.39706954  -0.20396166  1.0
  O  O39  1  -0.25717630  0.89706954  0.29603834  1.0
  O  O40  1  0.24282370  -0.20396166  0.39706954  1.0
  O  O41  1  1.06406842  0.29603834  -0.10293046  1.0
  O  O42  1  0.89706954  1.06406842  -0.70396166  1.0
  O  O43  1  0.24282370  1.56406842  -0.20396166  1.0
  O  O44  1  -0.25717630  0.29603834  1.06406842  1.0
  O  O45  1  0.39706954  -0.20396166  0.56406842  1.0
  O  O46  1  0.00000000  0.00000000  0.00000000  1.0
  O  O47  1  -0.50000000  0.50000000  0.50000000  1.0
