# generated using pymatgen
data_Cs5As(PS3)4
_symmetry_space_group_name_H-M   'P 1'
_cell_length_a   13.87713466
_cell_length_b   13.87713466
_cell_length_c   7.47720862
_cell_angle_alpha   90.00000000
_cell_angle_beta   90.00000000
_cell_angle_gamma   90.00000000
_symmetry_Int_Tables_number   1
_chemical_formula_structural   Cs5As(PS3)4
_chemical_formula_sum   'Cs10 As2 P8 S24'
_cell_volume   1439.92244955
_cell_formula_units_Z   2
loop_
 _symmetry_equiv_pos_site_id
 _symmetry_equiv_pos_as_xyz
  1  'x, y, z'
loop_
 _atom_site_type_symbol
 _atom_site_label
 _atom_site_symmetry_multiplicity
 _atom_site_fract_x
 _atom_site_fract_y
 _atom_site_fract_z
 _atom_site_occupancy
  Cs  Cs0  1  0.68126463  0.95850304  0.00000000  1.0
  Cs  Cs1  1  0.95850304  0.31873537  0.50000000  1.0
  Cs  Cs2  1  0.31873537  0.04149696  0.00000000  1.0
  Cs  Cs3  1  0.04149696  0.68126463  0.50000000  1.0
  Cs  Cs4  1  0.69117881  0.32890789  0.00000000  1.0
  Cs  Cs5  1  0.32890789  0.30882119  0.50000000  1.0
  Cs  Cs6  1  0.30882119  0.67109211  0.00000000  1.0
  Cs  Cs7  1  0.67109211  0.69117881  0.50000000  1.0
  Cs  Cs8  1  0.00000000  0.00000000  0.00000000  1.0
  Cs  Cs9  1  0.00000000  0.00000000  0.50000000  1.0
  As  As10  1  0.00000000  0.50000000  0.00000000  1.0
  As  As11  1  0.50000000  0.00000000  0.50000000  1.0
  P  P12  1  0.89426676  0.74201309  0.00000000  1.0
  P  P13  1  0.74201309  0.10573324  0.50000000  1.0
  P  P14  1  0.10573324  0.25798691  0.00000000  1.0
  P  P15  1  0.25798691  0.89426676  0.50000000  1.0
  P  P16  1  0.80450040  0.60401156  0.00000000  1.0
  P  P17  1  0.60401156  0.19549960  0.50000000  1.0
  P  P18  1  0.19549960  0.39598844  0.00000000  1.0
  P  P19  1  0.39598844  0.80450040  0.50000000  1.0
  S  S20  1  0.86307382  0.81425870  0.77216438  1.0
  S  S21  1  0.86307382  0.81425870  0.22783562  1.0
  S  S22  1  0.81425870  0.13692618  0.27216438  1.0
  S  S23  1  0.81425870  0.13692618  0.72783562  1.0
  S  S24  1  0.13692618  0.18574130  0.77216438  1.0
  S  S25  1  0.13692618  0.18574130  0.22783562  1.0
  S  S26  1  0.18574130  0.86307382  0.27216438  1.0
  S  S27  1  0.18574130  0.86307382  0.72783562  1.0
  S  S28  1  0.85723190  0.53002277  0.77939486  1.0
  S  S29  1  0.85723190  0.53002277  0.22060514  1.0
  S  S30  1  0.53002277  0.14276810  0.27939486  1.0
  S  S31  1  0.53002277  0.14276810  0.72060514  1.0
  S  S32  1  0.14276810  0.46997723  0.77939486  1.0
  S  S33  1  0.14276810  0.46997723  0.22060514  1.0
  S  S34  1  0.46997723  0.85723190  0.27939486  1.0
  S  S35  1  0.46997723  0.85723190  0.72060514  1.0
  S  S36  1  0.96712412  0.31488076  0.00000000  1.0
  S  S37  1  0.31488076  0.03287588  0.50000000  1.0
  S  S38  1  0.03287588  0.68511924  0.00000000  1.0
  S  S39  1  0.68511924  0.96712412  0.50000000  1.0
  S  S40  1  0.66356096  0.62735386  0.00000000  1.0
  S  S41  1  0.62735386  0.33643904  0.50000000  1.0
  S  S42  1  0.33643904  0.37264614  0.00000000  1.0
  S  S43  1  0.37264614  0.66356096  0.50000000  1.0
