# generated using pymatgen
data_Ho2Fe17N3
_symmetry_space_group_name_H-M   'P 1'
_cell_length_a   8.63344895
_cell_length_b   8.63344895
_cell_length_c   8.35535915
_cell_angle_alpha   90.00000000
_cell_angle_beta   90.00000000
_cell_angle_gamma   120.00000000
_symmetry_Int_Tables_number   1
_chemical_formula_structural   Ho2Fe17N3
_chemical_formula_sum   'Ho4 Fe34 N6'
_cell_volume   539.34220377
_cell_formula_units_Z   2
loop_
 _symmetry_equiv_pos_site_id
 _symmetry_equiv_pos_as_xyz
  1  'x, y, z'
loop_
 _atom_site_type_symbol
 _atom_site_label
 _atom_site_symmetry_multiplicity
 _atom_site_fract_x
 _atom_site_fract_y
 _atom_site_fract_z
 _atom_site_occupancy
  Ho  Ho0  1  0.33333333  0.66666667  0.25000000  1.0
  Ho  Ho1  1  0.66666667  0.33333333  0.75000000  1.0
  Ho  Ho2  1  0.00000000  0.00000000  0.25000000  1.0
  Ho  Ho3  1  0.00000000  0.00000000  0.75000000  1.0
  Fe  Fe4  1  0.16935645  0.83064355  0.47890010  1.0
  Fe  Fe5  1  0.16935645  0.83064355  0.02109990  1.0
  Fe  Fe6  1  0.16935645  0.33871290  0.47890010  1.0
  Fe  Fe7  1  0.16935645  0.33871290  0.02109990  1.0
  Fe  Fe8  1  0.83064355  0.16935645  0.97890010  1.0
  Fe  Fe9  1  0.83064355  0.16935645  0.52109990  1.0
  Fe  Fe10  1  0.83064355  0.66128710  0.97890010  1.0
  Fe  Fe11  1  0.83064355  0.66128710  0.52109990  1.0
  Fe  Fe12  1  0.66128710  0.83064355  0.47890010  1.0
  Fe  Fe13  1  0.66128710  0.83064355  0.02109990  1.0
  Fe  Fe14  1  0.33871290  0.16935645  0.97890010  1.0
  Fe  Fe15  1  0.33871290  0.16935645  0.52109990  1.0
  Fe  Fe16  1  0.67165503  0.61936592  0.25000000  1.0
  Fe  Fe17  1  0.67165503  0.05228911  0.25000000  1.0
  Fe  Fe18  1  0.61936592  0.67165503  0.75000000  1.0
  Fe  Fe19  1  0.61936592  0.94771089  0.75000000  1.0
  Fe  Fe20  1  0.94771089  0.61936592  0.25000000  1.0
  Fe  Fe21  1  0.94771089  0.32834497  0.25000000  1.0
  Fe  Fe22  1  0.38063408  0.32834497  0.25000000  1.0
  Fe  Fe23  1  0.38063408  0.05228911  0.25000000  1.0
  Fe  Fe24  1  0.32834497  0.94771089  0.75000000  1.0
  Fe  Fe25  1  0.32834497  0.38063408  0.75000000  1.0
  Fe  Fe26  1  0.05228911  0.67165503  0.75000000  1.0
  Fe  Fe27  1  0.05228911  0.38063408  0.75000000  1.0
  Fe  Fe28  1  0.50000000  0.50000000  0.50000000  1.0
  Fe  Fe29  1  0.50000000  0.50000000  0.00000000  1.0
  Fe  Fe30  1  0.50000000  0.00000000  0.50000000  1.0
  Fe  Fe31  1  0.50000000  0.00000000  0.00000000  1.0
  Fe  Fe32  1  0.00000000  0.50000000  0.50000000  1.0
  Fe  Fe33  1  0.00000000  0.50000000  0.00000000  1.0
  Fe  Fe34  1  0.33333333  0.66666667  0.89253822  1.0
  Fe  Fe35  1  0.33333333  0.66666667  0.60746178  1.0
  Fe  Fe36  1  0.66666667  0.33333333  0.39253822  1.0
  Fe  Fe37  1  0.66666667  0.33333333  0.10746178  1.0
  N  N38  1  0.16324446  0.83675554  0.25000000  1.0
  N  N39  1  0.16324446  0.32648891  0.25000000  1.0
  N  N40  1  0.83675554  0.16324446  0.75000000  1.0
  N  N41  1  0.83675554  0.67351109  0.75000000  1.0
  N  N42  1  0.67351109  0.83675554  0.25000000  1.0
  N  N43  1  0.32648891  0.16324446  0.75000000  1.0
