# generated using pymatgen
data_Hg2SO4
_symmetry_space_group_name_H-M   'P 1'
_cell_length_a   6.29367822
_cell_length_b   4.69457841
_cell_length_c   8.72785120
_cell_angle_alpha   90.00000000
_cell_angle_beta   92.48205285
_cell_angle_gamma   90.00000000
_symmetry_Int_Tables_number   1
_chemical_formula_structural   Hg2SO4
_chemical_formula_sum   'Hg4 S2 O8'
_cell_volume   257.63261098
_cell_formula_units_Z   2
loop_
 _symmetry_equiv_pos_site_id
 _symmetry_equiv_pos_as_xyz
  1  'x, y, z'
loop_
 _atom_site_type_symbol
 _atom_site_label
 _atom_site_symmetry_multiplicity
 _atom_site_fract_x
 _atom_site_fract_y
 _atom_site_fract_z
 _atom_site_occupancy
  Hg  Hg0  1  0.68873477  0.92419130  0.46898422  1.0
  Hg  Hg1  1  0.68873477  0.07580870  0.96898422  1.0
  Hg  Hg2  1  0.31126523  0.92419130  0.03101578  1.0
  Hg  Hg3  1  0.31126523  0.07580870  0.53101578  1.0
  S  S4  1  0.00000000  0.57351510  0.25000000  1.0
  S  S5  1  0.00000000  0.42648490  0.75000000  1.0
  O  O6  1  1.00758095  0.76975161  0.10872859  1.0
  O  O7  1  1.00758095  0.23024839  0.60872859  1.0
  O  O8  1  -0.00758095  0.76975161  0.39127141  1.0
  O  O9  1  -0.00758095  0.23024839  0.89127141  1.0
  O  O10  1  0.80146531  0.40826424  0.23507218  1.0
  O  O11  1  0.80146531  0.59173576  0.73507218  1.0
  O  O12  1  0.19853469  0.40826424  0.26492782  1.0
  O  O13  1  0.19853469  0.59173576  0.76492782  1.0
