# generated using pymatgen
data_KTeP2
_symmetry_space_group_name_H-M   'P 1'
_cell_length_a   7.14808719
_cell_length_b   6.62607788
_cell_length_c   10.15925679
_cell_angle_alpha   90.00000000
_cell_angle_beta   89.44049584
_cell_angle_gamma   90.00000000
_symmetry_Int_Tables_number   1
_chemical_formula_structural   KTeP2
_chemical_formula_sum   'K4 Te4 P8'
_cell_volume   481.15788620
_cell_formula_units_Z   4
loop_
 _symmetry_equiv_pos_site_id
 _symmetry_equiv_pos_as_xyz
  1  'x, y, z'
loop_
 _atom_site_type_symbol
 _atom_site_label
 _atom_site_symmetry_multiplicity
 _atom_site_fract_x
 _atom_site_fract_y
 _atom_site_fract_z
 _atom_site_occupancy
  K  K0  1  0.97356486  0.25000000  0.61347393  1.0
  K  K1  1  0.02643514  0.75000000  0.38652607  1.0
  K  K2  1  0.76791152  0.25000000  0.99140685  1.0
  K  K3  1  0.23208848  0.75000000  0.00859315  1.0
  Te  Te4  1  0.29094361  0.25000000  0.89914320  1.0
  Te  Te5  1  0.70905639  0.75000000  0.10085680  1.0
  Te  Te6  1  0.16287072  0.25000000  0.26294085  1.0
  Te  Te7  1  0.83712928  0.75000000  0.73705915  1.0
  P  P8  1  0.60906327  0.49489316  0.42025553  1.0
  P  P9  1  0.60906327  0.00510684  0.42025553  1.0
  P  P10  1  0.39093673  0.99489316  0.57974447  1.0
  P  P11  1  0.39093673  0.50510684  0.57974447  1.0
  P  P12  1  0.50450379  0.25000000  0.70087212  1.0
  P  P13  1  0.49549621  0.75000000  0.29912788  1.0
  P  P14  1  0.51260767  0.25000000  0.28532033  1.0
  P  P15  1  0.48739233  0.75000000  0.71467967  1.0
