# generated using pymatgen
data_Be3Nb
_symmetry_space_group_name_H-M   'P 1'
_cell_length_a   7.48402629
_cell_length_b   7.48402629
_cell_length_c   7.48402629
_cell_angle_alpha   35.47376447
_cell_angle_beta   35.47376447
_cell_angle_gamma   35.47376447
_symmetry_Int_Tables_number   1
_chemical_formula_structural   Be3Nb
_chemical_formula_sum   'Be9 Nb3'
_cell_volume   126.15464548
_cell_formula_units_Z   3
loop_
 _symmetry_equiv_pos_site_id
 _symmetry_equiv_pos_as_xyz
  1  'x, y, z'
loop_
 _atom_site_type_symbol
 _atom_site_label
 _atom_site_symmetry_multiplicity
 _atom_site_fract_x
 _atom_site_fract_y
 _atom_site_fract_z
 _atom_site_occupancy
  Be  Be0  1  1.41611548  1.41611548  -0.07558222  1.0
  Be  Be1  1  1.41611548  0.92441778  0.41611548  1.0
  Be  Be2  1  1.07558222  0.58388452  0.58388452  1.0
  Be  Be3  1  1.58388452  0.07558222  0.58388452  1.0
  Be  Be4  1  1.58388452  0.58388452  0.07558222  1.0
  Be  Be5  1  0.92441778  1.41611548  0.41611548  1.0
  Be  Be6  1  1.66564392  0.66564392  0.66564392  1.0
  Be  Be7  1  1.33435608  0.33435608  0.33435608  1.0
  Be  Be8  1  1.50000000  0.50000000  0.50000000  1.0
  Nb  Nb9  1  0.85988573  0.85988573  0.85988573  1.0
  Nb  Nb10  1  1.14011427  1.14011427  0.14011427  1.0
  Nb  Nb11  1  0.00000000  0.00000000  0.00000000  1.0
