# generated using pymatgen
data_H2O
_symmetry_space_group_name_H-M   'P 1'
_cell_length_a   8.38319523
_cell_length_b   8.14120779
_cell_length_c   3.99366408
_cell_angle_alpha   89.99982429
_cell_angle_beta   89.99860370
_cell_angle_gamma   89.99901083
_symmetry_Int_Tables_number   1
_chemical_formula_structural   H2O
_chemical_formula_sum   'H24 O12'
_cell_volume   272.56491512
_cell_formula_units_Z   12
loop_
 _symmetry_equiv_pos_site_id
 _symmetry_equiv_pos_as_xyz
  1  'x, y, z'
loop_
 _atom_site_type_symbol
 _atom_site_label
 _atom_site_symmetry_multiplicity
 _atom_site_fract_x
 _atom_site_fract_y
 _atom_site_fract_z
 _atom_site_occupancy
  H  H0  1  -0.96608927  -0.91297972  -0.85496345  1.0
  H  H1  1  -0.09178869  -0.95522723  -0.13906715  1.0
  H  H2  1  -0.77313933  -0.28172716  -0.69284586  1.0
  H  H3  1  -0.65526848  -0.42391233  -0.77385602  1.0
  H  H4  1  -0.28638699  -0.27597158  -0.96360697  1.0
  H  H5  1  -0.41308073  -0.33714295  -0.23946731  1.0
  H  H6  1  -0.15514938  -0.57614660  -0.97601152  1.0
  H  H7  1  -0.27302675  -0.71831644  -0.05701004  1.0
  H  H8  1  -0.58697467  -0.83708807  -0.01057117  1.0
  H  H9  1  -0.71369635  -0.77590542  -0.28633836  1.0
  H  H10  1  -0.59176565  -0.04480410  -0.61107025  1.0
  H  H11  1  -0.46601393  -0.08701135  -0.89510398  1.0
  H  H12  1  -0.91308247  -0.66287130  -0.51043724  1.0
  H  H13  1  -0.78642524  -0.72407527  -0.78631054  1.0
  H  H14  1  -0.21366651  -0.22414130  -0.46354484  1.0
  H  H15  1  -0.08697979  -0.16292449  -0.73938602  1.0
  H  H16  1  -0.53400654  -0.58702578  -0.35512146  1.0
  H  H17  1  -0.40823867  -0.54480065  -0.63910405  1.0
  H  H18  1  -0.34473520  -0.92388125  -0.47615734  1.0
  H  H19  1  -0.22688372  -0.78168289  -0.55705214  1.0
  H  H20  1  -0.72699863  -0.21835726  -0.19291205  1.0
  H  H21  1  -0.84485501  -0.07617583  -0.27386828  1.0
  H  H22  1  -0.03396352  -0.41295797  -0.39466453  1.0
  H  H23  1  -0.90824109  -0.45521560  -0.11059561  1.0
  O  O24  1  -0.00583122  -0.00348494  -0.99961832  1.0
  O  O25  1  -0.74689091  -0.36298085  -0.87095006  1.0
  O  O26  1  -0.36082635  -0.23836681  -0.14165368  1.0
  O  O27  1  -0.24682256  -0.63702386  -0.87896369  1.0
  O  O28  1  -0.63924658  -0.73830307  -0.10829970  1.0
  O  O29  1  -0.50581375  -0.99651454  -0.75048908  1.0
  O  O30  1  -0.86082906  -0.76166473  -0.60818146  1.0
  O  O31  1  -0.13922595  -0.26171706  -0.64162959  1.0
  O  O32  1  -0.49421934  -0.49652104  -0.49972823  1.0
  O  O33  1  -0.25314522  -0.86294341  -0.37897437  1.0
  O  O34  1  -0.75320355  -0.13706107  -0.37096006  1.0
  O  O35  1  -0.99418892  -0.50347608  -0.25008557  1.0
