# generated using pymatgen
data_Na2CuP2O7
_symmetry_space_group_name_H-M   'P 1'
_cell_length_a   5.14423722
_cell_length_b   13.78734724
_cell_length_c   10.11319645
_cell_angle_alpha   90.00000000
_cell_angle_beta   116.97339430
_cell_angle_gamma   90.00000000
_symmetry_Int_Tables_number   1
_chemical_formula_structural   Na2CuP2O7
_chemical_formula_sum   'Na8 Cu4 P8 O28'
_cell_volume   639.25439793
_cell_formula_units_Z   4
loop_
 _symmetry_equiv_pos_site_id
 _symmetry_equiv_pos_as_xyz
  1  'x, y, z'
loop_
 _atom_site_type_symbol
 _atom_site_label
 _atom_site_symmetry_multiplicity
 _atom_site_fract_x
 _atom_site_fract_y
 _atom_site_fract_z
 _atom_site_occupancy
  Na  Na0  1  0.41832935  0.20870079  0.15501492  1.0
  Na  Na1  1  0.41832935  0.29129921  0.65501492  1.0
  Na  Na2  1  0.58167065  0.70870079  0.34498508  1.0
  Na  Na3  1  0.58167065  0.79129921  0.84498508  1.0
  Na  Na4  1  0.92311118  0.61228091  0.13278884  1.0
  Na  Na5  1  0.92311118  0.88771909  0.63278884  1.0
  Na  Na6  1  0.07688882  0.11228091  0.36721116  1.0
  Na  Na7  1  0.07688882  0.38771909  0.86721116  1.0
  Cu  Cu8  1  0.93892665  0.84817495  0.23679478  1.0
  Cu  Cu9  1  0.93892665  0.65182505  0.73679478  1.0
  Cu  Cu10  1  0.06107335  0.34817495  0.26320522  1.0
  Cu  Cu11  1  0.06107335  0.15182505  0.76320522  1.0
  P  P12  1  0.72621275  0.32473445  0.45454106  1.0
  P  P13  1  0.72621275  0.17526555  0.95454106  1.0
  P  P14  1  0.27378725  0.82473445  0.04545894  1.0
  P  P15  1  0.27378725  0.67526555  0.54545894  1.0
  P  P16  1  0.52313499  0.46485423  0.22601123  1.0
  P  P17  1  0.52313499  0.03514577  0.72601123  1.0
  P  P18  1  0.47686501  0.96485423  0.27398877  1.0
  P  P19  1  0.47686501  0.53514577  0.77398877  1.0
  O  O20  1  0.93050601  0.18056320  0.11927717  1.0
  O  O21  1  0.93050601  0.31943680  0.61927717  1.0
  O  O22  1  0.06949399  0.68056320  0.38072283  1.0
  O  O23  1  0.06949399  0.81943680  0.88072283  1.0
  O  O24  1  0.85071574  0.27752124  0.35529294  1.0
  O  O25  1  0.85071574  0.22247876  0.85529294  1.0
  O  O26  1  0.14928426  0.77752124  0.14470706  1.0
  O  O27  1  0.14928426  0.72247876  0.64470706  1.0
  O  O28  1  0.76501335  0.44989840  0.17589678  1.0
  O  O29  1  0.76501335  0.05010160  0.67589678  1.0
  O  O30  1  0.23498665  0.94989840  0.32410322  1.0
  O  O31  1  0.23498665  0.55010160  0.82410322  1.0
  O  O32  1  0.72472358  0.88775803  0.35002413  1.0
  O  O33  1  0.72472358  0.61224197  0.85002413  1.0
  O  O34  1  0.27527642  0.38775803  0.14997587  1.0
  O  O35  1  0.27527642  0.11224197  0.64997587  1.0
  O  O36  1  0.67268795  0.43871507  0.40522375  1.0
  O  O37  1  0.67268795  0.06128493  0.90522375  1.0
  O  O38  1  0.32731205  0.93871507  0.09477625  1.0
  O  O39  1  0.32731205  0.56128493  0.59477625  1.0
  O  O40  1  0.58100320  0.06826466  0.28976621  1.0
  O  O41  1  0.58100320  0.43173534  0.78976621  1.0
  O  O42  1  0.41899680  0.56826466  0.21023379  1.0
  O  O43  1  0.41899680  0.93173534  0.71023379  1.0
  O  O44  1  0.41935362  0.28156916  0.41512008  1.0
  O  O45  1  0.41935362  0.21843084  0.91512008  1.0
  O  O46  1  0.58064638  0.78156916  0.08487992  1.0
  O  O47  1  0.58064638  0.71843084  0.58487992  1.0
