# generated using pymatgen
data_Sb2Br9
_symmetry_space_group_name_H-M   'P 1'
_cell_length_a   7.64180367
_cell_length_b   7.64180367
_cell_length_c   9.84106094
_cell_angle_alpha   90.00000000
_cell_angle_beta   90.00000000
_cell_angle_gamma   120.00000000
_symmetry_Int_Tables_number   1
_chemical_formula_structural   Sb2Br9
_chemical_formula_sum   'Sb2 Br9'
_cell_volume   497.69617630
_cell_formula_units_Z   1
loop_
 _symmetry_equiv_pos_site_id
 _symmetry_equiv_pos_as_xyz
  1  'x, y, z'
loop_
 _atom_site_type_symbol
 _atom_site_label
 _atom_site_symmetry_multiplicity
 _atom_site_fract_x
 _atom_site_fract_y
 _atom_site_fract_z
 _atom_site_occupancy
  Sb  Sb0  1  0.33333333  0.66666667  0.18272052  1.0
  Sb  Sb1  1  0.66666667  0.33333333  0.81727948  1.0
  Br  Br2  1  -0.00000000  0.50000000  -0.00000000  1.0
  Br  Br3  1  0.50000000  0.00000000  -0.00000000  1.0
  Br  Br4  1  0.50000000  0.50000000  0.00000000  1.0
  Br  Br5  1  0.16857006  0.83142994  0.31401639  1.0
  Br  Br6  1  0.66285988  0.83142994  0.31401639  1.0
  Br  Br7  1  0.16857006  0.33714012  0.31401639  1.0
  Br  Br8  1  0.83142994  0.16857006  0.68598361  1.0
  Br  Br9  1  0.33714012  0.16857006  0.68598361  1.0
  Br  Br10  1  0.83142994  0.66285988  0.68598361  1.0
