# generated using pymatgen
data_CaWO2
_symmetry_space_group_name_H-M   'P 1'
_cell_length_a   7.18479721
_cell_length_b   7.18479721
_cell_length_c   7.18479721
_cell_angle_alpha   129.96042046
_cell_angle_beta   129.96042046
_cell_angle_gamma   73.47004700
_symmetry_Int_Tables_number   1
_chemical_formula_structural   CaWO2
_chemical_formula_sum   'Ca4 W4 O8'
_cell_volume   212.66596391
_cell_formula_units_Z   4
loop_
 _symmetry_equiv_pos_site_id
 _symmetry_equiv_pos_as_xyz
  1  'x, y, z'
loop_
 _atom_site_type_symbol
 _atom_site_label
 _atom_site_symmetry_multiplicity
 _atom_site_fract_x
 _atom_site_fract_y
 _atom_site_fract_z
 _atom_site_occupancy
  Ca  Ca0  1  0.37500000  0.62500000  0.75000000  1.0
  Ca  Ca1  1  0.87500000  0.62500000  1.25000000  1.0
  Ca  Ca2  1  0.37500000  1.12500000  0.75000000  1.0
  Ca  Ca3  1  0.37500000  0.62500000  0.25000000  1.0
  W  W4  1  0.87500000  0.12500000  0.75000000  1.0
  W  W5  1  0.37500000  0.12500000  0.25000000  1.0
  W  W6  1  0.87500000  0.62500000  0.75000000  1.0
  W  W7  1  0.87500000  1.12500000  1.25000000  1.0
  O  O8  1  1.17774363  0.96634097  1.78859700  1.0
  O  O9  1  0.57225603  0.86085337  1.28859700  1.0
  O  O10  1  1.03365903  0.82225603  1.21140266  1.0
  O  O11  1  1.13914663  1.42774363  1.71140266  1.0
  O  O12  1  0.17774397  0.38914663  0.21140300  1.0
  O  O13  1  0.57225637  0.28365903  0.71140300  1.0
  O  O14  1  0.61085337  0.82225637  0.78859734  1.0
  O  O15  1  0.71634097  0.42774397  0.28859734  1.0
