# generated using pymatgen
data_Sb3Au2Xe2F19
_symmetry_space_group_name_H-M   'P 1'
_cell_length_a   7.64219114
_cell_length_b   9.92306718
_cell_length_c   8.90033612
_cell_angle_alpha   66.73976618
_cell_angle_beta   61.09645411
_cell_angle_gamma   73.19367729
_symmetry_Int_Tables_number   1
_chemical_formula_structural   Sb3Au2Xe2F19
_chemical_formula_sum   'Sb3 Au2 Xe2 F19'
_cell_volume   538.78021731
_cell_formula_units_Z   1
loop_
 _symmetry_equiv_pos_site_id
 _symmetry_equiv_pos_as_xyz
  1  'x, y, z'
loop_
 _atom_site_type_symbol
 _atom_site_label
 _atom_site_symmetry_multiplicity
 _atom_site_fract_x
 _atom_site_fract_y
 _atom_site_fract_z
 _atom_site_occupancy
  Sb  Sb0  1  -0.29729656  -0.14383604  -0.74686994  1.0
  Sb  Sb1  1  -0.70270344  -0.85616396  -0.25313006  1.0
  Sb  Sb2  1  -0.50000000  -0.50000000  -0.00000000  1.0
  Au  Au3  1  -0.79401800  -0.85117366  -0.69614110  1.0
  Au  Au4  1  -0.20598200  -0.14882634  -0.30385890  1.0
  Xe  Xe5  1  -0.10015792  -0.63800903  -0.63151936  1.0
  Xe  Xe6  1  -0.89984208  -0.36199097  -0.36848064  1.0
  F  F7  1  -0.00000000  0.00000000  -0.50000000  1.0
  F  F8  1  -0.57563853  -0.04421390  -0.73368876  1.0
  F  F9  1  -0.42436147  -0.95578610  -0.26631124  1.0
  F  F10  1  -0.22231766  -0.95334672  -0.82044832  1.0
  F  F11  1  -0.77768234  -0.04665328  -0.17955168  1.0
  F  F12  1  -0.40285215  -0.32578318  -0.66807559  1.0
  F  F13  1  -0.59714785  -0.67421682  -0.33192441  1.0
  F  F14  1  -0.39840528  -0.15592574  -0.49743647  1.0
  F  F15  1  -0.60159472  -0.84407426  -0.50256353  1.0
  F  F16  1  -0.22459495  -0.12831399  -0.99155019  1.0
  F  F17  1  -0.77540505  -0.87168601  -0.00844981  1.0
  F  F18  1  -0.04321843  -0.24632706  -0.74937795  1.0
  F  F19  1  -0.95678157  -0.75367294  -0.25062205  1.0
  F  F20  1  -0.55607854  -0.70859305  -0.91345927  1.0
  F  F21  1  -0.44392146  -0.29140695  -0.08654073  1.0
  F  F22  1  -0.34133591  -0.51181474  -0.23932002  1.0
  F  F23  1  -0.65866409  -0.48818526  -0.76067998  1.0
  F  F24  1  -0.26514542  -0.56463316  -0.95400251  1.0
  F  F25  1  -0.73485458  -0.43536684  -0.04599749  1.0
