# generated using pymatgen
data_V2ZnO6
_symmetry_space_group_name_H-M   'P 1'
_cell_length_a   5.23087787
_cell_length_b   5.23087787
_cell_length_c   6.92765048
_cell_angle_alpha   80.90347712
_cell_angle_beta   99.09652288
_cell_angle_gamma   140.06574608
_symmetry_Int_Tables_number   1
_chemical_formula_structural   V2ZnO6
_chemical_formula_sum   'V2 Zn1 O6'
_cell_volume   119.94312952
_cell_formula_units_Z   1
loop_
 _symmetry_equiv_pos_site_id
 _symmetry_equiv_pos_as_xyz
  1  'x, y, z'
loop_
 _atom_site_type_symbol
 _atom_site_label
 _atom_site_symmetry_multiplicity
 _atom_site_fract_x
 _atom_site_fract_y
 _atom_site_fract_z
 _atom_site_occupancy
  V  V0  1  0.75861357  0.24138643  0.81363958  1.0
  V  V1  1  0.24138643  -0.24138643  0.18636042  1.0
  Zn  Zn2  1  0.00000000  -0.00000000  0.50000000  1.0
  O  O3  1  0.90590039  0.09409961  0.72691214  1.0
  O  O4  1  0.09409961  -0.09409961  0.27308786  1.0
  O  O5  1  0.62612013  0.37387987  0.62669960  1.0
  O  O6  1  0.37387987  -0.37387987  0.37330040  1.0
  O  O7  1  0.24830374  -0.24830374  0.89463686  1.0
  O  O8  1  0.75169626  0.24830374  0.10536314  1.0
