# generated using pymatgen
data_Si4Mo2P4O23
_symmetry_space_group_name_H-M   'P 1'
_cell_length_a   11.44221153
_cell_length_b   8.72106236
_cell_length_c   5.25849682
_cell_angle_alpha   73.29576687
_cell_angle_beta   77.83716041
_cell_angle_gamma   78.40839052
_symmetry_Int_Tables_number   1
_chemical_formula_structural   Si4Mo2P4O23
_chemical_formula_sum   'Si4 Mo2 P4 O23'
_cell_volume   485.75797434
_cell_formula_units_Z   1
loop_
 _symmetry_equiv_pos_site_id
 _symmetry_equiv_pos_as_xyz
  1  'x, y, z'
loop_
 _atom_site_type_symbol
 _atom_site_label
 _atom_site_symmetry_multiplicity
 _atom_site_fract_x
 _atom_site_fract_y
 _atom_site_fract_z
 _atom_site_occupancy
  Si  Si0  1  -0.29484857  -0.31005692  -0.92674434  1.0
  Si  Si1  1  -0.70515143  -0.68994308  -0.07325566  1.0
  Si  Si2  1  -0.56335190  -0.81389497  -0.57385127  1.0
  Si  Si3  1  -0.43664810  -0.18610503  -0.42614873  1.0
  Mo  Mo4  1  -0.86339581  -0.24787873  -0.70187795  1.0
  Mo  Mo5  1  -0.13660419  -0.75212127  -0.29812205  1.0
  P  P6  1  -0.93834480  -0.82431096  -0.84165467  1.0
  P  P7  1  -0.06165520  -0.17568904  -0.15834533  1.0
  P  P8  1  -0.32258329  -0.68470661  -0.75556315  1.0
  P  P9  1  -0.67741671  -0.31529339  -0.24443685  1.0
  O  O10  1  -0.29303053  -0.74230690  -1.01297990  1.0
  O  O11  1  -0.70696947  -0.25769310  0.01297990  1.0
  O  O12  1  -0.95902295  -0.23181860  -0.98957784  1.0
  O  O13  1  -0.04097705  -0.76818140  -0.01042216  1.0
  O  O14  1  -0.84910037  -0.69115945  -0.96503375  1.0
  O  O15  1  -0.15089963  -0.30884055  -0.03496625  1.0
  O  O16  1  -0.86612945  -0.98918948  -0.85556012  1.0
  O  O17  1  -0.13387055  -0.01081052  -0.14443988  1.0
  O  O18  1  -0.31685981  -0.49921468  -0.81989207  1.0
  O  O19  1  -0.68314019  -0.50078532  -0.18010793  1.0
  O  O20  1  -0.62635198  -0.78077208  -0.83570221  1.0
  O  O21  1  -0.37364802  -0.21922792  -0.16429779  1.0
  O  O22  1  -0.46130122  -0.69191610  -0.63994917  1.0
  O  O23  1  -0.53869878  -0.30808390  -0.36005083  1.0
  O  O24  1  -0.85020715  -0.44942711  -0.57403965  1.0
  O  O25  1  -0.14979285  -0.55057289  -0.42596035  1.0
  O  O26  1  -0.98593380  -0.81256592  -0.54910921  1.0
  O  O27  1  -0.01406620  -0.18743408  -0.45089079  1.0
  O  O28  1  -0.24758150  -0.78091449  -0.53970824  1.0
  O  O29  1  -0.75241850  -0.21908551  -0.46029176  1.0
  O  O30  1  -0.66047505  -0.77399004  -0.32121945  1.0
  O  O31  1  -0.33952495  -0.22600996  -0.67878055  1.0
  O  O32  1  -0.50000000  -0.00000000  -0.50000000  1.0
