# generated using pymatgen
data_HS9N
_symmetry_space_group_name_H-M   'P 1'
_cell_length_a   14.72959626
_cell_length_b   15.66471463
_cell_length_c   5.63479675
_cell_angle_alpha   90.00000000
_cell_angle_beta   90.00000000
_cell_angle_gamma   90.00000000
_symmetry_Int_Tables_number   1
_chemical_formula_structural   HS9N
_chemical_formula_sum   'H4 S36 N4'
_cell_volume   1300.14438896
_cell_formula_units_Z   4
loop_
 _symmetry_equiv_pos_site_id
 _symmetry_equiv_pos_as_xyz
  1  'x, y, z'
loop_
 _atom_site_type_symbol
 _atom_site_label
 _atom_site_symmetry_multiplicity
 _atom_site_fract_x
 _atom_site_fract_y
 _atom_site_fract_z
 _atom_site_occupancy
  H  H0  1  0.34850254  0.75000000  0.13852388  1.0
  H  H1  1  0.84850254  0.75000000  0.36147612  1.0
  H  H2  1  0.65149746  0.25000000  0.86147612  1.0
  H  H3  1  0.15149746  0.25000000  0.63852388  1.0
  S  S4  1  0.47315411  0.85563088  0.83677056  1.0
  S  S5  1  0.47315411  0.64436912  0.83677056  1.0
  S  S6  1  0.97315411  0.85563088  0.66322944  1.0
  S  S7  1  0.97315411  0.64436912  0.66322944  1.0
  S  S8  1  0.52684589  0.35563088  0.16322944  1.0
  S  S9  1  0.52684589  0.14436912  0.16322944  1.0
  S  S10  1  0.02684589  0.35563088  0.33677056  1.0
  S  S11  1  0.02684589  0.14436912  0.33677056  1.0
  S  S12  1  0.39662258  0.92806666  0.60799846  1.0
  S  S13  1  0.39662258  0.57193334  0.60799846  1.0
  S  S14  1  0.89662258  0.92806666  0.89200154  1.0
  S  S15  1  0.89662258  0.57193334  0.89200154  1.0
  S  S16  1  0.60337742  0.42806666  0.39200154  1.0
  S  S17  1  0.60337742  0.07193334  0.39200154  1.0
  S  S18  1  0.10337742  0.42806666  0.10799846  1.0
  S  S19  1  0.10337742  0.07193334  0.10799846  1.0
  S  S20  1  0.26252054  0.34630056  0.75645407  1.0
  S  S21  1  0.26252054  0.15369944  0.75645407  1.0
  S  S22  1  0.76252054  0.34630056  0.74354593  1.0
  S  S23  1  0.76252054  0.15369944  0.74354593  1.0
  S  S24  1  0.73747946  0.84630056  0.24354593  1.0
  S  S25  1  0.73747946  0.65369944  0.24354593  1.0
  S  S26  1  0.23747946  0.84630056  0.25645407  1.0
  S  S27  1  0.23747946  0.65369944  0.25645407  1.0
  S  S28  1  0.26362221  0.88059261  0.60355945  1.0
  S  S29  1  0.26362221  0.61940739  0.60355945  1.0
  S  S30  1  0.76362221  0.88059261  0.89644055  1.0
  S  S31  1  0.76362221  0.61940739  0.89644055  1.0
  S  S32  1  0.73637779  0.38059261  0.39644055  1.0
  S  S33  1  0.73637779  0.11940739  0.39644055  1.0
  S  S34  1  0.23637779  0.38059261  0.10355945  1.0
  S  S35  1  0.23637779  0.11940739  0.10355945  1.0
  S  S36  1  0.03345847  0.75000000  0.82520074  1.0
  S  S37  1  0.53345847  0.75000000  0.67479926  1.0
  S  S38  1  0.96654153  0.25000000  0.17479926  1.0
  S  S39  1  0.46654153  0.25000000  0.32520074  1.0
  N  N40  1  0.28222413  0.75000000  0.19328734  1.0
  N  N41  1  0.78222413  0.75000000  0.30671266  1.0
  N  N42  1  0.71777587  0.25000000  0.80671266  1.0
  N  N43  1  0.21777587  0.25000000  0.69328734  1.0
