# generated using pymatgen
data_Ti2Ag
_symmetry_space_group_name_H-M   'P 1'
_cell_length_a   6.35859331
_cell_length_b   6.35859331
_cell_length_c   6.35859331
_cell_angle_alpha   153.22457345
_cell_angle_beta   153.22457345
_cell_angle_gamma   38.22766331
_symmetry_Int_Tables_number   1
_chemical_formula_structural   Ti2Ag
_chemical_formula_sum   'Ti2 Ag1'
_cell_volume   52.09122266
_cell_formula_units_Z   1
loop_
 _symmetry_equiv_pos_site_id
 _symmetry_equiv_pos_as_xyz
  1  'x, y, z'
loop_
 _atom_site_type_symbol
 _atom_site_label
 _atom_site_symmetry_multiplicity
 _atom_site_fract_x
 _atom_site_fract_y
 _atom_site_fract_z
 _atom_site_occupancy
  Ti  Ti0  1  0.67233183  0.67233183  1.00000000  1.0
  Ti  Ti1  1  0.32766817  0.32766817  -0.00000000  1.0
  Ag  Ag2  1  0.00000000  0.00000000  0.00000000  1.0
