# generated using pymatgen
data_BaC2(NO)2
_symmetry_space_group_name_H-M   'P 1'
_cell_length_a   14.36763786
_cell_length_b   14.36763786
_cell_length_c   14.36763786
_cell_angle_alpha   28.82956823
_cell_angle_beta   28.82956823
_cell_angle_gamma   28.82956823
_symmetry_Int_Tables_number   1
_chemical_formula_structural   BaC2(NO)2
_chemical_formula_sum   'Ba6 C12 N12 O12'
_cell_volume   609.82912165
_cell_formula_units_Z   6
loop_
 _symmetry_equiv_pos_site_id
 _symmetry_equiv_pos_as_xyz
  1  'x, y, z'
loop_
 _atom_site_type_symbol
 _atom_site_label
 _atom_site_symmetry_multiplicity
 _atom_site_fract_x
 _atom_site_fract_y
 _atom_site_fract_z
 _atom_site_occupancy
  Ba  Ba0  1  0.85016832  -0.14983168  -0.14983168  1.0
  Ba  Ba1  1  0.35016832  0.35016832  0.35016832  1.0
  Ba  Ba2  1  0.64983168  0.64983168  -0.35016832  1.0
  Ba  Ba3  1  1.14983168  0.14983168  0.14983168  1.0
  Ba  Ba4  1  0.75000000  0.75000000  -0.25000000  1.0
  Ba  Ba5  1  0.25000000  0.25000000  0.25000000  1.0
  C  C6  1  0.75983157  0.12545934  0.00036386  1.0
  C  C7  1  1.25983157  0.50036386  -0.37454066  1.0
  C  C8  1  0.49963614  0.37454066  -0.25983157  1.0
  C  C9  1  0.99963614  0.24016843  -0.12545934  1.0
  C  C10  1  0.87454066  -0.00036386  0.24016843  1.0
  C  C11  1  0.37454066  0.74016843  -0.50036386  1.0
  C  C12  1  1.24016843  -0.12545934  -0.00036386  1.0
  C  C13  1  0.74016843  0.49963614  -0.62545934  1.0
  C  C14  1  1.00036386  -0.24016843  0.12545934  1.0
  C  C15  1  0.50036386  0.62545934  0.25983157  1.0
  C  C16  1  0.62545934  1.25983157  -0.49963614  1.0
  C  C17  1  1.12545934  0.00036386  -0.24016843  1.0
  N  N18  1  0.92182384  0.17158053  -0.20923291  1.0
  N  N19  1  1.42182384  0.29076709  -0.32841947  1.0
  N  N20  1  0.70923291  0.32841947  -0.42182384  1.0
  N  N21  1  1.20923291  0.07817616  -0.17158053  1.0
  N  N22  1  0.82841947  0.20923291  0.07817616  1.0
  N  N23  1  0.32841947  0.57817616  -0.29076709  1.0
  N  N24  1  1.07817616  -0.17158053  0.20923291  1.0
  N  N25  1  0.57817616  0.70923291  -0.67158053  1.0
  N  N26  1  0.79076709  -0.07817616  0.17158053  1.0
  N  N27  1  1.29076709  -0.32841947  0.42182384  1.0
  N  N28  1  0.67158053  0.42182384  0.29076709  1.0
  N  N29  1  1.17158053  -0.20923291  -0.07817616  1.0
  O  O30  1  0.78939435  1.06521267  -0.46432205  1.0
  O  O31  1  1.28939435  0.03567795  -0.43478733  1.0
  O  O32  1  0.96432205  0.43478733  -0.28939435  1.0
  O  O33  1  0.46432205  0.21060565  -0.06521267  1.0
  O  O34  1  0.93478733  0.46432205  -0.78939435  1.0
  O  O35  1  0.43478733  0.71060565  -0.03567795  1.0
  O  O36  1  0.21060565  0.93478733  -0.53567795  1.0
  O  O37  1  0.71060565  0.96432205  -0.56521267  1.0
  O  O38  1  0.53567795  0.78939435  0.06521267  1.0
  O  O39  1  1.03567795  -0.43478733  0.28939435  1.0
  O  O40  1  0.56521267  0.28939435  0.03567795  1.0
  O  O41  1  1.06521267  0.53567795  -0.21060565  1.0
