# generated using pymatgen
data_PbAu3
_symmetry_space_group_name_H-M   'P 1'
_cell_length_a   7.98188440
_cell_length_b   7.98188440
_cell_length_c   7.98188440
_cell_angle_alpha   99.69280238
_cell_angle_beta   99.69280238
_cell_angle_gamma   131.54965647
_symmetry_Int_Tables_number   1
_chemical_formula_structural   PbAu3
_chemical_formula_sum   'Pb4 Au12'
_cell_volume   347.06065809
_cell_formula_units_Z   4
loop_
 _symmetry_equiv_pos_site_id
 _symmetry_equiv_pos_as_xyz
  1  'x, y, z'
loop_
 _atom_site_type_symbol
 _atom_site_label
 _atom_site_symmetry_multiplicity
 _atom_site_fract_x
 _atom_site_fract_y
 _atom_site_fract_z
 _atom_site_occupancy
  Pb  Pb0  1  0.74492963  -0.00000000  0.74492963  1.0
  Pb  Pb1  1  1.00000000  0.74492963  0.74492963  1.0
  Pb  Pb2  1  1.00000000  1.25507037  1.25507037  1.0
  Pb  Pb3  1  0.25507037  -0.00000000  0.25507037  1.0
  Au  Au4  1  0.55029022  0.55029022  0.79947439  1.0
  Au  Au5  1  1.24918417  1.44970978  1.00000000  1.0
  Au  Au6  1  0.44970978  1.24918417  1.00000000  1.0
  Au  Au7  1  0.75081583  0.75081583  0.20052561  1.0
  Au  Au8  1  0.53352903  0.53352903  0.43870169  1.0
  Au  Au9  1  0.90517266  1.46647097  1.00000000  1.0
  Au  Au10  1  0.46647097  0.90517266  1.00000000  1.0
  Au  Au11  1  1.09482734  1.09482734  0.56129831  1.0
  Au  Au12  1  1.14367425  0.50000000  0.64367425  1.0
  Au  Au13  1  0.50000000  0.14367425  0.64367425  1.0
  Au  Au14  1  0.50000000  0.85632575  1.35632575  1.0
  Au  Au15  1  0.85632575  0.50000000  0.35632575  1.0
