# generated using pymatgen
data_MnTe2
_symmetry_space_group_name_H-M   'P 1'
_cell_length_a   6.70021658
_cell_length_b   6.70021658
_cell_length_c   6.70021658
_cell_angle_alpha   90.00000000
_cell_angle_beta   90.00000000
_cell_angle_gamma   90.00000000
_symmetry_Int_Tables_number   1
_chemical_formula_structural   MnTe2
_chemical_formula_sum   'Mn4 Te8'
_cell_volume   300.79216828
_cell_formula_units_Z   4
loop_
 _symmetry_equiv_pos_site_id
 _symmetry_equiv_pos_as_xyz
  1  'x, y, z'
loop_
 _atom_site_type_symbol
 _atom_site_label
 _atom_site_symmetry_multiplicity
 _atom_site_fract_x
 _atom_site_fract_y
 _atom_site_fract_z
 _atom_site_occupancy
  Mn  Mn0  1  0.50000000  0.00000000  0.50000000  1.0
  Mn  Mn1  1  0.50000000  0.50000000  0.00000000  1.0
  Mn  Mn2  1  0.00000000  0.00000000  0.00000000  1.0
  Mn  Mn3  1  0.00000000  0.50000000  0.50000000  1.0
  Te  Te4  1  0.13480348  0.63480348  0.86519652  1.0
  Te  Te5  1  0.13480348  0.86519652  0.36519652  1.0
  Te  Te6  1  0.63480348  0.63480348  0.63480348  1.0
  Te  Te7  1  0.63480348  0.86519652  0.13480348  1.0
  Te  Te8  1  0.86519652  0.13480348  0.63480348  1.0
  Te  Te9  1  0.86519652  0.36519652  0.13480348  1.0
  Te  Te10  1  0.36519652  0.13480348  0.86519652  1.0
  Te  Te11  1  0.36519652  0.36519652  0.36519652  1.0
