# generated using pymatgen
data_TePbF6
_symmetry_space_group_name_H-M   'P 1'
_cell_length_a   4.84941962
_cell_length_b   13.22591073
_cell_length_c   8.67813209
_cell_angle_alpha   90.00000000
_cell_angle_beta   103.84263697
_cell_angle_gamma   90.00000000
_symmetry_Int_Tables_number   1
_chemical_formula_structural   TePbF6
_chemical_formula_sum   'Te4 Pb4 F24'
_cell_volume   540.43240831
_cell_formula_units_Z   4
loop_
 _symmetry_equiv_pos_site_id
 _symmetry_equiv_pos_as_xyz
  1  'x, y, z'
loop_
 _atom_site_type_symbol
 _atom_site_label
 _atom_site_symmetry_multiplicity
 _atom_site_fract_x
 _atom_site_fract_y
 _atom_site_fract_z
 _atom_site_occupancy
  Te  Te0  1  0.54466980  0.22380232  0.47361237  1.0
  Te  Te1  1  0.54466980  0.27619768  0.97361237  1.0
  Te  Te2  1  0.45533020  0.72380232  0.02638763  1.0
  Te  Te3  1  0.45533020  0.77619768  0.52638763  1.0
  Pb  Pb4  1  0.87399195  0.99478488  0.19242803  1.0
  Pb  Pb5  1  0.87399195  0.50521512  0.69242803  1.0
  Pb  Pb6  1  0.12600805  0.49478488  0.30757197  1.0
  Pb  Pb7  1  0.12600805  0.00521512  0.80757197  1.0
  F  F8  1  0.81960108  0.39311136  0.04743123  1.0
  F  F9  1  0.81960108  0.10688864  0.54743123  1.0
  F  F10  1  0.18039892  0.89311136  0.45256877  1.0
  F  F11  1  0.18039892  0.60688864  0.95256877  1.0
  F  F12  1  0.80800350  0.81802708  0.06238791  1.0
  F  F13  1  0.80800350  0.68197292  0.56238791  1.0
  F  F14  1  0.19199650  0.31802708  0.43761209  1.0
  F  F15  1  0.19199650  0.18197292  0.93761209  1.0
  F  F16  1  0.74001272  0.18476410  0.16614803  1.0
  F  F17  1  0.74001272  0.31523590  0.66614803  1.0
  F  F18  1  0.25998728  0.68476410  0.33385197  1.0
  F  F19  1  0.25998728  0.81523590  0.83385197  1.0
  F  F20  1  0.72359545  0.46956189  0.41608841  1.0
  F  F21  1  0.72359545  0.03043811  0.91608841  1.0
  F  F22  1  0.27640455  0.96956189  0.08391159  1.0
  F  F23  1  0.27640455  0.53043811  0.58391159  1.0
  F  F24  1  0.38078006  0.32835958  0.14479940  1.0
  F  F25  1  0.38078006  0.17164042  0.64479940  1.0
  F  F26  1  0.61921994  0.82835958  0.35520060  1.0
  F  F27  1  0.61921994  0.67164042  0.85520060  1.0
  F  F28  1  0.29158574  0.11736958  0.34263718  1.0
  F  F29  1  0.29158574  0.38263042  0.84263718  1.0
  F  F30  1  0.70841426  0.61736958  0.15736282  1.0
  F  F31  1  0.70841426  0.88263042  0.65736282  1.0
