# generated using pymatgen
data_Na2Sn(CO2)4
_symmetry_space_group_name_H-M   'P 1'
_cell_length_a   6.00535574
_cell_length_b   6.00535574
_cell_length_c   13.85396940
_cell_angle_alpha   74.36098244
_cell_angle_beta   105.63901756
_cell_angle_gamma   121.76085696
_symmetry_Int_Tables_number   1
_chemical_formula_structural   Na2Sn(CO2)4
_chemical_formula_sum   'Na4 Sn2 C8 O16'
_cell_volume   404.08340438
_cell_formula_units_Z   2
loop_
 _symmetry_equiv_pos_site_id
 _symmetry_equiv_pos_as_xyz
  1  'x, y, z'
loop_
 _atom_site_type_symbol
 _atom_site_label
 _atom_site_symmetry_multiplicity
 _atom_site_fract_x
 _atom_site_fract_y
 _atom_site_fract_z
 _atom_site_occupancy
  Na  Na0  1  0.67613006  0.30195788  0.05020676  1.0
  Na  Na1  1  0.69804212  -0.67613006  0.55020676  1.0
  Na  Na2  1  1.30195788  0.67613006  0.44979324  1.0
  Na  Na3  1  1.32386994  -0.30195788  0.94979324  1.0
  Sn  Sn4  1  0.68876960  0.68876960  0.25000000  1.0
  Sn  Sn5  1  0.31123040  0.31123040  0.75000000  1.0
  C  C6  1  1.88777387  -0.09009090  0.88918310  1.0
  C  C7  1  1.09009090  -0.88777387  0.38918310  1.0
  C  C8  1  0.90990910  0.88777387  0.61081690  1.0
  C  C9  1  0.11222613  0.09009090  0.11081690  1.0
  C  C10  1  0.83981705  0.14841801  0.36648947  1.0
  C  C11  1  0.85158199  -0.83981705  0.86648947  1.0
  C  C12  1  1.14841801  0.83981705  0.13351053  1.0
  C  C13  1  1.16018295  -0.14841801  0.63351053  1.0
  O  O14  1  0.63163696  -0.01820601  0.31714879  1.0
  O  O15  1  1.01820601  -0.63163696  0.81714879  1.0
  O  O16  1  0.98179399  0.63163696  0.18285121  1.0
  O  O17  1  1.36836304  0.01820601  0.68285121  1.0
  O  O18  1  0.33121904  -0.14028641  0.09834501  1.0
  O  O19  1  1.14028641  -0.33121904  0.59834501  1.0
  O  O20  1  0.85971359  0.33121904  0.40165499  1.0
  O  O21  1  1.66878096  0.14028641  0.90165499  1.0
  O  O22  1  0.29601165  0.26875787  0.43928164  1.0
  O  O23  1  0.73124213  0.70398835  0.93928164  1.0
  O  O24  1  1.26875787  -0.70398835  0.06071836  1.0
  O  O25  1  1.70398835  -0.26875787  0.56071836  1.0
  O  O26  1  1.91487513  0.06304060  0.14180554  1.0
  O  O27  1  0.93695940  -0.91487513  0.64180554  1.0
  O  O28  1  1.06304060  0.91487513  0.35819446  1.0
  O  O29  1  0.08512487  -0.06304060  0.85819446  1.0
