# generated using pymatgen
data_IrN2
_symmetry_space_group_name_H-M   'P 1'
_cell_length_a   4.08206983
_cell_length_b   4.91459713
_cell_length_c   2.77340213
_cell_angle_alpha   90.00000000
_cell_angle_beta   90.00000000
_cell_angle_gamma   90.00000000
_symmetry_Int_Tables_number   1
_chemical_formula_structural   IrN2
_chemical_formula_sum   'Ir2 N4'
_cell_volume   55.63924100
_cell_formula_units_Z   2
loop_
 _symmetry_equiv_pos_site_id
 _symmetry_equiv_pos_as_xyz
  1  'x, y, z'
loop_
 _atom_site_type_symbol
 _atom_site_label
 _atom_site_symmetry_multiplicity
 _atom_site_fract_x
 _atom_site_fract_y
 _atom_site_fract_z
 _atom_site_occupancy
  Ir  Ir0  1  0.50000000  0.50000000  0.50000000  1.0
  Ir  Ir1  1  0.00000000  0.00000000  0.00000000  1.0
  N  N2  1  0.37141125  0.90878549  0.50000000  1.0
  N  N3  1  0.87141125  0.59121451  0.00000000  1.0
  N  N4  1  0.62858875  0.09121451  0.50000000  1.0
  N  N5  1  0.12858875  0.40878549  0.00000000  1.0
