# generated using pymatgen
data_MnPHO3
_symmetry_space_group_name_H-M   'P 1'
_cell_length_a   8.18010285
_cell_length_b   8.35576968
_cell_length_c   10.51087936
_cell_angle_alpha   90.00000000
_cell_angle_beta   124.92558291
_cell_angle_gamma   90.00000000
_symmetry_Int_Tables_number   1
_chemical_formula_structural   MnPHO3
_chemical_formula_sum   'Mn8 P8 H8 O24'
_cell_volume   589.03787001
_cell_formula_units_Z   8
loop_
 _symmetry_equiv_pos_site_id
 _symmetry_equiv_pos_as_xyz
  1  'x, y, z'
loop_
 _atom_site_type_symbol
 _atom_site_label
 _atom_site_symmetry_multiplicity
 _atom_site_fract_x
 _atom_site_fract_y
 _atom_site_fract_z
 _atom_site_occupancy
  Mn  Mn0  1  0.82250807  0.36654218  0.87637515  1.0
  Mn  Mn1  1  0.17749193  0.86654218  0.62362485  1.0
  Mn  Mn2  1  0.17749193  0.63345782  0.12362485  1.0
  Mn  Mn3  1  0.82250807  0.13345782  0.37637515  1.0
  Mn  Mn4  1  0.47408220  0.78757888  0.48569952  1.0
  Mn  Mn5  1  0.52591780  0.28757888  0.01430048  1.0
  Mn  Mn6  1  0.52591780  0.21242112  0.51430048  1.0
  Mn  Mn7  1  0.47408220  0.71242112  0.98569952  1.0
  P  P8  1  0.40895005  0.51241374  0.68697171  1.0
  P  P9  1  0.59104995  0.01241374  0.81302829  1.0
  P  P10  1  0.59104995  0.48758626  0.31302829  1.0
  P  P11  1  0.40895005  0.98758626  0.18697171  1.0
  P  P12  1  0.94853248  0.85156071  0.23450507  1.0
  P  P13  1  0.05146752  0.35156071  0.26549493  1.0
  P  P14  1  0.05146752  0.14843929  0.76549493  1.0
  P  P15  1  0.94853248  0.64843929  0.73450507  1.0
  H  H16  1  0.23039700  0.42511796  0.62181952  1.0
  H  H17  1  0.76960300  0.92511796  0.87818048  1.0
  H  H18  1  0.76960300  0.57488204  0.37818048  1.0
  H  H19  1  0.23039700  0.07488204  0.12181952  1.0
  H  H20  1  0.90626526  0.99110466  0.14523149  1.0
  H  H21  1  0.09373474  0.49110466  0.35476851  1.0
  H  H22  1  0.09373474  0.00889534  0.85476851  1.0
  H  H23  1  0.90626526  0.50889534  0.64523149  1.0
  O  O24  1  0.35175645  0.67751960  0.60376784  1.0
  O  O25  1  0.64824355  0.17751960  0.89623216  1.0
  O  O26  1  0.64824355  0.32248040  0.39623216  1.0
  O  O27  1  0.35175645  0.82248040  0.10376784  1.0
  O  O28  1  0.51053223  0.52151101  0.86501129  1.0
  O  O29  1  0.48946777  0.02151101  0.63498871  1.0
  O  O30  1  0.48946777  0.47848899  0.13498871  1.0
  O  O31  1  0.51053223  0.97848899  0.36501129  1.0
  O  O32  1  0.14776402  0.78353978  0.26986724  1.0
  O  O33  1  0.85223598  0.28353978  0.23013276  1.0
  O  O34  1  0.85223598  0.21646022  0.73013276  1.0
  O  O35  1  0.14776402  0.71646022  0.76986724  1.0
  O  O36  1  0.97710238  0.91123060  0.38682629  1.0
  O  O37  1  0.02289762  0.41123060  0.11317371  1.0
  O  O38  1  0.02289762  0.08876940  0.61317371  1.0
  O  O39  1  0.97710238  0.58876940  0.88682629  1.0
  O  O40  1  0.77668609  0.76626747  0.64306180  1.0
  O  O41  1  0.22331391  0.26626747  0.85693820  1.0
  O  O42  1  0.22331391  0.23373253  0.35693820  1.0
  O  O43  1  0.77668609  0.73373253  0.14306180  1.0
  O  O44  1  0.54750340  0.41811263  0.65719207  1.0
  O  O45  1  0.45249660  0.91811263  0.84280793  1.0
  O  O46  1  0.45249660  0.58188737  0.34280793  1.0
  O  O47  1  0.54750340  0.08188737  0.15719207  1.0
