# generated using pymatgen
data_TlO2
_symmetry_space_group_name_H-M   'P 1'
_cell_length_a   3.78570842
_cell_length_b   17.22847303
_cell_length_c   3.77711810
_cell_angle_alpha   90.00000000
_cell_angle_beta   90.00000000
_cell_angle_gamma   90.00000000
_symmetry_Int_Tables_number   1
_chemical_formula_structural   TlO2
_chemical_formula_sum   'Tl6 O12'
_cell_volume   246.35110365
_cell_formula_units_Z   6
loop_
 _symmetry_equiv_pos_site_id
 _symmetry_equiv_pos_as_xyz
  1  'x, y, z'
loop_
 _atom_site_type_symbol
 _atom_site_label
 _atom_site_symmetry_multiplicity
 _atom_site_fract_x
 _atom_site_fract_y
 _atom_site_fract_z
 _atom_site_occupancy
  Tl  Tl0  1  0.50000000  0.50000000  0.50000000  1.0
  Tl  Tl1  1  0.00000000  0.00000000  0.00000000  1.0
  Tl  Tl2  1  0.48529901  0.16668242  0.50000000  1.0
  Tl  Tl3  1  0.51470099  0.83331758  0.50000000  1.0
  Tl  Tl4  1  0.98529901  0.33331758  0.00000000  1.0
  Tl  Tl5  1  0.01470099  0.66668242  0.00000000  1.0
  O  O6  1  0.01865151  0.74996344  0.50000000  1.0
  O  O7  1  0.98134849  0.25003656  0.50000000  1.0
  O  O8  1  -0.48134849  0.75003656  0.00000000  1.0
  O  O9  1  1.48134849  0.24996344  0.00000000  1.0
  O  O10  1  0.99252237  0.41665018  0.50000000  1.0
  O  O11  1  0.00747763  0.58334982  0.50000000  1.0
  O  O12  1  0.49252237  0.08334982  0.00000000  1.0
  O  O13  1  0.50747763  0.91665018  0.00000000  1.0
  O  O14  1  0.98953369  0.08333322  0.50000000  1.0
  O  O15  1  0.01046631  0.91666678  0.50000000  1.0
  O  O16  1  0.48953369  0.41666678  0.00000000  1.0
  O  O17  1  0.51046631  0.58333322  0.00000000  1.0
