# generated using pymatgen
data_CaSeO2
_symmetry_space_group_name_H-M   'P 1'
_cell_length_a   7.38096584
_cell_length_b   7.38096584
_cell_length_c   7.38096584
_cell_angle_alpha   129.66927523
_cell_angle_beta   129.66927523
_cell_angle_gamma   73.93603878
_symmetry_Int_Tables_number   1
_chemical_formula_structural   CaSeO2
_chemical_formula_sum   'Ca4 Se4 O8'
_cell_volume   232.37160734
_cell_formula_units_Z   4
loop_
 _symmetry_equiv_pos_site_id
 _symmetry_equiv_pos_as_xyz
  1  'x, y, z'
loop_
 _atom_site_type_symbol
 _atom_site_label
 _atom_site_symmetry_multiplicity
 _atom_site_fract_x
 _atom_site_fract_y
 _atom_site_fract_z
 _atom_site_occupancy
  Ca  Ca0  1  0.37500000  0.62500000  0.75000000  1.0
  Ca  Ca1  1  0.87500000  0.62500000  1.25000000  1.0
  Ca  Ca2  1  0.37500000  1.12500000  0.75000000  1.0
  Ca  Ca3  1  0.37500000  0.62500000  0.25000000  1.0
  Se  Se4  1  0.87500000  0.12500000  0.75000000  1.0
  Se  Se5  1  0.37500000  0.12500000  0.25000000  1.0
  Se  Se6  1  0.87500000  0.62500000  0.75000000  1.0
  Se  Se7  1  0.87500000  1.12500000  1.25000000  1.0
  O  O8  1  1.16926722  0.93874657  1.76947714  1.0
  O  O9  1  0.58073057  0.85020992  1.26947714  1.0
  O  O10  1  1.06125343  0.83073057  1.23052065  1.0
  O  O11  1  1.14979008  1.41926722  1.73052065  1.0
  O  O12  1  0.16926943  0.39979008  0.23052286  1.0
  O  O13  1  0.58073278  0.31125343  0.73052286  1.0
  O  O14  1  0.60020992  0.83073278  0.76947935  1.0
  O  O15  1  0.68874657  0.41926943  0.26947935  1.0
