# generated using pymatgen
data_CsAlZnF6
_symmetry_space_group_name_H-M   'P 1'
_cell_length_a   7.32412570
_cell_length_b   7.20277709
_cell_length_c   10.32060563
_cell_angle_alpha   90.00000000
_cell_angle_beta   90.00000000
_cell_angle_gamma   90.00000000
_symmetry_Int_Tables_number   1
_chemical_formula_structural   CsAlZnF6
_chemical_formula_sum   'Cs4 Al4 Zn4 F24'
_cell_volume   544.45369168
_cell_formula_units_Z   4
loop_
 _symmetry_equiv_pos_site_id
 _symmetry_equiv_pos_as_xyz
  1  'x, y, z'
loop_
 _atom_site_type_symbol
 _atom_site_label
 _atom_site_symmetry_multiplicity
 _atom_site_fract_x
 _atom_site_fract_y
 _atom_site_fract_z
 _atom_site_occupancy
  Cs  Cs0  1  0.99040171  0.75000000  0.62754244  1.0
  Cs  Cs1  1  0.49040171  0.75000000  0.87245756  1.0
  Cs  Cs2  1  0.00959829  0.25000000  0.37245756  1.0
  Cs  Cs3  1  0.50959829  0.25000000  0.12754244  1.0
  Al  Al4  1  0.00000000  0.00000000  0.00000000  1.0
  Al  Al5  1  0.00000000  0.50000000  0.00000000  1.0
  Al  Al6  1  0.50000000  0.00000000  0.50000000  1.0
  Al  Al7  1  0.50000000  0.50000000  0.50000000  1.0
  Zn  Zn8  1  0.76637524  0.75000000  0.25676725  1.0
  Zn  Zn9  1  0.26637524  0.75000000  0.24323275  1.0
  Zn  Zn10  1  0.23362476  0.25000000  0.74323275  1.0
  Zn  Zn11  1  0.73362476  0.25000000  0.75676725  1.0
  F  F12  1  0.84341065  0.52910426  0.13546488  1.0
  F  F13  1  0.84341065  -0.02910426  0.13546488  1.0
  F  F14  1  0.34341065  0.52910426  0.36453512  1.0
  F  F15  1  0.34341065  -0.02910426  0.36453512  1.0
  F  F16  1  0.15658935  1.02910426  0.86453512  1.0
  F  F17  1  0.15658935  0.47089574  0.86453512  1.0
  F  F18  1  0.65658935  1.02910426  0.63546488  1.0
  F  F19  1  0.65658935  0.47089574  0.63546488  1.0
  F  F20  1  0.69380937  0.95170924  0.39454388  1.0
  F  F21  1  0.69380937  0.54829076  0.39454388  1.0
  F  F22  1  0.19380937  0.95170924  0.10545612  1.0
  F  F23  1  0.19380937  0.54829076  0.10545612  1.0
  F  F24  1  0.30619063  0.45170924  0.60545612  1.0
  F  F25  1  0.30619063  0.04829076  0.60545612  1.0
  F  F26  1  0.80619063  0.45170924  0.89454388  1.0
  F  F27  1  0.80619063  0.04829076  0.89454388  1.0
  F  F28  1  0.52160984  0.75000000  0.17002797  1.0
  F  F29  1  0.02160984  0.75000000  0.32997203  1.0
  F  F30  1  0.47839016  0.25000000  0.82997203  1.0
  F  F31  1  0.97839016  0.25000000  0.67002797  1.0
  F  F32  1  0.47842037  0.75000000  0.54264536  1.0
  F  F33  1  0.97842037  0.75000000  0.95735464  1.0
  F  F34  1  0.52157963  0.25000000  0.45735464  1.0
  F  F35  1  0.02157963  0.25000000  0.04264536  1.0
