# generated using pymatgen
data_Tl3SbS3
_symmetry_space_group_name_H-M   'P 1'
_cell_length_a   6.20377381
_cell_length_b   6.20377381
_cell_length_c   6.20377381
_cell_angle_alpha   104.23179826
_cell_angle_beta   104.23179826
_cell_angle_gamma   104.23179826
_symmetry_Int_Tables_number   1
_chemical_formula_structural   Tl3SbS3
_chemical_formula_sum   'Tl3 Sb1 S3'
_cell_volume   212.07819333
_cell_formula_units_Z   1
loop_
 _symmetry_equiv_pos_site_id
 _symmetry_equiv_pos_as_xyz
  1  'x, y, z'
loop_
 _atom_site_type_symbol
 _atom_site_label
 _atom_site_symmetry_multiplicity
 _atom_site_fract_x
 _atom_site_fract_y
 _atom_site_fract_z
 _atom_site_occupancy
  Tl  Tl0  1  1.22005337  0.61254077  -0.38745923  1.0
  Tl  Tl1  1  0.61254077  1.22005337  -0.38745923  1.0
  Tl  Tl2  1  0.61254077  0.61254077  0.22005337  1.0
  Sb  Sb3  1  0.03402756  0.03402756  0.03402756  1.0
  S  S4  1  0.62524172  0.01074790  0.01074790  1.0
  S  S5  1  1.01074790  -0.37475828  0.01074790  1.0
  S  S6  1  1.01074790  0.01074790  -0.37475828  1.0
