# generated using pymatgen
data_H5C2NO4
_symmetry_space_group_name_H-M   'P 1'
_cell_length_a   4.50822042
_cell_length_b   13.21299648
_cell_length_c   8.74473493
_cell_angle_alpha   90.00000000
_cell_angle_beta   110.13847600
_cell_angle_gamma   90.00000000
_symmetry_Int_Tables_number   1
_chemical_formula_structural   H5C2NO4
_chemical_formula_sum   'H20 C8 N4 O16'
_cell_volume   489.05246890
_cell_formula_units_Z   4
loop_
 _symmetry_equiv_pos_site_id
 _symmetry_equiv_pos_as_xyz
  1  'x, y, z'
loop_
 _atom_site_type_symbol
 _atom_site_label
 _atom_site_symmetry_multiplicity
 _atom_site_fract_x
 _atom_site_fract_y
 _atom_site_fract_z
 _atom_site_occupancy
  H  H0  1  0.94440063  0.02422886  0.16580151  1.0
  H  H1  1  0.94440063  0.47577114  0.66580151  1.0
  H  H2  1  0.05559937  0.52422886  0.33419849  1.0
  H  H3  1  0.05559937  0.97577114  0.83419849  1.0
  H  H4  1  0.71429888  0.12736616  0.16150170  1.0
  H  H5  1  0.71429888  0.37263384  0.66150170  1.0
  H  H6  1  0.28570112  0.62736616  0.33849830  1.0
  H  H7  1  0.28570112  0.87263384  0.83849830  1.0
  H  H8  1  0.93842805  0.07665300  0.33994830  1.0
  H  H9  1  0.93842805  0.42334700  0.83994830  1.0
  H  H10  1  0.06157195  0.57665300  0.16005170  1.0
  H  H11  1  0.06157195  0.92334700  0.66005170  1.0
  H  H12  1  0.61669101  0.01136968  0.21653049  1.0
  H  H13  1  0.61669101  0.48863032  0.71653049  1.0
  H  H14  1  0.38330899  0.51136968  0.28346951  1.0
  H  H15  1  0.38330899  0.98863032  0.78346951  1.0
  H  H16  1  0.17242833  0.27317119  0.44749736  1.0
  H  H17  1  0.17242833  0.22682881  0.94749736  1.0
  H  H18  1  0.82757167  0.77317119  0.05250264  1.0
  H  H19  1  0.82757167  0.72682881  0.55250264  1.0
  C  C20  1  0.70581953  0.34804597  0.26218494  1.0
  C  C21  1  0.70581953  0.15195403  0.76218494  1.0
  C  C22  1  0.29418047  0.84804597  0.23781506  1.0
  C  C23  1  0.29418047  0.65195403  0.73781506  1.0
  C  C24  1  0.40958787  0.32989515  0.10687880  1.0
  C  C25  1  0.40958787  0.17010485  0.60687880  1.0
  C  C26  1  0.59041213  0.82989515  0.39312120  1.0
  C  C27  1  0.59041213  0.67010485  0.89312120  1.0
  N  N28  1  0.80230179  0.06033417  0.21992521  1.0
  N  N29  1  0.80230179  0.43966583  0.71992521  1.0
  N  N30  1  0.19769821  0.56033417  0.28007479  1.0
  N  N31  1  0.19769821  0.93966583  0.78007479  1.0
  O  O32  1  0.90715652  0.27719350  0.29890119  1.0
  O  O33  1  0.90715652  0.22280650  0.79890119  1.0
  O  O34  1  0.09284348  0.77719350  0.20109881  1.0
  O  O35  1  0.09284348  0.72280650  0.70109881  1.0
  O  O36  1  0.76896793  0.90037387  0.45609643  1.0
  O  O37  1  0.76896793  0.59962613  0.95609643  1.0
  O  O38  1  0.23103207  0.40037387  0.04390357  1.0
  O  O39  1  0.23103207  0.09962613  0.54390357  1.0
  O  O40  1  0.72057487  0.43119190  0.33467511  1.0
  O  O41  1  0.72057487  0.06880810  0.83467511  1.0
  O  O42  1  0.27942513  0.93119190  0.16532489  1.0
  O  O43  1  0.27942513  0.56880810  0.66532489  1.0
  O  O44  1  0.37838388  0.23584498  0.05394039  1.0
  O  O45  1  0.37838388  0.26415502  0.55394039  1.0
  O  O46  1  0.62161612  0.73584498  0.44605961  1.0
  O  O47  1  0.62161612  0.76415502  0.94605961  1.0
