# generated using pymatgen
data_ZnS
_symmetry_space_group_name_H-M   'P 1'
_cell_length_a   3.84869377
_cell_length_b   3.84869377
_cell_length_c   44.07770883
_cell_angle_alpha   90.00000000
_cell_angle_beta   90.00000000
_cell_angle_gamma   120.00000000
_symmetry_Int_Tables_number   1
_chemical_formula_structural   ZnS
_chemical_formula_sum   'Zn14 S14'
_cell_volume   565.42675702
_cell_formula_units_Z   14
loop_
 _symmetry_equiv_pos_site_id
 _symmetry_equiv_pos_as_xyz
  1  'x, y, z'
loop_
 _atom_site_type_symbol
 _atom_site_label
 _atom_site_symmetry_multiplicity
 _atom_site_fract_x
 _atom_site_fract_y
 _atom_site_fract_z
 _atom_site_occupancy
  Zn  Zn0  1  0.00000000  0.00000000  0.35710296  1.0
  Zn  Zn1  1  0.00000000  0.00000000  0.50001649  1.0
  Zn  Zn2  1  0.00000000  0.00000000  0.78566240  1.0
  Zn  Zn3  1  0.00000000  0.00000000  0.92857678  1.0
  Zn  Zn4  1  0.66666667  0.33333333  0.07131299  1.0
  Zn  Zn5  1  0.66666667  0.33333333  0.21436865  1.0
  Zn  Zn6  1  0.66666667  0.33333333  0.42856060  1.0
  Zn  Zn7  1  0.66666667  0.33333333  0.64284635  1.0
  Zn  Zn8  1  0.66666667  0.33333333  0.85712639  1.0
  Zn  Zn9  1  0.33333333  0.66666667  -0.00009694  1.0
  Zn  Zn10  1  0.33333333  0.66666667  0.14283527  1.0
  Zn  Zn11  1  0.33333333  0.66666667  0.28578405  1.0
  Zn  Zn12  1  0.33333333  0.66666667  0.57137559  1.0
  Zn  Zn13  1  0.33333333  0.66666667  0.71430198  1.0
  S  S14  1  0.00000000  0.00000000  0.30361332  1.0
  S  S15  1  0.00000000  0.00000000  0.44650650  1.0
  S  S16  1  0.00000000  0.00000000  0.73215707  1.0
  S  S17  1  0.00000000  0.00000000  0.87507117  1.0
  S  S18  1  0.66666667  0.33333333  0.01774074  1.0
  S  S19  1  0.66666667  0.33333333  0.16078279  1.0
  S  S20  1  0.66666667  0.33333333  0.37496021  1.0
  S  S21  1  0.66666667  0.33333333  0.58924126  1.0
  S  S22  1  0.66666667  0.33333333  0.80352485  1.0
  S  S23  1  0.33333333  0.66666667  0.08926087  1.0
  S  S24  1  0.33333333  0.66666667  0.23229064  1.0
  S  S25  1  0.33333333  0.66666667  0.51787119  1.0
  S  S26  1  0.33333333  0.66666667  0.66079283  1.0
  S  S27  1  0.33333333  0.66666667  0.94641298  1.0
