# generated using pymatgen
data_TeO2
_symmetry_space_group_name_H-M   'P 1'
_cell_length_a   5.48702517
_cell_length_b   5.83686238
_cell_length_c   12.08662765
_cell_angle_alpha   90.00000000
_cell_angle_beta   90.00000000
_cell_angle_gamma   90.00000000
_symmetry_Int_Tables_number   1
_chemical_formula_structural   TeO2
_chemical_formula_sum   'Te8 O16'
_cell_volume   387.09855381
_cell_formula_units_Z   8
loop_
 _symmetry_equiv_pos_site_id
 _symmetry_equiv_pos_as_xyz
  1  'x, y, z'
loop_
 _atom_site_type_symbol
 _atom_site_label
 _atom_site_symmetry_multiplicity
 _atom_site_fract_x
 _atom_site_fract_y
 _atom_site_fract_z
 _atom_site_occupancy
  Te  Te0  1  0.47765465  0.62784503  0.88045457  1.0
  Te  Te1  1  0.47765465  0.87215497  0.38045457  1.0
  Te  Te2  1  0.97765465  0.62784503  0.61954543  1.0
  Te  Te3  1  0.97765465  0.87215497  0.11954543  1.0
  Te  Te4  1  0.52234535  0.12784503  0.61954543  1.0
  Te  Te5  1  0.52234535  0.37215497  0.11954543  1.0
  Te  Te6  1  0.02234535  0.12784503  0.88045457  1.0
  Te  Te7  1  0.02234535  0.37215497  0.38045457  1.0
  O  O8  1  0.34990887  0.83828168  0.53363307  1.0
  O  O9  1  0.34990887  0.66171832  0.03363307  1.0
  O  O10  1  0.84990887  0.83828168  0.96636693  1.0
  O  O11  1  0.84990887  0.66171832  0.46636693  1.0
  O  O12  1  0.65009113  0.33828168  0.96636693  1.0
  O  O13  1  0.65009113  0.16171832  0.46636693  1.0
  O  O14  1  0.15009113  0.33828168  0.53363307  1.0
  O  O15  1  0.15009113  0.16171832  0.03363307  1.0
  O  O16  1  0.28826462  0.92333402  0.82460496  1.0
  O  O17  1  0.28826462  0.57666598  0.32460496  1.0
  O  O18  1  0.78826462  0.92333402  0.67539504  1.0
  O  O19  1  0.78826462  0.57666598  0.17539504  1.0
  O  O20  1  0.71173538  0.42333402  0.67539504  1.0
  O  O21  1  0.71173538  0.07666598  0.17539504  1.0
  O  O22  1  0.21173538  0.42333402  0.82460496  1.0
  O  O23  1  0.21173538  0.07666598  0.32460496  1.0
