# generated using pymatgen
data_BaVO3
_symmetry_space_group_name_H-M   'P 1'
_cell_length_a   5.69356185
_cell_length_b   5.69356185
_cell_length_c   11.46060665
_cell_angle_alpha   90.00000000
_cell_angle_beta   90.00000000
_cell_angle_gamma   120.00000000
_symmetry_Int_Tables_number   1
_chemical_formula_structural   BaVO3
_chemical_formula_sum   'Ba5 V5 O15'
_cell_volume   321.74093848
_cell_formula_units_Z   5
loop_
 _symmetry_equiv_pos_site_id
 _symmetry_equiv_pos_as_xyz
  1  'x, y, z'
loop_
 _atom_site_type_symbol
 _atom_site_label
 _atom_site_symmetry_multiplicity
 _atom_site_fract_x
 _atom_site_fract_y
 _atom_site_fract_z
 _atom_site_occupancy
  Ba  Ba0  1  0.33333333  0.66666667  0.40708870  1.0
  Ba  Ba1  1  0.66666667  0.33333333  0.59291130  1.0
  Ba  Ba2  1  0.33333333  0.66666667  0.78982232  1.0
  Ba  Ba3  1  0.66666667  0.33333333  0.21017768  1.0
  Ba  Ba4  1  0.00000000  0.00000000  0.00000000  1.0
  V  V5  1  0.33333333  0.66666667  0.09309104  1.0
  V  V6  1  0.66666667  0.33333333  0.90690896  1.0
  V  V7  1  0.00000000  0.00000000  0.28305242  1.0
  V  V8  1  0.00000000  0.00000000  0.71694758  1.0
  V  V9  1  0.00000000  0.00000000  0.50000000  1.0
  O  O10  1  0.66733177  0.83366588  0.19622359  1.0
  O  O11  1  0.83366588  0.66733177  0.80377641  1.0
  O  O12  1  0.83366588  0.16633412  0.80377641  1.0
  O  O13  1  0.16633412  0.83366588  0.19622359  1.0
  O  O14  1  0.16633412  0.33266823  0.19622359  1.0
  O  O15  1  0.33266823  0.16633412  0.80377641  1.0
  O  O16  1  0.30595256  0.15297628  0.39649403  1.0
  O  O17  1  0.15297628  0.30595256  0.60350597  1.0
  O  O18  1  0.15297628  0.84702372  0.60350597  1.0
  O  O19  1  0.84702372  0.15297628  0.39649403  1.0
  O  O20  1  0.84702372  0.69404744  0.39649403  1.0
  O  O21  1  0.69404744  0.84702372  0.60350597  1.0
  O  O22  1  0.50000000  0.50000000  0.00000000  1.0
  O  O23  1  0.50000000  0.00000000  0.00000000  1.0
  O  O24  1  0.00000000  0.50000000  0.00000000  1.0
