# generated using pymatgen
data_LaFeSi2
_symmetry_space_group_name_H-M   'P 1'
_cell_length_a   8.81507746
_cell_length_b   8.81507746
_cell_length_c   4.05388725
_cell_angle_alpha   90.00000000
_cell_angle_beta   90.00000000
_cell_angle_gamma   152.60328318
_symmetry_Int_Tables_number   1
_chemical_formula_structural   LaFeSi2
_chemical_formula_sum   'La2 Fe2 Si4'
_cell_volume   144.95137152
_cell_formula_units_Z   2
loop_
 _symmetry_equiv_pos_site_id
 _symmetry_equiv_pos_as_xyz
  1  'x, y, z'
loop_
 _atom_site_type_symbol
 _atom_site_label
 _atom_site_symmetry_multiplicity
 _atom_site_fract_x
 _atom_site_fract_y
 _atom_site_fract_z
 _atom_site_occupancy
  Si  Si0  1  0.03800626  0.96199374  0.75000000  1.0
  Si  Si1  1  -0.03800626  0.03800626  0.25000000  1.0
  Si  Si2  1  0.19050864  0.80949136  0.75000000  1.0
  Si  Si3  1  -0.19050864  0.19050864  0.25000000  1.0
  Fe  Fe4  1  -0.25008051  0.25008051  0.75000000  1.0
  Fe  Fe5  1  0.25008051  0.74991949  0.25000000  1.0
  La  La6  1  0.39233620  0.60766380  0.75000000  1.0
  La  La7  1  -0.39233620  0.39233620  0.25000000  1.0
