# generated using pymatgen
data_Ca2TaMnO6
_symmetry_space_group_name_H-M   'P 1'
_cell_length_a   5.49070373
_cell_length_b   7.67429339
_cell_length_c   5.72328189
_cell_angle_alpha   90.00000000
_cell_angle_beta   85.60461114
_cell_angle_gamma   90.00000000
_symmetry_Int_Tables_number   1
_chemical_formula_structural   Ca2TaMnO6
_chemical_formula_sum   'Ca4 Ta2 Mn2 O12'
_cell_volume   240.45420146
_cell_formula_units_Z   2
loop_
 _symmetry_equiv_pos_site_id
 _symmetry_equiv_pos_as_xyz
  1  'x, y, z'
loop_
 _atom_site_type_symbol
 _atom_site_label
 _atom_site_symmetry_multiplicity
 _atom_site_fract_x
 _atom_site_fract_y
 _atom_site_fract_z
 _atom_site_occupancy
  Ca  Ca0  1  0.00537687  0.25000000  0.56906198  1.0
  Ca  Ca1  1  0.99462313  0.75000000  0.43093802  1.0
  Ca  Ca2  1  0.48053791  0.25000000  0.04744607  1.0
  Ca  Ca3  1  0.51946209  0.75000000  0.95255393  1.0
  Ta  Ta4  1  0.50000000  0.00000000  0.50000000  1.0
  Ta  Ta5  1  0.50000000  0.50000000  0.50000000  1.0
  Mn  Mn6  1  0.00000000  0.00000000  0.00000000  1.0
  Mn  Mn7  1  0.00000000  0.50000000  0.00000000  1.0
  O  O8  1  0.21970373  0.04859645  0.31489839  1.0
  O  O9  1  0.21970373  0.45140355  0.31489839  1.0
  O  O10  1  0.78029627  0.54859645  0.68510161  1.0
  O  O11  1  0.78029627  0.95140355  0.68510161  1.0
  O  O12  1  0.29459252  0.04775183  0.79832228  1.0
  O  O13  1  0.29459252  0.45224817  0.79832228  1.0
  O  O14  1  0.70540748  0.54775183  0.20167772  1.0
  O  O15  1  0.70540748  0.95224817  0.20167772  1.0
  O  O16  1  0.59848275  0.25000000  0.47250643  1.0
  O  O17  1  0.40151725  0.75000000  0.52749357  1.0
  O  O18  1  0.90788433  0.25000000  0.97622129  1.0
  O  O19  1  0.09211567  0.75000000  0.02377871  1.0
