# generated using pymatgen
data_CsGe
_symmetry_space_group_name_H-M   'P 1'
_cell_length_a   12.54375763
_cell_length_b   12.54375763
_cell_length_c   12.54375763
_cell_angle_alpha   124.63590260
_cell_angle_beta   124.63590260
_cell_angle_gamma   82.14197546
_symmetry_Int_Tables_number   1
_chemical_formula_structural   CsGe
_chemical_formula_sum   'Cs16 Ge16'
_cell_volume   1284.53739753
_cell_formula_units_Z   16
loop_
 _symmetry_equiv_pos_site_id
 _symmetry_equiv_pos_as_xyz
  1  'x, y, z'
loop_
 _atom_site_type_symbol
 _atom_site_label
 _atom_site_symmetry_multiplicity
 _atom_site_fract_x
 _atom_site_fract_y
 _atom_site_fract_z
 _atom_site_occupancy
  Cs  Cs0  1  0.76528113  1.37500000  0.89028113  1.0
  Cs  Cs1  1  1.26528113  1.37500000  1.39028113  1.0
  Cs  Cs2  1  1.62500000  1.51528113  1.39028113  1.0
  Cs  Cs3  1  1.12500000  1.73471887  1.10971887  1.0
  Cs  Cs4  1  0.98471887  0.87500000  0.60971887  1.0
  Cs  Cs5  1  1.48471887  0.87500000  1.10971887  1.0
  Cs  Cs6  1  1.62500000  1.01528113  0.89028113  1.0
  Cs  Cs7  1  1.12500000  1.23471887  0.60971887  1.0
  Cs  Cs8  1  0.87125040  0.87125040  0.24250081  1.0
  Cs  Cs9  1  1.37125040  1.12874960  1.00000000  1.0
  Cs  Cs10  1  0.12125040  0.62125040  0.74250081  1.0
  Cs  Cs11  1  0.62125040  0.87874960  1.50000000  1.0
  Cs  Cs12  1  0.87874960  0.37874960  1.25749919  1.0
  Cs  Cs13  1  0.37874960  0.12125040  0.50000000  1.0
  Cs  Cs14  1  1.62874960  1.62874960  1.75749919  1.0
  Cs  Cs15  1  1.12874960  1.37125040  1.00000000  1.0
  Ge  Ge16  1  1.50951184  1.35589752  0.96354884  1.0
  Ge  Ge17  1  1.00951184  1.04596300  0.15361432  1.0
  Ge  Ge18  1  1.60589752  1.25951184  1.46354884  1.0
  Ge  Ge19  1  1.10589752  1.64234868  1.34638568  1.0
  Ge  Ge20  1  1.24048816  0.89410248  0.53645116  1.0
  Ge  Ge21  1  1.74048816  1.20403700  1.34638568  1.0
  Ge  Ge22  1  0.14410248  0.99048816  1.03645116  1.0
  Ge  Ge23  1  0.64410248  0.60765132  1.15361432  1.0
  Ge  Ge24  1  1.89234868  1.85589752  1.84638568  1.0
  Ge  Ge25  1  1.39234868  1.54596300  1.03645116  1.0
  Ge  Ge26  1  1.29596300  0.75951184  0.65361432  1.0
  Ge  Ge27  1  0.79596300  1.14234868  0.53645116  1.0
  Ge  Ge28  1  0.85765132  1.39410248  0.65361432  1.0
  Ge  Ge29  1  1.35765132  1.70403700  1.46354884  1.0
  Ge  Ge30  1  0.45403700  0.49048816  0.84638568  1.0
  Ge  Ge31  1  0.95403700  0.10765132  0.96354884  1.0
