# generated using pymatgen
data_Na2V2CoH4(OF)6
_symmetry_space_group_name_H-M   'P 1'
_cell_length_a   8.31182289
_cell_length_b   5.30629012
_cell_length_c   10.58692005
_cell_angle_alpha   90.00000000
_cell_angle_beta   92.13635513
_cell_angle_gamma   90.00000000
_symmetry_Int_Tables_number   1
_chemical_formula_structural   Na2V2CoH4(OF)6
_chemical_formula_sum   'Na4 V4 Co2 H8 O12 F12'
_cell_volume   466.61096511
_cell_formula_units_Z   2
loop_
 _symmetry_equiv_pos_site_id
 _symmetry_equiv_pos_as_xyz
  1  'x, y, z'
loop_
 _atom_site_type_symbol
 _atom_site_label
 _atom_site_symmetry_multiplicity
 _atom_site_fract_x
 _atom_site_fract_y
 _atom_site_fract_z
 _atom_site_occupancy
  Na  Na0  1  0.52506517  0.94414432  0.16486839  1.0
  Na  Na1  1  0.52506517  0.55585568  0.66486839  1.0
  Na  Na2  1  0.47493483  0.44414432  0.33513161  1.0
  Na  Na3  1  0.47493483  0.05585568  0.83513161  1.0
  V  V4  1  0.28700310  0.98340863  0.49459208  1.0
  V  V5  1  0.28700310  0.51659137  0.99459208  1.0
  V  V6  1  0.71299690  0.48340863  0.00540792  1.0
  V  V7  1  0.71299690  0.01659137  0.50540792  1.0
  Co  Co8  1  0.00000000  0.00000000  0.00000000  1.0
  Co  Co9  1  -0.00000000  0.50000000  0.50000000  1.0
  H  H10  1  0.01607713  0.78765994  0.23321001  1.0
  H  H11  1  0.01607713  0.71234006  0.73321001  1.0
  H  H12  1  0.98392287  0.28765994  0.26678999  1.0
  H  H13  1  0.98392287  0.21234006  0.76678999  1.0
  H  H14  1  0.15843795  0.97873698  0.23028253  1.0
  H  H15  1  0.15843795  0.52126302  0.73028253  1.0
  H  H16  1  0.84156205  0.47873698  0.26971747  1.0
  H  H17  1  0.84156205  0.02126302  0.76971747  1.0
  O  O18  1  0.04472947  0.95608171  0.20145148  1.0
  O  O19  1  0.04472947  0.54391829  0.70145148  1.0
  O  O20  1  0.95527053  0.45608171  0.29854852  1.0
  O  O21  1  0.95527053  0.04391829  0.79854852  1.0
  O  O22  1  0.15209327  0.29204781  0.01153439  1.0
  O  O23  1  0.15209327  0.20795219  0.51153439  1.0
  O  O24  1  0.84790673  0.79204781  0.48846561  1.0
  O  O25  1  0.84790673  0.70795219  0.98846561  1.0
  O  O26  1  0.18206853  0.72236398  0.46215463  1.0
  O  O27  1  0.18206853  0.77763602  0.96215463  1.0
  O  O28  1  0.81793147  0.22236398  0.03784537  1.0
  O  O29  1  0.81793147  0.27763602  0.53784537  1.0
  F  F30  1  0.33204425  0.59844977  0.16453082  1.0
  F  F31  1  0.33204425  0.90155023  0.66453082  1.0
  F  F32  1  0.66795575  0.09844977  0.33546918  1.0
  F  F33  1  0.66795575  0.40155023  0.83546918  1.0
  F  F34  1  0.51383447  0.77323637  0.47261514  1.0
  F  F35  1  0.51383447  0.72676363  0.97261514  1.0
  F  F36  1  0.48616553  0.27323637  0.02738486  1.0
  F  F37  1  0.48616553  0.22676363  0.52738486  1.0
  F  F38  1  0.67074485  0.56537990  0.17962602  1.0
  F  F39  1  0.67074485  0.93462010  0.67962602  1.0
  F  F40  1  0.32925515  0.06537990  0.32037398  1.0
  F  F41  1  0.32925515  0.43462010  0.82037398  1.0
