# generated using pymatgen
data_Al27V
_symmetry_space_group_name_H-M   'P 1'
_cell_length_a   11.77828889
_cell_length_b   11.77828889
_cell_length_c   11.77828889
_cell_angle_alpha   60.00000000
_cell_angle_beta   60.00000000
_cell_angle_gamma   60.00000000
_symmetry_Int_Tables_number   1
_chemical_formula_structural   Al27V
_chemical_formula_sum   'Al54 V2'
_cell_volume   1155.39799422
_cell_formula_units_Z   2
loop_
 _symmetry_equiv_pos_site_id
 _symmetry_equiv_pos_as_xyz
  1  'x, y, z'
loop_
 _atom_site_type_symbol
 _atom_site_label
 _atom_site_symmetry_multiplicity
 _atom_site_fract_x
 _atom_site_fract_y
 _atom_site_fract_z
 _atom_site_occupancy
  Al  Al0  1  0.62500000  -0.37500000  1.12500000  1.0
  Al  Al1  1  0.62500000  0.12500000  0.62500000  1.0
  Al  Al2  1  0.62500000  -0.37500000  0.62500000  1.0
  Al  Al3  1  1.12500000  -0.37500000  0.62500000  1.0
  Al  Al4  1  0.77230794  -0.22769206  1.00067189  1.0
  Al  Al5  1  -0.54528777  0.77230794  1.00067189  1.0
  Al  Al6  1  -0.54528777  1.00067189  0.77230794  1.0
  Al  Al7  1  0.77230794  0.00067189  0.77230794  1.0
  Al  Al8  1  0.47769206  0.47769206  -0.20471223  1.0
  Al  Al9  1  0.47769206  -0.20471223  0.47769206  1.0
  Al  Al10  1  0.24932811  -0.20471223  0.47769206  1.0
  Al  Al11  1  0.24932811  0.47769206  -0.20471223  1.0
  Al  Al12  1  0.77230794  -0.54528777  1.00067189  1.0
  Al  Al13  1  -0.22769206  1.00067189  0.45471223  1.0
  Al  Al14  1  -0.20471223  0.47769206  0.47769206  1.0
  Al  Al15  1  0.24932811  0.47769206  0.47769206  1.0
  Al  Al16  1  1.00067189  -0.54528777  0.77230794  1.0
  Al  Al17  1  0.00067189  0.77230794  0.45471223  1.0
  Al  Al18  1  -0.22769206  0.77230794  0.45471223  1.0
  Al  Al19  1  0.77230794  -0.54528777  0.77230794  1.0
  Al  Al20  1  -0.20471223  0.24932811  0.47769206  1.0
  Al  Al21  1  0.47769206  0.24932811  0.47769206  1.0
  Al  Al22  1  0.47769206  0.47769206  0.24932811  1.0
  Al  Al23  1  -0.20471223  0.47769206  0.24932811  1.0
  Al  Al24  1  1.00067189  -0.22769206  0.77230794  1.0
  Al  Al25  1  -0.54528777  0.77230794  0.77230794  1.0
  Al  Al26  1  0.47769206  0.24932811  -0.20471223  1.0
  Al  Al27  1  0.47769206  -0.20471223  0.24932811  1.0
  Al  Al28  1  1.00639285  -0.76481546  0.75202976  1.0
  Al  Al29  1  0.00639285  0.75202976  0.23518454  1.0
  Al  Al30  1  0.01481546  0.24360715  0.24360715  1.0
  Al  Al31  1  0.49797024  0.24360715  0.24360715  1.0
  Al  Al32  1  -0.76481546  1.00639285  0.75202976  1.0
  Al  Al33  1  1.00639285  0.00639285  0.75202976  1.0
  Al  Al34  1  1.00639285  -0.24797024  1.00639285  1.0
  Al  Al35  1  -0.76481546  0.75202976  1.00639285  1.0
  Al  Al36  1  0.24360715  0.01481546  0.24360715  1.0
  Al  Al37  1  0.24360715  0.24360715  0.01481546  1.0
  Al  Al38  1  0.49797024  0.24360715  0.01481546  1.0
  Al  Al39  1  0.49797024  0.01481546  0.24360715  1.0
  Al  Al40  1  0.75202976  0.00639285  1.00639285  1.0
  Al  Al41  1  -0.76481546  1.00639285  1.00639285  1.0
  Al  Al42  1  0.24360715  0.49797024  0.01481546  1.0
  Al  Al43  1  0.24360715  0.01481546  0.49797024  1.0
  Al  Al44  1  -0.24797024  1.00639285  0.23518454  1.0
  Al  Al45  1  0.75202976  -0.76481546  1.00639285  1.0
  Al  Al46  1  1.00639285  -0.76481546  1.00639285  1.0
  Al  Al47  1  0.00639285  1.00639285  0.23518454  1.0
  Al  Al48  1  0.24360715  0.49797024  0.24360715  1.0
  Al  Al49  1  0.01481546  0.49797024  0.24360715  1.0
  Al  Al50  1  0.01481546  0.24360715  0.49797024  1.0
  Al  Al51  1  0.24360715  0.24360715  0.49797024  1.0
  Al  Al52  1  0.50000000  0.50000000  -0.50000000  1.0
  Al  Al53  1  0.75000000  -0.25000000  0.75000000  1.0
  V  V54  1  0.00000000  1.00000000  -0.00000000  1.0
  V  V55  1  0.25000000  0.25000000  0.25000000  1.0
