# generated using pymatgen
data_Lu6ReO12
_symmetry_space_group_name_H-M   'P 1'
_cell_length_a   6.38527908
_cell_length_b   6.38527908
_cell_length_c   6.38527908
_cell_angle_alpha   98.90297451
_cell_angle_beta   98.90297451
_cell_angle_gamma   98.90297451
_symmetry_Int_Tables_number   1
_chemical_formula_structural   Lu6ReO12
_chemical_formula_sum   'Lu6 Re1 O12'
_cell_volume   249.80809652
_cell_formula_units_Z   1
loop_
 _symmetry_equiv_pos_site_id
 _symmetry_equiv_pos_as_xyz
  1  'x, y, z'
loop_
 _atom_site_type_symbol
 _atom_site_label
 _atom_site_symmetry_multiplicity
 _atom_site_fract_x
 _atom_site_fract_y
 _atom_site_fract_z
 _atom_site_occupancy
  Lu  Lu0  1  0.85643904  0.68176294  0.39043086  1.0
  Lu  Lu1  1  1.31823706  -0.39043086  0.14356096  1.0
  Lu  Lu2  1  0.60956914  0.14356096  0.31823706  1.0
  Lu  Lu3  1  1.14356096  0.31823706  -0.39043086  1.0
  Lu  Lu4  1  0.68176294  1.39043086  -0.14356096  1.0
  Lu  Lu5  1  1.39043086  0.85643904  -0.31823706  1.0
  Re  Re6  1  0.00000000  0.00000000  0.00000000  1.0
  O  O7  1  0.70320148  1.03814217  -0.08085075  1.0
  O  O8  1  0.96185783  0.08085075  0.29679852  1.0
  O  O9  1  1.08085075  0.29679852  -0.03814217  1.0
  O  O10  1  1.29679852  -0.03814217  0.08085075  1.0
  O  O11  1  1.03814217  0.91914925  -0.29679852  1.0
  O  O12  1  0.91914925  0.70320148  0.03814217  1.0
  O  O13  1  1.41071865  0.57161490  -0.17737393  1.0
  O  O14  1  0.42838510  1.17737393  -0.41071865  1.0
  O  O15  1  1.17737393  0.58928135  -0.57161490  1.0
  O  O16  1  0.58928135  0.42838510  0.17737393  1.0
  O  O17  1  1.57161490  -0.17737393  0.41071865  1.0
  O  O18  1  0.82262607  0.41071865  0.57161490  1.0
