# generated using pymatgen
data_Zn2SiO4
_symmetry_space_group_name_H-M   'P 1'
_cell_length_a   8.73684900
_cell_length_b   8.73684900
_cell_length_c   8.73684900
_cell_angle_alpha   107.86560448
_cell_angle_beta   107.86560448
_cell_angle_gamma   107.86560448
_symmetry_Int_Tables_number   1
_chemical_formula_structural   Zn2SiO4
_chemical_formula_sum   'Zn12 Si6 O24'
_cell_volume   541.75609510
_cell_formula_units_Z   6
loop_
 _symmetry_equiv_pos_site_id
 _symmetry_equiv_pos_as_xyz
  1  'x, y, z'
loop_
 _atom_site_type_symbol
 _atom_site_label
 _atom_site_symmetry_multiplicity
 _atom_site_fract_x
 _atom_site_fract_y
 _atom_site_fract_z
 _atom_site_occupancy
  Zn  Zn0  1  0.70461057  1.11023269  -0.05984177  1.0
  Zn  Zn1  1  0.88976731  0.05984177  0.29538943  1.0
  Zn  Zn2  1  1.05984177  0.29538943  -0.11023269  1.0
  Zn  Zn3  1  1.29538943  -0.11023269  0.05984177  1.0
  Zn  Zn4  1  1.11023269  0.94015823  -0.29538943  1.0
  Zn  Zn5  1  0.94015823  0.70461057  0.11023269  1.0
  Zn  Zn6  1  1.37514292  0.77781781  -0.40066813  1.0
  Zn  Zn7  1  1.22218219  0.40066813  -0.37514292  1.0
  Zn  Zn8  1  1.40066813  -0.37514292  0.22218219  1.0
  Zn  Zn9  1  0.62485708  0.22218219  0.40066813  1.0
  Zn  Zn10  1  0.77781781  0.59933187  0.37514292  1.0
  Zn  Zn11  1  0.59933187  1.37514292  -0.22218219  1.0
  Si  Si12  1  1.55349171  0.73513801  -0.04015881  1.0
  Si  Si13  1  0.26486199  1.04015881  -0.55349171  1.0
  Si  Si14  1  1.04015881  0.44650829  -0.73513801  1.0
  Si  Si15  1  0.44650829  0.26486199  0.04015881  1.0
  Si  Si16  1  1.73513801  -0.04015881  0.55349171  1.0
  Si  Si17  1  0.95984119  0.55349171  0.73513801  1.0
  O  O18  1  0.76676963  0.81231298  0.09924718  1.0
  O  O19  1  1.18768702  -0.09924718  0.23323037  1.0
  O  O20  1  0.90075282  0.23323037  0.18768702  1.0
  O  O21  1  1.23323037  0.18768702  -0.09924718  1.0
  O  O22  1  0.81231298  1.09924718  -0.23323037  1.0
  O  O23  1  1.09924718  0.76676963  -0.18768702  1.0
  O  O24  1  1.47393033  0.52756451  -0.19106438  1.0
  O  O25  1  0.47243549  1.19106438  -0.47393033  1.0
  O  O26  1  1.19106438  0.52606967  -0.52756451  1.0
  O  O27  1  0.52606967  0.47243549  0.19106438  1.0
  O  O28  1  1.52756451  -0.19106438  0.47393033  1.0
  O  O29  1  0.80893562  0.47393033  0.52756451  1.0
  O  O30  1  1.53393939  0.86045995  -0.14674298  1.0
  O  O31  1  1.13954005  0.14674298  -0.53393939  1.0
  O  O32  1  1.14674298  -0.53393939  0.13954005  1.0
  O  O33  1  0.46606061  0.13954005  0.14674298  1.0
  O  O34  1  0.86045995  0.85325702  0.53393939  1.0
  O  O35  1  0.85325702  1.53393939  -0.13954005  1.0
  O  O36  1  0.56659114  1.25118510  -0.07250269  1.0
  O  O37  1  0.74881490  0.07250269  0.43340886  1.0
  O  O38  1  1.07250269  0.43340886  -0.25118510  1.0
  O  O39  1  1.43340886  -0.25118510  0.07250269  1.0
  O  O40  1  1.25118510  0.92749731  -0.43340886  1.0
  O  O41  1  0.92749731  0.56659114  0.25118510  1.0
