# generated using pymatgen
data_K2PdO6
_symmetry_space_group_name_H-M   'P 1'
_cell_length_a   5.00557848
_cell_length_b   5.00557848
_cell_length_c   5.00557847
_cell_angle_alpha   82.85471015
_cell_angle_beta   82.85471015
_cell_angle_gamma   82.85471016
_symmetry_Int_Tables_number   1
_chemical_formula_structural   K2PdO6
_chemical_formula_sum   'K2 Pd1 O6'
_cell_volume   122.72050137
_cell_formula_units_Z   1
loop_
 _symmetry_equiv_pos_site_id
 _symmetry_equiv_pos_as_xyz
  1  'x, y, z'
loop_
 _atom_site_type_symbol
 _atom_site_label
 _atom_site_symmetry_multiplicity
 _atom_site_fract_x
 _atom_site_fract_y
 _atom_site_fract_z
 _atom_site_occupancy
  K  K0  1  0.65370937  0.65370937  -0.34629063  1.0
  K  K1  1  1.34629063  1.34629063  0.34629063  1.0
  Pd  Pd2  1  0.00000000  0.00000000  0.00000000  1.0
  O  O3  1  0.58884865  -0.07492608  0.08840921  1.0
  O  O4  1  0.92507392  0.08840921  -0.41115135  1.0
  O  O5  1  1.08840921  -0.41115135  -0.07492608  1.0
  O  O6  1  0.41115135  0.07492608  -0.08840921  1.0
  O  O7  1  0.07492608  0.91159079  -0.58884865  1.0
  O  O8  1  0.91159079  0.41115135  -0.92507392  1.0
