# generated using pymatgen
data_NaGa3H6(SeO7)2
_symmetry_space_group_name_H-M   'P 1'
_cell_length_a   7.22263468
_cell_length_b   7.22263468
_cell_length_c   7.22263468
_cell_angle_alpha   61.01311768
_cell_angle_beta   61.01311768
_cell_angle_gamma   61.01311768
_symmetry_Int_Tables_number   1
_chemical_formula_structural   NaGa3H6(SeO7)2
_chemical_formula_sum   'Na1 Ga3 H6 Se2 O14'
_cell_volume   272.50247313
_cell_formula_units_Z   1
loop_
 _symmetry_equiv_pos_site_id
 _symmetry_equiv_pos_as_xyz
  1  'x, y, z'
loop_
 _atom_site_type_symbol
 _atom_site_label
 _atom_site_symmetry_multiplicity
 _atom_site_fract_x
 _atom_site_fract_y
 _atom_site_fract_z
 _atom_site_occupancy
  Na  Na0  1  0.50000000  0.50000000  -0.50000000  1.0
  Ga  Ga1  1  0.50000000  1.00000000  -0.50000000  1.0
  Ga  Ga2  1  0.50000000  -0.50000000  -0.00000000  1.0
  Ga  Ga3  1  0.00000000  0.50000000  -0.50000000  1.0
  H  H4  1  0.18821328  0.18821328  -0.22392079  1.0
  H  H5  1  0.18821328  0.77607921  -0.81178672  1.0
  H  H6  1  1.22392079  -0.18821328  -0.18821328  1.0
  H  H7  1  0.81178672  0.22392079  -0.18821328  1.0
  H  H8  1  0.81178672  -0.18821328  0.22392079  1.0
  H  H9  1  0.77607921  0.18821328  -0.81178672  1.0
  Se  Se10  1  0.81188712  0.81188712  -0.18811288  1.0
  Se  Se11  1  1.18811288  1.18811288  0.18811288  1.0
  O  O12  1  0.23683093  0.23683093  -0.38843617  1.0
  O  O13  1  0.23683093  0.61156383  -0.76316907  1.0
  O  O14  1  0.38843617  0.76316907  -0.23683093  1.0
  O  O15  1  0.76316907  0.38843617  -0.23683093  1.0
  O  O16  1  0.76316907  0.76316907  -0.61156383  1.0
  O  O17  1  0.61156383  0.23683093  -0.76316907  1.0
  O  O18  1  0.34410959  0.34410959  -0.02966501  1.0
  O  O19  1  0.34410959  0.97033499  -0.65589041  1.0
  O  O20  1  1.02966501  -0.34410959  -0.34410959  1.0
  O  O21  1  0.65589041  0.02966501  -0.34410959  1.0
  O  O22  1  0.65589041  -0.34410959  0.02966501  1.0
  O  O23  1  0.97033499  0.34410959  -0.65589041  1.0
  O  O24  1  0.90618637  0.90618637  -0.09381363  1.0
  O  O25  1  1.09381363  1.09381363  0.09381363  1.0
