# generated using pymatgen
data_Tl3SiTe3
_symmetry_space_group_name_H-M   'P 1'
_cell_length_a   10.70431201
_cell_length_b   9.95305810
_cell_length_c   9.75841832
_cell_angle_alpha   100.84569150
_cell_angle_beta   96.54098894
_cell_angle_gamma   89.18097263
_symmetry_Int_Tables_number   1
_chemical_formula_structural   Tl3SiTe3
_chemical_formula_sum   'Tl12 Si4 Te12'
_cell_volume   1014.42318865
_cell_formula_units_Z   4
loop_
 _symmetry_equiv_pos_site_id
 _symmetry_equiv_pos_as_xyz
  1  'x, y, z'
loop_
 _atom_site_type_symbol
 _atom_site_label
 _atom_site_symmetry_multiplicity
 _atom_site_fract_x
 _atom_site_fract_y
 _atom_site_fract_z
 _atom_site_occupancy
  Tl  Tl0  1  0.85008878  0.54212638  -0.88165187  1.0
  Tl  Tl1  1  0.14991122  0.45787362  -0.11834813  1.0
  Tl  Tl2  1  0.16161120  0.93206228  -0.90137936  1.0
  Tl  Tl3  1  0.83838880  0.06793772  -0.09862064  1.0
  Tl  Tl4  1  0.33531104  0.33861469  -0.81268286  1.0
  Tl  Tl5  1  0.66468896  0.66138531  -0.18731714  1.0
  Tl  Tl6  1  0.73915661  0.21268064  -0.68551146  1.0
  Tl  Tl7  1  0.26084339  0.78731936  -0.31448854  1.0
  Tl  Tl8  1  0.41231589  0.72472742  -0.64988440  1.0
  Tl  Tl9  1  0.58768411  0.27527258  -0.35011560  1.0
  Tl  Tl10  1  0.85303049  0.86885095  -0.51458180  1.0
  Tl  Tl11  1  0.14696951  0.13114905  -0.48541820  1.0
  Si  Si12  1  0.51422395  0.93046118  -0.91381297  1.0
  Si  Si13  1  0.48577605  0.06953882  -0.08618703  1.0
  Si  Si14  1  0.91869658  0.51598314  -0.42626525  1.0
  Si  Si15  1  0.08130342  0.48401686  -0.57373475  1.0
  Te  Te16  1  0.39159927  0.70927689  -0.00120648  1.0
  Te  Te17  1  0.60840073  0.29072311  -0.99879352  1.0
  Te  Te18  1  0.74809381  0.88259081  -0.87454826  1.0
  Te  Te19  1  0.25190619  0.11740919  -0.12545174  1.0
  Te  Te20  1  0.71801621  0.56312488  -0.57404361  1.0
  Te  Te21  1  0.28198379  0.43687512  -0.42595639  1.0
  Te  Te22  1  0.90770263  0.29821840  -0.32554885  1.0
  Te  Te23  1  0.09229737  0.70178160  -0.67445115  1.0
  Te  Te24  1  0.57451208  0.94507276  -0.30656219  1.0
  Te  Te25  1  0.42548792  0.05492724  -0.69343781  1.0
  Te  Te26  1  0.97239698  0.72014350  -0.22825757  1.0
  Te  Te27  1  0.02760302  0.27985650  -0.77174243  1.0
