# generated using pymatgen
data_ZnS
_symmetry_space_group_name_H-M   'P 1'
_cell_length_a   3.84947135
_cell_length_b   3.84947135
_cell_length_c   37.77127690
_cell_angle_alpha   90.00000000
_cell_angle_beta   90.00000000
_cell_angle_gamma   120.00000000
_symmetry_Int_Tables_number   1
_chemical_formula_structural   ZnS
_chemical_formula_sum   'Zn12 S12'
_cell_volume   484.72395309
_cell_formula_units_Z   12
loop_
 _symmetry_equiv_pos_site_id
 _symmetry_equiv_pos_as_xyz
  1  'x, y, z'
loop_
 _atom_site_type_symbol
 _atom_site_label
 _atom_site_symmetry_multiplicity
 _atom_site_fract_x
 _atom_site_fract_y
 _atom_site_fract_z
 _atom_site_occupancy
  Zn  Zn0  1  0.00000000  0.00000000  0.18750930  1.0
  Zn  Zn1  1  0.00000000  0.00000000  0.52084640  1.0
  Zn  Zn2  1  0.00000000  0.00000000  0.85417602  1.0
  Zn  Zn3  1  0.66666667  0.33333333  0.02083719  1.0
  Zn  Zn4  1  0.66666667  0.33333333  0.35418276  1.0
  Zn  Zn5  1  0.66666667  0.33333333  0.60412271  1.0
  Zn  Zn6  1  0.66666667  0.33333333  0.77090937  1.0
  Zn  Zn7  1  0.33333333  0.66666667  0.10418324  1.0
  Zn  Zn8  1  0.33333333  0.66666667  0.27085489  1.0
  Zn  Zn9  1  0.33333333  0.66666667  0.43757380  1.0
  Zn  Zn10  1  0.33333333  0.66666667  0.68751067  1.0
  Zn  Zn11  1  0.33333333  0.66666667  0.93745685  1.0
  S  S12  1  0.00000000  0.00000000  0.25004864  1.0
  S  S13  1  0.00000000  0.00000000  0.58330196  1.0
  S  S14  1  0.00000000  0.00000000  0.91663212  1.0
  S  S15  1  0.66666667  0.33333333  0.08337828  1.0
  S  S16  1  0.66666667  0.33333333  0.41673422  1.0
  S  S17  1  0.66666667  0.33333333  0.66656702  1.0
  S  S18  1  0.66666667  0.33333333  0.83334457  1.0
  S  S19  1  0.33333333  0.66666667  -0.00010070  1.0
  S  S20  1  0.33333333  0.66666667  0.16658986  1.0
  S  S21  1  0.33333333  0.66666667  0.33326283  1.0
  S  S22  1  0.33333333  0.66666667  0.50001048  1.0
  S  S23  1  0.33333333  0.66666667  0.75006753  1.0
