# generated using pymatgen
data_FePH5CO4
_symmetry_space_group_name_H-M   'P 1'
_cell_length_a   5.82595605
_cell_length_b   9.43643154
_cell_length_c   4.84672850
_cell_angle_alpha   90.00000000
_cell_angle_beta   90.00000000
_cell_angle_gamma   90.00000000
_symmetry_Int_Tables_number   1
_chemical_formula_structural   FePH5CO4
_chemical_formula_sum   'Fe2 P2 H10 C2 O8'
_cell_volume   266.45488689
_cell_formula_units_Z   2
loop_
 _symmetry_equiv_pos_site_id
 _symmetry_equiv_pos_as_xyz
  1  'x, y, z'
loop_
 _atom_site_type_symbol
 _atom_site_label
 _atom_site_symmetry_multiplicity
 _atom_site_fract_x
 _atom_site_fract_y
 _atom_site_fract_z
 _atom_site_occupancy
  Fe  Fe0  1  0.50000000  0.02574590  0.71177033  1.0
  Fe  Fe1  1  0.00000000  0.97425410  0.21177033  1.0
  P  P2  1  0.50000000  0.82270179  0.15930227  1.0
  P  P3  1  0.00000000  0.17729821  0.65930227  1.0
  H  H4  1  0.50000000  0.62436755  0.84899356  1.0
  H  H5  1  0.00000000  0.37563245  0.34899356  1.0
  H  H6  1  0.65348244  0.58621605  0.16110154  1.0
  H  H7  1  0.34651756  0.58621605  0.16110154  1.0
  H  H8  1  0.84651756  0.41378395  0.66110154  1.0
  H  H9  1  0.15348244  0.41378395  0.66110154  1.0
  H  H10  1  0.63387817  0.19124036  0.13995546  1.0
  H  H11  1  0.36612183  0.19124036  0.13995546  1.0
  H  H12  1  0.86612183  0.80875964  0.63995546  1.0
  H  H13  1  0.13387817  0.80875964  0.63995546  1.0
  C  C14  1  0.50000000  0.63656414  0.07401772  1.0
  C  C15  1  0.00000000  0.36343586  0.57401772  1.0
  O  O16  1  0.50000000  0.83854444  0.47415315  1.0
  O  O17  1  0.00000000  0.16145556  0.97415315  1.0
  O  O18  1  0.71406978  0.89388254  0.01739943  1.0
  O  O19  1  0.28593022  0.89388254  0.01739943  1.0
  O  O20  1  0.78593022  0.10611746  0.51739943  1.0
  O  O21  1  0.21406978  0.10611746  0.51739943  1.0
  O  O22  1  0.50000000  0.20442529  0.01985011  1.0
  O  O23  1  0.00000000  0.79557471  0.51985011  1.0
