# generated using pymatgen
data_Sc6Al16Rh7
_symmetry_space_group_name_H-M   'P 1'
_cell_length_a   8.74012038
_cell_length_b   8.74012038
_cell_length_c   8.74012038
_cell_angle_alpha   60.00000000
_cell_angle_beta   60.00000000
_cell_angle_gamma   60.00000000
_symmetry_Int_Tables_number   1
_chemical_formula_structural   Sc6Al16Rh7
_chemical_formula_sum   'Sc6 Al16 Rh7'
_cell_volume   472.10352669
_cell_formula_units_Z   1
loop_
 _symmetry_equiv_pos_site_id
 _symmetry_equiv_pos_as_xyz
  1  'x, y, z'
loop_
 _atom_site_type_symbol
 _atom_site_label
 _atom_site_symmetry_multiplicity
 _atom_site_fract_x
 _atom_site_fract_y
 _atom_site_fract_z
 _atom_site_occupancy
  Sc  Sc0  1  -0.70376241  0.70376241  0.70376241  1.0
  Sc  Sc1  1  -0.29623759  0.29623759  0.70376241  1.0
  Sc  Sc2  1  0.70376241  0.70376241  -0.70376241  1.0
  Sc  Sc3  1  0.29623759  1.29623759  -0.29623759  1.0
  Sc  Sc4  1  0.29623759  -0.29623759  1.29623759  1.0
  Sc  Sc5  1  -0.29623759  0.29623759  0.29623759  1.0
  Al  Al6  1  0.88029022  0.88029022  -0.11970978  1.0
  Al  Al7  1  1.11970978  0.11970978  0.64087066  1.0
  Al  Al8  1  1.11970978  0.64087066  0.11970978  1.0
  Al  Al9  1  0.35912934  0.88029022  -0.11970978  1.0
  Al  Al10  1  1.64087066  0.11970978  0.11970978  1.0
  Al  Al11  1  0.88029022  0.35912934  -0.11970978  1.0
  Al  Al12  1  0.88029022  0.88029022  -0.64087066  1.0
  Al  Al13  1  1.11970978  0.11970978  0.11970978  1.0
  Al  Al14  1  0.66606119  0.66606119  -0.33393881  1.0
  Al  Al15  1  1.33393881  0.33393881  -0.00181643  1.0
  Al  Al16  1  1.33393881  -0.00181643  0.33393881  1.0
  Al  Al17  1  1.00181643  0.66606119  -0.33393881  1.0
  Al  Al18  1  0.99818357  0.33393881  0.33393881  1.0
  Al  Al19  1  0.66606119  1.00181643  -0.33393881  1.0
  Al  Al20  1  0.66606119  0.66606119  0.00181643  1.0
  Al  Al21  1  1.33393881  0.33393881  0.33393881  1.0
  Rh  Rh22  1  1.50000000  0.00000000  0.00000000  1.0
  Rh  Rh23  1  1.00000000  0.50000000  -0.50000000  1.0
  Rh  Rh24  1  0.00000000  1.50000000  0.00000000  1.0
  Rh  Rh25  1  0.50000000  1.00000000  -0.50000000  1.0
  Rh  Rh26  1  0.00000000  0.00000000  0.50000000  1.0
  Rh  Rh27  1  0.50000000  -0.50000000  1.00000000  1.0
  Rh  Rh28  1  0.00000000  0.00000000  0.00000000  1.0
