# generated using pymatgen
data_Ba4LiTa3O12
_symmetry_space_group_name_H-M   'P 1'
_cell_length_a   5.84527025
_cell_length_b   5.84527025
_cell_length_c   19.31135977
_cell_angle_alpha   90.00000000
_cell_angle_beta   90.00000000
_cell_angle_gamma   120.00000000
_symmetry_Int_Tables_number   1
_chemical_formula_structural   Ba4LiTa3O12
_chemical_formula_sum   'Ba8 Li2 Ta6 O24'
_cell_volume   571.41636898
_cell_formula_units_Z   2
loop_
 _symmetry_equiv_pos_site_id
 _symmetry_equiv_pos_as_xyz
  1  'x, y, z'
loop_
 _atom_site_type_symbol
 _atom_site_label
 _atom_site_symmetry_multiplicity
 _atom_site_fract_x
 _atom_site_fract_y
 _atom_site_fract_z
 _atom_site_occupancy
  Ba  Ba0  1  0.33333333  0.66666667  0.24799805  1.0
  Ba  Ba1  1  0.66666667  0.33333333  0.74799805  1.0
  Ba  Ba2  1  0.33333333  0.66666667  0.64549168  1.0
  Ba  Ba3  1  0.66666667  0.33333333  0.14549168  1.0
  Ba  Ba4  1  0.33333333  0.66666667  0.86939935  1.0
  Ba  Ba5  1  0.66666667  0.33333333  0.36939935  1.0
  Ba  Ba6  1  0.00000000  0.00000000  0.00302154  1.0
  Ba  Ba7  1  0.00000000  0.00000000  0.50302154  1.0
  Li  Li8  1  0.00000000  0.00000000  0.16509684  1.0
  Li  Li9  1  0.00000000  0.00000000  0.66509684  1.0
  Ta  Ta10  1  0.33333333  0.66666667  0.06589440  1.0
  Ta  Ta11  1  0.66666667  0.33333333  0.56589440  1.0
  Ta  Ta12  1  0.33333333  0.66666667  0.43944730  1.0
  Ta  Ta13  1  0.66666667  0.33333333  0.93944730  1.0
  Ta  Ta14  1  0.00000000  0.00000000  0.30981242  1.0
  Ta  Ta15  1  0.00000000  0.00000000  0.80981242  1.0
  O  O16  1  0.65313096  0.82656548  0.11781728  1.0
  O  O17  1  0.82656548  0.65313096  0.61781728  1.0
  O  O18  1  0.82656548  0.17343452  0.61781728  1.0
  O  O19  1  0.17343452  0.82656548  0.11781728  1.0
  O  O20  1  0.17343452  0.34686904  0.11781728  1.0
  O  O21  1  0.34686904  0.17343452  0.61781728  1.0
  O  O22  1  0.66135361  0.83067680  0.37897785  1.0
  O  O23  1  0.83067680  0.66135361  0.87897785  1.0
  O  O24  1  0.83067680  0.16932320  0.87897785  1.0
  O  O25  1  0.16932320  0.83067680  0.37897785  1.0
  O  O26  1  0.16932320  0.33864639  0.37897785  1.0
  O  O27  1  0.33864639  0.16932320  0.87897785  1.0
  O  O28  1  -0.00250411  0.49874795  -0.00339091  1.0
  O  O29  1  0.49874795  -0.00250411  0.49660909  1.0
  O  O30  1  0.49874795  0.50125205  0.49660909  1.0
  O  O31  1  0.50125205  0.49874795  -0.00339091  1.0
  O  O32  1  0.50125205  0.00250411  -0.00339091  1.0
  O  O33  1  0.00250411  0.50125205  0.49660909  1.0
  O  O34  1  0.31829954  0.15914977  0.25787525  1.0
  O  O35  1  0.15914977  0.31829954  0.75787525  1.0
  O  O36  1  0.15914977  0.84085023  0.75787525  1.0
  O  O37  1  0.84085023  0.15914977  0.25787525  1.0
  O  O38  1  0.84085023  0.68170046  0.25787525  1.0
  O  O39  1  0.68170046  0.84085023  0.75787525  1.0
