# generated using pymatgen
data_ZrGeO2
_symmetry_space_group_name_H-M   'P 1'
_cell_length_a   7.07539457
_cell_length_b   7.07539457
_cell_length_c   7.07539457
_cell_angle_alpha   125.65961451
_cell_angle_beta   125.65961451
_cell_angle_gamma   80.44831023
_symmetry_Int_Tables_number   1
_chemical_formula_structural   ZrGeO2
_chemical_formula_sum   'Zr4 Ge4 O8'
_cell_volume   225.56581641
_cell_formula_units_Z   4
loop_
 _symmetry_equiv_pos_site_id
 _symmetry_equiv_pos_as_xyz
  1  'x, y, z'
loop_
 _atom_site_type_symbol
 _atom_site_label
 _atom_site_symmetry_multiplicity
 _atom_site_fract_x
 _atom_site_fract_y
 _atom_site_fract_z
 _atom_site_occupancy
  Zr  Zr0  1  0.37500000  0.62500000  0.75000000  1.0
  Zr  Zr1  1  0.87500000  0.62500000  1.25000000  1.0
  Zr  Zr2  1  0.37500000  1.12500000  0.75000000  1.0
  Zr  Zr3  1  0.37500000  0.62500000  0.25000000  1.0
  Ge  Ge4  1  0.87500000  0.12500000  0.75000000  1.0
  Ge  Ge5  1  0.37500000  0.12500000  0.25000000  1.0
  Ge  Ge6  1  0.87500000  0.62500000  0.75000000  1.0
  Ge  Ge7  1  0.87500000  1.12500000  1.25000000  1.0
  O  O8  1  1.17254851  0.89446315  1.72190821  1.0
  O  O9  1  0.57744506  0.79935970  1.22190821  1.0
  O  O10  1  1.10553685  0.82744506  1.27808536  1.0
  O  O11  1  1.20064030  1.42254851  1.77808536  1.0
  O  O12  1  0.17255494  0.45064030  0.27809179  1.0
  O  O13  1  0.57745149  0.35553685  0.77809179  1.0
  O  O14  1  0.54935970  0.82745149  0.72191464  1.0
  O  O15  1  0.64446315  0.42255494  0.22191464  1.0
