# generated using pymatgen
data_Ca2NbAl25
_symmetry_space_group_name_H-M   'P 1'
_cell_length_a   12.25680396
_cell_length_b   12.25680396
_cell_length_c   12.25680396
_cell_angle_alpha   60.00000000
_cell_angle_beta   60.00000000
_cell_angle_gamma   60.00000000
_symmetry_Int_Tables_number   1
_chemical_formula_structural   Ca2NbAl25
_chemical_formula_sum   'Ca4 Nb2 Al50'
_cell_volume   1302.01720048
_cell_formula_units_Z   2
loop_
 _symmetry_equiv_pos_site_id
 _symmetry_equiv_pos_as_xyz
  1  'x, y, z'
loop_
 _atom_site_type_symbol
 _atom_site_label
 _atom_site_symmetry_multiplicity
 _atom_site_fract_x
 _atom_site_fract_y
 _atom_site_fract_z
 _atom_site_occupancy
  Ca  Ca0  1  0.62500000  -0.37500000  1.12500000  1.0
  Ca  Ca1  1  0.62500000  0.12500000  0.62500000  1.0
  Ca  Ca2  1  0.62500000  -0.37500000  0.62500000  1.0
  Ca  Ca3  1  1.12500000  -0.37500000  0.62500000  1.0
  Nb  Nb4  1  -0.00000000  1.00000000  0.00000000  1.0
  Nb  Nb5  1  0.25000000  0.25000000  0.25000000  1.0
  Al  Al6  1  0.75260999  -0.24739001  1.14269632  1.0
  Al  Al7  1  -0.64791629  0.75260999  1.14269632  1.0
  Al  Al8  1  -0.64791629  1.14269632  0.75260999  1.0
  Al  Al9  1  0.75260999  0.14269632  0.75260999  1.0
  Al  Al10  1  0.49739001  0.49739001  -0.10208371  1.0
  Al  Al11  1  0.49739001  -0.10208371  0.49739001  1.0
  Al  Al12  1  0.10730368  -0.10208371  0.49739001  1.0
  Al  Al13  1  0.10730368  0.49739001  -0.10208371  1.0
  Al  Al14  1  0.75260999  -0.64791629  1.14269632  1.0
  Al  Al15  1  -0.24739001  1.14269632  0.35208371  1.0
  Al  Al16  1  -0.10208371  0.49739001  0.49739001  1.0
  Al  Al17  1  0.10730368  0.49739001  0.49739001  1.0
  Al  Al18  1  1.14269632  -0.64791629  0.75260999  1.0
  Al  Al19  1  0.14269632  0.75260999  0.35208371  1.0
  Al  Al20  1  -0.24739001  0.75260999  0.35208371  1.0
  Al  Al21  1  0.75260999  -0.64791629  0.75260999  1.0
  Al  Al22  1  -0.10208371  0.10730368  0.49739001  1.0
  Al  Al23  1  0.49739001  0.10730368  0.49739001  1.0
  Al  Al24  1  0.49739001  0.49739001  0.10730368  1.0
  Al  Al25  1  -0.10208371  0.49739001  0.10730368  1.0
  Al  Al26  1  1.14269632  -0.24739001  0.75260999  1.0
  Al  Al27  1  -0.64791629  0.75260999  0.75260999  1.0
  Al  Al28  1  0.49739001  0.10730368  -0.10208371  1.0
  Al  Al29  1  0.49739001  -0.10208371  0.10730368  1.0
  Al  Al30  1  1.00408396  -0.76658235  0.75841442  1.0
  Al  Al31  1  0.00408396  0.75841442  0.23341765  1.0
  Al  Al32  1  0.01658235  0.24591604  0.24591604  1.0
  Al  Al33  1  0.49158558  0.24591604  0.24591604  1.0
  Al  Al34  1  -0.76658235  1.00408396  0.75841442  1.0
  Al  Al35  1  1.00408396  0.00408396  0.75841442  1.0
  Al  Al36  1  1.00408396  -0.24158558  1.00408396  1.0
  Al  Al37  1  -0.76658235  0.75841442  1.00408396  1.0
  Al  Al38  1  0.24591604  0.01658235  0.24591604  1.0
  Al  Al39  1  0.24591604  0.24591604  0.01658235  1.0
  Al  Al40  1  0.49158558  0.24591604  0.01658235  1.0
  Al  Al41  1  0.49158558  0.01658235  0.24591604  1.0
  Al  Al42  1  0.75841442  0.00408396  1.00408396  1.0
  Al  Al43  1  -0.76658235  1.00408396  1.00408396  1.0
  Al  Al44  1  0.24591604  0.49158558  0.01658235  1.0
  Al  Al45  1  0.24591604  0.01658235  0.49158558  1.0
  Al  Al46  1  -0.24158558  1.00408396  0.23341765  1.0
  Al  Al47  1  0.75841442  -0.76658235  1.00408396  1.0
  Al  Al48  1  1.00408396  -0.76658235  1.00408396  1.0
  Al  Al49  1  0.00408396  1.00408396  0.23341765  1.0
  Al  Al50  1  0.24591604  0.49158558  0.24591604  1.0
  Al  Al51  1  0.01658235  0.49158558  0.24591604  1.0
  Al  Al52  1  0.01658235  0.24591604  0.49158558  1.0
  Al  Al53  1  0.24591604  0.24591604  0.49158558  1.0
  Al  Al54  1  0.50000000  0.50000000  -0.50000000  1.0
  Al  Al55  1  0.75000000  -0.25000000  0.75000000  1.0
