# generated using pymatgen
data_ZrP2
_symmetry_space_group_name_H-M   'P 1'
_cell_length_a   6.50223273
_cell_length_b   3.51920125
_cell_length_c   8.80752833
_cell_angle_alpha   90.00000000
_cell_angle_beta   90.00000000
_cell_angle_gamma   90.00000000
_symmetry_Int_Tables_number   1
_chemical_formula_structural   ZrP2
_chemical_formula_sum   'Zr4 P8'
_cell_volume   201.53972499
_cell_formula_units_Z   4
loop_
 _symmetry_equiv_pos_site_id
 _symmetry_equiv_pos_as_xyz
  1  'x, y, z'
loop_
 _atom_site_type_symbol
 _atom_site_label
 _atom_site_symmetry_multiplicity
 _atom_site_fract_x
 _atom_site_fract_y
 _atom_site_fract_z
 _atom_site_occupancy
  Zr  Zr0  1  0.77923424  0.75000000  0.33716968  1.0
  Zr  Zr1  1  0.27923424  0.75000000  0.16283032  1.0
  Zr  Zr2  1  0.22076576  0.25000000  0.66283032  1.0
  Zr  Zr3  1  0.72076576  0.25000000  0.83716968  1.0
  P  P4  1  0.90363658  0.75000000  0.64390324  1.0
  P  P5  1  0.40363658  0.75000000  0.85609676  1.0
  P  P6  1  0.09636342  0.25000000  0.35609676  1.0
  P  P7  1  0.59636342  0.25000000  0.14390324  1.0
  P  P8  1  0.88954425  0.75000000  0.03975899  1.0
  P  P9  1  0.38954425  0.75000000  0.46024101  1.0
  P  P10  1  0.11045575  0.25000000  0.96024101  1.0
  P  P11  1  0.61045575  0.25000000  0.53975899  1.0
