# generated using pymatgen
data_KH5C6(N3O2)2
_symmetry_space_group_name_H-M   'P 1'
_cell_length_a   11.53421003
_cell_length_b   3.79390930
_cell_length_c   12.89254985
_cell_angle_alpha   90.00000000
_cell_angle_beta   103.02532017
_cell_angle_gamma   90.00000000
_symmetry_Int_Tables_number   1
_chemical_formula_structural   KH5C6(N3O2)2
_chemical_formula_sum   'K2 H10 C12 N12 O8'
_cell_volume   549.65881509
_cell_formula_units_Z   2
loop_
 _symmetry_equiv_pos_site_id
 _symmetry_equiv_pos_as_xyz
  1  'x, y, z'
loop_
 _atom_site_type_symbol
 _atom_site_label
 _atom_site_symmetry_multiplicity
 _atom_site_fract_x
 _atom_site_fract_y
 _atom_site_fract_z
 _atom_site_occupancy
  K  K0  1  -0.00000000  0.90418359  0.25000000  1.0
  K  K1  1  -0.00000000  0.09581641  0.75000000  1.0
  H  H2  1  0.66135102  0.39715609  0.14712832  1.0
  H  H3  1  0.66135102  0.60284391  0.64712832  1.0
  H  H4  1  0.33864898  0.39715609  0.35287168  1.0
  H  H5  1  0.33864898  0.60284391  0.85287168  1.0
  H  H6  1  0.57324956  0.64931301  0.21195843  1.0
  H  H7  1  0.57324956  0.35068699  0.71195843  1.0
  H  H8  1  0.42675044  0.64931301  0.28804157  1.0
  H  H9  1  0.42675044  0.35068699  0.78804157  1.0
  H  H10  1  0.50000000  0.00000000  0.50000000  1.0
  H  H11  1  0.50000000  0.00000000  -0.00000000  1.0
  C  C12  1  0.80561726  0.59262823  0.49834060  1.0
  C  C13  1  0.80561726  0.40737177  0.99834060  1.0
  C  C14  1  0.19438274  0.59262823  0.00165940  1.0
  C  C15  1  0.19438274  0.40737177  0.50165940  1.0
  C  C16  1  0.73498150  0.48011310  0.30485199  1.0
  C  C17  1  0.73498150  0.51988690  0.80485199  1.0
  C  C18  1  0.26501850  0.48011310  0.19514801  1.0
  C  C19  1  0.26501850  0.51988690  0.69514801  1.0
  C  C20  1  0.71130225  0.62631088  0.40571779  1.0
  C  C21  1  0.71130225  0.37368912  0.90571779  1.0
  C  C22  1  0.28869775  0.62631088  0.09428221  1.0
  C  C23  1  0.28869775  0.37368912  0.59428221  1.0
  N  N24  1  0.60810041  0.76402742  0.41002705  1.0
  N  N25  1  0.60810041  0.23597258  0.91002705  1.0
  N  N26  1  0.39189959  0.76402742  0.08997295  1.0
  N  N27  1  0.39189959  0.23597258  0.58997295  1.0
  N  N28  1  0.87883414  0.43282117  0.07661875  1.0
  N  N29  1  0.87883414  0.56717883  0.57661875  1.0
  N  N30  1  0.12116586  0.43282117  0.42338125  1.0
  N  N31  1  0.12116586  0.56717883  0.92338125  1.0
  N  N32  1  0.64976716  0.51243680  0.21560310  1.0
  N  N33  1  0.64976716  0.48756320  0.71560310  1.0
  N  N34  1  0.35023284  0.51243680  0.28439690  1.0
  N  N35  1  0.35023284  0.48756320  0.78439690  1.0
  O  O36  1  0.40205416  0.87189239  0.99470834  1.0
  O  O37  1  0.40205416  0.12810761  0.49470834  1.0
  O  O38  1  0.59794584  0.87189239  0.50529166  1.0
  O  O39  1  0.59794584  0.12810761  0.00529166  1.0
  O  O40  1  0.83201878  0.32964337  0.30878218  1.0
  O  O41  1  0.83201878  0.67035663  0.80878218  1.0
  O  O42  1  0.16798122  0.32964337  0.19121782  1.0
  O  O43  1  0.16798122  0.67035663  0.69121782  1.0
