# generated using pymatgen
data_Bi2(PbS2)3
_symmetry_space_group_name_H-M   'P 1'
_cell_length_a   7.12780084
_cell_length_b   7.12780084
_cell_length_c   21.56262934
_cell_angle_alpha   90.00000000
_cell_angle_beta   90.00000000
_cell_angle_gamma   146.66397537
_symmetry_Int_Tables_number   1
_chemical_formula_structural   Bi2(PbS2)3
_chemical_formula_sum   'Bi4 Pb6 S12'
_cell_volume   602.03069827
_cell_formula_units_Z   2
loop_
 _symmetry_equiv_pos_site_id
 _symmetry_equiv_pos_as_xyz
  1  'x, y, z'
loop_
 _atom_site_type_symbol
 _atom_site_label
 _atom_site_symmetry_multiplicity
 _atom_site_fract_x
 _atom_site_fract_y
 _atom_site_fract_z
 _atom_site_occupancy
  Bi  Bi0  1  -0.36394719  0.36394719  0.95233965  1.0
  Bi  Bi1  1  0.36394719  0.63605281  0.45233965  1.0
  Bi  Bi2  1  -0.36394719  0.36394719  0.54766035  1.0
  Bi  Bi3  1  0.36394719  0.63605281  0.04766035  1.0
  Pb  Pb4  1  -0.09028207  0.09028207  0.86333052  1.0
  Pb  Pb5  1  0.09028207  0.90971793  0.36333052  1.0
  Pb  Pb6  1  -0.09028207  0.09028207  0.63666948  1.0
  Pb  Pb7  1  0.09028207  0.90971793  0.13666948  1.0
  Pb  Pb8  1  0.16511256  0.83488744  0.75000000  1.0
  Pb  Pb9  1  -0.16511256  0.16511256  0.25000000  1.0
  S  S10  1  0.26440874  0.73559126  0.92082464  1.0
  S  S11  1  -0.26440874  0.26440874  0.42082464  1.0
  S  S12  1  0.26440874  0.73559126  0.57917536  1.0
  S  S13  1  -0.26440874  0.26440874  0.07917536  1.0
  S  S14  1  0.00000000  0.00000000  0.00000000  1.0
  S  S15  1  0.00000000  0.00000000  0.50000000  1.0
  S  S16  1  -0.19036913  0.19036913  0.75000000  1.0
  S  S17  1  0.19036913  0.80963087  0.25000000  1.0
  S  S18  1  -0.44621771  0.44621771  0.83830457  1.0
  S  S19  1  0.44621771  0.55378229  0.33830457  1.0
  S  S20  1  -0.44621771  0.44621771  0.66169543  1.0
  S  S21  1  0.44621771  0.55378229  0.16169543  1.0
