# generated using pymatgen
data_CsYbS2
_symmetry_space_group_name_H-M   'P 1'
_cell_length_a   4.09663978
_cell_length_b   4.09663978
_cell_length_c   15.95180436
_cell_angle_alpha   90.00000000
_cell_angle_beta   90.00000000
_cell_angle_gamma   120.00000000
_symmetry_Int_Tables_number   1
_chemical_formula_structural   CsYbS2
_chemical_formula_sum   'Cs2 Yb2 S4'
_cell_volume   231.84407486
_cell_formula_units_Z   2
loop_
 _symmetry_equiv_pos_site_id
 _symmetry_equiv_pos_as_xyz
  1  'x, y, z'
loop_
 _atom_site_type_symbol
 _atom_site_label
 _atom_site_symmetry_multiplicity
 _atom_site_fract_x
 _atom_site_fract_y
 _atom_site_fract_z
 _atom_site_occupancy
  Cs  Cs0  1  0.33333333  0.66666667  0.25000000  1.0
  Cs  Cs1  1  0.66666667  0.33333333  0.75000000  1.0
  Yb  Yb2  1  -0.00000000  -0.00000000  0.50000000  1.0
  Yb  Yb3  1  -0.00000000  -0.00000000  0.00000000  1.0
  S  S4  1  0.33333333  0.66666667  0.91056066  1.0
  S  S5  1  0.33333333  0.66666667  0.58943934  1.0
  S  S6  1  0.66666667  0.33333333  0.41056066  1.0
  S  S7  1  0.66666667  0.33333333  0.08943934  1.0
