# generated using pymatgen
data_NaH4C2N5O6
_symmetry_space_group_name_H-M   'P 1'
_cell_length_a   9.13552280
_cell_length_b   9.13552280
_cell_length_c   7.05748913
_cell_angle_alpha   65.15247594
_cell_angle_beta   114.84752406
_cell_angle_gamma   122.57967593
_symmetry_Int_Tables_number   1
_chemical_formula_structural   NaH4C2N5O6
_chemical_formula_sum   'Na2 H8 C4 N10 O12'
_cell_volume   435.64757038
_cell_formula_units_Z   2
loop_
 _symmetry_equiv_pos_site_id
 _symmetry_equiv_pos_as_xyz
  1  'x, y, z'
loop_
 _atom_site_type_symbol
 _atom_site_label
 _atom_site_symmetry_multiplicity
 _atom_site_fract_x
 _atom_site_fract_y
 _atom_site_fract_z
 _atom_site_occupancy
  Na  Na0  1  0.43045403  0.43045403  0.75000000  1.0
  Na  Na1  1  0.56954597  0.56954597  0.25000000  1.0
  H  H2  1  1.42794872  -0.25885206  0.37008778  1.0
  H  H3  1  1.25885206  -0.42794872  0.87008778  1.0
  H  H4  1  0.74114794  -0.57205128  0.12991222  1.0
  H  H5  1  1.57205128  0.25885206  0.62991222  1.0
  H  H6  1  1.62549116  -0.20285640  0.51531053  1.0
  H  H7  1  1.20285640  -0.62549116  0.01531053  1.0
  H  H8  1  0.79714360  -0.37450884  0.98468947  1.0
  H  H9  1  1.37450884  0.20285640  0.48468947  1.0
  C  C10  1  1.11998396  -0.01557591  0.87505860  1.0
  C  C11  1  1.01557591  -0.11998396  0.37505860  1.0
  C  C12  1  0.98442409  -0.88001604  0.62494140  1.0
  C  C13  1  1.88001604  0.01557591  0.12494140  1.0
  N  N14  1  1.26401723  -0.05330366  0.04409025  1.0
  N  N15  1  1.05330366  -0.26401723  0.54409025  1.0
  N  N16  1  0.94669634  -0.73598277  0.45590975  1.0
  N  N17  1  1.73598277  0.05330366  0.95590975  1.0
  N  N18  1  1.85891596  -0.05158883  0.66701425  1.0
  N  N19  1  1.05158883  -0.85891596  0.16701425  1.0
  N  N20  1  0.94841117  -0.14108404  0.83298575  1.0
  N  N21  1  1.14108404  0.05158883  0.33298575  1.0
  N  N22  1  0.15020150  0.15020150  0.75000000  1.0
  N  N23  1  0.84979850  0.84979850  0.25000000  1.0
  O  O24  1  1.41444471  0.07351964  0.06794020  1.0
  O  O25  1  0.92648036  -0.41444471  0.56794020  1.0
  O  O26  1  1.07351964  -0.58555529  0.43205980  1.0
  O  O27  1  1.58555529  -0.07351964  0.93205980  1.0
  O  O28  1  1.22527637  -0.21074737  0.15333213  1.0
  O  O29  1  1.21074737  -0.22527637  0.65333213  1.0
  O  O30  1  0.78925263  -0.77472363  0.34666787  1.0
  O  O31  1  1.77472363  0.21074737  0.84666787  1.0
  O  O32  1  1.51652261  -0.30550434  0.46450908  1.0
  O  O33  1  1.30550434  -0.51652261  0.96450908  1.0
  O  O34  1  0.69449566  -0.48347739  0.03549092  1.0
  O  O35  1  1.48347739  0.30550434  0.53549092  1.0
