# generated using pymatgen
data_CoH2SeO5
_symmetry_space_group_name_H-M   'P 1'
_cell_length_a   5.39751691
_cell_length_b   5.39751691
_cell_length_c   7.65627334
_cell_angle_alpha   73.81374419
_cell_angle_beta   106.18625581
_cell_angle_gamma   81.80854467
_symmetry_Int_Tables_number   1
_chemical_formula_structural   CoH2SeO5
_chemical_formula_sum   'Co2 H4 Se2 O10'
_cell_volume   199.77015184
_cell_formula_units_Z   2
loop_
 _symmetry_equiv_pos_site_id
 _symmetry_equiv_pos_as_xyz
  1  'x, y, z'
loop_
 _atom_site_type_symbol
 _atom_site_label
 _atom_site_symmetry_multiplicity
 _atom_site_fract_x
 _atom_site_fract_y
 _atom_site_fract_z
 _atom_site_occupancy
  Co  Co0  1  1.50000000  0.00000000  0.50000000  1.0
  Co  Co1  1  1.00000000  -0.50000000  0.00000000  1.0
  H  H2  1  1.53225349  0.36961702  0.20204802  1.0
  H  H3  1  0.63038298  -0.53225349  0.70204802  1.0
  H  H4  1  1.36961702  0.53225349  0.29795198  1.0
  H  H5  1  0.46774651  -0.36961702  0.79795198  1.0
  Se  Se6  1  0.92038282  -0.07961718  0.25000000  1.0
  Se  Se7  1  1.07961718  0.07961718  0.75000000  1.0
  O  O8  1  0.78742146  -0.18000936  0.42271243  1.0
  O  O9  1  1.18000936  0.21257854  0.92271243  1.0
  O  O10  1  0.81999064  -0.21257854  0.07728757  1.0
  O  O11  1  1.21257854  0.18000936  0.57728757  1.0
  O  O12  1  0.25608142  -0.18145490  0.35025169  1.0
  O  O13  1  1.18145490  0.74391858  0.85025169  1.0
  O  O14  1  0.81854510  -0.74391858  0.14974831  1.0
  O  O15  1  1.74391858  0.18145490  0.64974831  1.0
  O  O16  1  1.37825802  0.37825802  0.25000000  1.0
  O  O17  1  0.62174198  -0.37825802  0.75000000  1.0
