# generated using pymatgen
data_RbHf2(PO4)3
_symmetry_space_group_name_H-M   'P 1'
_cell_length_a   9.61445299
_cell_length_b   9.61445299
_cell_length_c   9.61445299
_cell_angle_alpha   54.10281092
_cell_angle_beta   54.10281092
_cell_angle_gamma   54.10281092
_symmetry_Int_Tables_number   1
_chemical_formula_structural   RbHf2(PO4)3
_chemical_formula_sum   'Rb2 Hf4 P6 O24'
_cell_volume   541.90284187
_cell_formula_units_Z   2
loop_
 _symmetry_equiv_pos_site_id
 _symmetry_equiv_pos_as_xyz
  1  'x, y, z'
loop_
 _atom_site_type_symbol
 _atom_site_label
 _atom_site_symmetry_multiplicity
 _atom_site_fract_x
 _atom_site_fract_y
 _atom_site_fract_z
 _atom_site_occupancy
  Rb  Rb0  1  1.00000000  0.00000000  -0.00000000  1.0
  Rb  Rb1  1  0.50000000  0.50000000  0.50000000  1.0
  Hf  Hf2  1  0.84896797  -0.15103203  -0.15103203  1.0
  Hf  Hf3  1  0.34896797  0.34896797  0.34896797  1.0
  Hf  Hf4  1  0.65103203  0.65103203  -0.34896797  1.0
  Hf  Hf5  1  1.15103203  0.15103203  0.15103203  1.0
  P  P6  1  0.46537584  0.75000000  0.03462416  1.0
  P  P7  1  0.96537584  -0.46537584  0.25000000  1.0
  P  P8  1  0.25000000  0.96537584  -0.46537584  1.0
  P  P9  1  0.75000000  1.03462416  -0.53462416  1.0
  P  P10  1  0.53462416  0.25000000  -0.03462416  1.0
  P  P11  1  1.03462416  0.46537584  -0.25000000  1.0
  O  O12  1  0.74558963  1.01291618  -0.35933338  1.0
  O  O13  1  1.24558963  0.14066662  -0.48708382  1.0
  O  O14  1  0.85933338  0.48708382  -0.24558963  1.0
  O  O15  1  0.35933338  0.25441037  -0.01291618  1.0
  O  O16  1  0.98708382  0.35933338  -0.74558963  1.0
  O  O17  1  0.48708382  0.75441037  -0.14066662  1.0
  O  O18  1  0.25441037  0.98708382  -0.64066662  1.0
  O  O19  1  0.75441037  0.85933338  -0.51291618  1.0
  O  O20  1  0.64066662  0.74558963  0.01291618  1.0
  O  O21  1  1.14066662  -0.48708382  0.24558963  1.0
  O  O22  1  0.51291618  0.24558963  0.14066662  1.0
  O  O23  1  1.01291618  0.64066662  -0.25441037  1.0
  O  O24  1  0.69989088  0.07462573  -0.07311665  1.0
  O  O25  1  1.19989088  0.42688335  -0.42537427  1.0
  O  O26  1  0.57311665  0.42537427  -0.19989088  1.0
  O  O27  1  1.07311665  0.30010912  -0.07462573  1.0
  O  O28  1  0.92537427  0.07311665  0.30010912  1.0
  O  O29  1  0.42537427  0.80010912  -0.42688335  1.0
  O  O30  1  1.30010912  -0.07462573  0.07311665  1.0
  O  O31  1  0.80010912  0.57311665  -0.57462573  1.0
  O  O32  1  0.92688335  -0.30010912  0.07462573  1.0
  O  O33  1  0.42688335  0.57462573  0.19989088  1.0
  O  O34  1  0.57462573  1.19989088  -0.57311665  1.0
  O  O35  1  1.07462573  -0.07311665  -0.30010912  1.0
