# generated using pymatgen
data_K3LiGe4
_symmetry_space_group_name_H-M   'P 1'
_cell_length_a   7.79746063
_cell_length_b   9.90511657
_cell_length_c   12.53409187
_cell_angle_alpha   90.00000000
_cell_angle_beta   90.00000000
_cell_angle_gamma   90.00000000
_symmetry_Int_Tables_number   1
_chemical_formula_structural   K3LiGe4
_chemical_formula_sum   'K12 Li4 Ge16'
_cell_volume   968.06753308
_cell_formula_units_Z   4
loop_
 _symmetry_equiv_pos_site_id
 _symmetry_equiv_pos_as_xyz
  1  'x, y, z'
loop_
 _atom_site_type_symbol
 _atom_site_label
 _atom_site_symmetry_multiplicity
 _atom_site_fract_x
 _atom_site_fract_y
 _atom_site_fract_z
 _atom_site_occupancy
  K  K0  1  0.34096899  0.94623135  0.80473961  1.0
  K  K1  1  0.34096899  0.55376865  0.80473961  1.0
  K  K2  1  0.84096899  0.94623135  0.69526039  1.0
  K  K3  1  0.84096899  0.55376865  0.69526039  1.0
  K  K4  1  0.65903101  0.44623135  0.19526039  1.0
  K  K5  1  0.65903101  0.05376865  0.19526039  1.0
  K  K6  1  0.15903101  0.44623135  0.30473961  1.0
  K  K7  1  0.15903101  0.05376865  0.30473961  1.0
  K  K8  1  0.34232552  0.75000000  0.09819157  1.0
  K  K9  1  0.84232552  0.75000000  0.40180843  1.0
  K  K10  1  0.65767448  0.25000000  0.90180843  1.0
  K  K11  1  0.15767448  0.25000000  0.59819157  1.0
  Li  Li12  1  0.50000000  0.00000000  0.50000000  1.0
  Li  Li13  1  0.50000000  0.50000000  0.50000000  1.0
  Li  Li14  1  0.00000000  0.00000000  0.00000000  1.0
  Li  Li15  1  0.00000000  0.50000000  0.00000000  1.0
  Ge  Ge16  1  0.20653952  0.87803058  0.54788660  1.0
  Ge  Ge17  1  0.20653952  0.62196942  0.54788660  1.0
  Ge  Ge18  1  0.70653952  0.87803058  0.95211340  1.0
  Ge  Ge19  1  0.70653952  0.62196942  0.95211340  1.0
  Ge  Ge20  1  0.79346048  0.37803058  0.45211340  1.0
  Ge  Ge21  1  0.79346048  0.12196942  0.45211340  1.0
  Ge  Ge22  1  0.29346048  0.37803058  0.04788660  1.0
  Ge  Ge23  1  0.29346048  0.12196942  0.04788660  1.0
  Ge  Ge24  1  0.49349924  0.75000000  0.58854771  1.0
  Ge  Ge25  1  0.99349924  0.75000000  0.91145229  1.0
  Ge  Ge26  1  0.50650076  0.25000000  0.41145229  1.0
  Ge  Ge27  1  0.00650076  0.25000000  0.08854771  1.0
  Ge  Ge28  1  0.86756341  0.75000000  0.10579463  1.0
  Ge  Ge29  1  0.36756341  0.75000000  0.39420537  1.0
  Ge  Ge30  1  0.13243659  0.25000000  0.89420537  1.0
  Ge  Ge31  1  0.63243659  0.25000000  0.60579463  1.0
