# generated using pymatgen
data_LiNbO3
_symmetry_space_group_name_H-M   'P 1'
_cell_length_a   6.29322849
_cell_length_b   8.25699429
_cell_length_c   9.50529014
_cell_angle_alpha   90.00000000
_cell_angle_beta   89.75986912
_cell_angle_gamma   90.00000000
_symmetry_Int_Tables_number   1
_chemical_formula_structural   LiNbO3
_chemical_formula_sum   'Li8 Nb8 O24'
_cell_volume   493.92049562
_cell_formula_units_Z   8
loop_
 _symmetry_equiv_pos_site_id
 _symmetry_equiv_pos_as_xyz
  1  'x, y, z'
loop_
 _atom_site_type_symbol
 _atom_site_label
 _atom_site_symmetry_multiplicity
 _atom_site_fract_x
 _atom_site_fract_y
 _atom_site_fract_z
 _atom_site_occupancy
  Li  Li0  1  1.01863637  0.81138280  0.51751670  1.0
  Li  Li1  1  1.01863637  0.68861720  0.01751670  1.0
  Li  Li2  1  -0.01863637  0.31138280  0.98248330  1.0
  Li  Li3  1  -0.01863637  0.18861720  0.48248330  1.0
  Li  Li4  1  0.27378367  0.61367621  0.76909670  1.0
  Li  Li5  1  0.27378367  0.88632379  0.26909670  1.0
  Li  Li6  1  0.72621633  0.11367621  0.73090330  1.0
  Li  Li7  1  0.72621633  0.38632379  0.23090330  1.0
  Nb  Nb8  1  0.76092809  0.49896125  0.74305216  1.0
  Nb  Nb9  1  0.76092809  1.00103875  0.24305216  1.0
  Nb  Nb10  1  0.23907191  -0.00103875  0.75694784  1.0
  Nb  Nb11  1  0.23907191  0.50103875  0.25694784  1.0
  Nb  Nb12  1  0.50326539  0.80327978  0.99816202  1.0
  Nb  Nb13  1  0.50326539  0.69672022  0.49816202  1.0
  Nb  Nb14  1  0.49673461  0.30327978  0.50183798  1.0
  Nb  Nb15  1  0.49673461  0.19672022  0.00183798  1.0
  O  O16  1  0.99277452  1.03221458  0.66240352  1.0
  O  O17  1  0.99277452  0.46778542  0.16240352  1.0
  O  O18  1  0.00722548  0.53221458  0.83759648  1.0
  O  O19  1  0.00722548  -0.03221458  0.33759648  1.0
  O  O20  1  0.79996825  0.34051528  0.59853849  1.0
  O  O21  1  0.79996825  0.15948472  0.09853849  1.0
  O  O22  1  0.20003175  0.84051528  0.90146151  1.0
  O  O23  1  0.20003175  0.65948472  0.40146151  1.0
  O  O24  1  0.76748941  0.68618747  0.60359453  1.0
  O  O25  1  0.76748941  0.81381253  0.10359453  1.0
  O  O26  1  0.23251059  0.18618747  0.89640547  1.0
  O  O27  1  0.23251059  0.31381253  0.39640547  1.0
  O  O28  1  0.68001332  0.30798874  0.86700548  1.0
  O  O29  1  0.68001332  0.19201126  0.36700548  1.0
  O  O30  1  0.31998668  0.80798874  0.63299452  1.0
  O  O31  1  0.31998668  0.69201126  0.13299452  1.0
  O  O32  1  0.56759324  0.63283825  0.87496051  1.0
  O  O33  1  0.56759324  0.86716175  0.37496051  1.0
  O  O34  1  0.43240676  0.13283825  0.62503949  1.0
  O  O35  1  0.43240676  0.36716175  0.12503949  1.0
  O  O36  1  0.56317870  0.98643865  0.86931585  1.0
  O  O37  1  0.56317870  0.51356135  0.36931585  1.0
  O  O38  1  0.43682130  0.48643865  0.63068415  1.0
  O  O39  1  0.43682130  0.01356135  0.13068415  1.0
