# generated using pymatgen
data_NaMgH3
_symmetry_space_group_name_H-M   'P 1'
_cell_length_a   5.45243338
_cell_length_b   7.66812260
_cell_length_c   5.37349479
_cell_angle_alpha   90.00000000
_cell_angle_beta   90.00000000
_cell_angle_gamma   90.00000000
_symmetry_Int_Tables_number   1
_chemical_formula_structural   NaMgH3
_chemical_formula_sum   'Na4 Mg4 H12'
_cell_volume   224.66542827
_cell_formula_units_Z   4
loop_
 _symmetry_equiv_pos_site_id
 _symmetry_equiv_pos_as_xyz
  1  'x, y, z'
loop_
 _atom_site_type_symbol
 _atom_site_label
 _atom_site_symmetry_multiplicity
 _atom_site_fract_x
 _atom_site_fract_y
 _atom_site_fract_z
 _atom_site_occupancy
  Na  Na0  1  0.02962128  0.75000000  0.50560848  1.0
  Na  Na1  1  0.52962128  0.75000000  -0.00560848  1.0
  Na  Na2  1  0.97037872  0.25000000  0.49439152  1.0
  Na  Na3  1  0.47037872  0.25000000  1.00560848  1.0
  Mg  Mg4  1  0.50000000  0.00000000  0.50000000  1.0
  Mg  Mg5  1  0.50000000  0.50000000  0.50000000  1.0
  Mg  Mg6  1  0.00000000  0.00000000  0.00000000  1.0
  Mg  Mg7  1  0.00000000  0.50000000  0.00000000  1.0
  H  H8  1  0.29263491  0.95828401  0.79389042  1.0
  H  H9  1  0.29263491  0.54171599  0.79389042  1.0
  H  H10  1  0.79263491  0.95828401  0.70610958  1.0
  H  H11  1  0.79263491  0.54171599  0.70610958  1.0
  H  H12  1  0.70736509  0.45828401  0.20610958  1.0
  H  H13  1  0.70736509  0.04171599  0.20610958  1.0
  H  H14  1  0.20736509  0.45828401  0.29389042  1.0
  H  H15  1  0.20736509  0.04171599  0.29389042  1.0
  H  H16  1  -0.02474227  0.75000000  0.08007430  1.0
  H  H17  1  0.47525773  0.75000000  0.41992570  1.0
  H  H18  1  1.02474227  0.25000000  0.91992570  1.0
  H  H19  1  0.52474227  0.25000000  0.58007430  1.0
