# generated using pymatgen
data_Na2Mg(SO6)2
_symmetry_space_group_name_H-M   'P 1'
_cell_length_a   5.26145200
_cell_length_b   8.42073994
_cell_length_c   11.68328063
_cell_angle_alpha   90.00000000
_cell_angle_beta   96.59225291
_cell_angle_gamma   90.00000000
_symmetry_Int_Tables_number   1
_chemical_formula_structural   Na2Mg(SO6)2
_chemical_formula_sum   'Na4 Mg2 S4 O24'
_cell_volume   514.20904994
_cell_formula_units_Z   2
loop_
 _symmetry_equiv_pos_site_id
 _symmetry_equiv_pos_as_xyz
  1  'x, y, z'
loop_
 _atom_site_type_symbol
 _atom_site_label
 _atom_site_symmetry_multiplicity
 _atom_site_fract_x
 _atom_site_fract_y
 _atom_site_fract_z
 _atom_site_occupancy
  O  O0  1  0.90220202  0.21507039  0.93074654  1.0
  O  O1  1  0.90220202  0.28492961  0.43074654  1.0
  O  O2  1  0.09779798  0.71507039  0.56925346  1.0
  O  O3  1  0.09779798  0.78492961  0.06925346  1.0
  O  O4  1  0.91389725  0.55127538  0.67588689  1.0
  O  O5  1  0.91389725  -0.05127538  0.17588689  1.0
  O  O6  1  0.08610275  1.05127538  0.82411311  1.0
  O  O7  1  0.08610275  0.44872462  0.32411311  1.0
  O  O8  1  0.34123422  0.70191649  0.84637194  1.0
  O  O9  1  0.34123422  0.79808351  0.34637194  1.0
  O  O10  1  0.65876578  0.20191649  0.65362806  1.0
  O  O11  1  0.65876578  0.29808351  0.15362806  1.0
  O  O12  1  0.70734800  0.73858949  0.74236926  1.0
  O  O13  1  0.70734800  0.76141051  0.24236926  1.0
  O  O14  1  0.29265200  0.23858950  0.75763074  1.0
  O  O15  1  0.29265200  0.26141050  0.25763074  1.0
  O  O16  1  0.75224248  0.58562241  0.92446072  1.0
  O  O17  1  0.75224248  0.91437759  0.42446072  1.0
  O  O18  1  0.24775752  0.08562241  0.57553928  1.0
  O  O19  1  0.24775752  0.41437759  0.07553928  1.0
  O  O20  1  0.69211800  0.87464072  0.92415710  1.0
  O  O21  1  0.69211800  0.62535928  0.42415710  1.0
  O  O22  1  0.30788200  0.37464072  0.57584290  1.0
  O  O23  1  0.30788200  0.12535928  0.07584290  1.0
  Mg  Mg24  1  0.00000000  0.00000000  0.00000000  1.0
  Mg  Mg25  1  -0.00000000  0.50000000  0.50000000  1.0
  S  S26  1  0.62247765  0.72126014  0.86322209  1.0
  S  S27  1  0.62247765  0.77873986  0.36322209  1.0
  S  S28  1  0.37752235  0.22126014  0.63677791  1.0
  S  S29  1  0.37752235  0.27873986  0.13677791  1.0
  Na  Na30  1  0.88415997  0.95019162  0.63347401  1.0
  Na  Na31  1  0.88415997  0.54980838  0.13347401  1.0
  Na  Na32  1  0.11584003  0.45019162  0.86652599  1.0
  Na  Na33  1  0.11584003  0.04980838  0.36652599  1.0
