# generated using pymatgen
data_H6NO2F
_symmetry_space_group_name_H-M   'P 1'
_cell_length_a   9.24795108
_cell_length_b   8.85407808
_cell_length_c   4.49534111
_cell_angle_alpha   90.00000000
_cell_angle_beta   90.00000000
_cell_angle_gamma   90.00000000
_symmetry_Int_Tables_number   1
_chemical_formula_structural   H6NO2F
_chemical_formula_sum   'H24 N4 O8 F4'
_cell_volume   368.08788471
_cell_formula_units_Z   4
loop_
 _symmetry_equiv_pos_site_id
 _symmetry_equiv_pos_as_xyz
  1  'x, y, z'
loop_
 _atom_site_type_symbol
 _atom_site_label
 _atom_site_symmetry_multiplicity
 _atom_site_fract_x
 _atom_site_fract_y
 _atom_site_fract_z
 _atom_site_occupancy
  H  H0  1  0.44419584  0.90042102  0.30244371  1.0
  H  H1  1  0.44419584  0.59957898  0.30244371  1.0
  H  H2  1  0.94419584  0.90042102  0.19755629  1.0
  H  H3  1  0.94419584  0.59957898  0.19755629  1.0
  H  H4  1  0.55580416  0.40042102  0.69755629  1.0
  H  H5  1  0.55580416  0.09957898  0.69755629  1.0
  H  H6  1  0.05580416  0.40042102  0.80244371  1.0
  H  H7  1  0.05580416  0.09957898  0.80244371  1.0
  H  H8  1  0.12848656  0.84589404  0.77086369  1.0
  H  H9  1  0.12848656  0.65410596  0.77086369  1.0
  H  H10  1  0.62848656  0.84589404  0.72913631  1.0
  H  H11  1  0.62848656  0.65410596  0.72913631  1.0
  H  H12  1  0.87151344  0.34589404  0.22913631  1.0
  H  H13  1  0.87151344  0.15410597  0.22913631  1.0
  H  H14  1  0.37151344  0.34589404  0.27086369  1.0
  H  H15  1  0.37151344  0.15410597  0.27086369  1.0
  H  H16  1  0.26234338  0.75000000  0.95058083  1.0
  H  H17  1  0.76234338  0.75000000  0.54941917  1.0
  H  H18  1  0.73765662  0.25000000  0.04941917  1.0
  H  H19  1  0.23765662  0.25000000  0.45058083  1.0
  H  H20  1  0.25632287  0.75000000  0.56940462  1.0
  H  H21  1  0.75632287  0.75000000  0.93059538  1.0
  H  H22  1  0.74367713  0.25000000  0.43059538  1.0
  H  H23  1  0.24367713  0.25000000  0.06940462  1.0
  N  N24  1  0.19425755  0.75000000  0.76408164  1.0
  N  N25  1  0.69425755  0.75000000  0.73591836  1.0
  N  N26  1  0.80574245  0.25000000  0.23591836  1.0
  N  N27  1  0.30574245  0.25000000  0.26408164  1.0
  O  O28  1  0.50280382  1.00039430  0.66400949  1.0
  O  O29  1  0.50280382  0.49960570  0.66400949  1.0
  O  O30  1  1.00280382  1.00039430  0.83599051  1.0
  O  O31  1  1.00280382  0.49960570  0.83599051  1.0
  O  O32  1  0.49719618  0.50039430  0.33599051  1.0
  O  O33  1  0.49719618  -0.00039430  0.33599051  1.0
  O  O34  1  -0.00280382  0.50039430  0.16400949  1.0
  O  O35  1  -0.00280382  -0.00039430  0.16400949  1.0
  F  F36  1  0.36315196  0.75000000  0.26249381  1.0
  F  F37  1  0.86315196  0.75000000  0.23750619  1.0
  F  F38  1  0.63684804  0.25000000  0.73750619  1.0
  F  F39  1  0.13684804  0.25000000  0.76249381  1.0
