# generated using pymatgen
data_K2LiAlH6
_symmetry_space_group_name_H-M   'P 1'
_cell_length_a   9.67728200
_cell_length_b   9.67728200
_cell_length_c   9.67728200
_cell_angle_alpha   33.73506033
_cell_angle_beta   33.73506033
_cell_angle_gamma   33.73506033
_symmetry_Int_Tables_number   1
_chemical_formula_structural   K2LiAlH6
_chemical_formula_sum   'K4 Li2 Al2 H12'
_cell_volume   249.04008980
_cell_formula_units_Z   2
loop_
 _symmetry_equiv_pos_site_id
 _symmetry_equiv_pos_as_xyz
  1  'x, y, z'
loop_
 _atom_site_type_symbol
 _atom_site_label
 _atom_site_symmetry_multiplicity
 _atom_site_fract_x
 _atom_site_fract_y
 _atom_site_fract_z
 _atom_site_occupancy
  K  K0  1  0.78688814  0.78688814  0.78688814  1.0
  K  K1  1  1.21311186  1.21311186  0.21311186  1.0
  K  K2  1  1.62692052  0.62692052  0.62692052  1.0
  K  K3  1  1.37307948  0.37307948  0.37307948  1.0
  Li  Li4  1  0.90814209  0.90814209  0.90814209  1.0
  Li  Li5  1  1.09185791  1.09185791  0.09185791  1.0
  Al  Al6  1  1.50000000  0.50000000  0.50000000  1.0
  Al  Al7  1  0.00000000  0.00000000  0.00000000  1.0
  H  H8  1  1.31161657  0.31161657  0.76490871  1.0
  H  H9  1  1.31161657  0.76490871  0.31161657  1.0
  H  H10  1  1.23509129  0.68838343  0.68838343  1.0
  H  H11  1  1.68838343  0.23509129  0.68838343  1.0
  H  H12  1  1.68838343  0.68838343  0.23509129  1.0
  H  H13  1  1.76490871  0.31161657  0.31161657  1.0
  H  H14  1  1.10460803  1.10460803  0.67278746  1.0
  H  H15  1  1.10460803  1.67278746  0.10460803  1.0
  H  H16  1  1.32721254  0.89539197  -0.10460803  1.0
  H  H17  1  0.89539197  1.32721254  -0.10460803  1.0
  H  H18  1  0.89539197  0.89539197  0.32721254  1.0
  H  H19  1  1.67278746  1.10460803  0.10460803  1.0
