# generated using pymatgen
data_Cd4GeS6
_symmetry_space_group_name_H-M   'P 1'
_cell_length_a   7.26028537
_cell_length_b   7.26028537
_cell_length_c   12.65890579
_cell_angle_alpha   72.71000635
_cell_angle_beta   107.28999365
_cell_angle_gamma   120.11886312
_symmetry_Int_Tables_number   1
_chemical_formula_structural   Cd4GeS6
_chemical_formula_sum   'Cd8 Ge2 S12'
_cell_volume   542.17143387
_cell_formula_units_Z   2
loop_
 _symmetry_equiv_pos_site_id
 _symmetry_equiv_pos_as_xyz
  1  'x, y, z'
loop_
 _atom_site_type_symbol
 _atom_site_label
 _atom_site_symmetry_multiplicity
 _atom_site_fract_x
 _atom_site_fract_y
 _atom_site_fract_z
 _atom_site_occupancy
  Cd  Cd0  1  1.29164729  -0.69136274  0.14095957  1.0
  Cd  Cd1  1  1.69136274  -0.29164729  0.64095957  1.0
  Cd  Cd2  1  1.77813361  0.06606302  0.29544778  1.0
  Cd  Cd3  1  0.93393698  0.22186639  0.79544778  1.0
  Cd  Cd4  1  1.09387515  -0.30667214  0.29716100  1.0
  Cd  Cd5  1  0.30667214  -0.09387515  0.79716100  1.0
  Cd  Cd6  1  0.56437373  0.21173589  0.48783483  1.0
  Cd  Cd7  1  0.78826411  0.43562627  0.98783483  1.0
  Ge  Ge8  1  1.69735259  -0.15366283  0.05002932  1.0
  Ge  Ge9  1  1.15366283  -0.69735259  0.55002932  1.0
  S  S10  1  1.42507373  0.06528756  0.30285625  1.0
  S  S11  1  0.93471244  0.57492627  0.80285625  1.0
  S  S12  1  1.03113652  -0.58190387  0.18133486  1.0
  S  S13  1  0.58190387  -0.03113652  0.68133486  1.0
  S  S14  1  0.72984124  0.73258538  0.23539650  1.0
  S  S15  1  0.26741462  0.27015876  0.73539650  1.0
  S  S16  1  1.45312769  -0.49470457  0.47423883  1.0
  S  S17  1  0.49470457  -0.45312769  0.97423883  1.0
  S  S18  1  0.97352000  0.98083681  0.49913489  1.0
  S  S19  1  0.01916319  0.02648000  -0.00086511  1.0
  S  S20  1  0.50173134  0.02581038  0.99220618  1.0
  S  S21  1  0.97418962  0.49826866  0.49220618  1.0
