# generated using pymatgen
data_ZrS3
_symmetry_space_group_name_H-M   'P 1'
_cell_length_a   5.19166339
_cell_length_b   3.64685933
_cell_length_c   9.80692325
_cell_angle_alpha   90.00000000
_cell_angle_beta   96.81476362
_cell_angle_gamma   90.00000000
_symmetry_Int_Tables_number   1
_chemical_formula_structural   ZrS3
_chemical_formula_sum   'Zr2 S6'
_cell_volume   184.36527196
_cell_formula_units_Z   2
loop_
 _symmetry_equiv_pos_site_id
 _symmetry_equiv_pos_as_xyz
  1  'x, y, z'
loop_
 _atom_site_type_symbol
 _atom_site_label
 _atom_site_symmetry_multiplicity
 _atom_site_fract_x
 _atom_site_fract_y
 _atom_site_fract_z
 _atom_site_occupancy
  Zr  Zr0  1  0.71800294  0.25000000  0.85776991  1.0
  Zr  Zr1  1  0.28199706  0.75000000  0.14223009  1.0
  S  S2  1  0.23870413  0.25000000  0.94978103  1.0
  S  S3  1  0.76129587  0.75000000  0.05021897  1.0
  S  S4  1  0.51851639  0.25000000  0.30390627  1.0
  S  S5  1  0.48148361  0.75000000  0.69609373  1.0
  S  S6  1  0.11713996  0.25000000  0.30332871  1.0
  S  S7  1  0.88286004  0.75000000  0.69667129  1.0
