# generated using pymatgen
data_Cs3(Cu4Se3)2
_symmetry_space_group_name_H-M   'P 1'
_cell_length_a   9.81250825
_cell_length_b   9.81250825
_cell_length_c   10.58676519
_cell_angle_alpha   71.76037995
_cell_angle_beta   108.23962005
_cell_angle_gamma   156.07175107
_symmetry_Int_Tables_number   1
_chemical_formula_structural   Cs3(Cu4Se3)2
_chemical_formula_sum   'Cs3 Cu8 Se6'
_cell_volume   391.70895954
_cell_formula_units_Z   1
loop_
 _symmetry_equiv_pos_site_id
 _symmetry_equiv_pos_as_xyz
  1  'x, y, z'
loop_
 _atom_site_type_symbol
 _atom_site_label
 _atom_site_symmetry_multiplicity
 _atom_site_fract_x
 _atom_site_fract_y
 _atom_site_fract_z
 _atom_site_occupancy
  Cs  Cs0  1  0.30697071  -0.30697071  0.69489173  1.0
  Cs  Cs1  1  0.69302929  0.30697071  0.30510827  1.0
  Cs  Cs2  1  0.50000000  0.50000000  -0.00000000  1.0
  Cu  Cu3  1  0.92399568  0.07600432  0.46345071  1.0
  Cu  Cu4  1  0.07600432  -0.07600432  0.53654929  1.0
  Cu  Cu5  1  0.89807727  0.10192273  0.21589493  1.0
  Cu  Cu6  1  0.10192273  -0.10192273  0.78410507  1.0
  Cu  Cu7  1  0.69567723  0.30432277  0.90949814  1.0
  Cu  Cu8  1  0.30432277  -0.30432277  0.09050186  1.0
  Cu  Cu9  1  0.51684758  0.48315242  0.63472342  1.0
  Cu  Cu10  1  0.48315242  -0.48315242  0.36527658  1.0
  Se  Se11  1  0.96495099  0.03504901  0.70129366  1.0
  Se  Se12  1  0.03504901  -0.03504901  0.29870634  1.0
  Se  Se13  1  0.83487526  0.16512474  0.98239037  1.0
  Se  Se14  1  0.16512474  -0.16512474  0.01760963  1.0
  Se  Se15  1  0.64848509  0.35151491  0.65363463  1.0
  Se  Se16  1  0.35151491  -0.35151491  0.34636537  1.0
