# generated using pymatgen
data_MnCuO2
_symmetry_space_group_name_H-M   'P 1'
_cell_length_a   3.20068881
_cell_length_b   3.20068881
_cell_length_c   5.90114043
_cell_angle_alpha   77.90217768
_cell_angle_beta   102.09782232
_cell_angle_gamma   125.90322380
_symmetry_Int_Tables_number   1
_chemical_formula_structural   MnCuO2
_chemical_formula_sum   'Mn1 Cu1 O2'
_cell_volume   47.59289288
_cell_formula_units_Z   1
loop_
 _symmetry_equiv_pos_site_id
 _symmetry_equiv_pos_as_xyz
  1  'x, y, z'
loop_
 _atom_site_type_symbol
 _atom_site_label
 _atom_site_symmetry_multiplicity
 _atom_site_fract_x
 _atom_site_fract_y
 _atom_site_fract_z
 _atom_site_occupancy
  Mn  Mn0  1  0.50000000  0.50000000  0.50000000  1.0
  Cu  Cu1  1  0.00000000  0.00000000  0.00000000  1.0
  O  O2  1  0.90687549  0.09312451  0.67919939  1.0
  O  O3  1  0.09312451  -0.09312451  0.32080061  1.0
