# generated using pymatgen
data_BeH8(NO5)2
_symmetry_space_group_name_H-M   'P 1'
_cell_length_a   8.82331008
_cell_length_b   8.82331008
_cell_length_c   8.82331008
_cell_angle_alpha   98.11259775
_cell_angle_beta   98.11259775
_cell_angle_gamma   135.87003007
_symmetry_Int_Tables_number   1
_chemical_formula_structural   BeH8(NO5)2
_chemical_formula_sum   'Be2 H16 N4 O20'
_cell_volume   443.25155418
_cell_formula_units_Z   2
loop_
 _symmetry_equiv_pos_site_id
 _symmetry_equiv_pos_as_xyz
  1  'x, y, z'
loop_
 _atom_site_type_symbol
 _atom_site_label
 _atom_site_symmetry_multiplicity
 _atom_site_fract_x
 _atom_site_fract_y
 _atom_site_fract_z
 _atom_site_occupancy
  Be  Be0  1  -0.00000000  -0.00000000  0.00000000  1.0
  Be  Be1  1  0.75000000  0.25000000  0.50000000  1.0
  H  H2  1  0.86509599  1.48865649  1.35001197  1.0
  H  H3  1  1.61135547  0.76134351  0.87643949  1.0
  H  H4  1  1.23865649  1.11509599  0.85001197  1.0
  H  H5  1  0.48491598  0.13490401  0.62356051  1.0
  H  H6  1  0.88490401  1.73491598  1.12356051  1.0
  H  H7  1  1.13864453  0.51508402  0.64998803  1.0
  H  H8  1  0.51134350  0.86135547  1.37643949  1.0
  H  H9  1  1.26508402  1.38864453  1.14998803  1.0
  H  H10  1  1.71061359  1.74381467  1.73820937  1.0
  H  H11  1  0.74439470  0.50618533  0.46679892  1.0
  H  H12  1  0.49381467  0.96061359  1.23820937  1.0
  H  H13  1  1.02759579  1.28938641  1.03320108  1.0
  H  H14  1  1.03938641  1.27759579  1.53320108  1.0
  H  H15  1  1.00560530  0.97240421  0.26179063  1.0
  H  H16  1  1.25618533  0.99439470  0.96679892  1.0
  H  H17  1  0.72240421  0.25560530  0.76179063  1.0
  N  N18  1  1.56121866  1.62500000  1.43621866  1.0
  N  N19  1  1.37500000  0.81121866  0.93621866  1.0
  N  N20  1  0.87500000  1.43878134  1.06378134  1.0
  N  N21  1  1.18878134  1.12500000  0.56378134  1.0
  O  O22  1  1.75095121  1.82422039  1.85353199  1.0
  O  O23  1  0.77931160  0.42577961  0.42673082  1.0
  O  O24  1  0.57422039  1.00095121  1.35353199  1.0
  O  O25  1  1.10258078  1.24904879  1.07326918  1.0
  O  O26  1  0.99904879  1.35258078  1.57326918  1.0
  O  O27  1  0.97068840  0.89741922  0.14646801  1.0
  O  O28  1  1.17577961  1.02931160  0.92673082  1.0
  O  O29  1  0.64741922  0.22068840  0.64646801  1.0
  O  O30  1  1.48484143  1.69475550  1.47799698  1.0
  O  O31  1  1.53324148  1.55524450  1.29008593  1.0
  O  O32  1  1.44475550  0.73484143  0.97799698  1.0
  O  O33  1  0.99315556  1.51515857  1.20991407  1.0
  O  O34  1  1.26515857  1.24315556  0.70991407  1.0
  O  O35  1  1.21675852  1.00684444  0.52200302  1.0
  O  O36  1  1.30524450  0.78324148  0.79008593  1.0
  O  O37  1  0.75684444  1.46675852  1.02200302  1.0
  O  O38  1  0.67238136  0.62500000  0.54738136  1.0
  O  O39  1  0.37500000  0.92238136  1.04738136  1.0
  O  O40  1  0.87500000  0.32761864  0.95261864  1.0
  O  O41  1  1.07761864  1.12500000  1.45261864  1.0
