# generated using pymatgen
data_V3Pb5ClO12
_symmetry_space_group_name_H-M   'P 1'
_cell_length_a   10.66436051
_cell_length_b   10.66436051
_cell_length_c   7.28926693
_cell_angle_alpha   90.00000000
_cell_angle_beta   90.00000000
_cell_angle_gamma   120.00000000
_symmetry_Int_Tables_number   1
_chemical_formula_structural   V3Pb5ClO12
_chemical_formula_sum   'V6 Pb10 Cl2 O24'
_cell_volume   717.93334049
_cell_formula_units_Z   2
loop_
 _symmetry_equiv_pos_site_id
 _symmetry_equiv_pos_as_xyz
  1  'x, y, z'
loop_
 _atom_site_type_symbol
 _atom_site_label
 _atom_site_symmetry_multiplicity
 _atom_site_fract_x
 _atom_site_fract_y
 _atom_site_fract_z
 _atom_site_occupancy
  V  V0  1  0.38818276  0.97184257  0.25000000  1.0
  V  V1  1  0.97184257  0.58365982  0.75000000  1.0
  V  V2  1  0.58365982  0.61181724  0.25000000  1.0
  V  V3  1  0.02815743  0.41634018  0.25000000  1.0
  V  V4  1  0.61181724  0.02815743  0.75000000  1.0
  V  V5  1  0.41634018  0.38818276  0.75000000  1.0
  Pb  Pb6  1  0.03653509  0.76991101  0.25000000  1.0
  Pb  Pb7  1  0.76991101  0.73337593  0.75000000  1.0
  Pb  Pb8  1  0.73337593  0.96346491  0.25000000  1.0
  Pb  Pb9  1  0.23008899  0.26662407  0.25000000  1.0
  Pb  Pb10  1  0.96346491  0.23008899  0.75000000  1.0
  Pb  Pb11  1  0.26662407  0.03653509  0.75000000  1.0
  Pb  Pb12  1  0.33333333  0.66666667  0.50833203  1.0
  Pb  Pb13  1  0.33333333  0.66666667  -0.00833203  1.0
  Pb  Pb14  1  0.66666667  0.33333333  0.00833203  1.0
  Pb  Pb15  1  0.66666667  0.33333333  0.49166797  1.0
  Cl  Cl16  1  0.00000000  0.00000000  0.50000000  1.0
  Cl  Cl17  1  0.00000000  0.00000000  0.00000000  1.0
  O  O18  1  0.27490013  0.91596693  0.43735314  1.0
  O  O19  1  0.27490013  0.91596693  0.06264686  1.0
  O  O20  1  0.91596693  0.64106680  0.93735314  1.0
  O  O21  1  0.91596693  0.64106680  0.56264686  1.0
  O  O22  1  0.64106680  0.72509987  0.43735314  1.0
  O  O23  1  0.64106680  0.72509987  0.06264686  1.0
  O  O24  1  0.08403307  0.35893320  0.43735314  1.0
  O  O25  1  0.08403307  0.35893320  0.06264686  1.0
  O  O26  1  0.72509987  0.08403307  0.93735314  1.0
  O  O27  1  0.72509987  0.08403307  0.56264686  1.0
  O  O28  1  0.35893320  0.27490013  0.93735314  1.0
  O  O29  1  0.35893320  0.27490013  0.56264686  1.0
  O  O30  1  0.47816468  0.87199751  0.25000000  1.0
  O  O31  1  0.87199751  0.39383283  0.75000000  1.0
  O  O32  1  0.39383283  0.52183532  0.25000000  1.0
  O  O33  1  0.12800249  0.60616717  0.25000000  1.0
  O  O34  1  0.52183532  0.12800249  0.75000000  1.0
  O  O35  1  0.60616717  0.47816468  0.75000000  1.0
  O  O36  1  0.64538097  0.49063667  0.25000000  1.0
  O  O37  1  0.49063667  0.84525570  0.75000000  1.0
  O  O38  1  0.84525570  0.35461903  0.25000000  1.0
  O  O39  1  0.50936333  0.15474430  0.25000000  1.0
  O  O40  1  0.35461903  0.50936333  0.75000000  1.0
  O  O41  1  0.15474430  0.64538097  0.75000000  1.0
