# generated using pymatgen
data_NO
_symmetry_space_group_name_H-M   'P 1'
_cell_length_a   4.66282870
_cell_length_b   3.69213345
_cell_length_c   8.15279111
_cell_angle_alpha   90.00000000
_cell_angle_beta   90.00000000
_cell_angle_gamma   90.00000000
_symmetry_Int_Tables_number   1
_chemical_formula_structural   NO
_chemical_formula_sum   'N4 O4'
_cell_volume   140.35670570
_cell_formula_units_Z   4
loop_
 _symmetry_equiv_pos_site_id
 _symmetry_equiv_pos_as_xyz
  1  'x, y, z'
loop_
 _atom_site_type_symbol
 _atom_site_label
 _atom_site_symmetry_multiplicity
 _atom_site_fract_x
 _atom_site_fract_y
 _atom_site_fract_z
 _atom_site_occupancy
  N  N0  1  0.30783049  0.49961806  0.83309112  1.0
  N  N1  1  0.80783049  1.00038194  0.16690888  1.0
  N  N2  1  0.69216951  -0.00038194  0.66690888  1.0
  N  N3  1  0.19216951  0.50038194  0.33309112  1.0
  O  O4  1  0.45425633  0.99939855  0.62693812  1.0
  O  O5  1  0.95425633  0.50060145  0.37306188  1.0
  O  O6  1  0.54574367  0.49939855  0.87306188  1.0
  O  O7  1  0.04574367  0.00060145  0.12693812  1.0
