# generated using pymatgen
data_CsLi2(HO)3
_symmetry_space_group_name_H-M   'P 1'
_cell_length_a   6.45084844
_cell_length_b   5.33264869
_cell_length_c   6.53985106
_cell_angle_alpha   90.00000000
_cell_angle_beta   107.59892218
_cell_angle_gamma   90.00000000
_symmetry_Int_Tables_number   1
_chemical_formula_structural   CsLi2(HO)3
_chemical_formula_sum   'Cs2 Li4 H6 O6'
_cell_volume   214.44209578
_cell_formula_units_Z   2
loop_
 _symmetry_equiv_pos_site_id
 _symmetry_equiv_pos_as_xyz
  1  'x, y, z'
loop_
 _atom_site_type_symbol
 _atom_site_label
 _atom_site_symmetry_multiplicity
 _atom_site_fract_x
 _atom_site_fract_y
 _atom_site_fract_z
 _atom_site_occupancy
  Cs  Cs0  1  0.27132507  0.25000000  0.65259211  1.0
  Cs  Cs1  1  0.72867493  0.75000000  0.34740789  1.0
  Li  Li2  1  0.81510362  0.00350359  0.84790308  1.0
  Li  Li3  1  0.81510362  0.49649641  0.84790308  1.0
  Li  Li4  1  0.18489638  0.50350359  0.15209692  1.0
  Li  Li5  1  0.18489638  0.99649641  0.15209692  1.0
  H  H6  1  0.65864083  0.25000000  0.49364821  1.0
  H  H7  1  0.34135917  0.75000000  0.50635179  1.0
  H  H8  1  0.52413052  0.25000000  0.11723357  1.0
  H  H9  1  0.47586948  0.75000000  0.88276643  1.0
  H  H10  1  0.87507672  0.25000000  0.21459447  1.0
  H  H11  1  0.12492328  0.75000000  0.78540553  1.0
  O  O12  1  0.93041980  0.25000000  0.09235461  1.0
  O  O13  1  0.06958020  0.75000000  0.90764539  1.0
  O  O14  1  0.40976800  0.25000000  0.18494243  1.0
  O  O15  1  0.59023200  0.75000000  0.81505757  1.0
  O  O16  1  0.78627561  0.25000000  0.62074106  1.0
  O  O17  1  0.21372439  0.75000000  0.37925894  1.0
