# generated using pymatgen
data_K2Cd2O3
_symmetry_space_group_name_H-M   'P 1'
_cell_length_a   6.54848126
_cell_length_b   6.68577780
_cell_length_c   6.88855560
_cell_angle_alpha   90.00000000
_cell_angle_beta   118.27242442
_cell_angle_gamma   90.00000000
_symmetry_Int_Tables_number   1
_chemical_formula_structural   K2Cd2O3
_chemical_formula_sum   'K4 Cd4 O6'
_cell_volume   265.61424732
_cell_formula_units_Z   2
loop_
 _symmetry_equiv_pos_site_id
 _symmetry_equiv_pos_as_xyz
  1  'x, y, z'
loop_
 _atom_site_type_symbol
 _atom_site_label
 _atom_site_symmetry_multiplicity
 _atom_site_fract_x
 _atom_site_fract_y
 _atom_site_fract_z
 _atom_site_occupancy
  K  K0  1  0.15379634  0.15296359  0.41003607  1.0
  K  K1  1  0.15379634  0.34703641  0.91003607  1.0
  K  K2  1  0.84620366  0.65296359  0.08996393  1.0
  K  K3  1  0.84620366  0.84703641  0.58996393  1.0
  Cd  Cd4  1  0.66001680  0.37682763  0.41922095  1.0
  Cd  Cd5  1  0.66001680  0.12317237  0.91922095  1.0
  Cd  Cd6  1  0.33998320  0.87682763  0.08077905  1.0
  Cd  Cd7  1  0.33998320  0.62317237  0.58077905  1.0
  O  O8  1  0.63316478  0.09982367  0.23625776  1.0
  O  O9  1  0.63316478  0.40017633  0.73625776  1.0
  O  O10  1  0.36683522  0.59982367  0.26374224  1.0
  O  O11  1  0.36683522  0.90017633  0.76374224  1.0
  O  O12  1  -0.00000000  0.50000000  0.50000000  1.0
  O  O13  1  0.00000000  0.00000000  0.00000000  1.0
