# generated using pymatgen
data_RbCN
_symmetry_space_group_name_H-M   'P 1'
_cell_length_a   4.77152768
_cell_length_b   6.65518463
_cell_length_c   4.82655807
_cell_angle_alpha   90.00000000
_cell_angle_beta   97.46483575
_cell_angle_gamma   90.00000000
_symmetry_Int_Tables_number   1
_chemical_formula_structural   RbCN
_chemical_formula_sum   'Rb1 C1 N1'
_cell_volume   151.97028057
_cell_formula_units_Z   1
loop_
 _symmetry_equiv_pos_site_id
 _symmetry_equiv_pos_as_xyz
  1  'x, y, z'
loop_
 _atom_site_type_symbol
 _atom_site_label
 _atom_site_symmetry_multiplicity
 _atom_site_fract_x
 _atom_site_fract_y
 _atom_site_fract_z
 _atom_site_occupancy
  Rb  Rb0  1  0.00640857  0.00000000  -0.00742523  1.0
  C  C1  1  0.57635523  0.00000000  0.41998253  1.0
  N  N2  1  0.41723620  0.00000000  0.58744270  1.0
