# generated using pymatgen
data_Rb2Al2Sb2O7
_symmetry_space_group_name_H-M   'P 1'
_cell_length_a   5.75677351
_cell_length_b   5.75677351
_cell_length_c   8.62263869
_cell_angle_alpha   90.00000000
_cell_angle_beta   90.00000000
_cell_angle_gamma   120.00000000
_symmetry_Int_Tables_number   1
_chemical_formula_structural   Rb2Al2Sb2O7
_chemical_formula_sum   'Rb2 Al2 Sb2 O7'
_cell_volume   247.47373109
_cell_formula_units_Z   1
loop_
 _symmetry_equiv_pos_site_id
 _symmetry_equiv_pos_as_xyz
  1  'x, y, z'
loop_
 _atom_site_type_symbol
 _atom_site_label
 _atom_site_symmetry_multiplicity
 _atom_site_fract_x
 _atom_site_fract_y
 _atom_site_fract_z
 _atom_site_occupancy
  Rb  Rb0  1  0.33333333  0.66666667  0.59401455  1.0
  Rb  Rb1  1  0.66666667  0.33333333  0.40598545  1.0
  Al  Al2  1  0.00000000  0.00000000  0.20082740  1.0
  Al  Al3  1  0.00000000  0.00000000  0.79917260  1.0
  Sb  Sb4  1  0.33333333  0.66666667  0.15249094  1.0
  Sb  Sb5  1  0.66666667  0.33333333  0.84750906  1.0
  O  O6  1  0.66573886  0.83286943  0.27811731  1.0
  O  O7  1  0.83286943  0.66573886  0.72188269  1.0
  O  O8  1  0.83286943  0.16713057  0.72188269  1.0
  O  O9  1  0.16713057  0.83286943  0.27811731  1.0
  O  O10  1  0.16713057  0.33426114  0.27811731  1.0
  O  O11  1  0.33426114  0.16713057  0.72188269  1.0
  O  O12  1  0.00000000  0.00000000  -0.00000000  1.0
