# generated using pymatgen
data_BaP3
_symmetry_space_group_name_H-M   'P 1'
_cell_length_a   6.57874569
_cell_length_b   7.85685422
_cell_length_c   8.25713683
_cell_angle_alpha   90.00000000
_cell_angle_beta   105.26116449
_cell_angle_gamma   90.00000000
_symmetry_Int_Tables_number   1
_chemical_formula_structural   BaP3
_chemical_formula_sum   'Ba4 P12'
_cell_volume   411.74637418
_cell_formula_units_Z   4
loop_
 _symmetry_equiv_pos_site_id
 _symmetry_equiv_pos_as_xyz
  1  'x, y, z'
loop_
 _atom_site_type_symbol
 _atom_site_label
 _atom_site_symmetry_multiplicity
 _atom_site_fract_x
 _atom_site_fract_y
 _atom_site_fract_z
 _atom_site_occupancy
  Ba  Ba0  1  0.68851288  0.39218731  0.80404279  1.0
  Ba  Ba1  1  0.68851288  0.10781269  0.30404279  1.0
  Ba  Ba2  1  0.31148712  0.89218731  0.69595721  1.0
  Ba  Ba3  1  0.31148712  0.60781269  0.19595721  1.0
  P  P4  1  0.81115517  0.95751652  0.68734343  1.0
  P  P5  1  0.81115517  0.54248348  0.18734343  1.0
  P  P6  1  0.18884483  0.45751652  0.81265657  1.0
  P  P7  1  0.18884483  0.04248348  0.31265657  1.0
  P  P8  1  0.69723233  0.72742449  0.54177635  1.0
  P  P9  1  0.69723233  0.77257551  0.04177635  1.0
  P  P10  1  0.30276767  0.22742449  0.95822365  1.0
  P  P11  1  0.30276767  0.27257551  0.45822365  1.0
  P  P12  1  0.96292506  0.86818779  0.94663081  1.0
  P  P13  1  0.96292506  0.63181221  0.44663081  1.0
  P  P14  1  0.03707494  0.36818779  0.55336919  1.0
  P  P15  1  0.03707494  0.13181221  0.05336919  1.0
