# generated using pymatgen
data_SiO2
_symmetry_space_group_name_H-M   'P 1'
_cell_length_a   7.26605715
_cell_length_b   12.54355344
_cell_length_c   7.25861546
_cell_angle_alpha   90.00000000
_cell_angle_beta   120.10471212
_cell_angle_gamma   90.00000000
_symmetry_Int_Tables_number   1
_chemical_formula_structural   SiO2
_chemical_formula_sum   'Si16 O32'
_cell_volume   572.32748371
_cell_formula_units_Z   16
loop_
 _symmetry_equiv_pos_site_id
 _symmetry_equiv_pos_as_xyz
  1  'x, y, z'
loop_
 _atom_site_type_symbol
 _atom_site_label
 _atom_site_symmetry_multiplicity
 _atom_site_fract_x
 _atom_site_fract_y
 _atom_site_fract_z
 _atom_site_occupancy
  Si  Si0  1  0.89223564  0.85759670  0.07336200  1.0
  Si  Si1  1  0.89223564  0.64240330  0.57336200  1.0
  Si  Si2  1  0.10776436  0.35759670  0.42663800  1.0
  Si  Si3  1  0.10776436  0.14240330  0.92663800  1.0
  Si  Si4  1  0.75589589  0.09116200  0.03875413  1.0
  Si  Si5  1  0.75589589  0.40883800  0.53875413  1.0
  Si  Si6  1  0.24410411  0.59116200  0.46124588  1.0
  Si  Si7  1  0.24410411  0.90883800  0.96124588  1.0
  Si  Si8  1  0.74412706  0.09113147  0.46117497  1.0
  Si  Si9  1  0.74412706  0.40886853  0.96117497  1.0
  Si  Si10  1  0.25587294  0.59113147  0.03882503  1.0
  Si  Si11  1  0.25587294  0.90886853  0.53882503  1.0
  Si  Si12  1  0.60775399  0.85761532  0.42673937  1.0
  Si  Si13  1  0.60775399  0.64238468  0.92673937  1.0
  Si  Si14  1  0.39224601  0.35761532  0.07326063  1.0
  Si  Si15  1  0.39224601  0.14238468  0.57326063  1.0
  O  O16  1  0.97794622  0.13003999  0.05499394  1.0
  O  O17  1  0.97794622  0.36996001  0.55499394  1.0
  O  O18  1  0.02205378  0.63003999  0.44500606  1.0
  O  O19  1  0.02205378  0.86996001  0.94500606  1.0
  O  O20  1  0.94236565  0.35498804  0.17062705  1.0
  O  O21  1  0.94236565  0.14501196  0.67062705  1.0
  O  O22  1  0.05763435  0.85498804  0.32937295  1.0
  O  O23  1  0.05763435  0.64501196  0.82937295  1.0
  O  O24  1  0.76434290  0.96124027  0.48281305  1.0
  O  O25  1  0.76434290  0.53875973  0.98281305  1.0
  O  O26  1  0.23565710  0.46124027  0.01718695  1.0
  O  O27  1  0.23565710  0.03875973  0.51718695  1.0
  O  O28  1  0.74988792  0.74997228  0.50006865  1.0
  O  O29  1  0.74988792  0.75002772  1.00006865  1.0
  O  O30  1  0.25011208  0.24997228  -0.00006865  1.0
  O  O31  1  0.25011208  0.25002772  0.49993135  1.0
  O  O32  1  0.75000042  0.13029202  0.24996502  1.0
  O  O33  1  0.75000042  0.36970798  0.74996502  1.0
  O  O34  1  0.24999958  0.63029202  0.25003498  1.0
  O  O35  1  0.24999958  0.86970798  0.75003498  1.0
  O  O36  1  0.55760457  0.35500207  0.32928679  1.0
  O  O37  1  0.55760457  0.14499793  0.82928679  1.0
  O  O38  1  0.44239543  0.85500207  0.17071321  1.0
  O  O39  1  0.44239543  0.64499793  0.67071321  1.0
  O  O40  1  0.52203783  0.12994903  0.44490538  1.0
  O  O41  1  0.52203783  0.37005097  0.94490538  1.0
  O  O42  1  0.47796217  0.62994903  0.05509462  1.0
  O  O43  1  0.47796217  0.87005097  0.55509462  1.0
  O  O44  1  0.26423467  0.46126609  0.48272717  1.0
  O  O45  1  0.26423467  0.03873391  0.98272717  1.0
  O  O46  1  0.73576533  0.96126609  0.01727283  1.0
  O  O47  1  0.73576533  0.53873391  0.51727283  1.0
