# generated using pymatgen
data_LiTa3O8
_symmetry_space_group_name_H-M   'P 1'
_cell_length_a   7.54143314
_cell_length_b   7.54143314
_cell_length_c   5.09964813
_cell_angle_alpha   89.37440606
_cell_angle_beta   90.62559394
_cell_angle_gamma   78.17649068
_symmetry_Int_Tables_number   1
_chemical_formula_structural   LiTa3O8
_chemical_formula_sum   'Li2 Ta6 O16'
_cell_volume   283.83728939
_cell_formula_units_Z   2
loop_
 _symmetry_equiv_pos_site_id
 _symmetry_equiv_pos_as_xyz
  1  'x, y, z'
loop_
 _atom_site_type_symbol
 _atom_site_label
 _atom_site_symmetry_multiplicity
 _atom_site_fract_x
 _atom_site_fract_y
 _atom_site_fract_z
 _atom_site_occupancy
  Li  Li0  1  1.34784032  0.34784032  0.25000000  1.0
  Li  Li1  1  0.65215968  -0.34784032  0.75000000  1.0
  Ta  Ta2  1  0.34369744  -0.17211497  0.25593834  1.0
  Ta  Ta3  1  1.17211497  0.65630256  0.75593834  1.0
  Ta  Ta4  1  0.82788503  -0.65630256  0.24406166  1.0
  Ta  Ta5  1  1.65630256  0.17211497  0.74406166  1.0
  Ta  Ta6  1  0.82904300  -0.17095700  0.25000000  1.0
  Ta  Ta7  1  1.17095700  0.17095700  0.75000000  1.0
  O  O8  1  0.70778176  -0.06024533  0.92503262  1.0
  O  O9  1  1.06024533  0.29221824  0.42503262  1.0
  O  O10  1  0.93975467  -0.29221824  0.57496738  1.0
  O  O11  1  1.29221824  0.06024533  0.07496738  1.0
  O  O12  1  0.57899944  -0.18670187  0.39198630  1.0
  O  O13  1  1.18670187  0.42100056  0.89198630  1.0
  O  O14  1  0.81329813  -0.42100056  0.10801370  1.0
  O  O15  1  1.42100056  0.18670187  0.60801370  1.0
  O  O16  1  1.80234513  0.06783903  0.41660165  1.0
  O  O17  1  0.93216097  -0.80234513  0.91660165  1.0
  O  O18  1  1.06783903  0.80234513  0.08339835  1.0
  O  O19  1  0.19765487  -0.06783903  0.58339835  1.0
  O  O20  1  1.59842057  0.30477319  0.06133001  1.0
  O  O21  1  0.69522681  -0.59842057  0.56133001  1.0
  O  O22  1  1.30477319  0.59842057  0.43866999  1.0
  O  O23  1  0.40157943  -0.30477319  0.93866999  1.0
