# generated using pymatgen
data_Tl3AsS4
_symmetry_space_group_name_H-M   'P 1'
_cell_length_a   9.29718475
_cell_length_b   11.13510073
_cell_length_c   9.34513234
_cell_angle_alpha   90.00000000
_cell_angle_beta   90.00000000
_cell_angle_gamma   90.00000000
_symmetry_Int_Tables_number   1
_chemical_formula_structural   Tl3AsS4
_chemical_formula_sum   'Tl12 As4 S16'
_cell_volume   967.45565426
_cell_formula_units_Z   4
loop_
 _symmetry_equiv_pos_site_id
 _symmetry_equiv_pos_as_xyz
  1  'x, y, z'
loop_
 _atom_site_type_symbol
 _atom_site_label
 _atom_site_symmetry_multiplicity
 _atom_site_fract_x
 _atom_site_fract_y
 _atom_site_fract_z
 _atom_site_occupancy
  Tl  Tl0  1  0.42483864  0.94387983  0.80595302  1.0
  Tl  Tl1  1  0.42483864  0.55612017  0.80595302  1.0
  Tl  Tl2  1  0.92483864  0.94387983  0.69404698  1.0
  Tl  Tl3  1  0.92483864  0.55612017  0.69404698  1.0
  Tl  Tl4  1  0.57516136  0.44387983  0.19404698  1.0
  Tl  Tl5  1  0.57516136  0.05612017  0.19404698  1.0
  Tl  Tl6  1  0.07516136  0.44387983  0.30595302  1.0
  Tl  Tl7  1  0.07516136  0.05612017  0.30595302  1.0
  Tl  Tl8  1  0.40425941  0.25000000  0.60527229  1.0
  Tl  Tl9  1  0.90425941  0.25000000  0.89472771  1.0
  Tl  Tl10  1  0.59574059  0.75000000  0.39472771  1.0
  Tl  Tl11  1  0.09574059  0.75000000  0.10527229  1.0
  As  As12  1  0.28115329  0.25000000  0.02658004  1.0
  As  As13  1  0.78115329  0.25000000  0.47341996  1.0
  As  As14  1  0.71884671  0.75000000  0.97341996  1.0
  As  As15  1  0.21884671  0.75000000  0.52658004  1.0
  S  S16  1  0.15815365  0.41139087  0.96732169  1.0
  S  S17  1  0.15815365  0.08860913  0.96732169  1.0
  S  S18  1  0.65815365  0.41139087  0.53267831  1.0
  S  S19  1  0.65815365  0.08860913  0.53267831  1.0
  S  S20  1  0.84184635  0.91139087  0.03267831  1.0
  S  S21  1  0.84184635  0.58860913  0.03267831  1.0
  S  S22  1  0.34184635  0.91139087  0.46732169  1.0
  S  S23  1  0.34184635  0.58860913  0.46732169  1.0
  S  S24  1  0.49660567  0.25000000  0.93037000  1.0
  S  S25  1  -0.00339433  0.25000000  0.56963000  1.0
  S  S26  1  0.50339433  0.75000000  0.06963000  1.0
  S  S27  1  1.00339433  0.75000000  0.43037000  1.0
  S  S28  1  0.31155632  0.25000000  0.26269109  1.0
  S  S29  1  0.81155632  0.25000000  0.23730891  1.0
  S  S30  1  0.68844368  0.75000000  0.73730891  1.0
  S  S31  1  0.18844368  0.75000000  0.76269109  1.0
