# generated using pymatgen
data_SiPtSe
_symmetry_space_group_name_H-M   'P 1'
_cell_length_a   5.98631418
_cell_length_b   6.08346021
_cell_length_c   5.93535113
_cell_angle_alpha   90.00000000
_cell_angle_beta   90.00000000
_cell_angle_gamma   90.00000000
_symmetry_Int_Tables_number   1
_chemical_formula_structural   SiPtSe
_chemical_formula_sum   'Si4 Pt4 Se4'
_cell_volume   216.15067394
_cell_formula_units_Z   4
loop_
 _symmetry_equiv_pos_site_id
 _symmetry_equiv_pos_as_xyz
  1  'x, y, z'
loop_
 _atom_site_type_symbol
 _atom_site_label
 _atom_site_symmetry_multiplicity
 _atom_site_fract_x
 _atom_site_fract_y
 _atom_site_fract_z
 _atom_site_occupancy
  Si  Si0  1  0.38587714  0.62392181  0.61417184  1.0
  Si  Si1  1  0.88587714  0.37607819  0.61417184  1.0
  Si  Si2  1  0.61412286  0.37607819  0.11417184  1.0
  Si  Si3  1  0.11412286  0.62392181  0.11417184  1.0
  Pt  Pt4  1  0.51758987  0.27050243  0.49383437  1.0
  Pt  Pt5  1  1.01758987  0.72949757  0.49383437  1.0
  Pt  Pt6  1  0.48241013  0.72949757  -0.00616563  1.0
  Pt  Pt7  1  -0.01758987  0.27050243  -0.00616563  1.0
  Se  Se8  1  0.38497913  0.14002819  0.88869378  1.0
  Se  Se9  1  0.88497913  0.85997181  0.88869378  1.0
  Se  Se10  1  0.61502087  0.85997181  0.38869378  1.0
  Se  Se11  1  0.11502087  0.14002819  0.38869378  1.0
