# generated using pymatgen
data_TaS2
_symmetry_space_group_name_H-M   'P 1'
_cell_length_a   13.11728927
_cell_length_b   13.11728927
_cell_length_c   13.11728927
_cell_angle_alpha   14.76921245
_cell_angle_beta   14.76921245
_cell_angle_gamma   14.76921245
_symmetry_Int_Tables_number   1
_chemical_formula_structural   TaS2
_chemical_formula_sum   'Ta2 S4'
_cell_volume   127.72908900
_cell_formula_units_Z   2
loop_
 _symmetry_equiv_pos_site_id
 _symmetry_equiv_pos_as_xyz
  1  'x, y, z'
loop_
 _atom_site_type_symbol
 _atom_site_label
 _atom_site_symmetry_multiplicity
 _atom_site_fract_x
 _atom_site_fract_y
 _atom_site_fract_z
 _atom_site_occupancy
  Ta  Ta0  1  0.91726346  0.91726346  0.91726346  1.0
  Ta  Ta1  1  1.08273654  1.08273654  0.08273654  1.0
  S  S2  1  0.78886270  0.78886270  0.78886270  1.0
  S  S3  1  1.21113730  1.21113730  0.21113730  1.0
  S  S4  1  1.62337982  0.62337982  0.62337982  1.0
  S  S5  1  1.37662018  0.37662018  0.37662018  1.0
