# generated using pymatgen
data_FeSnO6
_symmetry_space_group_name_H-M   'P 1'
_cell_length_a   7.05797721
_cell_length_b   7.05797721
_cell_length_c   7.05797721
_cell_angle_alpha   90.00000000
_cell_angle_beta   90.00000000
_cell_angle_gamma   90.00000000
_symmetry_Int_Tables_number   1
_chemical_formula_structural   FeSnO6
_chemical_formula_sum   'Fe4 Sn4 O24'
_cell_volume   351.59343327
_cell_formula_units_Z   4
loop_
 _symmetry_equiv_pos_site_id
 _symmetry_equiv_pos_as_xyz
  1  'x, y, z'
loop_
 _atom_site_type_symbol
 _atom_site_label
 _atom_site_symmetry_multiplicity
 _atom_site_fract_x
 _atom_site_fract_y
 _atom_site_fract_z
 _atom_site_occupancy
  Fe  Fe0  1  0.75000000  0.25000000  0.25000000  1.0
  Fe  Fe1  1  0.25000000  0.25000000  0.75000000  1.0
  Fe  Fe2  1  0.25000000  0.75000000  0.25000000  1.0
  Fe  Fe3  1  0.75000000  0.75000000  0.75000000  1.0
  Sn  Sn4  1  0.25000000  0.75000000  0.75000000  1.0
  Sn  Sn5  1  0.75000000  0.75000000  0.25000000  1.0
  Sn  Sn6  1  0.75000000  0.25000000  0.75000000  1.0
  Sn  Sn7  1  0.25000000  0.25000000  0.25000000  1.0
  O  O8  1  0.17880990  0.34655810  0.52116760  1.0
  O  O9  1  0.82119010  0.34655810  0.47883240  1.0
  O  O10  1  0.82119010  0.65344190  0.52116760  1.0
  O  O11  1  0.17880990  0.65344190  0.47883240  1.0
  O  O12  1  0.52116760  0.17880990  0.34655810  1.0
  O  O13  1  0.47883240  0.82119010  0.34655810  1.0
  O  O14  1  0.52116760  0.82119010  0.65344190  1.0
  O  O15  1  0.47883240  0.17880990  0.65344190  1.0
  O  O16  1  0.34655810  0.52116760  0.17880990  1.0
  O  O17  1  0.34655810  0.47883240  0.82119010  1.0
  O  O18  1  0.65344190  0.52116760  0.82119010  1.0
  O  O19  1  0.65344190  0.47883240  0.17880990  1.0
  O  O20  1  0.32119010  0.15344190  0.97883240  1.0
  O  O21  1  0.67880990  0.15344190  0.02116760  1.0
  O  O22  1  0.67880990  0.84655810  0.97883240  1.0
  O  O23  1  0.32119010  0.84655810  0.02116760  1.0
  O  O24  1  0.97883240  0.32119010  0.15344190  1.0
  O  O25  1  0.02116760  0.67880990  0.15344190  1.0
  O  O26  1  0.97883240  0.67880990  0.84655810  1.0
  O  O27  1  0.02116760  0.32119010  0.84655810  1.0
  O  O28  1  0.15344190  0.97883240  0.32119010  1.0
  O  O29  1  0.15344190  0.02116760  0.67880990  1.0
  O  O30  1  0.84655810  0.97883240  0.67880990  1.0
  O  O31  1  0.84655810  0.02116760  0.32119010  1.0
