# generated using pymatgen
data_CsCr3O8
_symmetry_space_group_name_H-M   'P 1'
_cell_length_a   16.84093336
_cell_length_b   5.49290420
_cell_length_c   8.58703573
_cell_angle_alpha   90.00000000
_cell_angle_beta   90.00000000
_cell_angle_gamma   90.00000000
_symmetry_Int_Tables_number   1
_chemical_formula_structural   CsCr3O8
_chemical_formula_sum   'Cs4 Cr12 O32'
_cell_volume   794.34918148
_cell_formula_units_Z   4
loop_
 _symmetry_equiv_pos_site_id
 _symmetry_equiv_pos_as_xyz
  1  'x, y, z'
loop_
 _atom_site_type_symbol
 _atom_site_label
 _atom_site_symmetry_multiplicity
 _atom_site_fract_x
 _atom_site_fract_y
 _atom_site_fract_z
 _atom_site_occupancy
  Cs  Cs0  1  0.26839169  0.75000000  0.51509858  1.0
  Cs  Cs1  1  0.76839169  0.75000000  0.98490142  1.0
  Cs  Cs2  1  0.73160831  0.25000000  0.48490142  1.0
  Cs  Cs3  1  0.23160831  0.25000000  0.01509858  1.0
  Cr  Cr4  1  0.39552502  0.75000000  0.04836886  1.0
  Cr  Cr5  1  0.89552502  0.75000000  0.45163114  1.0
  Cr  Cr6  1  0.60447498  0.25000000  0.95163114  1.0
  Cr  Cr7  1  0.10447498  0.25000000  0.54836886  1.0
  Cr  Cr8  1  0.08055548  0.75000000  0.12766417  1.0
  Cr  Cr9  1  0.58055548  0.75000000  0.37233583  1.0
  Cr  Cr10  1  0.91944452  0.25000000  0.87233583  1.0
  Cr  Cr11  1  0.41944452  0.25000000  0.62766417  1.0
  Cr  Cr12  1  0.03863683  0.75000000  0.74309224  1.0
  Cr  Cr13  1  0.53863683  0.75000000  0.75690776  1.0
  Cr  Cr14  1  0.96136317  0.25000000  0.25690776  1.0
  Cr  Cr15  1  0.46136317  0.25000000  0.24309224  1.0
  O  O16  1  0.46996094  1.00023723  0.67486199  1.0
  O  O17  1  0.46996094  0.49976277  0.67486199  1.0
  O  O18  1  0.96996094  1.00023723  0.82513801  1.0
  O  O19  1  0.96996094  0.49976277  0.82513801  1.0
  O  O20  1  0.53003906  0.50023723  0.32513801  1.0
  O  O21  1  0.53003906  -0.00023723  0.32513801  1.0
  O  O22  1  0.03003906  0.50023723  0.17486199  1.0
  O  O23  1  0.03003906  -0.00023723  0.17486199  1.0
  O  O24  1  0.11050207  0.50221907  0.66071207  1.0
  O  O25  1  0.11050207  -0.00221907  0.66071207  1.0
  O  O26  1  0.61050207  0.50221907  0.83928793  1.0
  O  O27  1  0.61050207  -0.00221907  0.83928793  1.0
  O  O28  1  0.88949793  1.00221907  0.33928793  1.0
  O  O29  1  0.88949793  0.49778093  0.33928793  1.0
  O  O30  1  0.38949793  1.00221907  0.16071207  1.0
  O  O31  1  0.38949793  0.49778093  0.16071207  1.0
  O  O32  1  0.48023602  0.75000000  0.95038026  1.0
  O  O33  1  0.98023602  0.75000000  0.54961974  1.0
  O  O34  1  0.51976398  0.25000000  0.04961974  1.0
  O  O35  1  0.01976398  0.25000000  0.45038026  1.0
  O  O36  1  0.32039746  0.75000000  0.93223515  1.0
  O  O37  1  0.82039746  0.75000000  0.56776485  1.0
  O  O38  1  0.67960254  0.25000000  0.06776485  1.0
  O  O39  1  0.17960254  0.25000000  0.43223515  1.0
  O  O40  1  0.16562204  0.75000000  0.21455197  1.0
  O  O41  1  0.66562204  0.75000000  0.28544803  1.0
  O  O42  1  0.83437796  0.25000000  0.78544803  1.0
  O  O43  1  0.33437796  0.25000000  0.71455197  1.0
  O  O44  1  0.09992486  0.75000000  0.93468202  1.0
  O  O45  1  0.59992486  0.75000000  0.56531798  1.0
  O  O46  1  0.90007514  0.25000000  0.06531798  1.0
  O  O47  1  0.40007514  0.25000000  0.43468202  1.0
