# generated using pymatgen
data_Ta3Si
_symmetry_space_group_name_H-M   'P 1'
_cell_length_a   10.20546841
_cell_length_b   10.20546841
_cell_length_c   5.20213902
_cell_angle_alpha   90.00000000
_cell_angle_beta   90.00000000
_cell_angle_gamma   90.00000000
_symmetry_Int_Tables_number   1
_chemical_formula_structural   Ta3Si
_chemical_formula_sum   'Ta24 Si8'
_cell_volume   541.81102705
_cell_formula_units_Z   8
loop_
 _symmetry_equiv_pos_site_id
 _symmetry_equiv_pos_as_xyz
  1  'x, y, z'
loop_
 _atom_site_type_symbol
 _atom_site_label
 _atom_site_symmetry_multiplicity
 _atom_site_fract_x
 _atom_site_fract_y
 _atom_site_fract_z
 _atom_site_occupancy
  Ta  Ta0  1  0.68727051  0.78649371  -0.01351704  1.0
  Ta  Ta1  1  0.31272949  0.21350629  -0.01351704  1.0
  Ta  Ta2  1  0.28649371  0.81272949  0.48648296  1.0
  Ta  Ta3  1  0.71350629  0.18727051  0.48648296  1.0
  Ta  Ta4  1  0.81272949  0.71350629  0.51351704  1.0
  Ta  Ta5  1  0.18727051  0.28649371  0.51351704  1.0
  Ta  Ta6  1  0.21350629  0.68727051  1.01351704  1.0
  Ta  Ta7  1  0.78649371  0.31272949  1.01351704  1.0
  Ta  Ta8  1  0.58575847  0.89982705  0.46957702  1.0
  Ta  Ta9  1  0.41424153  0.10017295  0.46957702  1.0
  Ta  Ta10  1  0.39982705  0.91424153  -0.03042298  1.0
  Ta  Ta11  1  0.60017295  0.08575847  -0.03042298  1.0
  Ta  Ta12  1  0.91424153  0.60017295  1.03042298  1.0
  Ta  Ta13  1  0.08575847  0.39982705  1.03042298  1.0
  Ta  Ta14  1  0.10017295  0.58575847  0.53042298  1.0
  Ta  Ta15  1  0.89982705  0.41424153  0.53042298  1.0
  Ta  Ta16  1  0.01817376  0.85370216  0.77436875  1.0
  Ta  Ta17  1  0.98182624  0.14629784  0.77436875  1.0
  Ta  Ta18  1  0.35370216  0.48182624  0.27436875  1.0
  Ta  Ta19  1  0.64629784  0.51817376  0.27436875  1.0
  Ta  Ta20  1  0.48182624  0.64629784  0.72563125  1.0
  Ta  Ta21  1  0.51817376  0.35370216  0.72563125  1.0
  Ta  Ta22  1  0.14629784  0.01817376  0.22563125  1.0
  Ta  Ta23  1  0.85370216  0.98182624  0.22563125  1.0
  Si  Si24  1  0.03004446  0.79500591  0.28027976  1.0
  Si  Si25  1  0.96995554  0.20499409  0.28027976  1.0
  Si  Si26  1  0.29500591  0.46995554  0.78027976  1.0
  Si  Si27  1  0.70499409  0.53004446  0.78027976  1.0
  Si  Si28  1  0.46995554  0.70499409  0.21972024  1.0
  Si  Si29  1  0.53004446  0.29500591  0.21972024  1.0
  Si  Si30  1  0.20499409  0.03004446  0.71972024  1.0
  Si  Si31  1  0.79500591  0.96995554  0.71972024  1.0
