# generated using pymatgen
data_Sr6SmAl(BO3)6
_symmetry_space_group_name_H-M   'P 1'
_cell_length_a   7.77013485
_cell_length_b   7.77013485
_cell_length_c   7.77013485
_cell_angle_alpha   105.38803842
_cell_angle_beta   105.38803842
_cell_angle_gamma   105.38803842
_symmetry_Int_Tables_number   1
_chemical_formula_structural   Sr6SmAl(BO3)6
_chemical_formula_sum   'Sr6 Sm1 Al1 B6 O18'
_cell_volume   406.64814754
_cell_formula_units_Z   1
loop_
 _symmetry_equiv_pos_site_id
 _symmetry_equiv_pos_as_xyz
  1  'x, y, z'
loop_
 _atom_site_type_symbol
 _atom_site_label
 _atom_site_symmetry_multiplicity
 _atom_site_fract_x
 _atom_site_fract_y
 _atom_site_fract_z
 _atom_site_occupancy
  Sr  Sr0  1  0.76836763  0.66428364  0.15154231  1.0
  Sr  Sr1  1  1.33571636  -0.15154231  0.23163237  1.0
  Sr  Sr2  1  0.84845769  0.23163237  0.33571636  1.0
  Sr  Sr3  1  1.23163237  0.33571636  -0.15154231  1.0
  Sr  Sr4  1  0.66428364  1.15154231  -0.23163237  1.0
  Sr  Sr5  1  1.15154231  0.76836763  -0.33571636  1.0
  Sm  Sm6  1  0.50000000  0.50000000  0.50000000  1.0
  Al  Al7  1  0.00000000  0.00000000  0.00000000  1.0
  B  B8  1  1.55631592  0.80067434  -0.11588248  1.0
  B  B9  1  1.19932566  0.11588248  -0.55631592  1.0
  B  B10  1  1.11588248  -0.55631592  0.19932566  1.0
  B  B11  1  0.44368408  0.19932566  0.11588248  1.0
  B  B12  1  0.80067434  0.88411752  0.55631592  1.0
  B  B13  1  0.88411752  1.55631592  -0.19932566  1.0
  O  O14  1  0.74147261  0.92669448  0.00092778  1.0
  O  O15  1  1.07330552  -0.00092778  -0.74147261  1.0
  O  O16  1  0.99907222  -0.74147261  0.07330552  1.0
  O  O17  1  0.25852739  0.07330552  -0.00092778  1.0
  O  O18  1  0.92669448  1.00092778  -0.25852739  1.0
  O  O19  1  1.00092778  0.74147261  -0.07330552  1.0
  O  O20  1  1.48836323  0.78369572  -0.30727427  1.0
  O  O21  1  1.21630428  0.30727427  -0.48836323  1.0
  O  O22  1  1.30727427  -0.48836323  0.21630428  1.0
  O  O23  1  0.51163677  0.21630428  0.30727427  1.0
  O  O24  1  0.78369572  0.69272573  0.48836323  1.0
  O  O25  1  0.69272573  1.48836323  -0.21630428  1.0
  O  O26  1  0.56029018  0.29881498  0.04206694  1.0
  O  O27  1  0.70118502  0.95793306  0.43970982  1.0
  O  O28  1  0.95793306  1.43970982  -0.29881498  1.0
  O  O29  1  1.43970982  0.70118502  -0.04206694  1.0
  O  O30  1  1.29881498  0.04206694  -0.43970982  1.0
  O  O31  1  1.04206694  -0.43970982  0.29881498  1.0
