# generated using pymatgen
data_Li2Si2O5
_symmetry_space_group_name_H-M   'P 1'
_cell_length_a   5.73121228
_cell_length_b   4.86133854
_cell_length_c   14.80235866
_cell_angle_alpha   90.00000000
_cell_angle_beta   90.00000000
_cell_angle_gamma   90.00000000
_symmetry_Int_Tables_number   1
_chemical_formula_structural   Li2Si2O5
_chemical_formula_sum   'Li8 Si8 O20'
_cell_volume   412.41389004
_cell_formula_units_Z   4
loop_
 _symmetry_equiv_pos_site_id
 _symmetry_equiv_pos_as_xyz
  1  'x, y, z'
loop_
 _atom_site_type_symbol
 _atom_site_label
 _atom_site_symmetry_multiplicity
 _atom_site_fract_x
 _atom_site_fract_y
 _atom_site_fract_z
 _atom_site_occupancy
  Li  Li0  1  0.59887880  0.69160761  0.05124716  1.0
  Li  Li1  1  0.59887880  0.30839239  0.55124716  1.0
  Li  Li2  1  0.09887880  0.19160761  0.44875284  1.0
  Li  Li3  1  0.09887880  0.80839239  0.94875284  1.0
  Li  Li4  1  0.40112120  0.69160761  0.44875284  1.0
  Li  Li5  1  0.40112120  0.30839239  0.94875284  1.0
  Li  Li6  1  0.90112120  0.19160761  0.05124716  1.0
  Li  Li7  1  0.90112120  0.80839239  0.55124716  1.0
  Si  Si8  1  0.90601953  0.69654125  0.35184118  1.0
  Si  Si9  1  0.90601953  0.30345875  0.85184118  1.0
  Si  Si10  1  0.40601953  0.19654125  0.14815882  1.0
  Si  Si11  1  0.40601953  0.80345875  0.64815882  1.0
  Si  Si12  1  0.09398047  0.69654125  0.14815882  1.0
  Si  Si13  1  0.09398047  0.30345875  0.64815882  1.0
  Si  Si14  1  0.59398047  0.19654125  0.35184118  1.0
  Si  Si15  1  0.59398047  0.80345875  0.85184118  1.0
  O  O16  1  0.92342280  0.79114075  0.06841194  1.0
  O  O17  1  0.92342280  0.20885925  0.56841194  1.0
  O  O18  1  0.42342280  0.29114075  0.43158806  1.0
  O  O19  1  0.42342280  0.70885925  0.93158806  1.0
  O  O20  1  0.07657720  0.79114075  0.43158806  1.0
  O  O21  1  0.07657720  0.20885925  0.93158806  1.0
  O  O22  1  0.57657720  0.29114075  0.06841194  1.0
  O  O23  1  0.57657720  0.70885925  0.56841194  1.0
  O  O24  1  0.65096244  0.86161443  0.36163674  1.0
  O  O25  1  0.65096244  0.13838557  0.86163674  1.0
  O  O26  1  0.15096244  0.36161443  0.13836326  1.0
  O  O27  1  0.15096244  0.63838557  0.63836326  1.0
  O  O28  1  0.34903756  0.86161443  0.13836326  1.0
  O  O29  1  0.34903756  0.13838557  0.63836326  1.0
  O  O30  1  0.84903756  0.36161443  0.36163674  1.0
  O  O31  1  0.84903756  0.63838557  0.86163674  1.0
  O  O32  1  0.00000000  0.75836681  0.25000000  1.0
  O  O33  1  0.00000000  0.24163319  0.75000000  1.0
  O  O34  1  0.50000000  0.25836681  0.25000000  1.0
  O  O35  1  0.50000000  0.74163319  0.75000000  1.0
