# generated using pymatgen
data_Nd3Sb5O12
_symmetry_space_group_name_H-M   'P 1'
_cell_length_a   9.63710291
_cell_length_b   9.63710291
_cell_length_c   9.63710291
_cell_angle_alpha   109.47122063
_cell_angle_beta   109.47122063
_cell_angle_gamma   109.47122063
_symmetry_Int_Tables_number   1
_chemical_formula_structural   Nd3Sb5O12
_chemical_formula_sum   'Nd6 Sb10 O24'
_cell_volume   688.99742659
_cell_formula_units_Z   2
loop_
 _symmetry_equiv_pos_site_id
 _symmetry_equiv_pos_as_xyz
  1  'x, y, z'
loop_
 _atom_site_type_symbol
 _atom_site_label
 _atom_site_symmetry_multiplicity
 _atom_site_fract_x
 _atom_site_fract_y
 _atom_site_fract_z
 _atom_site_occupancy
  Nd  Nd0  1  0.25000000  0.75000000  0.50000000  1.0
  Nd  Nd1  1  0.75000000  0.25000000  0.50000000  1.0
  Nd  Nd2  1  0.25000000  0.50000000  0.75000000  1.0
  Nd  Nd3  1  0.50000000  0.25000000  0.75000000  1.0
  Nd  Nd4  1  0.75000000  0.50000000  0.25000000  1.0
  Nd  Nd5  1  0.50000000  0.75000000  0.25000000  1.0
  Sb  Sb6  1  0.71896851  0.71896851  -0.00000000  1.0
  Sb  Sb7  1  0.71896851  0.00000000  0.71896851  1.0
  Sb  Sb8  1  -0.00000000  0.71896851  0.71896851  1.0
  Sb  Sb9  1  0.28103149  0.00000000  0.28103149  1.0
  Sb  Sb10  1  -0.00000000  0.28103149  0.28103149  1.0
  Sb  Sb11  1  0.28103149  0.28103149  -0.00000000  1.0
  Sb  Sb12  1  0.50642686  0.50642686  0.50642686  1.0
  Sb  Sb13  1  1.00000000  1.00000000  0.49357314  1.0
  Sb  Sb14  1  1.00000000  0.49357314  1.00000000  1.0
  Sb  Sb15  1  0.49357314  1.00000000  1.00000000  1.0
  O  O16  1  0.80074953  0.50888552  0.50888552  1.0
  O  O17  1  0.50888552  0.80074953  0.50888552  1.0
  O  O18  1  1.00000000  1.29186400  0.49111448  1.0
  O  O19  1  1.29186400  1.00000000  0.49111448  1.0
  O  O20  1  0.50888552  0.50888552  0.80074953  1.0
  O  O21  1  0.70813600  0.70813600  0.19925047  1.0
  O  O22  1  1.00000000  0.49111448  1.29186400  1.0
  O  O23  1  0.70813600  0.19925047  0.70813600  1.0
  O  O24  1  0.19925047  0.70813600  0.70813600  1.0
  O  O25  1  0.49111448  1.00000000  1.29186400  1.0
  O  O26  1  1.29186400  0.49111448  1.00000000  1.0
  O  O27  1  0.49111448  1.29186400  1.00000000  1.0
  O  O28  1  0.27458088  0.47311378  0.47311378  1.0
  O  O29  1  0.47311378  0.27458088  0.47311378  1.0
  O  O30  1  1.00000000  0.80146710  1.52688622  1.0
  O  O31  1  0.80146710  1.00000000  1.52688622  1.0
  O  O32  1  0.47311378  0.47311378  0.27458088  1.0
  O  O33  1  1.19853290  1.19853290  0.72541912  1.0
  O  O34  1  1.00000000  1.52688622  0.80146710  1.0
  O  O35  1  1.19853290  0.72541912  1.19853290  1.0
  O  O36  1  0.72541912  1.19853290  1.19853290  1.0
  O  O37  1  1.52688622  1.00000000  0.80146710  1.0
  O  O38  1  0.80146710  1.52688622  1.00000000  1.0
  O  O39  1  1.52688622  0.80146710  1.00000000  1.0
