# generated using pymatgen
data_RbCuPdSe5
_symmetry_space_group_name_H-M   'P 1'
_cell_length_a   6.37838080
_cell_length_b   7.39394243
_cell_length_c   9.31762788
_cell_angle_alpha   90.00000000
_cell_angle_beta   102.84666744
_cell_angle_gamma   90.00000000
_symmetry_Int_Tables_number   1
_chemical_formula_structural   RbCuPdSe5
_chemical_formula_sum   'Rb2 Cu2 Pd2 Se10'
_cell_volume   428.43258155
_cell_formula_units_Z   2
loop_
 _symmetry_equiv_pos_site_id
 _symmetry_equiv_pos_as_xyz
  1  'x, y, z'
loop_
 _atom_site_type_symbol
 _atom_site_label
 _atom_site_symmetry_multiplicity
 _atom_site_fract_x
 _atom_site_fract_y
 _atom_site_fract_z
 _atom_site_occupancy
  Rb  Rb0  1  0.24726243  0.75000000  0.44981334  1.0
  Rb  Rb1  1  0.75273757  0.25000000  0.55018666  1.0
  Cu  Cu2  1  0.38847560  0.75000000  0.89222915  1.0
  Cu  Cu3  1  0.61152440  0.25000000  0.10777085  1.0
  Pd  Pd4  1  0.00000000  0.00000000  0.00000000  1.0
  Pd  Pd5  1  0.00000000  0.50000000  0.00000000  1.0
  Se  Se6  1  0.81468001  0.99117565  0.20857334  1.0
  Se  Se7  1  0.81468001  0.50882435  0.20857334  1.0
  Se  Se8  1  0.18531999  0.49117565  0.79142666  1.0
  Se  Se9  1  0.18531999  0.00882435  0.79142666  1.0
  Se  Se10  1  0.80064703  0.75000000  0.61666869  1.0
  Se  Se11  1  0.19935297  0.25000000  0.38333131  1.0
  Se  Se12  1  0.77287223  0.75000000  0.86786844  1.0
  Se  Se13  1  0.22712777  0.25000000  0.13213156  1.0
  Se  Se14  1  0.54441634  0.75000000  0.15164946  1.0
  Se  Se15  1  0.45558366  0.25000000  0.84835054  1.0
