# generated using pymatgen
data_BiIO4
_symmetry_space_group_name_H-M   'P 1'
_cell_length_a   5.65319644
_cell_length_b   11.35948588
_cell_length_c   5.75861480
_cell_angle_alpha   90.00000000
_cell_angle_beta   90.00000000
_cell_angle_gamma   90.00000000
_symmetry_Int_Tables_number   1
_chemical_formula_structural   BiIO4
_chemical_formula_sum   'Bi4 I4 O16'
_cell_volume   369.80329906
_cell_formula_units_Z   4
loop_
 _symmetry_equiv_pos_site_id
 _symmetry_equiv_pos_as_xyz
  1  'x, y, z'
loop_
 _atom_site_type_symbol
 _atom_site_label
 _atom_site_symmetry_multiplicity
 _atom_site_fract_x
 _atom_site_fract_y
 _atom_site_fract_z
 _atom_site_occupancy
  Bi  Bi0  1  0.51684880  0.10910693  0.50224367  1.0
  Bi  Bi1  1  0.01684880  0.89089307  0.50224367  1.0
  Bi  Bi2  1  0.48315120  0.89089307  0.00224367  1.0
  Bi  Bi3  1  0.98315120  0.10910693  0.00224367  1.0
  I  I4  1  0.50184158  0.36843122  0.03250399  1.0
  I  I5  1  0.00184158  0.63156878  0.03250399  1.0
  I  I6  1  0.49815842  0.63156878  0.53250399  1.0
  I  I7  1  0.99815842  0.36843122  0.53250399  1.0
  O  O8  1  0.62018571  0.21719591  0.12380645  1.0
  O  O9  1  0.12018571  0.78280409  0.12380645  1.0
  O  O10  1  0.37981429  0.78280409  0.62380645  1.0
  O  O11  1  0.87981429  0.21719591  0.62380645  1.0
  O  O12  1  0.73273961  0.43502668  0.36916343  1.0
  O  O13  1  0.23273961  0.56497332  0.36916343  1.0
  O  O14  1  0.26726039  0.56497332  0.86916343  1.0
  O  O15  1  0.76726039  0.43502668  0.86916343  1.0
  O  O16  1  0.75957321  0.00124957  0.26773113  1.0
  O  O17  1  0.25957321  0.99875043  0.26773113  1.0
  O  O18  1  0.24042679  0.99875043  0.76773113  1.0
  O  O19  1  0.74042679  0.00124957  0.76773113  1.0
  O  O20  1  0.16159114  0.29738181  0.27555133  1.0
  O  O21  1  0.66159114  0.70261819  0.27555133  1.0
  O  O22  1  0.83840886  0.70261819  0.77555133  1.0
  O  O23  1  0.33840886  0.29738181  0.77555133  1.0
