# generated using pymatgen
data_BaNb2O6
_symmetry_space_group_name_H-M   'P 1'
_cell_length_a   12.76304505
_cell_length_b   12.76304505
_cell_length_c   3.96073354
_cell_angle_alpha   90.00000000
_cell_angle_beta   90.00000000
_cell_angle_gamma   90.00000000
_symmetry_Int_Tables_number   1
_chemical_formula_structural   BaNb2O6
_chemical_formula_sum   'Ba5 Nb10 O30'
_cell_volume   645.18495420
_cell_formula_units_Z   5
loop_
 _symmetry_equiv_pos_site_id
 _symmetry_equiv_pos_as_xyz
  1  'x, y, z'
loop_
 _atom_site_type_symbol
 _atom_site_label
 _atom_site_symmetry_multiplicity
 _atom_site_fract_x
 _atom_site_fract_y
 _atom_site_fract_z
 _atom_site_occupancy
  Ba  Ba0  1  0.50000000  0.50000000  0.50000000  1.0
  Ba  Ba1  1  0.83057756  0.67066937  0.50000000  1.0
  Ba  Ba2  1  0.16942244  0.32933063  0.50000000  1.0
  Ba  Ba3  1  0.67066937  0.16942244  0.50000000  1.0
  Ba  Ba4  1  0.32933063  0.83057756  0.50000000  1.0
  Nb  Nb5  1  0.50000000  0.00000000  0.00000000  1.0
  Nb  Nb6  1  0.00000000  0.50000000  0.00000000  1.0
  Nb  Nb7  1  0.93441807  0.20544424  0.00000000  1.0
  Nb  Nb8  1  0.06558193  0.79455576  0.00000000  1.0
  Nb  Nb9  1  0.20544424  0.06558193  0.00000000  1.0
  Nb  Nb10  1  0.79455576  0.93441807  0.00000000  1.0
  Nb  Nb11  1  0.58202483  0.71692634  0.00000000  1.0
  Nb  Nb12  1  0.41797517  0.28307366  0.00000000  1.0
  Nb  Nb13  1  0.71692634  0.41797517  0.00000000  1.0
  Nb  Nb14  1  0.28307366  0.58202483  0.00000000  1.0
  O  O15  1  0.50000000  0.00000000  0.50000000  1.0
  O  O16  1  0.00000000  0.50000000  0.50000000  1.0
  O  O17  1  0.71601199  0.78174456  0.00000000  1.0
  O  O18  1  0.28398801  0.21825544  0.00000000  1.0
  O  O19  1  0.78174456  0.28398801  0.00000000  1.0
  O  O20  1  0.21825544  0.71601199  0.00000000  1.0
  O  O21  1  0.85135557  0.07117233  0.00000000  1.0
  O  O22  1  0.14864443  0.92882767  0.00000000  1.0
  O  O23  1  0.07117233  0.14864443  0.00000000  1.0
  O  O24  1  0.92882767  0.85135557  0.00000000  1.0
  O  O25  1  0.63727841  0.57635151  0.00000000  1.0
  O  O26  1  0.36272159  0.42364849  0.00000000  1.0
  O  O27  1  0.57635151  0.36272159  0.00000000  1.0
  O  O28  1  0.42364849  0.63727841  0.00000000  1.0
  O  O29  1  0.00014414  0.34449839  0.00000000  1.0
  O  O30  1  0.99985586  0.65550161  0.00000000  1.0
  O  O31  1  0.34449839  0.99985586  0.00000000  1.0
  O  O32  1  0.65550161  0.00014414  0.00000000  1.0
  O  O33  1  0.48709528  0.84447128  0.00000000  1.0
  O  O34  1  0.51290472  0.15552872  0.00000000  1.0
  O  O35  1  0.84447128  0.51290472  0.00000000  1.0
  O  O36  1  0.15552872  0.48709528  0.00000000  1.0
  O  O37  1  0.91812010  0.20753976  0.50000000  1.0
  O  O38  1  0.08187990  0.79246024  0.50000000  1.0
  O  O39  1  0.20753976  0.08187990  0.50000000  1.0
  O  O40  1  0.79246024  0.91812010  0.50000000  1.0
  O  O41  1  0.56664956  0.71169646  0.50000000  1.0
  O  O42  1  0.43335044  0.28830354  0.50000000  1.0
  O  O43  1  0.71169646  0.43335044  0.50000000  1.0
  O  O44  1  0.28830354  0.56664956  0.50000000  1.0
