# generated using pymatgen
data_Na5AlP2(O4F)2
_symmetry_space_group_name_H-M   'P 1'
_cell_length_a   10.61884278
_cell_length_b   10.61884278
_cell_length_c   6.70506852
_cell_angle_alpha   90.00000000
_cell_angle_beta   90.00000000
_cell_angle_gamma   120.00000000
_symmetry_Int_Tables_number   1
_chemical_formula_structural   Na5AlP2(O4F)2
_chemical_formula_sum   'Na15 Al3 P6 O24 F6'
_cell_volume   654.76918737
_cell_formula_units_Z   3
loop_
 _symmetry_equiv_pos_site_id
 _symmetry_equiv_pos_as_xyz
  1  'x, y, z'
loop_
 _atom_site_type_symbol
 _atom_site_label
 _atom_site_symmetry_multiplicity
 _atom_site_fract_x
 _atom_site_fract_y
 _atom_site_fract_z
 _atom_site_occupancy
  Na  Na0  1  0.85533724  0.68430166  0.23605819  1.0
  Na  Na1  1  0.68430166  0.82896442  0.76394181  1.0
  Na  Na2  1  0.82896442  0.14466276  0.23605819  1.0
  Na  Na3  1  0.31569834  0.17103558  0.23605819  1.0
  Na  Na4  1  0.14466276  0.31569834  0.76394181  1.0
  Na  Na5  1  0.17103558  0.85533724  0.76394181  1.0
  Na  Na6  1  0.50000000  0.50000000  0.50000000  1.0
  Na  Na7  1  0.50000000  0.00000000  0.50000000  1.0
  Na  Na8  1  0.00000000  0.50000000  0.50000000  1.0
  Na  Na9  1  0.33333333  0.66666667  0.02230759  1.0
  Na  Na10  1  0.66666667  0.33333333  0.97769241  1.0
  Na  Na11  1  0.33333333  0.66666667  0.57994344  1.0
  Na  Na12  1  0.66666667  0.33333333  0.42005656  1.0
  Na  Na13  1  0.00000000  0.00000000  0.50000000  1.0
  Na  Na14  1  0.00000000  0.00000000  0.00000000  1.0
  Al  Al15  1  0.50000000  0.50000000  0.00000000  1.0
  Al  Al16  1  0.50000000  -0.00000000  -0.00000000  1.0
  Al  Al17  1  0.00000000  0.50000000  0.00000000  1.0
  P  P18  1  0.18707697  0.81579652  0.24773040  1.0
  P  P19  1  0.81579652  0.62871955  0.75226960  1.0
  P  P20  1  0.62871955  0.81292303  0.24773040  1.0
  P  P21  1  0.18420348  0.37128045  0.24773040  1.0
  P  P22  1  0.81292303  0.18420348  0.75226960  1.0
  P  P23  1  0.37128045  0.18707697  0.75226960  1.0
  O  O24  1  0.10611256  0.90351180  0.24232986  1.0
  O  O25  1  0.90351180  0.79739925  0.75767014  1.0
  O  O26  1  0.79739925  0.89388744  0.24232986  1.0
  O  O27  1  0.09648820  0.20260075  0.24232986  1.0
  O  O28  1  0.89388744  0.09648820  0.75767014  1.0
  O  O29  1  0.20260075  0.10611256  0.75767014  1.0
  O  O30  1  0.30471923  0.87133673  0.07745153  1.0
  O  O31  1  0.87133673  0.56661750  0.92254847  1.0
  O  O32  1  0.56661750  0.69528077  0.07745153  1.0
  O  O33  1  0.12866327  0.43338250  0.07745153  1.0
  O  O34  1  0.69528077  0.12866327  0.92254847  1.0
  O  O35  1  0.43338250  0.30471923  0.92254847  1.0
  O  O36  1  0.25660513  0.82430676  0.45300572  1.0
  O  O37  1  0.82430676  0.56770163  0.54699428  1.0
  O  O38  1  0.56770163  0.74339487  0.45300572  1.0
  O  O39  1  0.17569324  0.43229837  0.45300572  1.0
  O  O40  1  0.74339487  0.17569324  0.54699428  1.0
  O  O41  1  0.43229837  0.25660513  0.54699428  1.0
  O  O42  1  0.07864404  0.65093840  0.19929959  1.0
  O  O43  1  0.65093840  0.57229437  0.80070041  1.0
  O  O44  1  0.57229437  0.92135596  0.19929959  1.0
  O  O45  1  0.34906160  0.42770563  0.19929959  1.0
  O  O46  1  0.92135596  0.34906160  0.80070041  1.0
  O  O47  1  0.42770563  0.07864404  0.80070041  1.0
  F  F48  1  0.61581326  0.48020333  0.19038793  1.0
  F  F49  1  0.48020333  0.86439007  0.80961207  1.0
  F  F50  1  0.86439007  0.38418674  0.19038793  1.0
  F  F51  1  0.51979667  0.13560993  0.19038793  1.0
  F  F52  1  0.38418674  0.51979667  0.80961207  1.0
  F  F53  1  0.13560993  0.61581326  0.80961207  1.0
