# generated using pymatgen
data_Zr3P3Pd4
_symmetry_space_group_name_H-M   'P 1'
_cell_length_a   16.50794243
_cell_length_b   3.84374747
_cell_length_c   10.06278311
_cell_angle_alpha   90.00000000
_cell_angle_beta   90.00000000
_cell_angle_gamma   90.00000000
_symmetry_Int_Tables_number   1
_chemical_formula_structural   Zr3P3Pd4
_chemical_formula_sum   'Zr12 P12 Pd16'
_cell_volume   638.50735662
_cell_formula_units_Z   4
loop_
 _symmetry_equiv_pos_site_id
 _symmetry_equiv_pos_as_xyz
  1  'x, y, z'
loop_
 _atom_site_type_symbol
 _atom_site_label
 _atom_site_symmetry_multiplicity
 _atom_site_fract_x
 _atom_site_fract_y
 _atom_site_fract_z
 _atom_site_occupancy
  Zr  Zr0  1  0.23950447  0.75000000  0.52307359  1.0
  Zr  Zr1  1  0.73950447  0.75000000  0.97692641  1.0
  Zr  Zr2  1  0.76049553  0.25000000  0.47692641  1.0
  Zr  Zr3  1  0.26049553  0.25000000  0.02307359  1.0
  Zr  Zr4  1  0.04805779  0.75000000  0.38332245  1.0
  Zr  Zr5  1  0.54805779  0.75000000  0.11667755  1.0
  Zr  Zr6  1  0.95194221  0.25000000  0.61667755  1.0
  Zr  Zr7  1  0.45194221  0.25000000  0.88332245  1.0
  Zr  Zr8  1  0.93911944  0.75000000  0.08889874  1.0
  Zr  Zr9  1  0.43911944  0.75000000  0.41110126  1.0
  Zr  Zr10  1  0.06088056  0.25000000  0.91110126  1.0
  Zr  Zr11  1  0.56088056  0.25000000  0.58889874  1.0
  P  P12  1  0.45540549  0.75000000  0.68076972  1.0
  P  P13  1  0.95540549  0.75000000  0.81923028  1.0
  P  P14  1  0.54459451  0.25000000  0.31923028  1.0
  P  P15  1  0.04459451  0.25000000  0.18076972  1.0
  P  P16  1  0.38568846  0.75000000  0.03669774  1.0
  P  P17  1  0.88568846  0.75000000  0.46330226  1.0
  P  P18  1  0.61431154  0.25000000  0.96330226  1.0
  P  P19  1  0.11431154  0.25000000  0.53669774  1.0
  P  P20  1  0.17745348  0.75000000  0.88937365  1.0
  P  P21  1  0.67745348  0.75000000  0.61062635  1.0
  P  P22  1  0.82254652  0.25000000  0.11062635  1.0
  P  P23  1  0.32254652  0.25000000  0.38937365  1.0
  Pd  Pd24  1  0.32417736  0.75000000  0.81107050  1.0
  Pd  Pd25  1  0.82417736  0.75000000  0.68892950  1.0
  Pd  Pd26  1  0.67582264  0.25000000  0.18892950  1.0
  Pd  Pd27  1  0.17582264  0.25000000  0.31107050  1.0
  Pd  Pd28  1  0.29353475  0.75000000  0.23544590  1.0
  Pd  Pd29  1  0.79353475  0.75000000  0.26455410  1.0
  Pd  Pd30  1  0.70646525  0.25000000  0.76455410  1.0
  Pd  Pd31  1  0.20646525  0.25000000  0.73544590  1.0
  Pd  Pd32  1  0.12795979  0.75000000  0.11752268  1.0
  Pd  Pd33  1  0.62795979  0.75000000  0.38247732  1.0
  Pd  Pd34  1  0.87204021  0.25000000  0.88247732  1.0
  Pd  Pd35  1  0.37204021  0.25000000  0.61752268  1.0
  Pd  Pd36  1  0.08158074  0.75000000  0.68256647  1.0
  Pd  Pd37  1  0.58158074  0.75000000  0.81743353  1.0
  Pd  Pd38  1  0.91841926  0.25000000  0.31743353  1.0
  Pd  Pd39  1  0.41841926  0.25000000  0.18256647  1.0
