# generated using pymatgen
data_Li7Si2
_symmetry_space_group_name_H-M   'P 1'
_cell_length_a   4.37547746
_cell_length_b   4.37547746
_cell_length_c   7.97521573
_cell_angle_alpha   90.00000000
_cell_angle_beta   90.00000000
_cell_angle_gamma   120.00000000
_symmetry_Int_Tables_number   1
_chemical_formula_structural   Li7Si2
_chemical_formula_sum   'Li7 Si2'
_cell_volume   132.22816534
_cell_formula_units_Z   1
loop_
 _symmetry_equiv_pos_site_id
 _symmetry_equiv_pos_as_xyz
  1  'x, y, z'
loop_
 _atom_site_type_symbol
 _atom_site_label
 _atom_site_symmetry_multiplicity
 _atom_site_fract_x
 _atom_site_fract_y
 _atom_site_fract_z
 _atom_site_occupancy
  Li  Li0  1  0.00000000  0.00000000  0.68312290  1.0
  Li  Li1  1  0.00000000  0.00000000  0.31687710  1.0
  Li  Li2  1  0.66666667  0.33333333  0.10292301  1.0
  Li  Li3  1  0.33333333  0.66666667  0.89707699  1.0
  Li  Li4  1  0.66666667  0.33333333  0.42439354  1.0
  Li  Li5  1  0.33333333  0.66666667  0.57560646  1.0
  Li  Li6  1  0.00000000  0.00000000  0.00000000  1.0
  Si  Si7  1  0.66666667  0.33333333  0.76258403  1.0
  Si  Si8  1  0.33333333  0.66666667  0.23741597  1.0
