# generated using pymatgen
data_CsZr6MnCl14
_symmetry_space_group_name_H-M   'P 1'
_cell_length_a   9.95971620
_cell_length_b   9.95971620
_cell_length_c   12.11511182
_cell_angle_alpha   90.00000000
_cell_angle_beta   90.00000000
_cell_angle_gamma   84.34515326
_symmetry_Int_Tables_number   1
_chemical_formula_structural   CsZr6MnCl14
_chemical_formula_sum   'Cs2 Zr12 Mn2 Cl28'
_cell_volume   1195.92161154
_cell_formula_units_Z   2
loop_
 _symmetry_equiv_pos_site_id
 _symmetry_equiv_pos_as_xyz
  1  'x, y, z'
loop_
 _atom_site_type_symbol
 _atom_site_label
 _atom_site_symmetry_multiplicity
 _atom_site_fract_x
 _atom_site_fract_y
 _atom_site_fract_z
 _atom_site_occupancy
  Cs  Cs0  1  0.00000000  1.00000000  0.50000000  1.0
  Cs  Cs1  1  -0.50000000  0.50000000  -0.00000000  1.0
  Zr  Zr2  1  -0.14693494  1.14693494  0.11034266  1.0
  Zr  Zr3  1  0.35306506  0.64693494  0.38965734  1.0
  Zr  Zr4  1  0.14693494  0.85306506  0.88965734  1.0
  Zr  Zr5  1  -0.35306506  1.35306506  0.61034266  1.0
  Zr  Zr6  1  0.45333025  1.30900918  0.38290959  1.0
  Zr  Zr7  1  -0.04666975  0.80900918  0.11709041  1.0
  Zr  Zr8  1  0.30900918  1.45333025  0.61709041  1.0
  Zr  Zr9  1  -0.19099082  0.95333025  0.88290959  1.0
  Zr  Zr10  1  -0.30900918  0.54666975  0.38290959  1.0
  Zr  Zr11  1  0.19099082  1.04666975  0.11709041  1.0
  Zr  Zr12  1  -0.45333025  0.69099082  0.61709041  1.0
  Zr  Zr13  1  0.04666975  1.19099082  0.88290959  1.0
  Mn  Mn14  1  -0.50000000  0.50000000  0.50000000  1.0
  Mn  Mn15  1  0.00000000  1.00000000  0.00000000  1.0
  Cl  Cl16  1  -0.38434334  1.14172814  0.49455926  1.0
  Cl  Cl17  1  0.11565666  0.64172814  0.00544074  1.0
  Cl  Cl18  1  0.14172814  0.61565666  0.50544074  1.0
  Cl  Cl19  1  -0.35827186  1.11565666  0.99455926  1.0
  Cl  Cl20  1  -0.14172814  1.38434334  0.49455926  1.0
  Cl  Cl21  1  0.35827186  0.88434334  0.00544074  1.0
  Cl  Cl22  1  0.38434334  0.85827186  0.50544074  1.0
  Cl  Cl23  1  -0.11565666  1.35827186  0.99455926  1.0
  Cl  Cl24  1  -0.34190144  1.34190144  0.24730423  1.0
  Cl  Cl25  1  0.15809856  0.84190144  0.25269577  1.0
  Cl  Cl26  1  0.34190144  0.65809856  0.75269577  1.0
  Cl  Cl27  1  -0.15809856  1.15809856  0.74730423  1.0
  Cl  Cl28  1  0.39523492  1.10476508  0.25000000  1.0
  Cl  Cl29  1  -0.10476508  0.60476508  0.25000000  1.0
  Cl  Cl30  1  0.10476508  1.39523492  0.75000000  1.0
  Cl  Cl31  1  -0.39523492  0.89523492  0.75000000  1.0
  Cl  Cl32  1  0.25245131  1.25245131  0.50000000  1.0
  Cl  Cl33  1  -0.24754869  0.75245131  -0.00000000  1.0
  Cl  Cl34  1  -0.25245131  0.74754869  0.50000000  1.0
  Cl  Cl35  1  0.24754869  1.24754869  0.00000000  1.0
  Cl  Cl36  1  -0.20347832  0.96196918  0.24566344  1.0
  Cl  Cl37  1  0.29652168  1.46196918  0.25433656  1.0
  Cl  Cl38  1  -0.03803082  0.79652168  0.75433656  1.0
  Cl  Cl39  1  0.46196918  1.29652168  0.74566344  1.0
  Cl  Cl40  1  0.03803082  1.20347832  0.24566344  1.0
  Cl  Cl41  1  -0.46196918  0.70347832  0.25433656  1.0
  Cl  Cl42  1  0.20347832  1.03803082  0.75433656  1.0
  Cl  Cl43  1  -0.29652168  0.53803082  0.74566344  1.0
