# generated using pymatgen
data_VAg(PS3)2
_symmetry_space_group_name_H-M   'P 1'
_cell_length_a   7.57012138
_cell_length_b   10.80774875
_cell_length_c   5.90544775
_cell_angle_alpha   90.00000000
_cell_angle_beta   104.42595300
_cell_angle_gamma   90.00000000
_symmetry_Int_Tables_number   1
_chemical_formula_structural   VAg(PS3)2
_chemical_formula_sum   'V2 Ag2 P4 S12'
_cell_volume   467.92610249
_cell_formula_units_Z   2
loop_
 _symmetry_equiv_pos_site_id
 _symmetry_equiv_pos_as_xyz
  1  'x, y, z'
loop_
 _atom_site_type_symbol
 _atom_site_label
 _atom_site_symmetry_multiplicity
 _atom_site_fract_x
 _atom_site_fract_y
 _atom_site_fract_z
 _atom_site_occupancy
  V  V0  1  0.50000000  0.93084991  0.75000000  1.0
  V  V1  1  0.50000000  0.06915009  0.25000000  1.0
  Ag  Ag2  1  0.50000000  0.56287531  0.75000000  1.0
  Ag  Ag3  1  0.50000000  0.43712469  0.25000000  1.0
  P  P4  1  0.65200024  0.75163568  0.29018221  1.0
  P  P5  1  0.65200024  0.24836432  0.79018221  1.0
  P  P6  1  0.34799976  0.75163568  0.20981779  1.0
  P  P7  1  0.34799976  0.24836432  0.70981779  1.0
  S  S8  1  0.75583670  0.39647724  0.97313819  1.0
  S  S9  1  0.75583670  0.60352276  0.47313819  1.0
  S  S10  1  0.24416330  0.39647724  0.52686181  1.0
  S  S11  1  0.24416330  0.60352276  0.02686181  1.0
  S  S12  1  0.71013241  0.77168025  0.97354114  1.0
  S  S13  1  0.71013241  0.22831975  0.47354114  1.0
  S  S14  1  0.28986759  0.77168025  0.52645886  1.0
  S  S15  1  0.28986759  0.22831975  0.02645886  1.0
  S  S16  1  0.70517481  0.92031811  0.48502980  1.0
  S  S17  1  0.70517481  0.07968189  0.98502980  1.0
  S  S18  1  0.29482519  0.92031811  0.01497020  1.0
  S  S19  1  0.29482519  0.07968189  0.51497020  1.0
