# generated using pymatgen
data_HfGa2
_symmetry_space_group_name_H-M   'P 1'
_cell_length_a   13.12477705
_cell_length_b   13.12477705
_cell_length_c   13.12477705
_cell_angle_alpha   162.17580658
_cell_angle_beta   162.17580658
_cell_angle_gamma   25.31100443
_symmetry_Int_Tables_number   1
_chemical_formula_structural   HfGa2
_chemical_formula_sum   'Hf4 Ga8'
_cell_volume   211.76954996
_cell_formula_units_Z   4
loop_
 _symmetry_equiv_pos_site_id
 _symmetry_equiv_pos_as_xyz
  1  'x, y, z'
loop_
 _atom_site_type_symbol
 _atom_site_label
 _atom_site_symmetry_multiplicity
 _atom_site_fract_x
 _atom_site_fract_y
 _atom_site_fract_z
 _atom_site_occupancy
  Hf  Hf0  1  0.82557117  0.32557117  0.50000000  1.0
  Hf  Hf1  1  0.92442883  0.92442883  1.00000000  1.0
  Hf  Hf2  1  0.67442883  0.17442883  0.50000000  1.0
  Hf  Hf3  1  0.07557117  0.07557117  0.00000000  1.0
  Ga  Ga4  1  0.00076030  0.50076030  0.50000000  1.0
  Ga  Ga5  1  0.74923970  0.74923970  1.00000000  1.0
  Ga  Ga6  1  0.49923970  -0.00076030  0.50000000  1.0
  Ga  Ga7  1  0.25076030  0.25076030  -0.00000000  1.0
  Ga  Ga8  1  0.16176224  0.66176224  0.50000000  1.0
  Ga  Ga9  1  0.58823776  0.58823776  1.00000000  1.0
  Ga  Ga10  1  0.33823776  0.83823776  0.50000000  1.0
  Ga  Ga11  1  0.41176224  0.41176224  -0.00000000  1.0
