# generated using pymatgen
data_NaTi4(SiO6)2
_symmetry_space_group_name_H-M   'P 1'
_cell_length_a   12.02553919
_cell_length_b   12.02553919
_cell_length_c   4.75014702
_cell_angle_alpha   90.00000000
_cell_angle_beta   90.00000000
_cell_angle_gamma   90.00000000
_symmetry_Int_Tables_number   1
_chemical_formula_structural   NaTi4(SiO6)2
_chemical_formula_sum   'Na2 Ti8 Si4 O24'
_cell_volume   686.93582682
_cell_formula_units_Z   2
loop_
 _symmetry_equiv_pos_site_id
 _symmetry_equiv_pos_as_xyz
  1  'x, y, z'
loop_
 _atom_site_type_symbol
 _atom_site_label
 _atom_site_symmetry_multiplicity
 _atom_site_fract_x
 _atom_site_fract_y
 _atom_site_fract_z
 _atom_site_occupancy
  Na  Na0  1  0.50000000  0.50000000  0.00000000  1.0
  Na  Na1  1  0.00000000  0.00000000  0.00000000  1.0
  Ti  Ti2  1  0.14795168  0.35204832  0.90435742  1.0
  Ti  Ti3  1  0.14795168  0.64795168  0.90435742  1.0
  Ti  Ti4  1  0.64795168  0.85204832  0.09564258  1.0
  Ti  Ti5  1  0.64795168  0.14795168  0.09564258  1.0
  Ti  Ti6  1  0.35204832  0.14795168  0.09564258  1.0
  Ti  Ti7  1  0.35204832  0.85204832  0.09564258  1.0
  Ti  Ti8  1  0.85204832  0.64795168  0.90435742  1.0
  Ti  Ti9  1  0.85204832  0.35204832  0.90435742  1.0
  Si  Si10  1  0.75000000  0.25000000  0.50000000  1.0
  Si  Si11  1  0.75000000  0.75000000  0.50000000  1.0
  Si  Si12  1  0.25000000  0.75000000  0.50000000  1.0
  Si  Si13  1  0.25000000  0.25000000  0.50000000  1.0
  O  O14  1  0.22559207  0.87173101  0.27520357  1.0
  O  O15  1  0.22559207  0.12826899  0.27520357  1.0
  O  O16  1  0.72559207  0.37173101  0.72479643  1.0
  O  O17  1  0.72559207  0.62826899  0.72479643  1.0
  O  O18  1  0.87173101  0.22559207  0.72479643  1.0
  O  O19  1  0.87173101  0.77440793  0.72479643  1.0
  O  O20  1  0.37173101  0.72559207  0.27520357  1.0
  O  O21  1  0.37173101  0.27440793  0.27520357  1.0
  O  O22  1  0.77440793  0.87173101  0.27520357  1.0
  O  O23  1  0.77440793  0.12826899  0.27520357  1.0
  O  O24  1  0.27440793  0.37173101  0.72479643  1.0
  O  O25  1  0.27440793  0.62826899  0.72479643  1.0
  O  O26  1  0.12826899  0.22559207  0.72479643  1.0
  O  O27  1  0.12826899  0.77440793  0.72479643  1.0
  O  O28  1  0.62826899  0.72559207  0.27520357  1.0
  O  O29  1  0.62826899  0.27440793  0.27520357  1.0
  O  O30  1  0.33347861  0.16652139  0.72733563  1.0
  O  O31  1  0.33347861  0.83347861  0.72733563  1.0
  O  O32  1  0.83347861  0.66652139  0.27266437  1.0
  O  O33  1  0.83347861  0.33347861  0.27266437  1.0
  O  O34  1  0.16652139  0.33347861  0.27266437  1.0
  O  O35  1  0.16652139  0.66652139  0.27266437  1.0
  O  O36  1  0.66652139  0.83347861  0.72733563  1.0
  O  O37  1  0.66652139  0.16652139  0.72733563  1.0
