# generated using pymatgen
data_Lu4CdPd
_symmetry_space_group_name_H-M   'P 1'
_cell_length_a   9.48110250
_cell_length_b   9.48110250
_cell_length_c   9.48110250
_cell_angle_alpha   60.00000000
_cell_angle_beta   60.00000000
_cell_angle_gamma   60.00000000
_symmetry_Int_Tables_number   1
_chemical_formula_structural   Lu4CdPd
_chemical_formula_sum   'Lu16 Cd4 Pd4'
_cell_volume   602.64495800
_cell_formula_units_Z   4
loop_
 _symmetry_equiv_pos_site_id
 _symmetry_equiv_pos_as_xyz
  1  'x, y, z'
loop_
 _atom_site_type_symbol
 _atom_site_label
 _atom_site_symmetry_multiplicity
 _atom_site_fract_x
 _atom_site_fract_y
 _atom_site_fract_z
 _atom_site_occupancy
  Lu  Lu0  1  -0.81114228  0.81114228  0.81114228  1.0
  Lu  Lu1  1  -0.18885772  0.81114228  0.18885772  1.0
  Lu  Lu2  1  -0.18885772  0.18885772  0.81114228  1.0
  Lu  Lu3  1  0.18885772  1.18885772  -0.18885772  1.0
  Lu  Lu4  1  0.18885772  -0.18885772  0.18885772  1.0
  Lu  Lu5  1  -0.18885772  0.18885772  0.18885772  1.0
  Lu  Lu6  1  0.06556384  0.43443616  0.43443616  1.0
  Lu  Lu7  1  0.43443616  0.43443616  0.06556384  1.0
  Lu  Lu8  1  0.43443616  0.06556384  0.43443616  1.0
  Lu  Lu9  1  0.06556384  0.06556384  0.43443616  1.0
  Lu  Lu10  1  0.06556384  0.43443616  0.06556384  1.0
  Lu  Lu11  1  0.43443616  0.06556384  0.06556384  1.0
  Lu  Lu12  1  -0.35539437  0.64460563  0.64460563  1.0
  Lu  Lu13  1  1.06618310  0.64460563  -0.35539437  1.0
  Lu  Lu14  1  -0.35539437  0.64460563  1.06618310  1.0
  Lu  Lu15  1  0.64460563  1.06618310  -0.35539437  1.0
  Cd  Cd16  1  0.41754450  1.41754450  0.41754450  1.0
  Cd  Cd17  1  -0.25263350  0.41754450  0.41754450  1.0
  Cd  Cd18  1  0.41754450  1.41754450  -0.25263350  1.0
  Cd  Cd19  1  0.41754450  -0.25263350  0.41754450  1.0
  Pd  Pd20  1  0.85450311  0.85450311  -0.14549689  1.0
  Pd  Pd21  1  0.43649067  0.85450311  -0.14549689  1.0
  Pd  Pd22  1  0.85450311  0.85450311  -0.56350933  1.0
  Pd  Pd23  1  0.85450311  0.43649067  -0.14549689  1.0
