# generated using pymatgen
data_Na2ZrO3
_symmetry_space_group_name_H-M   'P 1'
_cell_length_a   5.67322798
_cell_length_b   5.67322798
_cell_length_c   11.25392037
_cell_angle_alpha   85.03116072
_cell_angle_beta   94.96883928
_cell_angle_gamma   59.92596474
_symmetry_Int_Tables_number   1
_chemical_formula_structural   Na2ZrO3
_chemical_formula_sum   'Na8 Zr4 O12'
_cell_volume   308.70203845
_cell_formula_units_Z   4
loop_
 _symmetry_equiv_pos_site_id
 _symmetry_equiv_pos_as_xyz
  1  'x, y, z'
loop_
 _atom_site_type_symbol
 _atom_site_label
 _atom_site_symmetry_multiplicity
 _atom_site_fract_x
 _atom_site_fract_y
 _atom_site_fract_z
 _atom_site_occupancy
  Na  Na0  1  0.65906327  0.18209600  0.99971722  1.0
  Na  Na1  1  0.81790400  -0.65906327  0.49971722  1.0
  Na  Na2  1  1.18209600  -0.34093673  0.50028278  1.0
  Na  Na3  1  0.34093673  -0.18209600  0.00028278  1.0
  Na  Na4  1  0.58531035  -0.41468965  0.75000000  1.0
  Na  Na5  1  0.41468965  0.41468965  0.25000000  1.0
  Na  Na6  1  0.50000000  0.00000000  0.50000000  1.0
  Na  Na7  1  1.00000000  -0.50000000  -0.00000000  1.0
  Zr  Zr8  1  0.91851601  -0.08148399  0.75000000  1.0
  Zr  Zr9  1  0.08148399  0.08148399  0.25000000  1.0
  Zr  Zr10  1  0.25082551  0.25082551  0.75000000  1.0
  Zr  Zr11  1  0.74917449  -0.25082551  0.25000000  1.0
  O  O12  1  0.82289684  0.00650166  0.35426838  1.0
  O  O13  1  0.99349834  -0.82289684  0.85426838  1.0
  O  O14  1  1.00650166  -0.17710316  0.14573162  1.0
  O  O15  1  0.17710316  -0.00650166  0.64573162  1.0
  O  O16  1  0.62091366  -0.07653778  0.85394485  1.0
  O  O17  1  1.07653778  -0.62091366  0.35394485  1.0
  O  O18  1  0.92346222  -0.37908634  0.64605515  1.0
  O  O19  1  0.37908634  0.07653778  0.14605515  1.0
  O  O20  1  0.54894443  0.24955888  0.64365241  1.0
  O  O21  1  0.75044112  -0.54894443  0.14365241  1.0
  O  O22  1  1.24955888  -0.45105557  0.85634759  1.0
  O  O23  1  0.45105557  -0.24955888  0.35634759  1.0
