# generated using pymatgen
data_CaZn2(PO4)2
_symmetry_space_group_name_H-M   'P 1'
_cell_length_a   8.52443459
_cell_length_b   5.03944710
_cell_length_c   9.08644074
_cell_angle_alpha   102.15473854
_cell_angle_beta   113.44681308
_cell_angle_gamma   94.12905966
_symmetry_Int_Tables_number   1
_chemical_formula_structural   CaZn2(PO4)2
_chemical_formula_sum   'Ca2 Zn4 P4 O16'
_cell_volume   344.75953836
_cell_formula_units_Z   2
loop_
 _symmetry_equiv_pos_site_id
 _symmetry_equiv_pos_as_xyz
  1  'x, y, z'
loop_
 _atom_site_type_symbol
 _atom_site_label
 _atom_site_symmetry_multiplicity
 _atom_site_fract_x
 _atom_site_fract_y
 _atom_site_fract_z
 _atom_site_occupancy
  Ca  Ca0  1  -0.23223471  -0.72472305  -0.55239590  1.0
  Ca  Ca1  1  -0.76776529  -0.27527695  -0.44760410  1.0
  Zn  Zn2  1  -0.11073033  -0.88400291  -0.91187748  1.0
  Zn  Zn3  1  -0.88926967  -0.11599709  -0.08812252  1.0
  Zn  Zn4  1  -0.58337364  -0.34198591  -0.78785797  1.0
  Zn  Zn5  1  -0.41662636  -0.65801409  -0.21214203  1.0
  P  P6  1  -0.70905736  -0.82032890  -0.68198044  1.0
  P  P7  1  -0.29094264  -0.17967110  -0.31801956  1.0
  P  P8  1  -0.78047623  -0.60894146  -0.19725711  1.0
  P  P9  1  -0.21952377  -0.39105854  -0.80274289  1.0
  O  O10  1  -0.55162360  -0.94219688  -0.69876191  1.0
  O  O11  1  -0.44837640  -0.05780312  -0.30123809  1.0
  O  O12  1  -0.86781400  -0.93301928  -0.85861552  1.0
  O  O13  1  -0.13218600  -0.06698072  -0.14138448  1.0
  O  O14  1  -0.78759386  -0.92130771  -0.20427039  1.0
  O  O15  1  -0.21240614  -0.07869229  -0.79572961  1.0
  O  O16  1  -0.75799815  -0.89178896  -0.54915783  1.0
  O  O17  1  -0.24200185  -0.10821104  -0.45084217  1.0
  O  O18  1  -0.22727521  -0.56241446  -0.97483611  1.0
  O  O19  1  -0.77272479  -0.43758554  -0.02516389  1.0
  O  O20  1  -0.93901711  -0.53902857  -0.33279850  1.0
  O  O21  1  -0.06098289  -0.46097143  -0.66720150  1.0
  O  O22  1  -0.38365488  -0.50554930  -0.78494180  1.0
  O  O23  1  -0.61634512  -0.49445070  -0.21505820  1.0
  O  O24  1  -0.67075704  -0.49926896  -0.64771996  1.0
  O  O25  1  -0.32924296  -0.50073104  -0.35228004  1.0
