# generated using pymatgen
data_Pd(Se4Cl)2
_symmetry_space_group_name_H-M   'P 1'
_cell_length_a   9.21666519
_cell_length_b   14.43018074
_cell_length_c   10.37122642
_cell_angle_alpha   90.00000000
_cell_angle_beta   90.00000000
_cell_angle_gamma   90.00000000
_symmetry_Int_Tables_number   1
_chemical_formula_structural   Pd(Se4Cl)2
_chemical_formula_sum   'Pd4 Se32 Cl8'
_cell_volume   1379.35386929
_cell_formula_units_Z   4
loop_
 _symmetry_equiv_pos_site_id
 _symmetry_equiv_pos_as_xyz
  1  'x, y, z'
loop_
 _atom_site_type_symbol
 _atom_site_label
 _atom_site_symmetry_multiplicity
 _atom_site_fract_x
 _atom_site_fract_y
 _atom_site_fract_z
 _atom_site_occupancy
  Pd  Pd0  1  0.50000000  0.50000000  0.00000000  1.0
  Pd  Pd1  1  0.50000000  0.00000000  0.50000000  1.0
  Pd  Pd2  1  0.00000000  0.50000000  0.50000000  1.0
  Pd  Pd3  1  0.00000000  0.00000000  0.00000000  1.0
  Se  Se4  1  0.42521949  0.38337427  0.37927519  1.0
  Se  Se5  1  0.42521949  0.11662573  0.87927519  1.0
  Se  Se6  1  0.92521949  0.38337427  0.12072481  1.0
  Se  Se7  1  0.92521949  0.11662573  0.62072481  1.0
  Se  Se8  1  0.57478051  0.88337427  0.12072481  1.0
  Se  Se9  1  0.57478051  0.61662573  0.62072481  1.0
  Se  Se10  1  0.07478051  0.88337427  0.37927519  1.0
  Se  Se11  1  0.07478051  0.61662573  0.87927519  1.0
  Se  Se12  1  0.40972405  0.28595274  0.20055934  1.0
  Se  Se13  1  0.40972405  0.21404726  0.70055934  1.0
  Se  Se14  1  0.90972405  0.28595274  0.29944066  1.0
  Se  Se15  1  0.90972405  0.21404726  0.79944066  1.0
  Se  Se16  1  0.59027595  0.78595274  0.29944066  1.0
  Se  Se17  1  0.59027595  0.71404726  0.79944066  1.0
  Se  Se18  1  0.09027595  0.78595274  0.20055934  1.0
  Se  Se19  1  0.09027595  0.71404726  0.70055934  1.0
  Se  Se20  1  0.30518227  0.38867337  0.03681900  1.0
  Se  Se21  1  0.30518227  0.11132663  0.53681900  1.0
  Se  Se22  1  0.80518227  0.38867337  0.46318100  1.0
  Se  Se23  1  0.80518227  0.11132663  0.96318100  1.0
  Se  Se24  1  0.69481773  0.88867337  0.46318100  1.0
  Se  Se25  1  0.69481773  0.61132663  0.96318100  1.0
  Se  Se26  1  0.19481773  0.88867337  0.03681900  1.0
  Se  Se27  1  0.19481773  0.61132663  0.53681900  1.0
  Se  Se28  1  0.13167752  0.47824124  0.15581799  1.0
  Se  Se29  1  0.13167752  0.02175876  0.65581799  1.0
  Se  Se30  1  0.63167752  0.47824124  0.34418201  1.0
  Se  Se31  1  0.63167752  0.02175876  0.84418201  1.0
  Se  Se32  1  0.86832248  0.97824124  0.34418201  1.0
  Se  Se33  1  0.86832248  0.52175876  0.84418201  1.0
  Se  Se34  1  0.36832248  0.97824124  0.15581799  1.0
  Se  Se35  1  0.36832248  0.52175876  0.65581799  1.0
  Cl  Cl36  1  0.08236526  0.10299141  0.15755944  1.0
  Cl  Cl37  1  0.08236526  0.39700859  0.65755944  1.0
  Cl  Cl38  1  0.58236526  0.10299141  0.34244056  1.0
  Cl  Cl39  1  0.58236526  0.39700859  0.84244056  1.0
  Cl  Cl40  1  0.91763474  0.60299141  0.34244056  1.0
  Cl  Cl41  1  0.91763474  0.89700859  0.84244056  1.0
  Cl  Cl42  1  0.41763474  0.60299141  0.15755944  1.0
  Cl  Cl43  1  0.41763474  0.89700859  0.65755944  1.0
