# generated using pymatgen
data_Y2Co14Cu3
_symmetry_space_group_name_H-M   'P 1'
_cell_length_a   8.32686916
_cell_length_b   8.32686916
_cell_length_c   8.14233835
_cell_angle_alpha   90.00000000
_cell_angle_beta   90.00000000
_cell_angle_gamma   120.00000000
_symmetry_Int_Tables_number   1
_chemical_formula_structural   Y2Co14Cu3
_chemical_formula_sum   'Y4 Co28 Cu6'
_cell_volume   488.92614155
_cell_formula_units_Z   2
loop_
 _symmetry_equiv_pos_site_id
 _symmetry_equiv_pos_as_xyz
  1  'x, y, z'
loop_
 _atom_site_type_symbol
 _atom_site_label
 _atom_site_symmetry_multiplicity
 _atom_site_fract_x
 _atom_site_fract_y
 _atom_site_fract_z
 _atom_site_occupancy
  Y  Y0  1  0.00000000  0.00000000  0.25000000  1.0
  Y  Y1  1  0.00000000  0.00000000  0.75000000  1.0
  Y  Y2  1  0.33333333  0.66666667  0.75000000  1.0
  Y  Y3  1  0.66666667  0.33333333  0.25000000  1.0
  Co  Co4  1  0.33333333  0.66666667  0.38967494  1.0
  Co  Co5  1  0.66666667  0.33333333  0.61032506  1.0
  Co  Co6  1  0.66666667  0.33333333  0.88967494  1.0
  Co  Co7  1  0.33333333  0.66666667  0.11032506  1.0
  Co  Co8  1  0.32643957  0.37374427  0.25000000  1.0
  Co  Co9  1  0.62625573  0.95269530  0.25000000  1.0
  Co  Co10  1  0.04730470  0.67356043  0.25000000  1.0
  Co  Co11  1  0.62625573  0.67356043  0.25000000  1.0
  Co  Co12  1  0.04730470  0.37374427  0.25000000  1.0
  Co  Co13  1  0.32643957  0.95269530  0.25000000  1.0
  Co  Co14  1  0.67356043  0.62625573  0.75000000  1.0
  Co  Co15  1  0.37374427  0.04730470  0.75000000  1.0
  Co  Co16  1  0.95269530  0.32643957  0.75000000  1.0
  Co  Co17  1  0.37374427  0.32643957  0.75000000  1.0
  Co  Co18  1  0.95269530  0.62625573  0.75000000  1.0
  Co  Co19  1  0.67356043  0.04730470  0.75000000  1.0
  Co  Co20  1  0.16161166  0.83838834  0.51639910  1.0
  Co  Co21  1  0.16161166  0.32322333  0.51639910  1.0
  Co  Co22  1  0.67677667  0.83838834  0.51639910  1.0
  Co  Co23  1  0.83838834  0.16161166  0.48360090  1.0
  Co  Co24  1  0.83838834  0.67677667  0.48360090  1.0
  Co  Co25  1  0.32322333  0.16161166  0.48360090  1.0
  Co  Co26  1  0.83838834  0.16161166  0.01639910  1.0
  Co  Co27  1  0.83838834  0.67677667  0.01639910  1.0
  Co  Co28  1  0.32322333  0.16161166  0.01639910  1.0
  Co  Co29  1  0.16161166  0.83838834  -0.01639910  1.0
  Co  Co30  1  0.16161166  0.32322333  -0.01639910  1.0
  Co  Co31  1  0.67677667  0.83838834  -0.01639910  1.0
  Cu  Cu32  1  0.50000000  0.50000000  0.50000000  1.0
  Cu  Cu33  1  0.50000000  0.00000000  0.50000000  1.0
  Cu  Cu34  1  0.00000000  0.50000000  0.50000000  1.0
  Cu  Cu35  1  0.50000000  0.50000000  0.00000000  1.0
  Cu  Cu36  1  0.50000000  0.00000000  0.00000000  1.0
  Cu  Cu37  1  0.00000000  0.50000000  0.00000000  1.0
