# generated using pymatgen
data_La2Mg17
_symmetry_space_group_name_H-M   'P 1'
_cell_length_a   10.35155688
_cell_length_b   10.35155688
_cell_length_c   10.16596767
_cell_angle_alpha   90.00000000
_cell_angle_beta   90.00000000
_cell_angle_gamma   120.00000000
_symmetry_Int_Tables_number   1
_chemical_formula_structural   La2Mg17
_chemical_formula_sum   'La4 Mg34'
_cell_volume   943.38876892
_cell_formula_units_Z   2
loop_
 _symmetry_equiv_pos_site_id
 _symmetry_equiv_pos_as_xyz
  1  'x, y, z'
loop_
 _atom_site_type_symbol
 _atom_site_label
 _atom_site_symmetry_multiplicity
 _atom_site_fract_x
 _atom_site_fract_y
 _atom_site_fract_z
 _atom_site_occupancy
  La  La0  1  0.33333333  0.66666667  0.25000000  1.0
  La  La1  1  0.66666667  0.33333333  0.75000000  1.0
  La  La2  1  -0.00000000  -0.00000000  0.25000000  1.0
  La  La3  1  -0.00000000  -0.00000000  0.75000000  1.0
  Mg  Mg4  1  0.50000000  0.50000000  0.50000000  1.0
  Mg  Mg5  1  0.50000000  0.50000000  -0.00000000  1.0
  Mg  Mg6  1  0.50000000  0.00000000  0.50000000  1.0
  Mg  Mg7  1  0.50000000  -0.00000000  0.00000000  1.0
  Mg  Mg8  1  0.00000000  0.50000000  0.50000000  1.0
  Mg  Mg9  1  0.00000000  0.50000000  -0.00000000  1.0
  Mg  Mg10  1  0.16260720  0.83739280  0.47852929  1.0
  Mg  Mg11  1  0.16260720  0.83739280  0.02147071  1.0
  Mg  Mg12  1  0.16260720  0.32521441  0.47852929  1.0
  Mg  Mg13  1  0.16260720  0.32521441  0.02147071  1.0
  Mg  Mg14  1  0.83739280  0.16260720  -0.02147071  1.0
  Mg  Mg15  1  0.83739280  0.16260720  0.52147071  1.0
  Mg  Mg16  1  0.83739280  0.67478559  -0.02147071  1.0
  Mg  Mg17  1  0.83739280  0.67478559  0.52147071  1.0
  Mg  Mg18  1  0.67478559  0.83739280  0.47852929  1.0
  Mg  Mg19  1  0.67478559  0.83739280  0.02147071  1.0
  Mg  Mg20  1  0.32521441  0.16260720  -0.02147071  1.0
  Mg  Mg21  1  0.32521441  0.16260720  0.52147071  1.0
  Mg  Mg22  1  0.36440868  0.03607803  0.25000000  1.0
  Mg  Mg23  1  0.36440868  0.32833065  0.25000000  1.0
  Mg  Mg24  1  0.03607803  0.36440868  0.75000000  1.0
  Mg  Mg25  1  0.03607803  0.67166935  0.75000000  1.0
  Mg  Mg26  1  0.67166935  0.03607803  0.25000000  1.0
  Mg  Mg27  1  0.67166935  0.63559132  0.25000000  1.0
  Mg  Mg28  1  -0.03607803  0.63559132  0.25000000  1.0
  Mg  Mg29  1  -0.03607803  0.32833065  0.25000000  1.0
  Mg  Mg30  1  0.63559132  0.67166935  0.75000000  1.0
  Mg  Mg31  1  0.63559132  -0.03607803  0.75000000  1.0
  Mg  Mg32  1  0.32833065  0.36440868  0.75000000  1.0
  Mg  Mg33  1  0.32833065  -0.03607803  0.75000000  1.0
  Mg  Mg34  1  0.33333333  0.66666667  0.89905321  1.0
  Mg  Mg35  1  0.33333333  0.66666667  0.60094679  1.0
  Mg  Mg36  1  0.66666667  0.33333333  0.39905321  1.0
  Mg  Mg37  1  0.66666667  0.33333333  0.10094679  1.0
