# generated using pymatgen
data_AlF3
_symmetry_space_group_name_H-M   'P 1'
_cell_length_a   5.13289891
_cell_length_b   5.13289891
_cell_length_c   5.13289891
_cell_angle_alpha   59.37794778
_cell_angle_beta   59.37794778
_cell_angle_gamma   59.37794778
_symmetry_Int_Tables_number   1
_chemical_formula_structural   AlF3
_chemical_formula_sum   'Al2 F6'
_cell_volume   94.27154889
_cell_formula_units_Z   2
loop_
 _symmetry_equiv_pos_site_id
 _symmetry_equiv_pos_as_xyz
  1  'x, y, z'
loop_
 _atom_site_type_symbol
 _atom_site_label
 _atom_site_symmetry_multiplicity
 _atom_site_fract_x
 _atom_site_fract_y
 _atom_site_fract_z
 _atom_site_occupancy
  Al  Al0  1  1.00000000  -0.00000000  -0.00000000  1.0
  Al  Al1  1  0.50000000  0.50000000  0.50000000  1.0
  F  F2  1  1.30140383  -0.25000000  0.19859617  1.0
  F  F3  1  0.80140383  -0.30140383  0.25000000  1.0
  F  F4  1  0.25000000  0.80140383  -0.30140383  1.0
  F  F5  1  0.75000000  0.19859617  0.30140383  1.0
  F  F6  1  0.69859617  0.25000000  -0.19859617  1.0
  F  F7  1  1.19859617  0.30140383  -0.25000000  1.0
