# generated using pymatgen
data_TlCr(MoO4)2
_symmetry_space_group_name_H-M   'P 1'
_cell_length_a   15.62612143
_cell_length_b   5.67287940
_cell_length_c   9.13352792
_cell_angle_alpha   90.00000000
_cell_angle_beta   90.00000000
_cell_angle_gamma   90.00000000
_symmetry_Int_Tables_number   1
_chemical_formula_structural   TlCr(MoO4)2
_chemical_formula_sum   'Tl4 Cr4 Mo8 O32'
_cell_volume   809.64251721
_cell_formula_units_Z   4
loop_
 _symmetry_equiv_pos_site_id
 _symmetry_equiv_pos_as_xyz
  1  'x, y, z'
loop_
 _atom_site_type_symbol
 _atom_site_label
 _atom_site_symmetry_multiplicity
 _atom_site_fract_x
 _atom_site_fract_y
 _atom_site_fract_z
 _atom_site_occupancy
  Tl  Tl0  1  0.11576477  0.75000000  0.94791154  1.0
  Tl  Tl1  1  0.61576477  0.75000000  0.55208846  1.0
  Tl  Tl2  1  0.88423523  0.25000000  0.05208846  1.0
  Tl  Tl3  1  0.38423523  0.25000000  0.44791154  1.0
  Cr  Cr4  1  0.36474721  0.75000000  0.85756424  1.0
  Cr  Cr5  1  0.86474721  0.75000000  0.64243576  1.0
  Cr  Cr6  1  0.63525279  0.25000000  0.14243576  1.0
  Cr  Cr7  1  0.13525279  0.25000000  0.35756424  1.0
  Mo  Mo8  1  0.48964909  0.75000000  0.20232969  1.0
  Mo  Mo9  1  0.98964909  0.75000000  0.29767031  1.0
  Mo  Mo10  1  0.51035091  0.25000000  0.79767031  1.0
  Mo  Mo11  1  0.01035091  0.25000000  0.70232969  1.0
  Mo  Mo12  1  0.21781180  0.75000000  0.54474962  1.0
  Mo  Mo13  1  0.71781180  0.75000000  0.95525038  1.0
  Mo  Mo14  1  0.78218820  0.25000000  0.45525038  1.0
  Mo  Mo15  1  0.28218820  0.25000000  0.04474962  1.0
  O  O16  1  0.44248012  0.50400683  0.78976477  1.0
  O  O17  1  0.44248012  -0.00400683  0.78976477  1.0
  O  O18  1  0.94248012  0.50400683  0.71023523  1.0
  O  O19  1  0.94248012  -0.00400683  0.71023523  1.0
  O  O20  1  0.55751988  1.00400683  0.21023523  1.0
  O  O21  1  0.55751988  0.49599317  0.21023523  1.0
  O  O22  1  0.05751988  1.00400683  0.28976477  1.0
  O  O23  1  0.05751988  0.49599317  0.28976477  1.0
  O  O24  1  0.28185178  0.98917882  0.93098353  1.0
  O  O25  1  0.28185178  0.51082118  0.93098353  1.0
  O  O26  1  0.78185178  0.98917882  0.56901647  1.0
  O  O27  1  0.78185178  0.51082118  0.56901647  1.0
  O  O28  1  0.71814822  0.48917882  0.06901647  1.0
  O  O29  1  0.71814822  0.01082118  0.06901647  1.0
  O  O30  1  0.21814822  0.48917882  0.43098353  1.0
  O  O31  1  0.21814822  0.01082118  0.43098353  1.0
  O  O32  1  0.42300119  0.75000000  0.04398901  1.0
  O  O33  1  0.92300119  0.75000000  0.45601099  1.0
  O  O34  1  0.57699881  0.25000000  0.95601099  1.0
  O  O35  1  0.07699881  0.25000000  0.54398901  1.0
  O  O36  1  0.42606563  0.75000000  0.36036531  1.0
  O  O37  1  0.92606563  0.75000000  0.13963469  1.0
  O  O38  1  0.57393437  0.25000000  0.63963469  1.0
  O  O39  1  0.07393437  0.25000000  0.86036531  1.0
  O  O40  1  0.30923336  0.75000000  0.66201703  1.0
  O  O41  1  0.80923336  0.75000000  0.83798297  1.0
  O  O42  1  0.69076664  0.25000000  0.33798297  1.0
  O  O43  1  0.19076664  0.25000000  0.16201703  1.0
  O  O44  1  0.12691467  0.75000000  0.65314769  1.0
  O  O45  1  0.62691467  0.75000000  0.84685231  1.0
  O  O46  1  0.87308533  0.25000000  0.34685231  1.0
  O  O47  1  0.37308533  0.25000000  0.15314769  1.0
