# generated using pymatgen
data_BeBr2
_symmetry_space_group_name_H-M   'P 1'
_cell_length_a   7.14705851
_cell_length_b   7.14705851
_cell_length_c   7.14705851
_cell_angle_alpha   128.17500284
_cell_angle_beta   71.78857499
_cell_angle_gamma   133.98411101
_symmetry_Int_Tables_number   1
_chemical_formula_structural   BeBr2
_chemical_formula_sum   'Be2 Br4'
_cell_volume   202.05983651
_cell_formula_units_Z   2
loop_
 _symmetry_equiv_pos_site_id
 _symmetry_equiv_pos_as_xyz
  1  'x, y, z'
loop_
 _atom_site_type_symbol
 _atom_site_label
 _atom_site_symmetry_multiplicity
 _atom_site_fract_x
 _atom_site_fract_y
 _atom_site_fract_z
 _atom_site_occupancy
  Be  Be0  1  0.25000000  0.25000000  -0.00000000  1.0
  Be  Be1  1  0.75000000  0.75000000  0.00000000  1.0
  Br  Br2  1  0.39618247  0.30771648  0.70389895  1.0
  Br  Br3  1  0.10381753  0.80771648  0.91153401  1.0
  Br  Br4  1  0.89618247  1.19228352  1.08846599  1.0
  Br  Br5  1  0.60381753  0.69228352  0.29610105  1.0
