# generated using pymatgen
data_SrMn3(PO4)3
_symmetry_space_group_name_H-M   'P 1'
_cell_length_a   9.32230439
_cell_length_b   9.32230439
_cell_length_c   9.32230439
_cell_angle_alpha   83.39521785
_cell_angle_beta   111.88800940
_cell_angle_gamma   137.92142276
_symmetry_Int_Tables_number   1
_chemical_formula_structural   SrMn3(PO4)3
_chemical_formula_sum   'Sr2 Mn6 P6 O24'
_cell_volume   486.46386325
_cell_formula_units_Z   2
loop_
 _symmetry_equiv_pos_site_id
 _symmetry_equiv_pos_as_xyz
  1  'x, y, z'
loop_
 _atom_site_type_symbol
 _atom_site_label
 _atom_site_symmetry_multiplicity
 _atom_site_fract_x
 _atom_site_fract_y
 _atom_site_fract_z
 _atom_site_occupancy
  Sr  Sr0  1  1.60552971  1.35552971  1.25000000  1.0
  Sr  Sr1  1  1.39447029  0.64447029  0.75000000  1.0
  Mn  Mn2  1  0.00000000  0.11830093  0.11830093  1.0
  Mn  Mn3  1  0.50000000  0.11830093  0.61830093  1.0
  Mn  Mn4  1  0.50000000  0.88169907  0.38169907  1.0
  Mn  Mn5  1  1.00000000  0.88169907  0.88169907  1.0
  Mn  Mn6  1  1.00000000  1.00000000  0.50000000  1.0
  Mn  Mn7  1  1.00000000  0.50000000  1.00000000  1.0
  P  P8  1  1.00000000  0.67763670  0.67763670  1.0
  P  P9  1  0.50000000  0.67763670  0.17763670  1.0
  P  P10  1  0.50000000  0.32236330  0.82236330  1.0
  P  P11  1  0.00000000  0.32236330  0.32236330  1.0
  P  P12  1  1.08957327  0.83957327  1.25000000  1.0
  P  P13  1  0.91042673  0.16042673  0.75000000  1.0
  O  O14  1  1.05887612  1.19518883  0.35707754  1.0
  O  O15  1  0.66188872  0.29820142  0.85707754  1.0
  O  O16  1  0.66188872  0.80481117  0.36368730  1.0
  O  O17  1  1.05887612  0.70179858  0.86368730  1.0
  O  O18  1  1.33811128  1.19518883  0.63631270  1.0
  O  O19  1  0.94112388  0.29820142  1.13631270  1.0
  O  O20  1  0.94112388  0.80481117  0.64292246  1.0
  O  O21  1  1.33811128  0.70179858  1.14292246  1.0
  O  O22  1  0.36688054  0.43818152  0.16149116  1.0
  O  O23  1  1.22330964  0.79461062  0.66149116  1.0
  O  O24  1  0.22330964  0.56181848  0.42869902  1.0
  O  O25  1  1.36688054  1.20538938  0.92869902  1.0
  O  O26  1  0.77669036  0.43818152  0.57130098  1.0
  O  O27  1  1.63311946  0.79461062  1.07130098  1.0
  O  O28  1  0.63311946  0.56181848  0.83850884  1.0
  O  O29  1  1.77669036  1.20538938  1.33850884  1.0
  O  O30  1  1.11972293  0.98762563  1.13209731  1.0
  O  O31  1  0.64447168  0.01237437  0.63209731  1.0
  O  O32  1  1.35552832  0.98762563  1.36790269  1.0
  O  O33  1  0.88027707  0.01237437  0.86790269  1.0
  O  O34  1  1.04399971  0.38407702  0.84007731  1.0
  O  O35  1  0.95600029  0.79607761  1.34007731  1.0
  O  O36  1  0.95600029  0.61592298  1.15992269  1.0
  O  O37  1  1.04399971  1.20392239  1.65992269  1.0
