# generated using pymatgen
data_LuCo5P3
_symmetry_space_group_name_H-M   'P 1'
_cell_length_a   11.67343370
_cell_length_b   3.61384436
_cell_length_c   10.21650956
_cell_angle_alpha   90.00000000
_cell_angle_beta   90.00000000
_cell_angle_gamma   90.00000000
_symmetry_Int_Tables_number   1
_chemical_formula_structural   LuCo5P3
_chemical_formula_sum   'Lu4 Co20 P12'
_cell_volume   430.99339157
_cell_formula_units_Z   4
loop_
 _symmetry_equiv_pos_site_id
 _symmetry_equiv_pos_as_xyz
  1  'x, y, z'
loop_
 _atom_site_type_symbol
 _atom_site_label
 _atom_site_symmetry_multiplicity
 _atom_site_fract_x
 _atom_site_fract_y
 _atom_site_fract_z
 _atom_site_occupancy
  Co  Co0  1  0.43154170  0.75000000  0.53306041  1.0
  Co  Co1  1  0.93154170  0.75000000  0.96693959  1.0
  Co  Co2  1  0.56845830  0.25000000  0.46693959  1.0
  Co  Co3  1  0.06845830  0.25000000  0.03306041  1.0
  Co  Co4  1  0.19902141  0.75000000  0.11728889  1.0
  Co  Co5  1  0.69902141  0.75000000  0.38271111  1.0
  Co  Co6  1  0.80097859  0.25000000  0.88271111  1.0
  Co  Co7  1  0.30097859  0.25000000  0.61728889  1.0
  Co  Co8  1  0.17657671  0.75000000  0.72162447  1.0
  Co  Co9  1  0.67657671  0.75000000  0.77837553  1.0
  Co  Co10  1  0.82342329  0.25000000  0.27837553  1.0
  Co  Co11  1  0.32342329  0.25000000  0.22162447  1.0
  Co  Co12  1  0.49194742  0.75000000  0.28246707  1.0
  Co  Co13  1  0.99194742  0.75000000  0.21753293  1.0
  Co  Co14  1  0.50805258  0.25000000  0.71753293  1.0
  Co  Co15  1  0.00805258  0.25000000  0.78246707  1.0
  Co  Co16  1  0.48704743  0.75000000  0.90744768  1.0
  Co  Co17  1  0.98704743  0.75000000  0.59255232  1.0
  Co  Co18  1  0.51295257  0.25000000  0.09255232  1.0
  Co  Co19  1  0.01295257  0.25000000  0.40744768  1.0
  Lu  Lu20  1  0.20305497  0.75000000  0.41751871  1.0
  Lu  Lu21  1  0.70305497  0.75000000  0.08248129  1.0
  Lu  Lu22  1  0.79694503  0.25000000  0.58248129  1.0
  Lu  Lu23  1  0.29694503  0.25000000  0.91751871  1.0
  P  P24  1  0.39034475  0.75000000  0.10030393  1.0
  P  P25  1  0.89034475  0.75000000  0.39969607  1.0
  P  P26  1  0.60965525  0.25000000  0.89969607  1.0
  P  P27  1  0.10965525  0.25000000  0.60030393  1.0
  P  P28  1  0.36979630  0.75000000  0.73171873  1.0
  P  P29  1  0.86979630  0.75000000  0.76828127  1.0
  P  P30  1  0.63020370  0.25000000  0.26828127  1.0
  P  P31  1  0.13020370  0.25000000  0.23171873  1.0
  P  P32  1  0.11332328  0.75000000  0.91864507  1.0
  P  P33  1  0.61332328  0.75000000  0.58135493  1.0
  P  P34  1  0.88667672  0.25000000  0.08135493  1.0
  P  P35  1  0.38667672  0.25000000  0.41864507  1.0
