# generated using pymatgen
data_SrGaGe
_symmetry_space_group_name_H-M   'P 1'
_cell_length_a   4.31124632
_cell_length_b   4.31124632
_cell_length_c   19.02443007
_cell_angle_alpha   90.00000000
_cell_angle_beta   90.00000000
_cell_angle_gamma   120.00000000
_symmetry_Int_Tables_number   1
_chemical_formula_structural   SrGaGe
_chemical_formula_sum   'Sr4 Ga4 Ge4'
_cell_volume   306.23015905
_cell_formula_units_Z   4
loop_
 _symmetry_equiv_pos_site_id
 _symmetry_equiv_pos_as_xyz
  1  'x, y, z'
loop_
 _atom_site_type_symbol
 _atom_site_label
 _atom_site_symmetry_multiplicity
 _atom_site_fract_x
 _atom_site_fract_y
 _atom_site_fract_z
 _atom_site_occupancy
  Sr  Sr0  1  0.00000000  0.00000000  0.25000000  1.0
  Sr  Sr1  1  0.00000000  0.00000000  0.75000000  1.0
  Sr  Sr2  1  0.00000000  0.00000000  0.50000000  1.0
  Sr  Sr3  1  0.00000000  0.00000000  0.00000000  1.0
  Ga  Ga4  1  0.33333333  0.66666667  0.35471823  1.0
  Ga  Ga5  1  0.33333333  0.66666667  0.14528177  1.0
  Ga  Ga6  1  0.66666667  0.33333333  0.85471823  1.0
  Ga  Ga7  1  0.66666667  0.33333333  0.64528177  1.0
  Ge  Ge8  1  0.33333333  0.66666667  0.88843351  1.0
  Ge  Ge9  1  0.33333333  0.66666667  0.61156649  1.0
  Ge  Ge10  1  0.66666667  0.33333333  0.38843351  1.0
  Ge  Ge11  1  0.66666667  0.33333333  0.11156649  1.0
