# generated using pymatgen
data_HfCu2Te3
_symmetry_space_group_name_H-M   'P 1'
_cell_length_a   10.44879135
_cell_length_b   10.44879135
_cell_length_c   7.34513061
_cell_angle_alpha   81.61324360
_cell_angle_beta   98.38675640
_cell_angle_gamma   157.39172950
_symmetry_Int_Tables_number   1
_chemical_formula_structural   HfCu2Te3
_chemical_formula_sum   'Hf2 Cu4 Te6'
_cell_volume   304.85217813
_cell_formula_units_Z   2
loop_
 _symmetry_equiv_pos_site_id
 _symmetry_equiv_pos_as_xyz
  1  'x, y, z'
loop_
 _atom_site_type_symbol
 _atom_site_label
 _atom_site_symmetry_multiplicity
 _atom_site_fract_x
 _atom_site_fract_y
 _atom_site_fract_z
 _atom_site_occupancy
  Hf  Hf0  1  0.85420065  -0.85420065  0.94558169  1.0
  Hf  Hf1  1  1.14579935  -0.14579935  0.05441831  1.0
  Cu  Cu2  1  0.78620808  -0.78620808  0.57405536  1.0
  Cu  Cu3  1  1.21379192  -0.21379192  0.42594464  1.0
  Cu  Cu4  1  1.45133397  -0.45133397  0.85117949  1.0
  Cu  Cu5  1  0.54866603  -0.54866603  0.14882051  1.0
  Te  Te6  1  0.58166997  -0.58166997  0.81958624  1.0
  Te  Te7  1  1.41833003  -0.41833003  0.18041376  1.0
  Te  Te8  1  0.91620041  -0.91620041  0.63541824  1.0
  Te  Te9  1  1.08379959  -0.08379959  0.36458176  1.0
  Te  Te10  1  1.25086696  -0.25086696  0.78682489  1.0
  Te  Te11  1  0.74913304  -0.74913304  0.21317511  1.0
