# generated using pymatgen
data_Co3Ag(AsO4)3
_symmetry_space_group_name_H-M   'P 1'
_cell_length_a   8.75659667
_cell_length_b   8.75659667
_cell_length_c   6.66575503
_cell_angle_alpha   76.43777930
_cell_angle_beta   103.56222070
_cell_angle_gamma   85.55766410
_symmetry_Int_Tables_number   1
_chemical_formula_structural   Co3Ag(AsO4)3
_chemical_formula_sum   'Co6 Ag2 As6 O24'
_cell_volume   478.24252607
_cell_formula_units_Z   2
loop_
 _symmetry_equiv_pos_site_id
 _symmetry_equiv_pos_as_xyz
  1  'x, y, z'
loop_
 _atom_site_type_symbol
 _atom_site_label
 _atom_site_symmetry_multiplicity
 _atom_site_fract_x
 _atom_site_fract_y
 _atom_site_fract_z
 _atom_site_occupancy
  Co  Co0  1  0.38024482  -0.05639157  0.61369444  1.0
  Co  Co1  1  1.05639157  0.61975518  0.11369444  1.0
  Co  Co2  1  0.94360843  -0.61975518  0.88630556  1.0
  Co  Co3  1  1.61975518  0.05639157  0.38630556  1.0
  Co  Co4  1  1.27911917  0.27911917  0.75000000  1.0
  Co  Co5  1  0.72088083  -0.27911917  0.25000000  1.0
  Ag  Ag6  1  0.99929500  -0.00070500  0.75000000  1.0
  Ag  Ag7  1  1.00070500  0.00070500  0.25000000  1.0
  As  As8  1  0.69333419  -0.30666581  0.75000000  1.0
  As  As9  1  1.30666581  0.30666581  0.25000000  1.0
  As  As10  1  1.65234376  0.12264150  0.89014696  1.0
  As  As11  1  0.87735850  -0.65234376  0.39014696  1.0
  As  As12  1  1.12264150  0.65234376  0.60985304  1.0
  As  As13  1  0.34765624  -0.12264150  0.10985304  1.0
  O  O14  1  0.73417892  -0.19489850  0.51313450  1.0
  O  O15  1  1.19489850  0.26582108  0.01313450  1.0
  O  O16  1  0.80510150  -0.26582108  0.98686550  1.0
  O  O17  1  1.26582108  0.19489850  0.48686550  1.0
  O  O18  1  0.49167989  -0.26342683  0.72708682  1.0
  O  O19  1  1.26342683  0.50832011  0.22708682  1.0
  O  O20  1  0.73657317  -0.50832011  0.77291318  1.0
  O  O21  1  1.50832011  0.26342683  0.27291318  1.0
  O  O22  1  1.83289637  0.15222844  0.41469130  1.0
  O  O23  1  0.84777156  -0.83289637  0.91469130  1.0
  O  O24  1  1.15222844  0.83289637  0.08530870  1.0
  O  O25  1  0.16710363  -0.15222844  0.58530870  1.0
  O  O26  1  1.60733587  0.02303400  0.68539529  1.0
  O  O27  1  0.97696600  -0.60733587  0.18539529  1.0
  O  O28  1  1.02303400  0.60733587  0.81460471  1.0
  O  O29  1  0.39266413  -0.02303400  0.31460471  1.0
  O  O30  1  1.33348254  0.01521124  0.86365302  1.0
  O  O31  1  0.98478876  -0.33348254  0.36365302  1.0
  O  O32  1  1.01521124  0.33348254  0.63634698  1.0
  O  O33  1  0.66651746  -0.01521124  0.13634698  1.0
  O  O34  1  1.50678219  0.28107933  0.83377549  1.0
  O  O35  1  0.71892067  -0.50678219  0.33377549  1.0
  O  O36  1  1.28107933  0.50678219  0.66622451  1.0
  O  O37  1  0.49321781  -0.28107933  0.16622451  1.0
