# generated using pymatgen
data_H9C2N9O
_symmetry_space_group_name_H-M   'P 1'
_cell_length_a   9.31917950
_cell_length_b   6.97326319
_cell_length_c   6.95531579
_cell_angle_alpha   66.90513962
_cell_angle_beta   68.59300206
_cell_angle_gamma   72.65795942
_symmetry_Int_Tables_number   1
_chemical_formula_structural   H9C2N9O
_chemical_formula_sum   'H18 C4 N18 O2'
_cell_volume   380.69943337
_cell_formula_units_Z   2
loop_
 _symmetry_equiv_pos_site_id
 _symmetry_equiv_pos_as_xyz
  1  'x, y, z'
loop_
 _atom_site_type_symbol
 _atom_site_label
 _atom_site_symmetry_multiplicity
 _atom_site_fract_x
 _atom_site_fract_y
 _atom_site_fract_z
 _atom_site_occupancy
  H  H0  1  0.63830890  0.97235578  0.07093042  1.0
  H  H1  1  0.36169110  0.02764422  0.92906958  1.0
  H  H2  1  0.20975639  0.89141479  0.64121668  1.0
  H  H3  1  0.79024361  0.10858521  0.35878332  1.0
  H  H4  1  0.83355274  0.76326229  0.84469882  1.0
  H  H5  1  0.16644726  0.23673771  0.15530118  1.0
  H  H6  1  0.91622800  0.77273391  0.33627072  1.0
  H  H7  1  0.08377200  0.22726609  0.66372928  1.0
  H  H8  1  0.40506388  0.58402251  0.89107905  1.0
  H  H9  1  0.59493612  0.41597749  0.10892095  1.0
  H  H10  1  0.14378118  0.54466250  0.88140963  1.0
  H  H11  1  0.85621882  0.45533750  0.11859037  1.0
  H  H12  1  0.84405866  0.41976822  0.37459796  1.0
  H  H13  1  0.15594134  0.58023178  0.62540204  1.0
  H  H14  1  0.87634492  0.27597087  0.78806336  1.0
  H  H15  1  0.12365508  0.72402913  0.21193664  1.0
  H  H16  1  0.62736475  0.08127641  0.81174764  1.0
  H  H17  1  0.37263525  0.91872359  0.18825236  1.0
  C  C18  1  0.97041316  0.97985105  0.76309827  1.0
  C  C19  1  0.02958684  0.02014895  0.23690173  1.0
  C  C20  1  0.64732616  0.62436258  0.71488921  1.0
  C  C21  1  0.35267384  0.37563742  0.28511079  1.0
  N  N22  1  0.83433805  0.90855329  0.84939884  1.0
  N  N23  1  0.16566195  0.09144671  0.15060116  1.0
  N  N24  1  0.10271823  0.84641066  0.69989181  1.0
  N  N25  1  0.89728177  0.15358934  0.30010819  1.0
  N  N26  1  0.58771867  0.78501055  0.40699030  1.0
  N  N27  1  0.41228133  0.21498945  0.59300970  1.0
  N  N28  1  0.45677443  0.74343716  0.55363332  1.0
  N  N29  1  0.54322557  0.25656284  0.44636668  1.0
  N  N30  1  0.70844197  0.71469312  0.49632986  1.0
  N  N31  1  0.29155803  0.28530688  0.50367014  1.0
  N  N32  1  0.49034320  0.64340156  0.74604434  1.0
  N  N33  1  0.50965680  0.35659844  0.25395566  1.0
  N  N34  1  0.90462572  0.36666247  0.24421997  1.0
  N  N35  1  0.09537428  0.63333753  0.75578003  1.0
  N  N36  1  0.97719585  0.17622449  0.73843587  1.0
  N  N37  1  0.02280415  0.82377551  0.26156413  1.0
  N  N38  1  0.69568427  0.04575104  0.91189753  1.0
  N  N39  1  0.30431573  0.95424896  0.08810247  1.0
  O  O40  1  0.71817322  0.53948421  0.86274313  1.0
  O  O41  1  0.28182678  0.46051579  0.13725687  1.0
