# generated using pymatgen
data_LiB6C
_symmetry_space_group_name_H-M   'P 1'
_cell_length_a   5.31217059
_cell_length_b   5.31217059
_cell_length_c   4.70007562
_cell_angle_alpha   90.00000000
_cell_angle_beta   90.00000000
_cell_angle_gamma   64.18821207
_symmetry_Int_Tables_number   1
_chemical_formula_structural   LiB6C
_chemical_formula_sum   'Li2 B12 C2'
_cell_volume   119.39935231
_cell_formula_units_Z   2
loop_
 _symmetry_equiv_pos_site_id
 _symmetry_equiv_pos_as_xyz
  1  'x, y, z'
loop_
 _atom_site_type_symbol
 _atom_site_label
 _atom_site_symmetry_multiplicity
 _atom_site_fract_x
 _atom_site_fract_y
 _atom_site_fract_z
 _atom_site_occupancy
  Li  Li0  1  -0.73072835  1.14337631  0.50000000  1.0
  Li  Li1  1  -0.14337631  1.73072835  0.50000000  1.0
  B  B2  1  -0.35587397  1.16025672  0.69365069  1.0
  B  B3  1  -0.16025672  1.35587397  0.69365069  1.0
  B  B4  1  -0.35587397  1.16025672  0.30634931  1.0
  B  B5  1  -0.16025672  1.35587397  0.30634931  1.0
  B  B6  1  0.73568472  0.92551543  0.00000000  1.0
  B  B7  1  0.07448457  0.26431528  0.00000000  1.0
  B  B8  1  -0.58851735  1.25054390  0.00000000  1.0
  B  B9  1  -0.25054390  1.58851735  0.00000000  1.0
  B  B10  1  0.48557380  0.51442620  0.81662198  1.0
  B  B11  1  0.48557380  0.51442620  0.18337802  1.0
  B  B12  1  -0.00035730  0.00035730  0.81709744  1.0
  B  B13  1  -0.00035730  0.00035730  0.18290256  1.0
  C  C14  1  0.24391251  0.75608749  0.64650098  1.0
  C  C15  1  0.24391251  0.75608749  0.35349902  1.0
