# generated using pymatgen
data_Na4FeO3
_symmetry_space_group_name_H-M   'P 1'
_cell_length_a   6.23711721
_cell_length_b   6.23711721
_cell_length_c   8.37338128
_cell_angle_alpha   68.69257703
_cell_angle_beta   111.30742297
_cell_angle_gamma   124.15131948
_symmetry_Int_Tables_number   1
_chemical_formula_structural   Na4FeO3
_chemical_formula_sum   'Na8 Fe2 O6'
_cell_volume   245.71588511
_cell_formula_units_Z   2
loop_
 _symmetry_equiv_pos_site_id
 _symmetry_equiv_pos_as_xyz
  1  'x, y, z'
loop_
 _atom_site_type_symbol
 _atom_site_label
 _atom_site_symmetry_multiplicity
 _atom_site_fract_x
 _atom_site_fract_y
 _atom_site_fract_z
 _atom_site_occupancy
  Na  Na0  1  1.62948532  -0.29777922  0.10533680  1.0
  Na  Na1  1  1.29777922  -0.62948532  0.60533680  1.0
  Na  Na2  1  1.08212071  -0.40084650  0.19096410  1.0
  Na  Na3  1  1.40084650  -0.08212071  0.69096410  1.0
  Na  Na4  1  1.45604457  0.13554451  0.00738190  1.0
  Na  Na5  1  0.86445549  -0.45604457  0.50738190  1.0
  Na  Na6  1  1.21794086  0.09870761  0.28626189  1.0
  Na  Na7  1  0.90129239  -0.21794086  0.78626189  1.0
  Fe  Fe8  1  1.68490098  0.01820494  0.40217558  1.0
  Fe  Fe9  1  0.98179506  -0.68490098  0.90217558  1.0
  O  O10  1  0.98901819  0.98799862  0.49731390  1.0
  O  O11  1  0.01200138  0.01098181  -0.00268610  1.0
  O  O12  1  1.34710120  -0.23243715  0.44973274  1.0
  O  O13  1  1.23243715  -0.34710120  0.94973274  1.0
  O  O14  1  0.67096957  -0.66981141  0.26793309  1.0
  O  O15  1  1.66981141  0.32903043  0.76793309  1.0
