# generated using pymatgen
data_CsTcO2
_symmetry_space_group_name_H-M   'P 1'
_cell_length_a   8.17801246
_cell_length_b   8.17801246
_cell_length_c   8.17801246
_cell_angle_alpha   130.46420698
_cell_angle_beta   130.46420698
_cell_angle_gamma   72.66573622
_symmetry_Int_Tables_number   1
_chemical_formula_structural   CsTcO2
_chemical_formula_sum   'Cs4 Tc4 O8'
_cell_volume   309.33369867
_cell_formula_units_Z   4
loop_
 _symmetry_equiv_pos_site_id
 _symmetry_equiv_pos_as_xyz
  1  'x, y, z'
loop_
 _atom_site_type_symbol
 _atom_site_label
 _atom_site_symmetry_multiplicity
 _atom_site_fract_x
 _atom_site_fract_y
 _atom_site_fract_z
 _atom_site_occupancy
  Cs  Cs0  1  0.37500000  0.62500000  0.75000000  1.0
  Cs  Cs1  1  0.87500000  0.62500000  1.25000000  1.0
  Cs  Cs2  1  0.37500000  1.12500000  0.75000000  1.0
  Cs  Cs3  1  0.37500000  0.62500000  0.25000000  1.0
  Tc  Tc4  1  0.87500000  0.12500000  0.75000000  1.0
  Tc  Tc5  1  0.37500000  0.12500000  0.25000000  1.0
  Tc  Tc6  1  0.87500000  0.62500000  0.75000000  1.0
  Tc  Tc7  1  0.87500000  1.12500000  1.25000000  1.0
  O  O8  1  1.12877088  0.95230105  1.82352989  1.0
  O  O9  1  0.62122884  0.94475901  1.32352989  1.0
  O  O10  1  1.04769895  0.87122884  1.17646983  1.0
  O  O11  1  1.05524099  1.37877088  1.67646983  1.0
  O  O12  1  0.12877116  0.30524099  0.17647011  1.0
  O  O13  1  0.62122912  0.29769895  0.67647011  1.0
  O  O14  1  0.69475901  0.87122912  0.82353017  1.0
  O  O15  1  0.70230105  0.37877116  0.32353017  1.0
