# generated using pymatgen
data_B2Pd5
_symmetry_space_group_name_H-M   'P 1'
_cell_length_a   6.93033448
_cell_length_b   6.93033448
_cell_length_c   5.51764550
_cell_angle_alpha   83.37189976
_cell_angle_beta   96.62810024
_cell_angle_gamma   137.83309945
_symmetry_Int_Tables_number   1
_chemical_formula_structural   B2Pd5
_chemical_formula_sum   'B4 Pd10'
_cell_volume   176.53275117
_cell_formula_units_Z   2
loop_
 _symmetry_equiv_pos_site_id
 _symmetry_equiv_pos_as_xyz
  1  'x, y, z'
loop_
 _atom_site_type_symbol
 _atom_site_label
 _atom_site_symmetry_multiplicity
 _atom_site_fract_x
 _atom_site_fract_y
 _atom_site_fract_z
 _atom_site_occupancy
  B  B0  1  1.68408243  -0.08716328  0.92149784  1.0
  B  B1  1  1.08716328  -0.68408243  0.42149784  1.0
  B  B2  1  0.91283672  -0.31591757  0.57850216  1.0
  B  B3  1  1.31591757  0.08716328  0.07850216  1.0
  Pd  Pd4  1  1.71623707  0.14016859  0.18576633  1.0
  Pd  Pd5  1  0.85983141  -0.71623707  0.68576633  1.0
  Pd  Pd6  1  1.14016859  -0.28376293  0.31423367  1.0
  Pd  Pd7  1  1.28376293  -0.14016859  0.81423367  1.0
  Pd  Pd8  1  1.50478951  0.31260576  0.41892515  1.0
  Pd  Pd9  1  0.68739424  -0.50478951  0.91892515  1.0
  Pd  Pd10  1  1.31260576  -0.49521049  0.08107485  1.0
  Pd  Pd11  1  1.49521049  -0.31260576  0.58107485  1.0
  Pd  Pd12  1  0.93014373  0.93014373  0.25000000  1.0
  Pd  Pd13  1  0.06985627  0.06985627  0.75000000  1.0
