# generated using pymatgen
data_Sr3(Cu2Sn)4
_symmetry_space_group_name_H-M   'P 1'
_cell_length_a   9.39127371
_cell_length_b   9.39127371
_cell_length_c   7.92403786
_cell_angle_alpha   90.00000000
_cell_angle_beta   90.00000000
_cell_angle_gamma   120.00000000
_symmetry_Int_Tables_number   1
_chemical_formula_structural   Sr3(Cu2Sn)4
_chemical_formula_sum   'Sr6 Cu16 Sn8'
_cell_volume   605.23797607
_cell_formula_units_Z   2
loop_
 _symmetry_equiv_pos_site_id
 _symmetry_equiv_pos_as_xyz
  1  'x, y, z'
loop_
 _atom_site_type_symbol
 _atom_site_label
 _atom_site_symmetry_multiplicity
 _atom_site_fract_x
 _atom_site_fract_y
 _atom_site_fract_z
 _atom_site_occupancy
  Sr  Sr0  1  0.95010663  0.47505332  0.22703603  1.0
  Sr  Sr1  1  0.47505332  0.95010663  0.72703603  1.0
  Sr  Sr2  1  0.47505332  0.52494668  0.72703603  1.0
  Sr  Sr3  1  0.52494668  0.47505332  0.22703603  1.0
  Sr  Sr4  1  0.52494668  0.04989337  0.22703603  1.0
  Sr  Sr5  1  0.04989337  0.52494668  0.72703603  1.0
  Cu  Cu6  1  0.67864314  0.83932157  0.05095054  1.0
  Cu  Cu7  1  0.83932157  0.67864314  0.55095054  1.0
  Cu  Cu8  1  0.83932157  0.16067843  0.55095054  1.0
  Cu  Cu9  1  0.16067843  0.83932157  0.05095054  1.0
  Cu  Cu10  1  0.16067843  0.32135686  0.05095054  1.0
  Cu  Cu11  1  0.32135686  0.16067843  0.55095054  1.0
  Cu  Cu12  1  0.19626583  0.09813291  0.24679017  1.0
  Cu  Cu13  1  0.09813291  0.19626583  0.74679017  1.0
  Cu  Cu14  1  0.09813291  0.90186709  0.74679017  1.0
  Cu  Cu15  1  0.90186709  0.09813291  0.24679017  1.0
  Cu  Cu16  1  0.90186709  0.80373417  0.24679017  1.0
  Cu  Cu17  1  0.80373417  0.90186709  0.74679017  1.0
  Cu  Cu18  1  0.33333333  0.66666667  0.39538995  1.0
  Cu  Cu19  1  0.66666667  0.33333333  0.89538995  1.0
  Cu  Cu20  1  0.00000000  0.00000000  0.00003953  1.0
  Cu  Cu21  1  0.00000000  0.00000000  0.50003953  1.0
  Sn  Sn22  1  0.66832575  0.83416288  0.43017110  1.0
  Sn  Sn23  1  0.83416288  0.66832575  0.93017110  1.0
  Sn  Sn24  1  0.83416288  0.16583712  0.93017110  1.0
  Sn  Sn25  1  0.16583712  0.83416288  0.43017110  1.0
  Sn  Sn26  1  0.16583712  0.33167425  0.43017110  1.0
  Sn  Sn27  1  0.33167425  0.16583712  0.93017110  1.0
  Sn  Sn28  1  0.33333333  0.66666667  0.04702700  1.0
  Sn  Sn29  1  0.66666667  0.33333333  0.54702700  1.0
