# generated using pymatgen
data_Li5Sn2
_symmetry_space_group_name_H-M   'P 1'
_cell_length_a   7.13566312
_cell_length_b   7.13566312
_cell_length_c   7.13566312
_cell_angle_alpha   38.59522450
_cell_angle_beta   38.59522450
_cell_angle_gamma   38.59522450
_symmetry_Int_Tables_number   1
_chemical_formula_structural   Li5Sn2
_chemical_formula_sum   'Li5 Sn2'
_cell_volume   127.05652542
_cell_formula_units_Z   1
loop_
 _symmetry_equiv_pos_site_id
 _symmetry_equiv_pos_as_xyz
  1  'x, y, z'
loop_
 _atom_site_type_symbol
 _atom_site_label
 _atom_site_symmetry_multiplicity
 _atom_site_fract_x
 _atom_site_fract_y
 _atom_site_fract_z
 _atom_site_occupancy
  Li  Li0  1  0.85441987  0.85441987  0.85441987  1.0
  Li  Li1  1  1.14558013  1.14558013  0.14558013  1.0
  Li  Li2  1  0.71412350  0.71412350  0.71412350  1.0
  Li  Li3  1  1.28587650  1.28587650  0.28587650  1.0
  Li  Li4  1  0.00000000  0.00000000  0.00000000  1.0
  Sn  Sn5  1  1.57381541  0.57381541  0.57381541  1.0
  Sn  Sn6  1  1.42618459  0.42618459  0.42618459  1.0
