# generated using pymatgen
data_P3N5
_symmetry_space_group_name_H-M   'P 1'
_cell_length_a   5.39969572
_cell_length_b   7.55051622
_cell_length_c   7.00513437
_cell_angle_alpha   105.82148177
_cell_angle_beta   101.13120184
_cell_angle_gamma   89.18575222
_symmetry_Int_Tables_number   1
_chemical_formula_structural   P3N5
_chemical_formula_sum   'P12 N20'
_cell_volume   269.39020426
_cell_formula_units_Z   4
loop_
 _symmetry_equiv_pos_site_id
 _symmetry_equiv_pos_as_xyz
  1  'x, y, z'
loop_
 _atom_site_type_symbol
 _atom_site_label
 _atom_site_symmetry_multiplicity
 _atom_site_fract_x
 _atom_site_fract_y
 _atom_site_fract_z
 _atom_site_occupancy
  P  P0  1  0.95601565  0.70692136  -0.67890038  1.0
  P  P1  1  0.04398435  0.29307864  -0.32109962  1.0
  P  P2  1  0.85316809  0.60984460  -0.11925139  1.0
  P  P3  1  0.14683191  0.39015540  -0.88074861  1.0
  P  P4  1  0.79416952  0.93282065  -0.29720601  1.0
  P  P5  1  0.20583048  0.06717935  -0.70279399  1.0
  P  P6  1  0.69214915  0.32652699  -0.70730762  1.0
  P  P7  1  0.30785086  0.67347301  -0.29269238  1.0
  P  P8  1  0.66528392  0.91653594  -0.88832481  1.0
  P  P9  1  0.33471608  0.08346406  -0.11167519  1.0
  P  P10  1  0.45206533  0.70291154  -0.69192335  1.0
  P  P11  1  0.54793467  0.29708846  -0.30807665  1.0
  N  N12  1  0.95725313  0.94252910  -0.71127703  1.0
  N  N13  1  0.04274687  0.05747090  -0.28872297  1.0
  N  N14  1  0.93572261  0.44918944  -0.71739416  1.0
  N  N15  1  0.06427739  0.55081056  -0.28260584  1.0
  N  N16  1  0.83541712  0.84101579  -0.10259417  1.0
  N  N17  1  0.16458288  0.15898421  -0.89740583  1.0
  N  N18  1  0.74472270  0.75789311  -0.51120957  1.0
  N  N19  1  0.25527730  0.24210689  -0.48879043  1.0
  N  N20  1  0.68384271  0.68637589  -0.87668465  1.0
  N  N21  1  0.31615729  0.31362411  -0.12331535  1.0
  N  N22  1  0.62664017  0.13884358  -0.89813983  1.0
  N  N23  1  0.37335983  0.86115642  -0.10186017  1.0
  N  N24  1  0.44559584  0.93083022  -0.71763443  1.0
  N  N25  1  0.55440416  0.06916978  -0.28236557  1.0
  N  N26  1  0.44810398  0.45871304  -0.72374536  1.0
  N  N27  1  0.55189602  0.54128696  -0.27625464  1.0
  N  N28  1  0.24882310  0.73299850  -0.51055927  1.0
  N  N29  1  0.75117690  0.26700150  -0.48944073  1.0
  N  N30  1  0.13892189  0.62785658  -0.87487116  1.0
  N  N31  1  0.86107811  0.37214342  -0.12512884  1.0
