# generated using pymatgen
data_K2RbBiSe3
_symmetry_space_group_name_H-M   'P 1'
_cell_length_a   10.08524050
_cell_length_b   10.08524050
_cell_length_c   10.08524050
_cell_angle_alpha   90.00000000
_cell_angle_beta   90.00000000
_cell_angle_gamma   90.00000000
_symmetry_Int_Tables_number   1
_chemical_formula_structural   K2RbBiSe3
_chemical_formula_sum   'K8 Rb4 Bi4 Se12'
_cell_volume   1025.79074830
_cell_formula_units_Z   4
loop_
 _symmetry_equiv_pos_site_id
 _symmetry_equiv_pos_as_xyz
  1  'x, y, z'
loop_
 _atom_site_type_symbol
 _atom_site_label
 _atom_site_symmetry_multiplicity
 _atom_site_fract_x
 _atom_site_fract_y
 _atom_site_fract_z
 _atom_site_occupancy
  K  K0  1  0.43826892  0.93826892  0.56173108  1.0
  K  K1  1  0.93826892  0.56173108  0.43826892  1.0
  K  K2  1  0.56173108  0.43826892  0.93826892  1.0
  K  K3  1  0.06173108  0.06173108  0.06173108  1.0
  K  K4  1  0.93175698  0.43175698  0.06824302  1.0
  K  K5  1  0.43175698  0.06824302  0.93175698  1.0
  K  K6  1  0.06824302  0.93175698  0.43175698  1.0
  K  K7  1  0.56824302  0.56824302  0.56824302  1.0
  Rb  Rb8  1  0.67813486  0.17813486  0.32186514  1.0
  Rb  Rb9  1  0.17813486  0.32186514  0.67813486  1.0
  Rb  Rb10  1  0.32186514  0.67813486  0.17813486  1.0
  Rb  Rb11  1  0.82186514  0.82186514  0.82186514  1.0
  Bi  Bi12  1  0.22001263  0.72001263  0.77998737  1.0
  Bi  Bi13  1  0.72001263  0.77998737  0.22001263  1.0
  Bi  Bi14  1  0.77998737  0.22001263  0.72001263  1.0
  Bi  Bi15  1  0.27998737  0.27998737  0.27998737  1.0
  Se  Se16  1  0.47502430  0.74795083  0.85332379  1.0
  Se  Se17  1  0.97502430  0.75204917  0.14667621  1.0
  Se  Se18  1  0.24795083  0.64667621  0.52497570  1.0
  Se  Se19  1  0.74795083  0.85332379  0.47502430  1.0
  Se  Se20  1  0.14667621  0.97502430  0.75204917  1.0
  Se  Se21  1  0.64667621  0.52497570  0.24795083  1.0
  Se  Se22  1  0.52497570  0.24795083  0.64667621  1.0
  Se  Se23  1  0.02497570  0.25204917  0.35332379  1.0
  Se  Se24  1  0.75204917  0.14667621  0.97502430  1.0
  Se  Se25  1  0.25204917  0.35332379  0.02497570  1.0
  Se  Se26  1  0.85332379  0.47502430  0.74795083  1.0
  Se  Se27  1  0.35332379  0.02497570  0.25204917  1.0
