# generated using pymatgen
data_TcCl3
_symmetry_space_group_name_H-M   'P 1'
_cell_length_a   9.84320360
_cell_length_b   9.84320360
_cell_length_c   9.84320360
_cell_angle_alpha   62.95091490
_cell_angle_beta   62.95091490
_cell_angle_gamma   62.95091490
_symmetry_Int_Tables_number   1
_chemical_formula_structural   TcCl3
_chemical_formula_sum   'Tc6 Cl18'
_cell_volume   718.55965673
_cell_formula_units_Z   6
loop_
 _symmetry_equiv_pos_site_id
 _symmetry_equiv_pos_as_xyz
  1  'x, y, z'
loop_
 _atom_site_type_symbol
 _atom_site_label
 _atom_site_symmetry_multiplicity
 _atom_site_fract_x
 _atom_site_fract_y
 _atom_site_fract_z
 _atom_site_occupancy
  Tc  Tc0  1  1.35951603  1.35951603  0.12455846  1.0
  Tc  Tc1  1  1.35951603  1.12455846  0.35951603  1.0
  Tc  Tc2  1  0.87544154  0.64048397  -0.35951603  1.0
  Tc  Tc3  1  0.64048397  0.87544154  -0.35951603  1.0
  Tc  Tc4  1  0.64048397  0.64048397  -0.12455846  1.0
  Tc  Tc5  1  1.12455846  1.35951603  0.35951603  1.0
  Cl  Cl6  1  0.51407543  0.51407543  -0.16938383  1.0
  Cl  Cl7  1  0.51407543  0.83061617  -0.48592457  1.0
  Cl  Cl8  1  0.16938383  0.48592457  -0.51407543  1.0
  Cl  Cl9  1  0.48592457  0.16938383  -0.51407543  1.0
  Cl  Cl10  1  0.48592457  0.48592457  -0.83061617  1.0
  Cl  Cl11  1  0.83061617  0.51407543  -0.48592457  1.0
  Cl  Cl12  1  1.12661839  1.12661839  0.59375121  1.0
  Cl  Cl13  1  1.12661839  1.59375121  0.12661839  1.0
  Cl  Cl14  1  0.40624879  0.87338161  -0.12661839  1.0
  Cl  Cl15  1  0.87338161  0.40624879  -0.12661839  1.0
  Cl  Cl16  1  0.87338161  0.87338161  -0.59375121  1.0
  Cl  Cl17  1  1.59375121  1.12661839  0.12661839  1.0
  Cl  Cl18  1  0.29136025  0.29136025  -0.01940784  1.0
  Cl  Cl19  1  0.29136025  0.98059216  -0.70863975  1.0
  Cl  Cl20  1  1.01940784  -0.29136025  -0.29136025  1.0
  Cl  Cl21  1  0.70863975  0.01940784  -0.29136025  1.0
  Cl  Cl22  1  0.70863975  -0.29136025  0.01940784  1.0
  Cl  Cl23  1  0.98059216  0.29136025  -0.70863975  1.0
