# generated using pymatgen
data_TlVTeO5
_symmetry_space_group_name_H-M   'P 1'
_cell_length_a   7.47012691
_cell_length_b   8.86408904
_cell_length_c   7.83961075
_cell_angle_alpha   90.00000000
_cell_angle_beta   90.00000000
_cell_angle_gamma   90.00000000
_symmetry_Int_Tables_number   1
_chemical_formula_structural   TlVTeO5
_chemical_formula_sum   'Tl4 V4 Te4 O20'
_cell_volume   519.10664676
_cell_formula_units_Z   4
loop_
 _symmetry_equiv_pos_site_id
 _symmetry_equiv_pos_as_xyz
  1  'x, y, z'
loop_
 _atom_site_type_symbol
 _atom_site_label
 _atom_site_symmetry_multiplicity
 _atom_site_fract_x
 _atom_site_fract_y
 _atom_site_fract_z
 _atom_site_occupancy
  Tl  Tl0  1  0.47663793  0.39749502  0.08873231  1.0
  Tl  Tl1  1  0.52336207  0.60250498  0.58873231  1.0
  Tl  Tl2  1  0.02336207  0.89749502  0.58873231  1.0
  Tl  Tl3  1  0.97663793  0.10250498  0.08873231  1.0
  V  V4  1  0.73065682  0.24221862  0.70841795  1.0
  V  V5  1  0.26934318  0.75778138  0.20841795  1.0
  V  V6  1  0.76934318  0.74221862  0.20841795  1.0
  V  V7  1  0.23065682  0.25778138  0.70841795  1.0
  Te  Te8  1  0.51425172  0.03113394  0.39368636  1.0
  Te  Te9  1  0.48574829  0.96886606  0.89368636  1.0
  Te  Te10  1  0.98574829  0.53113394  0.89368636  1.0
  Te  Te11  1  0.01425171  0.46886606  0.39368636  1.0
  O  O12  1  0.73116148  0.31397942  0.51042808  1.0
  O  O13  1  0.26883852  0.68602058  1.01042808  1.0
  O  O14  1  0.76883852  0.81397942  1.01042808  1.0
  O  O15  1  0.23116148  0.18602058  0.51042808  1.0
  O  O16  1  0.36499014  0.85984939  0.45130338  1.0
  O  O17  1  0.63500986  0.14015061  -0.04869662  1.0
  O  O18  1  0.13500986  0.35984939  -0.04869662  1.0
  O  O19  1  0.86499014  0.64015061  0.45130338  1.0
  O  O20  1  0.93717476  0.17515479  0.73392831  1.0
  O  O21  1  0.06282524  0.82484521  0.23392831  1.0
  O  O22  1  0.56282524  0.67515479  0.23392831  1.0
  O  O23  1  0.43717476  0.32484521  0.73392831  1.0
  O  O24  1  0.60367541  0.05318697  0.64141115  1.0
  O  O25  1  0.39632459  0.94681303  0.14141115  1.0
  O  O26  1  0.89632459  0.55318697  0.14141115  1.0
  O  O27  1  0.10367541  0.44681303  0.64141115  1.0
  O  O28  1  0.75781610  0.41980654  0.84039247  1.0
  O  O29  1  0.24218390  0.58019346  0.34039247  1.0
  O  O30  1  0.74218390  0.91980654  0.34039247  1.0
  O  O31  1  0.25781610  0.08019346  0.84039247  1.0
