# generated using pymatgen
data_AsCl5
_symmetry_space_group_name_H-M   'P 1'
_cell_length_a   8.09870043
_cell_length_b   7.96449673
_cell_length_c   6.92449533
_cell_angle_alpha   90.00000000
_cell_angle_beta   90.00000000
_cell_angle_gamma   90.00000000
_symmetry_Int_Tables_number   1
_chemical_formula_structural   AsCl5
_chemical_formula_sum   'As2 Cl10'
_cell_volume   446.64430436
_cell_formula_units_Z   2
loop_
 _symmetry_equiv_pos_site_id
 _symmetry_equiv_pos_as_xyz
  1  'x, y, z'
loop_
 _atom_site_type_symbol
 _atom_site_label
 _atom_site_symmetry_multiplicity
 _atom_site_fract_x
 _atom_site_fract_y
 _atom_site_fract_z
 _atom_site_occupancy
  As  As0  1  0.00000000  0.50000000  0.77283569  1.0
  As  As1  1  0.50000000  0.00000000  0.22716431  1.0
  Cl  Cl2  1  0.76970516  0.50000000  0.60899479  1.0
  Cl  Cl3  1  0.23029484  0.50000000  0.60899479  1.0
  Cl  Cl4  1  0.73029484  0.00000000  0.39100521  1.0
  Cl  Cl5  1  0.26970516  0.00000000  0.39100521  1.0
  Cl  Cl6  1  0.00000000  0.50000000  0.08862792  1.0
  Cl  Cl7  1  0.50000000  0.00000000  0.91137208  1.0
  Cl  Cl8  1  0.00000000  0.21466989  0.77705010  1.0
  Cl  Cl9  1  0.00000000  0.78533011  0.77705010  1.0
  Cl  Cl10  1  0.50000000  0.28533011  0.22294990  1.0
  Cl  Cl11  1  0.50000000  0.71466989  0.22294990  1.0
