# generated using pymatgen
data_Ca3Fe3Si2SbO14
_symmetry_space_group_name_H-M   'P 1'
_cell_length_a   8.24145855
_cell_length_b   8.24145855
_cell_length_c   5.10987859
_cell_angle_alpha   90.00000000
_cell_angle_beta   90.00000000
_cell_angle_gamma   120.00000000
_symmetry_Int_Tables_number   1
_chemical_formula_structural   Ca3Fe3Si2SbO14
_chemical_formula_sum   'Ca3 Fe3 Si2 Sb1 O14'
_cell_volume   300.57258783
_cell_formula_units_Z   1
loop_
 _symmetry_equiv_pos_site_id
 _symmetry_equiv_pos_as_xyz
  1  'x, y, z'
loop_
 _atom_site_type_symbol
 _atom_site_label
 _atom_site_symmetry_multiplicity
 _atom_site_fract_x
 _atom_site_fract_y
 _atom_site_fract_z
 _atom_site_occupancy
  Fe  Fe0  1  0.74592861  0.74592861  0.50000000  1.0
  Fe  Fe1  1  0.00000000  0.25407139  0.50000000  1.0
  Fe  Fe2  1  0.25407139  0.00000000  0.50000000  1.0
  O  O3  1  0.33333333  0.66666667  0.23555374  1.0
  O  O4  1  0.66666667  0.33333333  0.76444626  1.0
  O  O5  1  0.08501248  0.85872733  0.23126732  1.0
  O  O6  1  0.85872733  0.08501248  0.76873268  1.0
  O  O7  1  0.77371485  0.91498752  0.23126732  1.0
  O  O8  1  0.14127267  0.22628515  0.23126732  1.0
  O  O9  1  0.91498752  0.77371485  0.76873268  1.0
  O  O10  1  0.22628515  0.14127267  0.76873268  1.0
  O  O11  1  0.67324034  0.51944309  0.30995029  1.0
  O  O12  1  0.51944309  0.67324034  0.69004971  1.0
  O  O13  1  0.84620276  0.32675966  0.30995029  1.0
  O  O14  1  0.48055691  0.15379724  0.30995029  1.0
  O  O15  1  0.32675966  0.84620276  0.69004971  1.0
  O  O16  1  0.15379724  0.48055691  0.69004971  1.0
  Sb  Sb17  1  0.00000000  0.00000000  0.00000000  1.0
  Si  Si18  1  0.33333333  0.66666667  0.55124751  1.0
  Si  Si19  1  0.66666667  0.33333333  0.44875249  1.0
  Ca  Ca20  1  0.42567856  0.42567856  0.00000000  1.0
  Ca  Ca21  1  -0.00000000  0.57432144  0.00000000  1.0
  Ca  Ca22  1  0.57432144  0.00000000  0.00000000  1.0
