# generated using pymatgen
data_Ca(Mo3S4)2
_symmetry_space_group_name_H-M   'P 1'
_cell_length_a   6.54228909
_cell_length_b   6.54228909
_cell_length_c   6.54228909
_cell_angle_alpha   89.73630965
_cell_angle_beta   89.73630965
_cell_angle_gamma   89.73630965
_symmetry_Int_Tables_number   1
_chemical_formula_structural   Ca(Mo3S4)2
_chemical_formula_sum   'Ca1 Mo6 S8'
_cell_volume   280.01122163
_cell_formula_units_Z   1
loop_
 _symmetry_equiv_pos_site_id
 _symmetry_equiv_pos_as_xyz
  1  'x, y, z'
loop_
 _atom_site_type_symbol
 _atom_site_label
 _atom_site_symmetry_multiplicity
 _atom_site_fract_x
 _atom_site_fract_y
 _atom_site_fract_z
 _atom_site_occupancy
  Ca  Ca0  1  0.00000000  0.00000000  0.00000000  1.0
  Mo  Mo1  1  0.44086952  0.58287639  -0.22518324  1.0
  Mo  Mo2  1  0.41712361  0.22518324  -0.44086952  1.0
  Mo  Mo3  1  0.22518324  0.55913048  -0.58287639  1.0
  Mo  Mo4  1  0.55913048  0.41712361  -0.77481676  1.0
  Mo  Mo5  1  0.58287639  0.77481676  -0.55913048  1.0
  Mo  Mo6  1  0.77481676  0.44086952  -0.41712361  1.0
  S  S7  1  0.87217380  0.62063414  -0.74242441  1.0
  S  S8  1  0.37936586  0.74242441  -0.87217380  1.0
  S  S9  1  0.74242441  0.12782620  -0.62063414  1.0
  S  S10  1  0.12782621  0.37936586  -0.25757559  1.0
  S  S11  1  0.62063414  0.25757559  -0.12782621  1.0
  S  S12  1  0.25757559  0.87217380  -0.37936586  1.0
  S  S13  1  0.76130397  0.76130397  -0.23869603  1.0
  S  S14  1  1.23869603  1.23869603  0.23869603  1.0
