# generated using pymatgen
data_La3In5S12
_symmetry_space_group_name_H-M   'P 1'
_cell_length_a   11.20708732
_cell_length_b   4.02443089
_cell_length_c   21.87751731
_cell_angle_alpha   90.00000000
_cell_angle_beta   95.75586677
_cell_angle_gamma   90.00000000
_symmetry_Int_Tables_number   1
_chemical_formula_structural   La3In5S12
_chemical_formula_sum   'La6 In10 S24'
_cell_volume   981.74822693
_cell_formula_units_Z   2
loop_
 _symmetry_equiv_pos_site_id
 _symmetry_equiv_pos_as_xyz
  1  'x, y, z'
loop_
 _atom_site_type_symbol
 _atom_site_label
 _atom_site_symmetry_multiplicity
 _atom_site_fract_x
 _atom_site_fract_y
 _atom_site_fract_z
 _atom_site_occupancy
  La  La0  1  0.78857107  0.25000000  0.78572015  1.0
  La  La1  1  0.21142893  0.75000000  0.21427985  1.0
  La  La2  1  0.47065234  0.25000000  0.08827348  1.0
  La  La3  1  0.52934766  0.75000000  0.91172652  1.0
  La  La4  1  0.59043851  0.25000000  0.27061429  1.0
  La  La5  1  0.40956149  0.75000000  0.72938571  1.0
  In  In6  1  0.95633654  0.25000000  0.32623678  1.0
  In  In7  1  0.04366346  0.75000000  0.67376322  1.0
  In  In8  1  0.14855004  0.25000000  0.83104910  1.0
  In  In9  1  0.85144996  0.75000000  0.16895090  1.0
  In  In10  1  0.26082218  0.25000000  0.55777310  1.0
  In  In11  1  0.73917782  0.75000000  0.44222690  1.0
  In  In12  1  0.67255739  0.25000000  0.61307396  1.0
  In  In13  1  0.32744261  0.75000000  0.38692604  1.0
  In  In14  1  0.85394737  0.25000000  0.97475742  1.0
  In  In15  1  0.14605263  0.75000000  0.02524258  1.0
  S  S16  1  0.87285112  0.25000000  0.43546139  1.0
  S  S17  1  0.12714888  0.75000000  0.56453861  1.0
  S  S18  1  0.89723584  0.25000000  0.65650145  1.0
  S  S19  1  0.10276416  0.75000000  0.34349855  1.0
  S  S20  1  0.00918618  0.25000000  0.21153736  1.0
  S  S21  1  0.99081382  0.75000000  0.78846264  1.0
  S  S22  1  0.07816935  0.25000000  0.94735327  1.0
  S  S23  1  0.92183065  0.75000000  0.05264673  1.0
  S  S24  1  0.20336833  0.25000000  0.71521647  1.0
  S  S25  1  0.79663167  0.75000000  0.28478353  1.0
  S  S26  1  0.21251299  0.25000000  0.10982278  1.0
  S  S27  1  0.78748701  0.75000000  0.89017722  1.0
  S  S28  1  0.33273889  0.25000000  0.29435762  1.0
  S  S29  1  0.66726111  0.75000000  0.70564238  1.0
  S  S30  1  0.35809153  0.25000000  0.46028520  1.0
  S  S31  1  0.64190847  0.75000000  0.53971480  1.0
  S  S32  1  0.44273060  0.25000000  0.63485181  1.0
  S  S33  1  0.55726940  0.75000000  0.36514819  1.0
  S  S34  1  0.53343876  0.25000000  0.81352031  1.0
  S  S35  1  0.46656124  0.75000000  0.18647969  1.0
  S  S36  1  0.63143097  0.25000000  0.99284024  1.0
  S  S37  1  0.36856903  0.75000000  0.00715976  1.0
  S  S38  1  0.70896033  0.25000000  0.15213765  1.0
  S  S39  1  0.29103967  0.75000000  0.84786235  1.0
