# generated using pymatgen
data_SbPCl8O
_symmetry_space_group_name_H-M   'P 1'
_cell_length_a   17.41414914
_cell_length_b   8.91544577
_cell_length_c   9.65513193
_cell_angle_alpha   90.00000000
_cell_angle_beta   90.00000000
_cell_angle_gamma   90.00000000
_symmetry_Int_Tables_number   1
_chemical_formula_structural   SbPCl8O
_chemical_formula_sum   'Sb4 P4 Cl32 O4'
_cell_volume   1499.00656364
_cell_formula_units_Z   4
loop_
 _symmetry_equiv_pos_site_id
 _symmetry_equiv_pos_as_xyz
  1  'x, y, z'
loop_
 _atom_site_type_symbol
 _atom_site_label
 _atom_site_symmetry_multiplicity
 _atom_site_fract_x
 _atom_site_fract_y
 _atom_site_fract_z
 _atom_site_occupancy
  Sb  Sb0  1  0.35109061  0.75000000  0.08988439  1.0
  Sb  Sb1  1  0.85109061  0.75000000  0.41011561  1.0
  Sb  Sb2  1  0.64890939  0.25000000  0.91011561  1.0
  Sb  Sb3  1  0.14890939  0.25000000  0.58988439  1.0
  P  P4  1  0.41686098  0.75000000  0.73477480  1.0
  P  P5  1  0.91686098  0.75000000  0.76522520  1.0
  P  P6  1  0.58313902  0.25000000  0.26522520  1.0
  P  P7  1  0.08313902  0.25000000  0.23477480  1.0
  Cl  Cl8  1  0.36355030  0.92847021  0.65715349  1.0
  Cl  Cl9  1  0.36355030  0.57152979  0.65715349  1.0
  Cl  Cl10  1  0.86355030  0.92847021  0.84284651  1.0
  Cl  Cl11  1  0.86355030  0.57152979  0.84284651  1.0
  Cl  Cl12  1  0.63644970  0.42847021  0.34284651  1.0
  Cl  Cl13  1  0.63644970  0.07152979  0.34284651  1.0
  Cl  Cl14  1  0.13644970  0.42847021  0.15715349  1.0
  Cl  Cl15  1  0.13644970  0.07152979  0.15715349  1.0
  Cl  Cl16  1  0.14282635  0.98453555  0.56743836  1.0
  Cl  Cl17  1  0.14282635  0.51546445  0.56743836  1.0
  Cl  Cl18  1  0.64282635  0.98453555  0.93256164  1.0
  Cl  Cl19  1  0.64282635  0.51546445  0.93256164  1.0
  Cl  Cl20  1  0.85717365  0.48453555  0.43256164  1.0
  Cl  Cl21  1  0.85717365  0.01546445  0.43256164  1.0
  Cl  Cl22  1  0.35717365  0.48453555  0.06743836  1.0
  Cl  Cl23  1  0.35717365  0.01546445  0.06743836  1.0
  Cl  Cl24  1  0.47405584  0.75000000  0.19742603  1.0
  Cl  Cl25  1  0.97405584  0.75000000  0.30257397  1.0
  Cl  Cl26  1  0.52594416  0.25000000  0.80257397  1.0
  Cl  Cl27  1  0.02594416  0.25000000  0.69742603  1.0
  Cl  Cl28  1  0.27981548  0.75000000  0.29813690  1.0
  Cl  Cl29  1  0.77981548  0.75000000  0.20186310  1.0
  Cl  Cl30  1  0.72018452  0.25000000  0.70186310  1.0
  Cl  Cl31  1  0.22018452  0.25000000  0.79813690  1.0
  Cl  Cl32  1  0.23881484  0.75000000  0.94459273  1.0
  Cl  Cl33  1  0.73881484  0.75000000  0.55540727  1.0
  Cl  Cl34  1  0.76118516  0.25000000  0.05540727  1.0
  Cl  Cl35  1  0.26118516  0.25000000  0.44459273  1.0
  Cl  Cl36  1  0.02209890  0.75000000  0.84611346  1.0
  Cl  Cl37  1  0.52209890  0.75000000  0.65388654  1.0
  Cl  Cl38  1  0.97790110  0.25000000  0.15388654  1.0
  Cl  Cl39  1  0.47790110  0.25000000  0.34611346  1.0
  O  O40  1  0.42195648  0.75000000  0.88999710  1.0
  O  O41  1  0.92195648  0.75000000  0.61000290  1.0
  O  O42  1  0.57804352  0.25000000  0.11000290  1.0
  O  O43  1  0.07804352  0.25000000  0.38999710  1.0
