# generated using pymatgen
data_KC2N3
_symmetry_space_group_name_H-M   'P 1'
_cell_length_a   8.61791807
_cell_length_b   3.99776671
_cell_length_c   13.11293551
_cell_angle_alpha   90.00000000
_cell_angle_beta   90.00000000
_cell_angle_gamma   90.00000000
_symmetry_Int_Tables_number   1
_chemical_formula_structural   KC2N3
_chemical_formula_sum   'K4 C8 N12'
_cell_volume   451.77243994
_cell_formula_units_Z   4
loop_
 _symmetry_equiv_pos_site_id
 _symmetry_equiv_pos_as_xyz
  1  'x, y, z'
loop_
 _atom_site_type_symbol
 _atom_site_label
 _atom_site_symmetry_multiplicity
 _atom_site_fract_x
 _atom_site_fract_y
 _atom_site_fract_z
 _atom_site_occupancy
  K  K0  1  0.12337867  0.25000000  0.37801990  1.0
  K  K1  1  0.62337867  0.25000000  0.12198010  1.0
  K  K2  1  0.87662133  0.75000000  0.62198010  1.0
  K  K3  1  0.37662133  0.75000000  0.87801990  1.0
  C  C4  1  0.51346589  0.25000000  0.63843915  1.0
  C  C5  1  0.01346589  0.25000000  0.86156085  1.0
  C  C6  1  0.48653411  0.75000000  0.36156085  1.0
  C  C7  1  0.98653411  0.75000000  0.13843915  1.0
  C  C8  1  0.24453201  0.25000000  0.63366301  1.0
  C  C9  1  0.74453201  0.25000000  0.86633699  1.0
  C  C10  1  0.75546799  0.75000000  0.36633699  1.0
  C  C11  1  0.25546799  0.75000000  0.13366301  1.0
  N  N12  1  0.64373898  0.25000000  0.61091381  1.0
  N  N13  1  0.14373898  0.25000000  0.88908619  1.0
  N  N14  1  0.35626102  0.75000000  0.38908619  1.0
  N  N15  1  0.85626102  0.75000000  0.11091381  1.0
  N  N16  1  0.37681845  0.25000000  0.68080780  1.0
  N  N17  1  0.87681845  0.25000000  0.81919220  1.0
  N  N18  1  0.62318155  0.75000000  0.31919220  1.0
  N  N19  1  0.12318155  0.75000000  0.18080780  1.0
  N  N20  1  0.11688372  0.25000000  0.60066172  1.0
  N  N21  1  0.61688372  0.25000000  0.89933828  1.0
  N  N22  1  0.88311628  0.75000000  0.39933828  1.0
  N  N23  1  0.38311628  0.75000000  0.10066172  1.0
