# generated using pymatgen
data_CaSiBO5
_symmetry_space_group_name_H-M   'P 1'
_cell_length_a   4.96086794
_cell_length_b   7.71479971
_cell_length_c   9.60065630
_cell_angle_alpha   90.00000000
_cell_angle_beta   91.40093975
_cell_angle_gamma   90.00000000
_symmetry_Int_Tables_number   1
_chemical_formula_structural   CaSiBO5
_chemical_formula_sum   'Ca4 Si4 B4 O20'
_cell_volume   367.32747113
_cell_formula_units_Z   4
loop_
 _symmetry_equiv_pos_site_id
 _symmetry_equiv_pos_as_xyz
  1  'x, y, z'
loop_
 _atom_site_type_symbol
 _atom_site_label
 _atom_site_symmetry_multiplicity
 _atom_site_fract_x
 _atom_site_fract_y
 _atom_site_fract_z
 _atom_site_occupancy
  O  O0  1  0.76801629  0.39319313  0.95177163  1.0
  O  O1  1  0.76801629  0.10680687  0.45177163  1.0
  O  O2  1  0.23198371  0.89319313  0.54822837  1.0
  O  O3  1  0.23198371  0.60680687  0.04822837  1.0
  O  O4  1  0.69369349  0.83266122  0.70086370  1.0
  O  O5  1  0.69369349  0.66733878  0.20086370  1.0
  O  O6  1  0.30630651  0.33266122  0.79913630  1.0
  O  O7  1  0.30630651  0.16733878  0.29913630  1.0
  O  O8  1  0.64161111  0.78983819  0.94494831  1.0
  O  O9  1  0.64161111  0.71016181  0.44494831  1.0
  O  O10  1  0.35838889  0.28983819  0.55505169  1.0
  O  O11  1  0.35838889  0.21016181  0.05505169  1.0
  O  O12  1  0.33308341  0.57867258  0.65092973  1.0
  O  O13  1  0.33308341  0.92132742  0.15092973  1.0
  O  O14  1  0.66691659  0.07867258  0.84907027  1.0
  O  O15  1  0.66691659  0.42132742  0.34907027  1.0
  O  O16  1  0.73486306  0.39687565  0.69710233  1.0
  O  O17  1  0.73486306  0.10312435  0.19710233  1.0
  O  O18  1  0.26513694  0.89687565  0.80289767  1.0
  O  O19  1  0.26513694  0.60312435  0.30289767  1.0
  Ca  Ca20  1  0.99534375  0.61300491  0.82876405  1.0
  Ca  Ca21  1  0.99534375  0.88699509  0.32876405  1.0
  Ca  Ca22  1  0.00465625  0.11300491  0.67123595  1.0
  Ca  Ca23  1  0.00465625  0.38699509  0.17123595  1.0
  B  B24  1  0.55915515  0.90324710  0.82729823  1.0
  B  B25  1  0.55915515  0.59675290  0.32729823  1.0
  B  B26  1  0.44084485  0.40324710  0.67270177  1.0
  B  B27  1  0.44084485  0.09675290  0.17270177  1.0
  Si  Si28  1  0.46945269  0.75457616  0.58489304  1.0
  Si  Si29  1  0.46945269  0.74542384  0.08489304  1.0
  Si  Si30  1  0.53054731  0.25457616  0.91510696  1.0
  Si  Si31  1  0.53054731  0.24542384  0.41510696  1.0
