# generated using pymatgen
data_BS2N2OF7
_symmetry_space_group_name_H-M   'P 1'
_cell_length_a   6.45080637
_cell_length_b   8.20144836
_cell_length_c   8.43075971
_cell_angle_alpha   90.00000000
_cell_angle_beta   110.88001771
_cell_angle_gamma   90.00000000
_symmetry_Int_Tables_number   1
_chemical_formula_structural   BS2N2OF7
_chemical_formula_sum   'B2 S4 N4 O2 F14'
_cell_volume   416.74560013
_cell_formula_units_Z   2
loop_
 _symmetry_equiv_pos_site_id
 _symmetry_equiv_pos_as_xyz
  1  'x, y, z'
loop_
 _atom_site_type_symbol
 _atom_site_label
 _atom_site_symmetry_multiplicity
 _atom_site_fract_x
 _atom_site_fract_y
 _atom_site_fract_z
 _atom_site_occupancy
  B  B0  1  0.36959733  0.75000000  0.31702848  1.0
  B  B1  1  0.63040267  0.25000000  0.68297152  1.0
  S  S2  1  0.75679596  0.75000000  0.62556113  1.0
  S  S3  1  0.24320404  0.25000000  0.37443887  1.0
  S  S4  1  0.66340260  0.75000000  0.92165715  1.0
  S  S5  1  0.33659740  0.25000000  0.07834285  1.0
  N  N6  1  0.82692233  0.75000000  0.82731889  1.0
  N  N7  1  0.17307767  0.25000000  0.17268111  1.0
  N  N8  1  0.52985513  0.75000000  0.51452669  1.0
  N  N9  1  0.47014487  0.25000000  0.48547331  1.0
  O  O10  1  0.42918499  0.75000000  0.84592798  1.0
  O  O11  1  0.57081501  0.25000000  0.15407202  1.0
  F  F12  1  0.91487351  0.89081186  0.60849193  1.0
  F  F13  1  0.91487351  0.60918814  0.60849193  1.0
  F  F14  1  0.08512649  0.39081186  0.39150807  1.0
  F  F15  1  0.08512649  0.10918814  0.39150807  1.0
  F  F16  1  0.58206988  0.39121164  0.75670440  1.0
  F  F17  1  0.58206988  0.10878836  0.75670440  1.0
  F  F18  1  0.41793012  0.89121164  0.24329560  1.0
  F  F19  1  0.41793012  0.60878836  0.24329560  1.0
  F  F20  1  0.25357380  0.39035919  0.94755561  1.0
  F  F21  1  0.25357380  0.10964081  0.94755561  1.0
  F  F22  1  0.74642620  0.89035919  0.05244439  1.0
  F  F23  1  0.74642620  0.60964081  0.05244439  1.0
  F  F24  1  0.15386766  0.75000000  0.31503762  1.0
  F  F25  1  0.84613234  0.25000000  0.68496238  1.0
