# generated using pymatgen
data_CrAgSe2
_symmetry_space_group_name_H-M   'P 1'
_cell_length_a   7.36168256
_cell_length_b   7.36168256
_cell_length_c   7.36168256
_cell_angle_alpha   29.52114921
_cell_angle_beta   29.52114921
_cell_angle_gamma   29.52114921
_symmetry_Int_Tables_number   1
_chemical_formula_structural   CrAgSe2
_chemical_formula_sum   'Cr1 Ag1 Se2'
_cell_volume   85.74251214
_cell_formula_units_Z   1
loop_
 _symmetry_equiv_pos_site_id
 _symmetry_equiv_pos_as_xyz
  1  'x, y, z'
loop_
 _atom_site_type_symbol
 _atom_site_label
 _atom_site_symmetry_multiplicity
 _atom_site_fract_x
 _atom_site_fract_y
 _atom_site_fract_z
 _atom_site_occupancy
  Cr  Cr0  1  0.73043547  -0.26956453  -0.26956453  1.0
  Se  Se1  1  0.46381058  0.46381058  -0.53618942  1.0
  Se  Se2  1  0.00190068  0.00190068  0.00190068  1.0
  Ag  Ag3  1  0.88095327  -0.11904673  -0.11904673  1.0
