# generated using pymatgen
data_Sb2P3(HO3)3
_symmetry_space_group_name_H-M   'P 1'
_cell_length_a   7.62590867
_cell_length_b   9.35125492
_cell_length_c   8.60002817
_cell_angle_alpha   67.60900989
_cell_angle_beta   67.23087166
_cell_angle_gamma   81.18402780
_symmetry_Int_Tables_number   1
_chemical_formula_structural   Sb2P3(HO3)3
_chemical_formula_sum   'Sb4 P6 H6 O18'
_cell_volume   522.84459587
_cell_formula_units_Z   2
loop_
 _symmetry_equiv_pos_site_id
 _symmetry_equiv_pos_as_xyz
  1  'x, y, z'
loop_
 _atom_site_type_symbol
 _atom_site_label
 _atom_site_symmetry_multiplicity
 _atom_site_fract_x
 _atom_site_fract_y
 _atom_site_fract_z
 _atom_site_occupancy
  Sb  Sb0  1  -1.00726528  -0.76885419  -0.50393270  1.0
  Sb  Sb1  1  0.00726528  -0.23114581  -0.49606730  1.0
  Sb  Sb2  1  -0.32805672  -0.90783766  -0.84753870  1.0
  Sb  Sb3  1  -0.67194328  -0.09216234  -0.15246130  1.0
  P  P4  1  -0.77235753  -0.44183427  -0.78068517  1.0
  P  P5  1  -0.22764247  -0.55816573  -0.21931483  1.0
  P  P6  1  -0.75868373  -0.86862859  -0.88213341  1.0
  P  P7  1  -0.24131627  -0.13137141  -0.11786659  1.0
  P  P8  1  -0.44432148  -0.76628661  -0.50276666  1.0
  P  P9  1  -0.55567852  -0.23371339  -0.49723334  1.0
  H  H10  1  -0.83234939  -0.73344056  -0.98187311  1.0
  H  H11  1  -0.16765061  -0.26655944  -0.01812689  1.0
  H  H12  1  -0.58123032  -0.49021724  -0.83749141  1.0
  H  H13  1  -0.41876968  -0.50978276  -0.16250859  1.0
  H  H14  1  -0.50145443  -0.61444523  -0.50752248  1.0
  H  H15  1  -0.49854557  -0.38555477  -0.49247752  1.0
  O  O16  1  -0.89438471  -0.58381618  -0.73428374  1.0
  O  O17  1  -0.10561529  -0.41618382  -0.26571626  1.0
  O  O18  1  -0.87405158  -0.90787042  -0.67853616  1.0
  O  O19  1  -0.12594842  -0.09212958  -0.32146384  1.0
  O  O20  1  -0.80881483  -0.31033075  -0.93936258  1.0
  O  O21  1  -0.19118517  -0.68966925  -0.06063742  1.0
  O  O22  1  -0.80683064  -0.40310730  -0.61218110  1.0
  O  O23  1  -0.19316936  -0.59689270  -0.38781890  1.0
  O  O24  1  -0.78229988  -1.00495172  -0.93162388  1.0
  O  O25  1  -0.21770012  0.00495172  -0.06837612  1.0
  O  O26  1  -0.54833551  -0.82458082  -0.93701983  1.0
  O  O27  1  -0.45166449  -0.17541918  -0.06298017  1.0
  O  O28  1  -0.52306674  -0.80421546  -0.62207696  1.0
  O  O29  1  -0.47693326  -0.19578454  -0.37792304  1.0
  O  O30  1  -0.51439616  -0.87044556  -0.30256496  1.0
  O  O31  1  -0.48560384  -0.12955444  -0.69743504  1.0
  O  O32  1  -0.22044079  -0.76500539  -0.59075165  1.0
  O  O33  1  -0.77955921  -0.23499461  -0.40924835  1.0
