# generated using pymatgen
data_Lu(P2Rh3)2
_symmetry_space_group_name_H-M   'P 1'
_cell_length_a   7.00172463
_cell_length_b   7.00172463
_cell_length_c   3.73018627
_cell_angle_alpha   90.00000000
_cell_angle_beta   90.00000000
_cell_angle_gamma   120.00000000
_symmetry_Int_Tables_number   1
_chemical_formula_structural   Lu(P2Rh3)2
_chemical_formula_sum   'Lu1 P4 Rh6'
_cell_volume   158.36937558
_cell_formula_units_Z   1
loop_
 _symmetry_equiv_pos_site_id
 _symmetry_equiv_pos_as_xyz
  1  'x, y, z'
loop_
 _atom_site_type_symbol
 _atom_site_label
 _atom_site_symmetry_multiplicity
 _atom_site_fract_x
 _atom_site_fract_y
 _atom_site_fract_z
 _atom_site_occupancy
  Lu  Lu0  1  0.00000000  0.00000000  0.01383155  1.0
  P  P1  1  0.82538764  0.62912903  0.51390535  1.0
  P  P2  1  0.80374139  0.17461236  0.51390535  1.0
  P  P3  1  0.37087097  0.19625861  0.51390535  1.0
  P  P4  1  0.33333333  0.66666667  0.01384001  1.0
  Rh  Rh5  1  0.49883087  0.43309551  0.01389220  1.0
  Rh  Rh6  1  0.93426464  0.50116913  0.01389220  1.0
  Rh  Rh7  1  0.56690449  0.06573536  0.01389220  1.0
  Rh  Rh8  1  0.17718565  0.39239275  0.51387860  1.0
  Rh  Rh9  1  0.21520710  0.82281435  0.51387860  1.0
  Rh  Rh10  1  0.60760725  0.78479290  0.51387860  1.0
