# generated using pymatgen
data_Ba3Al3Si2SbO14
_symmetry_space_group_name_H-M   'P 1'
_cell_length_a   8.52729925
_cell_length_b   8.52729925
_cell_length_c   5.18475218
_cell_angle_alpha   90.00000000
_cell_angle_beta   90.00000000
_cell_angle_gamma   120.00000000
_symmetry_Int_Tables_number   1
_chemical_formula_structural   Ba3Al3Si2SbO14
_chemical_formula_sum   'Ba3 Al3 Si2 Sb1 O14'
_cell_volume   326.49884035
_cell_formula_units_Z   1
loop_
 _symmetry_equiv_pos_site_id
 _symmetry_equiv_pos_as_xyz
  1  'x, y, z'
loop_
 _atom_site_type_symbol
 _atom_site_label
 _atom_site_symmetry_multiplicity
 _atom_site_fract_x
 _atom_site_fract_y
 _atom_site_fract_z
 _atom_site_occupancy
  Ba  Ba0  1  0.43073087  0.43073087  0.00000000  1.0
  Ba  Ba1  1  -0.00000000  0.56926913  0.00000000  1.0
  Ba  Ba2  1  0.56926913  0.00000000  0.00000000  1.0
  Al  Al3  1  0.74376523  0.74376523  0.50000000  1.0
  Al  Al4  1  -0.00000000  0.25623477  0.50000000  1.0
  Al  Al5  1  0.25623477  0.00000000  0.50000000  1.0
  Si  Si6  1  0.33333333  0.66666667  0.50973154  1.0
  Si  Si7  1  0.66666667  0.33333333  0.49026846  1.0
  Sb  Sb8  1  0.00000000  0.00000000  0.00000000  1.0
  O  O9  1  0.11126860  0.89203009  0.23168183  1.0
  O  O10  1  0.89203009  0.11126860  0.76831817  1.0
  O  O11  1  0.78076149  0.88873140  0.23168183  1.0
  O  O12  1  0.10796991  0.21923851  0.23168183  1.0
  O  O13  1  0.88873140  0.78076149  0.76831817  1.0
  O  O14  1  0.21923851  0.10796991  0.76831817  1.0
  O  O15  1  0.70207844  0.52900863  0.36916115  1.0
  O  O16  1  0.52900863  0.70207844  0.63083885  1.0
  O  O17  1  0.82693019  0.29792156  0.36916115  1.0
  O  O18  1  0.47099137  0.17306981  0.36916115  1.0
  O  O19  1  0.29792156  0.82693019  0.63083885  1.0
  O  O20  1  0.17306981  0.47099137  0.63083885  1.0
  O  O21  1  0.33333333  0.66666667  0.19906621  1.0
  O  O22  1  0.66666667  0.33333333  0.80093379  1.0
