# generated using pymatgen
data_CoSb2(MoO5)2
_symmetry_space_group_name_H-M   'P 1'
_cell_length_a   13.87562980
_cell_length_b   13.87562980
_cell_length_c   5.02121207
_cell_angle_alpha   86.95309395
_cell_angle_beta   93.04690605
_cell_angle_gamma   155.88633269
_symmetry_Int_Tables_number   1
_chemical_formula_structural   CoSb2(MoO5)2
_chemical_formula_sum   'Co2 Sb4 Mo4 O20'
_cell_volume   394.37994915
_cell_formula_units_Z   2
loop_
 _symmetry_equiv_pos_site_id
 _symmetry_equiv_pos_as_xyz
  1  'x, y, z'
loop_
 _atom_site_type_symbol
 _atom_site_label
 _atom_site_symmetry_multiplicity
 _atom_site_fract_x
 _atom_site_fract_y
 _atom_site_fract_z
 _atom_site_occupancy
  O  O0  1  0.70652506  0.46416496  0.58333942  1.0
  O  O1  1  0.46416496  -0.29347494  0.91666058  1.0
  O  O2  1  1.29347494  0.53583504  0.41666058  1.0
  O  O3  1  0.53583504  0.29347494  0.08333942  1.0
  O  O4  1  0.67439558  0.58445641  0.93157288  1.0
  O  O5  1  0.58445641  -0.32560442  0.56842712  1.0
  O  O6  1  1.32560442  0.41554359  0.06842712  1.0
  O  O7  1  0.41554359  0.32560442  0.43157288  1.0
  O  O8  1  0.81637514  0.38658045  0.34839016  1.0
  O  O9  1  0.38658045  -0.18362486  0.15160984  1.0
  O  O10  1  1.18362486  0.61341955  0.65160984  1.0
  O  O11  1  0.61341955  0.18362486  0.84839016  1.0
  O  O12  1  1.00661776  0.75685557  0.16810695  1.0
  O  O13  1  0.75685557  0.00661776  0.33189305  1.0
  O  O14  1  0.99338224  0.24314443  0.83189305  1.0
  O  O15  1  0.24314443  -0.00661776  0.66810695  1.0
  O  O16  1  0.91280740  0.83847556  0.43380833  1.0
  O  O17  1  0.83847556  -0.08719260  0.06619167  1.0
  O  O18  1  1.08719260  0.16152444  0.56619167  1.0
  O  O19  1  0.16152444  0.08719260  0.93380833  1.0
  Co  Co20  1  0.86108858  0.86108858  0.75000000  1.0
  Co  Co21  1  0.13891142  0.13891142  0.25000000  1.0
  Mo  Mo22  1  0.77000883  0.60910601  0.25462083  1.0
  Mo  Mo23  1  0.60910601  -0.22999117  0.24537917  1.0
  Mo  Mo24  1  1.22999117  0.39089399  0.74537917  1.0
  Mo  Mo25  1  0.39089399  0.22999117  0.75462083  1.0
  Sb  Sb26  1  0.89817194  0.51652140  0.69852632  1.0
  Sb  Sb27  1  0.51652140  -0.10182806  0.80147368  1.0
  Sb  Sb28  1  1.10182806  0.48347860  0.30147368  1.0
  Sb  Sb29  1  0.48347860  0.10182806  0.19852632  1.0
