# generated using pymatgen
data_NaCaBe2B2O6F
_symmetry_space_group_name_H-M   'P 1'
_cell_length_a   4.68397218
_cell_length_b   4.68397218
_cell_length_c   14.42533629
_cell_angle_alpha   90.07182336
_cell_angle_beta   89.92817664
_cell_angle_gamma   60.04214494
_symmetry_Int_Tables_number   1
_chemical_formula_structural   NaCaBe2B2O6F
_chemical_formula_sum   'Na2 Ca2 Be4 B4 O12 F2'
_cell_volume   274.20041526
_cell_formula_units_Z   2
loop_
 _symmetry_equiv_pos_site_id
 _symmetry_equiv_pos_as_xyz
  1  'x, y, z'
loop_
 _atom_site_type_symbol
 _atom_site_label
 _atom_site_symmetry_multiplicity
 _atom_site_fract_x
 _atom_site_fract_y
 _atom_site_fract_z
 _atom_site_occupancy
  Na  Na0  1  0.50608766  -0.49780386  0.35887725  1.0
  Na  Na1  1  0.49780386  0.49391234  0.85887725  1.0
  Ca  Ca2  1  0.51019311  0.48034560  0.10953597  1.0
  Ca  Ca3  1  0.51965440  -0.51019311  0.60953597  1.0
  Be  Be4  1  0.19053984  0.16528983  0.97307504  1.0
  Be  Be5  1  0.83471017  -0.19053984  0.47307504  1.0
  Be  Be6  1  0.86971564  -0.19056849  0.24632862  1.0
  Be  Be7  1  0.19056849  0.13028436  0.74632862  1.0
  B  B8  1  0.15604463  0.15492471  0.49951558  1.0
  B  B9  1  0.84507529  -0.15604463  -0.00048442  1.0
  B  B10  1  0.20181474  0.15494860  0.21982095  1.0
  B  B11  1  0.84505140  -0.20181474  0.71982095  1.0
  O  O12  1  0.16607976  -0.12018499  0.22233924  1.0
  O  O13  1  1.12018499  -0.16607976  0.72233924  1.0
  O  O14  1  0.51017429  0.12365989  0.23027181  1.0
  O  O15  1  0.87634011  -0.51017429  0.73027181  1.0
  O  O16  1  0.93417759  -0.53621960  0.20240454  1.0
  O  O17  1  0.53621960  0.06582241  0.70240454  1.0
  O  O18  1  0.46403589  -0.11971336  0.49010078  1.0
  O  O19  1  1.11971336  -0.46403589  0.99010078  1.0
  O  O20  1  0.53541717  -0.11193827  0.01857743  1.0
  O  O21  1  1.11193827  -0.53541717  0.51857743  1.0
  O  O22  1  0.87858831  -0.87868379  0.49458608  1.0
  O  O23  1  0.87868379  0.12141169  0.99458608  1.0
  F  F24  1  0.26990302  0.09731539  0.85986669  1.0
  F  F25  1  0.90268461  -0.26990302  0.35986669  1.0
