# generated using pymatgen
data_La3InNiS7
_symmetry_space_group_name_H-M   'P 1'
_cell_length_a   10.10893461
_cell_length_b   10.10893461
_cell_length_c   6.43693614
_cell_angle_alpha   90.00000000
_cell_angle_beta   90.00000000
_cell_angle_gamma   120.00000000
_symmetry_Int_Tables_number   1
_chemical_formula_structural   La3InNiS7
_chemical_formula_sum   'La6 In2 Ni2 S14'
_cell_volume   569.66640187
_cell_formula_units_Z   2
loop_
 _symmetry_equiv_pos_site_id
 _symmetry_equiv_pos_as_xyz
  1  'x, y, z'
loop_
 _atom_site_type_symbol
 _atom_site_label
 _atom_site_symmetry_multiplicity
 _atom_site_fract_x
 _atom_site_fract_y
 _atom_site_fract_z
 _atom_site_occupancy
  In  In0  1  0.33333333  0.66666667  0.11645752  1.0
  In  In1  1  0.66666667  0.33333333  0.61645752  1.0
  La  La2  1  0.78062253  0.62752216  0.18700944  1.0
  La  La3  1  0.62752216  0.84689963  0.68700944  1.0
  La  La4  1  0.84689963  0.21937747  0.18700944  1.0
  La  La5  1  0.37247784  0.15310037  0.18700944  1.0
  La  La6  1  0.21937747  0.37247784  0.68700944  1.0
  La  La7  1  0.15310037  0.78062253  0.68700944  1.0
  S  S8  1  0.43525416  0.92028273  0.94907286  1.0
  S  S9  1  0.92028273  0.48502857  0.44907286  1.0
  S  S10  1  0.48502857  0.56474584  0.94907286  1.0
  S  S11  1  0.07971727  0.51497143  0.94907286  1.0
  S  S12  1  0.56474584  0.07971727  0.44907286  1.0
  S  S13  1  0.51497143  0.43525416  0.44907286  1.0
  S  S14  1  0.33333333  0.66666667  0.49346042  1.0
  S  S15  1  0.66666667  0.33333333  -0.00653958  1.0
  S  S16  1  0.09229396  0.87482883  0.28067764  1.0
  S  S17  1  0.87482883  0.78253487  0.78067764  1.0
  S  S18  1  0.78253487  0.90770604  0.28067764  1.0
  S  S19  1  0.12517117  0.21746513  0.28067764  1.0
  S  S20  1  0.90770604  0.12517117  0.78067764  1.0
  S  S21  1  0.21746513  0.09229396  0.78067764  1.0
  Ni  Ni22  1  0.00000000  0.00000000  0.01920226  1.0
  Ni  Ni23  1  0.00000000  0.00000000  0.51920226  1.0
