# generated using pymatgen
data_Ni5As2
_symmetry_space_group_name_H-M   'P 1'
_cell_length_a   6.83799404
_cell_length_b   6.83799404
_cell_length_c   12.57958887
_cell_angle_alpha   90.00000000
_cell_angle_beta   90.00000000
_cell_angle_gamma   120.00000000
_symmetry_Int_Tables_number   1
_chemical_formula_structural   Ni5As2
_chemical_formula_sum   'Ni30 As12'
_cell_volume   509.39480974
_cell_formula_units_Z   6
loop_
 _symmetry_equiv_pos_site_id
 _symmetry_equiv_pos_as_xyz
  1  'x, y, z'
loop_
 _atom_site_type_symbol
 _atom_site_label
 _atom_site_symmetry_multiplicity
 _atom_site_fract_x
 _atom_site_fract_y
 _atom_site_fract_z
 _atom_site_occupancy
  Ni  Ni0  1  0.74873245  0.74873245  0.62029789  1.0
  Ni  Ni1  1  0.74873245  0.00000000  0.12029789  1.0
  Ni  Ni2  1  0.00000000  0.74873245  0.12029789  1.0
  Ni  Ni3  1  0.00000000  0.25126755  0.62029789  1.0
  Ni  Ni4  1  0.25126755  0.25126755  0.12029789  1.0
  Ni  Ni5  1  0.25126755  0.00000000  0.62029789  1.0
  Ni  Ni6  1  0.69004351  0.69004351  0.41321541  1.0
  Ni  Ni7  1  0.69004351  0.00000000  0.91321541  1.0
  Ni  Ni8  1  -0.00000000  0.69004351  0.91321541  1.0
  Ni  Ni9  1  -0.00000000  0.30995649  0.41321541  1.0
  Ni  Ni10  1  0.30995649  0.30995649  0.91321541  1.0
  Ni  Ni11  1  0.30995649  0.00000000  0.41321541  1.0
  Ni  Ni12  1  0.62437465  0.62437465  0.02220540  1.0
  Ni  Ni13  1  0.62437465  0.00000000  0.52220540  1.0
  Ni  Ni14  1  0.00000000  0.62437465  0.52220540  1.0
  Ni  Ni15  1  -0.00000000  0.37562535  0.02220540  1.0
  Ni  Ni16  1  0.37562535  0.37562535  0.52220540  1.0
  Ni  Ni17  1  0.37562535  0.00000000  0.02220540  1.0
  Ni  Ni18  1  0.37444883  0.37444883  0.30969759  1.0
  Ni  Ni19  1  0.37444883  0.00000000  0.80969759  1.0
  Ni  Ni20  1  -0.00000000  0.37444883  0.80969759  1.0
  Ni  Ni21  1  -0.00000000  0.62555117  0.30969759  1.0
  Ni  Ni22  1  0.62555117  0.62555117  0.80969759  1.0
  Ni  Ni23  1  0.62555117  0.00000000  0.30969759  1.0
  Ni  Ni24  1  0.33333333  0.66666667  0.14663844  1.0
  Ni  Ni25  1  0.33333333  0.66666667  0.64663844  1.0
  Ni  Ni26  1  0.66666667  0.33333333  0.14663844  1.0
  Ni  Ni27  1  0.66666667  0.33333333  0.64663844  1.0
  Ni  Ni28  1  0.00000000  0.00000000  0.29211248  1.0
  Ni  Ni29  1  0.00000000  0.00000000  0.79211248  1.0
  As  As30  1  0.66936835  0.66936835  0.21884271  1.0
  As  As31  1  0.66936835  0.00000000  0.71884271  1.0
  As  As32  1  0.00000000  0.66936835  0.71884271  1.0
  As  As33  1  -0.00000000  0.33063165  0.21884271  1.0
  As  As34  1  0.33063165  0.33063165  0.71884271  1.0
  As  As35  1  0.33063165  0.00000000  0.21884271  1.0
  As  As36  1  0.33333333  0.66666667  0.44556326  1.0
  As  As37  1  0.33333333  0.66666667  0.94556326  1.0
  As  As38  1  0.66666667  0.33333333  0.44556326  1.0
  As  As39  1  0.66666667  0.33333333  0.94556326  1.0
  As  As40  1  0.00000000  0.00000000  -0.01229287  1.0
  As  As41  1  0.00000000  0.00000000  0.48770713  1.0
