# generated using pymatgen
data_Gd2GeO5
_symmetry_space_group_name_H-M   'P 1'
_cell_length_a   8.33764063
_cell_length_b   8.33764063
_cell_length_c   10.75578094
_cell_angle_alpha   61.54627653
_cell_angle_beta   118.45372347
_cell_angle_gamma   130.15263672
_symmetry_Int_Tables_number   1
_chemical_formula_structural   Gd2GeO5
_chemical_formula_sum   'Gd8 Ge4 O20'
_cell_volume   486.26356934
_cell_formula_units_Z   4
loop_
 _symmetry_equiv_pos_site_id
 _symmetry_equiv_pos_as_xyz
  1  'x, y, z'
loop_
 _atom_site_type_symbol
 _atom_site_label
 _atom_site_symmetry_multiplicity
 _atom_site_fract_x
 _atom_site_fract_y
 _atom_site_fract_z
 _atom_site_occupancy
  Gd  Gd0  1  1.70707719  -0.22105541  0.03236911  1.0
  Gd  Gd1  1  1.22105541  -0.70707719  0.53236911  1.0
  Gd  Gd2  1  0.77894459  0.70707719  0.46763089  1.0
  Gd  Gd3  1  0.29292281  0.22105541  0.96763089  1.0
  Gd  Gd4  1  0.51902247  0.23939192  0.33928165  1.0
  Gd  Gd5  1  0.76060808  0.48097753  0.83928165  1.0
  Gd  Gd6  1  1.23939192  -0.48097753  0.16071835  1.0
  Gd  Gd7  1  1.48097753  -0.23939192  0.66071835  1.0
  Ge  Ge8  1  0.72317641  0.09149693  0.19368704  1.0
  Ge  Ge9  1  0.90850307  -0.72317641  0.69368704  1.0
  Ge  Ge10  1  1.09149693  0.72317641  0.30631296  1.0
  Ge  Ge11  1  1.27682359  -0.09149693  0.80631296  1.0
  O  O12  1  0.90292860  0.07558763  0.36887407  1.0
  O  O13  1  0.92441237  -0.90292860  0.86887407  1.0
  O  O14  1  1.07558763  0.90292860  0.13112593  1.0
  O  O15  1  1.09707140  -0.07558763  0.63112593  1.0
  O  O16  1  1.58976767  -0.17355815  0.17398289  1.0
  O  O17  1  1.17355815  -0.58976767  0.67398289  1.0
  O  O18  1  0.82644185  0.58976767  0.32601711  1.0
  O  O19  1  0.41023233  0.17355815  0.82601711  1.0
  O  O20  1  0.28187277  -0.12597038  0.43905117  1.0
  O  O21  1  1.12597038  0.71812723  0.93905117  1.0
  O  O22  1  0.87402962  -0.71812723  0.06094883  1.0
  O  O23  1  1.71812723  0.12597038  0.56094883  1.0
  O  O24  1  0.54340316  0.14963541  0.17618096  1.0
  O  O25  1  0.85036459  -0.54340316  0.67618096  1.0
  O  O26  1  1.14963541  0.54340316  0.32381904  1.0
  O  O27  1  1.45659684  -0.14963541  0.82381904  1.0
  O  O28  1  0.42120988  0.39074262  0.39504065  1.0
  O  O29  1  0.60925738  0.57879012  0.89504065  1.0
  O  O30  1  1.39074262  -0.57879012  0.10495935  1.0
  O  O31  1  1.57879012  -0.39074262  0.60495935  1.0
