# generated using pymatgen
data_Na2CaMg(PO4)2
_symmetry_space_group_name_H-M   'P 1'
_cell_length_a   5.45914651
_cell_length_b   5.45914651
_cell_length_c   6.65796351
_cell_angle_alpha   90.00000000
_cell_angle_beta   90.00000000
_cell_angle_gamma   120.00000000
_symmetry_Int_Tables_number   1
_chemical_formula_structural   Na2CaMg(PO4)2
_chemical_formula_sum   'Na2 Ca1 Mg1 P2 O8'
_cell_volume   171.83892288
_cell_formula_units_Z   1
loop_
 _symmetry_equiv_pos_site_id
 _symmetry_equiv_pos_as_xyz
  1  'x, y, z'
loop_
 _atom_site_type_symbol
 _atom_site_label
 _atom_site_symmetry_multiplicity
 _atom_site_fract_x
 _atom_site_fract_y
 _atom_site_fract_z
 _atom_site_occupancy
  Na  Na0  1  0.33333333  0.66666667  0.64595280  1.0
  Na  Na1  1  0.66666667  0.33333333  0.35404720  1.0
  Ca  Ca2  1  -0.00000000  0.00000000  0.50000000  1.0
  Mg  Mg3  1  0.00000000  -0.00000000  -0.00000000  1.0
  P  P4  1  0.33333333  0.66666667  0.18504421  1.0
  P  P5  1  0.66666667  0.33333333  0.81495579  1.0
  O  O6  1  0.64477684  0.82238842  0.27073830  1.0
  O  O7  1  0.82238842  0.64477684  0.72926170  1.0
  O  O8  1  0.82238842  0.17761158  0.72926170  1.0
  O  O9  1  0.17761158  0.82238842  0.27073830  1.0
  O  O10  1  0.17761158  0.35522316  0.27073830  1.0
  O  O11  1  0.35522316  0.17761158  0.72926170  1.0
  O  O12  1  0.33333333  0.66666667  -0.04071382  1.0
  O  O13  1  0.66666667  0.33333333  1.04071382  1.0
