# generated using pymatgen
data_LiAlSiH2O5
_symmetry_space_group_name_H-M   'P 1'
_cell_length_a   10.61858373
_cell_length_b   8.20543065
_cell_length_c   5.01418013
_cell_angle_alpha   90.00000000
_cell_angle_beta   90.00000000
_cell_angle_gamma   90.00000000
_symmetry_Int_Tables_number   1
_chemical_formula_structural   LiAlSiH2O5
_chemical_formula_sum   'Li4 Al4 Si4 H8 O20'
_cell_volume   436.88577701
_cell_formula_units_Z   4
loop_
 _symmetry_equiv_pos_site_id
 _symmetry_equiv_pos_as_xyz
  1  'x, y, z'
loop_
 _atom_site_type_symbol
 _atom_site_label
 _atom_site_symmetry_multiplicity
 _atom_site_fract_x
 _atom_site_fract_y
 _atom_site_fract_z
 _atom_site_occupancy
  Li  Li0  1  0.30632586  0.81141844  0.40556137  1.0
  Li  Li1  1  0.80632586  0.68858156  0.40556137  1.0
  Li  Li2  1  0.69367414  0.18858156  0.90556137  1.0
  Li  Li3  1  0.19367414  0.31141844  0.90556137  1.0
  Al  Al4  1  0.34730002  0.41158015  0.41308875  1.0
  Al  Al5  1  0.84730002  0.08841985  0.41308875  1.0
  Al  Al6  1  0.65269998  0.58841985  0.91308875  1.0
  Al  Al7  1  0.15269998  0.91158015  0.91308875  1.0
  Si  Si8  1  0.14491364  0.12246436  0.41407415  1.0
  Si  Si9  1  0.64491364  0.37753564  0.41407415  1.0
  Si  Si10  1  0.85508636  0.87753564  0.91407415  1.0
  Si  Si11  1  0.35508636  0.62246436  0.91407415  1.0
  H  H12  1  0.48403421  0.04857386  0.01054715  1.0
  H  H13  1  0.98403421  0.45142614  0.01054715  1.0
  H  H14  1  0.51596579  0.95142614  0.51054715  1.0
  H  H15  1  0.01596579  0.54857386  0.51054715  1.0
  H  H16  1  0.48470495  0.16930975  0.75728858  1.0
  H  H17  1  0.98470495  0.33069025  0.75728858  1.0
  H  H18  1  0.51529505  0.83069025  0.25728858  1.0
  H  H19  1  0.01529505  0.66930975  0.25728858  1.0
  O  O20  1  0.49797394  0.33160209  0.47744658  1.0
  O  O21  1  0.99797394  0.16839791  0.47744658  1.0
  O  O22  1  0.50202606  0.66839791  0.97744658  1.0
  O  O23  1  0.00202606  0.83160209  0.97744658  1.0
  O  O24  1  0.47038434  0.91987634  0.34804242  1.0
  O  O25  1  0.97038434  0.58012366  0.34804242  1.0
  O  O26  1  0.52961566  0.08012366  0.84804242  1.0
  O  O27  1  0.02961566  0.41987634  0.84804242  1.0
  O  O28  1  0.31791594  0.45215667  0.07120739  1.0
  O  O29  1  0.81791594  0.04784333  0.07120739  1.0
  O  O30  1  0.68208406  0.54784333  0.57120739  1.0
  O  O31  1  0.18208406  0.95215667  0.57120739  1.0
  O  O32  1  0.23366722  0.27076154  0.52748395  1.0
  O  O33  1  0.73366722  0.22923846  0.52748395  1.0
  O  O34  1  0.76633278  0.72923846  0.02748395  1.0
  O  O35  1  0.26633278  0.77076154  0.02748395  1.0
  O  O36  1  0.17149721  0.09777827  0.09345965  1.0
  O  O37  1  0.67149721  0.40222173  0.09345965  1.0
  O  O38  1  0.82850279  0.90222173  0.59345965  1.0
  O  O39  1  0.32850279  0.59777827  0.59345965  1.0
