# generated using pymatgen
data_RbNa3Li12Ti4O16
_symmetry_space_group_name_H-M   'P 1'
_cell_length_a   8.65709634
_cell_length_b   8.65709634
_cell_length_c   8.65709634
_cell_angle_alpha   98.25273280
_cell_angle_beta   98.25273280
_cell_angle_gamma   135.47302261
_symmetry_Int_Tables_number   1
_chemical_formula_structural   RbNa3Li12Ti4O16
_chemical_formula_sum   'Rb1 Na3 Li12 Ti4 O16'
_cell_volume   421.05625742
_cell_formula_units_Z   1
loop_
 _symmetry_equiv_pos_site_id
 _symmetry_equiv_pos_as_xyz
  1  'x, y, z'
loop_
 _atom_site_type_symbol
 _atom_site_label
 _atom_site_symmetry_multiplicity
 _atom_site_fract_x
 _atom_site_fract_y
 _atom_site_fract_z
 _atom_site_occupancy
  Rb  Rb0  1  0.50000000  0.50000000  -0.00000000  1.0
  Na  Na1  1  1.25000000  0.75000000  0.50000000  1.0
  Na  Na2  1  0.75000000  0.25000000  0.50000000  1.0
  Na  Na3  1  0.00000000  0.00000000  0.00000000  1.0
  Li  Li4  1  1.15709622  1.02411603  0.67396376  1.0
  Li  Li5  1  0.64984773  0.51686754  0.67396376  1.0
  Li  Li6  1  1.02411603  0.35015227  0.86701981  1.0
  Li  Li7  1  1.51686754  0.84290378  0.86701981  1.0
  Li  Li8  1  1.35015227  1.48313246  1.32603624  1.0
  Li  Li9  1  0.84290378  0.97588397  1.32603624  1.0
  Li  Li10  1  0.48313246  1.15709622  1.13298019  1.0
  Li  Li11  1  0.97588397  1.64984773  1.13298019  1.0
  Li  Li12  1  0.78031999  0.58100910  0.36132909  1.0
  Li  Li13  1  0.58100910  0.21968001  0.80068911  1.0
  Li  Li14  1  1.21968001  1.41899090  1.63867091  1.0
  Li  Li15  1  0.41899090  0.78031999  1.19931089  1.0
  Ti  Ti16  1  0.72235601  0.91925348  1.64160949  1.0
  Ti  Ti17  1  0.91925348  1.27764399  1.19689747  1.0
  Ti  Ti18  1  0.27764399  0.08074652  0.35839051  1.0
  Ti  Ti19  1  1.08074652  0.72235601  0.80310253  1.0
  O  O20  1  1.04352770  1.14544473  1.72465674  1.0
  O  O21  1  1.57921201  1.68112905  1.72465674  1.0
  O  O22  1  1.14544473  1.42078799  1.10191704  1.0
  O  O23  1  0.68112905  0.95647230  1.10191704  1.0
  O  O24  1  0.42078799  0.31887095  0.27534326  1.0
  O  O25  1  0.95647230  0.85455527  0.27534326  1.0
  O  O26  1  1.31887095  1.04352770  0.89808296  1.0
  O  O27  1  0.85455527  0.57921201  0.89808296  1.0
  O  O28  1  0.92901586  0.66794454  0.59696040  1.0
  O  O29  1  0.66794454  0.07098414  0.73892868  1.0
  O  O30  1  1.07098414  1.33205546  1.40303960  1.0
  O  O31  1  0.33205546  0.92901586  1.26107132  1.0
  O  O32  1  0.59306864  0.82221879  1.41528743  1.0
  O  O33  1  0.82221879  1.40693136  1.22915014  1.0
  O  O34  1  0.40693136  0.17778121  0.58471257  1.0
  O  O35  1  1.17778121  0.59306864  0.77084986  1.0
