# generated using pymatgen
data_In(IO3)3
_symmetry_space_group_name_H-M   'P 1'
_cell_length_a   7.63643228
_cell_length_b   7.63643228
_cell_length_c   7.63643228
_cell_angle_alpha   80.60462500
_cell_angle_beta   80.60462500
_cell_angle_gamma   80.60462500
_symmetry_Int_Tables_number   1
_chemical_formula_structural   In(IO3)3
_chemical_formula_sum   'In2 I6 O18'
_cell_volume   429.16230282
_cell_formula_units_Z   2
loop_
 _symmetry_equiv_pos_site_id
 _symmetry_equiv_pos_as_xyz
  1  'x, y, z'
loop_
 _atom_site_type_symbol
 _atom_site_label
 _atom_site_symmetry_multiplicity
 _atom_site_fract_x
 _atom_site_fract_y
 _atom_site_fract_z
 _atom_site_occupancy
  In  In0  1  0.81920295  0.81920295  -0.18079705  1.0
  In  In1  1  1.18079705  1.18079705  0.18079705  1.0
  I  I2  1  0.86313260  0.58122141  -0.71705317  1.0
  I  I3  1  0.41877859  0.71705317  -0.86313260  1.0
  I  I4  1  0.71705317  0.13686740  -0.58122141  1.0
  I  I5  1  0.13686740  0.41877859  -0.28294683  1.0
  I  I6  1  0.58122141  0.28294683  -0.13686740  1.0
  I  I7  1  0.28294683  0.86313260  -0.41877859  1.0
  O  O8  1  0.72406720  0.41782096  -0.77510830  1.0
  O  O9  1  0.58217904  0.77510830  -0.72406720  1.0
  O  O10  1  0.77510830  0.27593280  -0.41782096  1.0
  O  O11  1  0.27593280  0.58217904  -0.22489170  1.0
  O  O12  1  0.41782096  0.22489170  -0.27593280  1.0
  O  O13  1  0.22489170  0.72406720  -0.58217904  1.0
  O  O14  1  0.57758346  0.69353492  -0.08125280  1.0
  O  O15  1  1.30646508  1.08125280  0.42241654  1.0
  O  O16  1  1.08125280  1.42241654  0.30646508  1.0
  O  O17  1  1.42241654  1.30646508  0.08125280  1.0
  O  O18  1  0.69353492  0.91874720  -0.42241654  1.0
  O  O19  1  0.91874720  0.57758346  -0.30646508  1.0
  O  O20  1  0.70543247  0.05827642  -0.05412611  1.0
  O  O21  1  0.94172358  0.05412611  -0.70543247  1.0
  O  O22  1  1.05412611  -0.70543247  -0.05827642  1.0
  O  O23  1  0.29456753  -0.05827642  0.05412611  1.0
  O  O24  1  1.05827642  -0.05412611  -0.29456753  1.0
  O  O25  1  0.94587389  -0.29456753  0.05827642  1.0
