# generated using pymatgen
data_CSe2
_symmetry_space_group_name_H-M   'P 1'
_cell_length_a   4.97755203
_cell_length_b   4.97755203
_cell_length_c   9.45860966
_cell_angle_alpha   90.00000000
_cell_angle_beta   90.00000000
_cell_angle_gamma   81.78010160
_symmetry_Int_Tables_number   1
_chemical_formula_structural   CSe2
_chemical_formula_sum   'C2 Se4'
_cell_volume   231.93921297
_cell_formula_units_Z   2
loop_
 _symmetry_equiv_pos_site_id
 _symmetry_equiv_pos_as_xyz
  1  'x, y, z'
loop_
 _atom_site_type_symbol
 _atom_site_label
 _atom_site_symmetry_multiplicity
 _atom_site_fract_x
 _atom_site_fract_y
 _atom_site_fract_z
 _atom_site_occupancy
  C  C0  1  -0.50000000  0.50000000  0.50000000  1.0
  C  C1  1  -0.00000000  1.00000000  0.00000000  1.0
  Se  Se2  1  -0.31003867  1.31003867  0.37581902  1.0
  Se  Se3  1  0.18996133  0.81003867  0.12418098  1.0
  Se  Se4  1  0.31003867  0.68996133  0.62418098  1.0
  Se  Se5  1  -0.18996133  1.18996133  0.87581902  1.0
