# generated using pymatgen
data_Ca2SiO4F
_symmetry_space_group_name_H-M   'P 1'
_cell_length_a   5.97851597
_cell_length_b   10.68052653
_cell_length_c   6.67501276
_cell_angle_alpha   90.00000000
_cell_angle_beta   99.38720072
_cell_angle_gamma   90.00000000
_symmetry_Int_Tables_number   1
_chemical_formula_structural   Ca2SiO4F
_chemical_formula_sum   'Ca8 Si4 O16 F4'
_cell_volume   420.51652150
_cell_formula_units_Z   4
loop_
 _symmetry_equiv_pos_site_id
 _symmetry_equiv_pos_as_xyz
  1  'x, y, z'
loop_
 _atom_site_type_symbol
 _atom_site_label
 _atom_site_symmetry_multiplicity
 _atom_site_fract_x
 _atom_site_fract_y
 _atom_site_fract_z
 _atom_site_occupancy
  F  F0  1  0.87524111  0.88645840  0.49578545  1.0
  F  F1  1  0.87524111  0.61354160  0.99578545  1.0
  F  F2  1  0.12475889  0.38645840  0.00421455  1.0
  F  F3  1  0.12475889  0.11354160  0.50421455  1.0
  O  O4  1  0.60214361  0.49496114  0.24256493  1.0
  O  O5  1  0.60214361  0.00503886  0.74256493  1.0
  O  O6  1  0.39785639  0.99496114  0.25743507  1.0
  O  O7  1  0.39785639  0.50503886  0.75743507  1.0
  O  O8  1  0.45954811  0.27854005  0.41644399  1.0
  O  O9  1  0.45954811  0.22145995  0.91644399  1.0
  O  O10  1  0.54045189  0.77854005  0.08355601  1.0
  O  O11  1  0.54045189  0.72145995  0.58355601  1.0
  O  O12  1  0.82324704  0.08483945  0.10137891  1.0
  O  O13  1  0.82324704  0.41516055  0.60137891  1.0
  O  O14  1  0.17675296  0.58483945  0.39862109  1.0
  O  O15  1  0.17675296  0.91516055  0.89862109  1.0
  O  O16  1  0.85742603  0.28899220  0.27945085  1.0
  O  O17  1  0.85742603  0.21100780  0.77945085  1.0
  O  O18  1  0.14257397  0.78899220  0.22054915  1.0
  O  O19  1  0.14257397  0.71100780  0.72054915  1.0
  Ca  Ca20  1  0.80958310  0.68960341  0.33521553  1.0
  Ca  Ca21  1  0.80958310  0.81039659  0.83521553  1.0
  Ca  Ca22  1  0.19041690  0.18960341  0.16478447  1.0
  Ca  Ca23  1  0.19041690  0.31039659  0.66478447  1.0
  Ca  Ca24  1  0.73555300  0.08342498  0.43463071  1.0
  Ca  Ca25  1  0.73555300  0.41657502  0.93463071  1.0
  Ca  Ca26  1  0.26444700  0.58342498  0.06536929  1.0
  Ca  Ca27  1  0.26444700  0.91657502  0.56536929  1.0
  Si  Si28  1  0.66578214  0.37141887  0.38386904  1.0
  Si  Si29  1  0.66578214  0.12858113  0.88386904  1.0
  Si  Si30  1  0.33421786  0.87141887  0.11613096  1.0
  Si  Si31  1  0.33421786  0.62858113  0.61613096  1.0
