# generated using pymatgen
data_CdI2
_symmetry_space_group_name_H-M   'P 1'
_cell_length_a   4.32676308
_cell_length_b   4.32676308
_cell_length_c   38.11481798
_cell_angle_alpha   90.00000000
_cell_angle_beta   90.00000000
_cell_angle_gamma   120.00000000
_symmetry_Int_Tables_number   1
_chemical_formula_structural   CdI2
_chemical_formula_sum   'Cd5 I10'
_cell_volume   617.94626575
_cell_formula_units_Z   5
loop_
 _symmetry_equiv_pos_site_id
 _symmetry_equiv_pos_as_xyz
  1  'x, y, z'
loop_
 _atom_site_type_symbol
 _atom_site_label
 _atom_site_symmetry_multiplicity
 _atom_site_fract_x
 _atom_site_fract_y
 _atom_site_fract_z
 _atom_site_occupancy
  Cd  Cd0  1  0.33333333  0.66666667  0.20000753  1.0
  Cd  Cd1  1  0.66666667  0.33333333  0.79999247  1.0
  Cd  Cd2  1  0.00000000  0.00000000  0.40004612  1.0
  Cd  Cd3  1  0.00000000  0.00000000  0.59995388  1.0
  Cd  Cd4  1  0.00000000  0.00000000  0.00000000  1.0
  I  I5  1  0.33333333  0.66666667  0.04511709  1.0
  I  I6  1  0.66666667  0.33333333  0.95488291  1.0
  I  I7  1  0.33333333  0.66666667  0.44517112  1.0
  I  I8  1  0.66666667  0.33333333  0.55482888  1.0
  I  I9  1  0.33333333  0.66666667  0.64507412  1.0
  I  I10  1  0.66666667  0.33333333  0.35492588  1.0
  I  I11  1  0.33333333  0.66666667  0.84511635  1.0
  I  I12  1  0.66666667  0.33333333  0.15488365  1.0
  I  I13  1  0.00000000  0.00000000  0.24512456  1.0
  I  I14  1  0.00000000  0.00000000  0.75487544  1.0
