# generated using pymatgen
data_NaEuTiO4
_symmetry_space_group_name_H-M   'P 1'
_cell_length_a   12.82236383
_cell_length_b   5.39550230
_cell_length_c   5.31051830
_cell_angle_alpha   90.00000000
_cell_angle_beta   90.00000000
_cell_angle_gamma   90.00000000
_symmetry_Int_Tables_number   1
_chemical_formula_structural   NaEuTiO4
_chemical_formula_sum   'Na4 Eu4 Ti4 O16'
_cell_volume   367.39808403
_cell_formula_units_Z   4
loop_
 _symmetry_equiv_pos_site_id
 _symmetry_equiv_pos_as_xyz
  1  'x, y, z'
loop_
 _atom_site_type_symbol
 _atom_site_label
 _atom_site_symmetry_multiplicity
 _atom_site_fract_x
 _atom_site_fract_y
 _atom_site_fract_z
 _atom_site_occupancy
  O  O0  1  0.90459007  0.46702826  0.75000000  1.0
  O  O1  1  0.90459007  0.03297174  0.25000000  1.0
  O  O2  1  0.09540993  0.96702826  0.75000000  1.0
  O  O3  1  0.09540993  0.53297174  0.25000000  1.0
  O  O4  1  0.72243334  0.25000000  0.00000000  1.0
  O  O5  1  0.72243334  0.25000000  0.50000000  1.0
  O  O6  1  0.27756666  0.75000000  0.00000000  1.0
  O  O7  1  0.27756666  0.75000000  0.50000000  1.0
  O  O8  1  0.25638081  0.25000000  0.00000000  1.0
  O  O9  1  0.25638081  0.25000000  0.50000000  1.0
  O  O10  1  0.74361919  0.75000000  0.00000000  1.0
  O  O11  1  0.74361919  0.75000000  0.50000000  1.0
  O  O12  1  0.43255591  0.05299813  0.75000000  1.0
  O  O13  1  0.43255591  0.44700187  0.25000000  1.0
  O  O14  1  0.56744409  0.55299813  0.75000000  1.0
  O  O15  1  0.56744409  0.94700187  0.25000000  1.0
  Ti  Ti16  1  0.76843804  0.49310113  0.75000000  1.0
  Ti  Ti17  1  0.76843804  0.00689887  0.25000000  1.0
  Ti  Ti18  1  0.23156196  0.99310113  0.75000000  1.0
  Ti  Ti19  1  0.23156196  0.50689887  0.25000000  1.0
  Eu  Eu20  1  0.39262381  0.48037239  0.75000000  1.0
  Eu  Eu21  1  0.39262381  0.01962761  0.25000000  1.0
  Eu  Eu22  1  0.60737619  0.98037239  0.75000000  1.0
  Eu  Eu23  1  0.60737619  0.51962761  0.25000000  1.0
  Na  Na24  1  0.91465981  0.99919051  0.75000000  1.0
  Na  Na25  1  0.91465981  0.50080949  0.25000000  1.0
  Na  Na26  1  0.08534019  0.49919051  0.75000000  1.0
  Na  Na27  1  0.08534019  0.00080949  0.25000000  1.0
