# generated using pymatgen
data_Te2NO7
_symmetry_space_group_name_H-M   'P 1'
_cell_length_a   16.75574361
_cell_length_b   9.20635768
_cell_length_c   4.48025788
_cell_angle_alpha   90.00000000
_cell_angle_beta   90.00000000
_cell_angle_gamma   90.00000000
_symmetry_Int_Tables_number   1
_chemical_formula_structural   Te2NO7
_chemical_formula_sum   'Te8 N4 O28'
_cell_volume   691.12175326
_cell_formula_units_Z   4
loop_
 _symmetry_equiv_pos_site_id
 _symmetry_equiv_pos_as_xyz
  1  'x, y, z'
loop_
 _atom_site_type_symbol
 _atom_site_label
 _atom_site_symmetry_multiplicity
 _atom_site_fract_x
 _atom_site_fract_y
 _atom_site_fract_z
 _atom_site_occupancy
  N  N0  1  0.94629677  0.25000000  0.19799911  1.0
  N  N1  1  0.44629677  0.25000000  0.30200089  1.0
  N  N2  1  0.05370323  0.75000000  0.80200089  1.0
  N  N3  1  0.55370323  0.75000000  0.69799911  1.0
  O  O4  1  0.78766531  0.95949777  0.38054407  1.0
  O  O5  1  0.78766531  0.54050223  0.38054407  1.0
  O  O6  1  0.28766531  0.95949777  0.11945593  1.0
  O  O7  1  0.28766531  0.54050223  0.11945593  1.0
  O  O8  1  0.21233469  0.45949777  0.61945593  1.0
  O  O9  1  0.21233469  0.04050223  0.61945593  1.0
  O  O10  1  0.71233469  0.45949777  0.88054407  1.0
  O  O11  1  0.71233469  0.04050223  0.88054407  1.0
  O  O12  1  0.90123865  0.25000000  -0.02639605  1.0
  O  O13  1  0.40123865  0.25000000  0.52639605  1.0
  O  O14  1  0.09876135  0.75000000  1.02639605  1.0
  O  O15  1  0.59876135  0.75000000  0.47360395  1.0
  O  O16  1  0.74958491  0.25000000  0.37050029  1.0
  O  O17  1  0.24958491  0.25000000  0.12949971  1.0
  O  O18  1  0.25041509  0.75000000  0.62949971  1.0
  O  O19  1  0.75041509  0.75000000  0.87050029  1.0
  O  O20  1  0.60836437  0.25000000  0.60127113  1.0
  O  O21  1  0.10836437  0.25000000  0.89872887  1.0
  O  O22  1  0.39163563  0.75000000  0.39872887  1.0
  O  O23  1  0.89163563  0.75000000  0.10127113  1.0
  O  O24  1  0.96814893  0.36783053  0.30769722  1.0
  O  O25  1  0.96814893  0.13216947  0.30769722  1.0
  O  O26  1  0.46814893  0.36783053  0.19230278  1.0
  O  O27  1  0.46814893  0.13216947  0.19230278  1.0
  O  O28  1  0.03185107  0.86783053  0.69230278  1.0
  O  O29  1  0.03185107  0.63216947  0.69230278  1.0
  O  O30  1  0.53185107  0.86783053  0.80769722  1.0
  O  O31  1  0.53185107  0.63216947  0.80769722  1.0
  Te  Te32  1  0.82132837  0.92173993  -0.03705663  1.0
  Te  Te33  1  0.82132837  0.57826007  -0.03705663  1.0
  Te  Te34  1  0.32132837  0.92173993  0.53705663  1.0
  Te  Te35  1  0.32132837  0.57826007  0.53705663  1.0
  Te  Te36  1  0.17867163  0.42173993  1.03705663  1.0
  Te  Te37  1  0.17867163  0.07826007  1.03705663  1.0
  Te  Te38  1  0.67867163  0.42173993  0.46294337  1.0
  Te  Te39  1  0.67867163  0.07826007  0.46294337  1.0
