# generated using pymatgen
data_CaTeO3
_symmetry_space_group_name_H-M   'P 1'
_cell_length_a   8.14915217
_cell_length_b   6.57210527
_cell_length_c   13.27649780
_cell_angle_alpha   90.00000000
_cell_angle_beta   90.00000000
_cell_angle_gamma   90.00000000
_symmetry_Int_Tables_number   1
_chemical_formula_structural   CaTeO3
_chemical_formula_sum   'Ca8 Te8 O24'
_cell_volume   711.05053365
_cell_formula_units_Z   8
loop_
 _symmetry_equiv_pos_site_id
 _symmetry_equiv_pos_as_xyz
  1  'x, y, z'
loop_
 _atom_site_type_symbol
 _atom_site_label
 _atom_site_symmetry_multiplicity
 _atom_site_fract_x
 _atom_site_fract_y
 _atom_site_fract_z
 _atom_site_occupancy
  Ca  Ca0  1  0.42413622  0.11387606  0.09848405  1.0
  Ca  Ca1  1  0.92413622  0.88612394  0.09848405  1.0
  Ca  Ca2  1  0.57586378  0.88612394  0.59848405  1.0
  Ca  Ca3  1  0.07586378  0.11387606  0.59848405  1.0
  Ca  Ca4  1  0.32283930  0.61794616  0.16598332  1.0
  Ca  Ca5  1  0.82283930  0.38205384  0.16598332  1.0
  Ca  Ca6  1  0.67716070  0.38205384  0.66598332  1.0
  Ca  Ca7  1  0.17716070  0.61794616  0.66598332  1.0
  Te  Te8  1  0.43973145  0.41666970  0.46075469  1.0
  Te  Te9  1  0.93973145  0.58333030  0.46075469  1.0
  Te  Te10  1  0.56026855  0.58333030  0.96075469  1.0
  Te  Te11  1  0.06026855  0.41666970  0.96075469  1.0
  Te  Te12  1  0.18132672  0.08699548  0.30142244  1.0
  Te  Te13  1  0.68132672  0.91300452  0.30142244  1.0
  Te  Te14  1  0.81867328  0.91300452  0.80142244  1.0
  Te  Te15  1  0.31867328  0.08699548  0.80142244  1.0
  O  O16  1  0.32757157  0.29777794  0.24799295  1.0
  O  O17  1  0.82757157  0.70222206  0.24799295  1.0
  O  O18  1  0.67242843  0.70222206  0.74799295  1.0
  O  O19  1  0.17242843  0.29777794  0.74799295  1.0
  O  O20  1  0.28141468  0.30288006  -0.02731035  1.0
  O  O21  1  0.78141468  0.69711994  -0.02731035  1.0
  O  O22  1  0.71858532  0.69711994  0.47268965  1.0
  O  O23  1  0.21858532  0.30288006  0.47268965  1.0
  O  O24  1  0.06253245  0.56282224  0.08974978  1.0
  O  O25  1  0.56253245  0.43717776  0.08974978  1.0
  O  O26  1  0.93746755  0.43717776  0.58974978  1.0
  O  O27  1  0.43746755  0.56282224  0.58974978  1.0
  O  O28  1  0.96421026  0.20098977  0.28604038  1.0
  O  O29  1  0.46421026  0.79901023  0.28604038  1.0
  O  O30  1  0.03578974  0.79901023  0.78604038  1.0
  O  O31  1  0.53578974  0.20098977  0.78604038  1.0
  O  O32  1  0.92433976  0.20023981  0.01500124  1.0
  O  O33  1  0.42433976  0.79976019  0.01500124  1.0
  O  O34  1  0.07566024  0.79976019  0.51500124  1.0
  O  O35  1  0.57566024  0.20023981  0.51500124  1.0
  O  O36  1  0.68451194  0.05884325  0.17028150  1.0
  O  O37  1  0.18451194  0.94115675  0.17028150  1.0
  O  O38  1  0.31548806  0.94115675  0.67028150  1.0
  O  O39  1  0.81548806  0.05884325  0.67028150  1.0
