# generated using pymatgen
data_Cr2B
_symmetry_space_group_name_H-M   'P 1'
_cell_length_a   8.16196106
_cell_length_b   7.58837003
_cell_length_c   4.23136686
_cell_angle_alpha   82.06058642
_cell_angle_beta   67.04510610
_cell_angle_gamma   30.89430748
_symmetry_Int_Tables_number   1
_chemical_formula_structural   Cr2B
_chemical_formula_sum   'Cr8 B4'
_cell_volume   112.69380432
_cell_formula_units_Z   4
loop_
 _symmetry_equiv_pos_site_id
 _symmetry_equiv_pos_as_xyz
  1  'x, y, z'
loop_
 _atom_site_type_symbol
 _atom_site_label
 _atom_site_symmetry_multiplicity
 _atom_site_fract_x
 _atom_site_fract_y
 _atom_site_fract_z
 _atom_site_occupancy
  Cr  Cr0  1  0.83496769  0.16503231  -0.16503231  1.0
  Cr  Cr1  1  0.41503231  1.08496769  0.41503231  1.0
  Cr  Cr2  1  1.16503231  -0.16503231  0.16503231  1.0
  Cr  Cr3  1  1.08496769  0.41503231  0.08496769  1.0
  Cr  Cr4  1  0.41690905  0.41690905  0.58309095  1.0
  Cr  Cr5  1  0.58309095  0.58309095  0.41690905  1.0
  Cr  Cr6  1  0.83309095  -0.16690905  0.66690905  1.0
  Cr  Cr7  1  0.66690905  0.66690905  0.83309095  1.0
  B  B8  1  1.12557727  0.12557727  -0.12557727  1.0
  B  B9  1  0.87442273  -0.12557727  0.12557727  1.0
  B  B10  1  1.12442273  0.12442273  0.37557727  1.0
  B  B11  1  0.37557727  0.37557727  1.12442273  1.0
