# generated using pymatgen
data_H2CN4O5
_symmetry_space_group_name_H-M   'P 1'
_cell_length_a   9.70105860
_cell_length_b   6.79884366
_cell_length_c   11.38792105
_cell_angle_alpha   58.11301765
_cell_angle_beta   36.51786465
_cell_angle_gamma   85.36911770
_symmetry_Int_Tables_number   1
_chemical_formula_structural   H2CN4O5
_chemical_formula_sum   'H4 C2 N8 O10'
_cell_volume   278.11206558
_cell_formula_units_Z   2
loop_
 _symmetry_equiv_pos_site_id
 _symmetry_equiv_pos_as_xyz
  1  'x, y, z'
loop_
 _atom_site_type_symbol
 _atom_site_label
 _atom_site_symmetry_multiplicity
 _atom_site_fract_x
 _atom_site_fract_y
 _atom_site_fract_z
 _atom_site_occupancy
  H  H0  1  0.67988448  0.54685059  0.28799311  1.0
  H  H1  1  0.96200689  0.76472818  -0.42988448  1.0
  H  H2  1  0.54685059  0.67988448  -0.51472818  1.0
  H  H3  1  0.76472818  0.96200689  -0.29685059  1.0
  C  C4  1  1.00869794  0.00869794  -0.00869794  1.0
  C  C5  1  0.25869794  0.25869794  0.24130206  1.0
  N  N6  1  -0.04256335  0.41744464  0.41632885  1.0
  N  N7  1  0.83367115  1.04121014  -0.70743665  1.0
  N  N8  1  0.41744464  -0.04256335  0.20878986  1.0
  N  N9  1  1.04121014  0.83367115  -0.16744464  1.0
  N  N10  1  -0.01952380  0.19017410  0.47484789  1.0
  N  N11  1  0.77515211  0.89549819  -0.73047620  1.0
  N  N12  1  0.19017410  -0.01952380  0.35450181  1.0
  N  N13  1  0.89549819  0.77515211  0.05982590  1.0
  O  O14  1  0.24309088  0.10623024  0.57444679  1.0
  O  O15  1  0.67555321  0.17376791  0.00690912  1.0
  O  O16  1  0.10623024  0.24309088  0.07623209  1.0
  O  O17  1  0.17376791  0.67555321  0.14376976  1.0
  O  O18  1  0.32611296  0.71132290  0.30705344  1.0
  O  O19  1  0.94294656  0.59448930  -0.07611296  1.0
  O  O20  1  0.71132290  0.32611296  -0.34448930  1.0
  O  O21  1  0.59448930  0.94294656  -0.46132290  1.0
  O  O22  1  1.27347841  0.27347841  -0.27347841  1.0
  O  O23  1  0.52347841  0.52347841  -0.02347841  1.0
