# generated using pymatgen
data_Sb2WO6
_symmetry_space_group_name_H-M   'P 1'
_cell_length_a   7.64194552
_cell_length_b   7.61381250
_cell_length_c   10.42538260
_cell_angle_alpha   70.27779819
_cell_angle_beta   70.03964252
_cell_angle_gamma   83.88374696
_symmetry_Int_Tables_number   1
_chemical_formula_structural   Sb2WO6
_chemical_formula_sum   'Sb8 W4 O24'
_cell_volume   536.68426286
_cell_formula_units_Z   4
loop_
 _symmetry_equiv_pos_site_id
 _symmetry_equiv_pos_as_xyz
  1  'x, y, z'
loop_
 _atom_site_type_symbol
 _atom_site_label
 _atom_site_symmetry_multiplicity
 _atom_site_fract_x
 _atom_site_fract_y
 _atom_site_fract_z
 _atom_site_occupancy
  Sb  Sb0  1  -0.87540523  -0.93800143  -0.82897064  1.0
  Sb  Sb1  1  -0.12459477  -0.06199857  -0.17102936  1.0
  Sb  Sb2  1  -0.43879213  -0.87148988  -0.83092272  1.0
  Sb  Sb3  1  -0.56120787  -0.12851012  -0.16907728  1.0
  Sb  Sb4  1  -0.37231642  -0.42818448  -0.83439712  1.0
  Sb  Sb5  1  -0.62768358  -0.57181552  -0.16560288  1.0
  Sb  Sb6  1  -0.92675114  -0.37797680  -0.83559659  1.0
  Sb  Sb7  1  -0.07324886  -0.62202320  -0.16440341  1.0
  W  W8  1  -0.73041673  -0.77224980  -0.48956766  1.0
  W  W9  1  -0.26958327  -0.22775020  -0.51043234  1.0
  W  W10  1  -0.77107878  -0.26913962  -0.49925670  1.0
  W  W11  1  -0.22892122  -0.73086038  -0.50074330  1.0
  O  O12  1  -0.24286183  -0.97779111  -0.55497126  1.0
  O  O13  1  -0.75713817  -0.02220889  -0.44502874  1.0
  O  O14  1  -0.27171214  -0.90966054  -0.31138966  1.0
  O  O15  1  -0.72828786  -0.09033946  -0.68861034  1.0
  O  O16  1  -0.62300807  -0.80282194  -0.93947505  1.0
  O  O17  1  -0.37699193  -0.19717806  -0.06052495  1.0
  O  O18  1  -0.97744887  -0.74084032  -0.55372266  1.0
  O  O19  1  -0.02255113  -0.25915968  -0.44627734  1.0
  O  O20  1  -0.90901614  -0.76336329  -0.31199817  1.0
  O  O21  1  -0.09098386  -0.23663671  -0.68800183  1.0
  O  O22  1  -0.52405324  -0.76246819  -0.44262650  1.0
  O  O23  1  -0.47594676  -0.23753181  -0.55737350  1.0
  O  O24  1  -0.60013686  -0.72790929  -0.68918611  1.0
  O  O25  1  -0.39986314  -0.27209071  -0.31081389  1.0
  O  O26  1  -0.88570898  -0.69547653  -0.05905213  1.0
  O  O27  1  -0.11429102  -0.30452347  -0.94094787  1.0
  O  O28  1  -0.30804376  -0.61485983  -0.94181004  1.0
  O  O29  1  -0.69195624  -0.38514017  -0.05818996  1.0
  O  O30  1  -0.23653183  -0.60184558  -0.68837002  1.0
  O  O31  1  -0.76346817  -0.39815442  -0.31162998  1.0
  O  O32  1  -0.74013311  -0.47604196  -0.55498149  1.0
  O  O33  1  -0.25986689  -0.52395804  -0.44501851  1.0
  O  O34  1  -0.79856565  -0.12288807  -0.93784943  1.0
  O  O35  1  -0.20143435  -0.87711193  -0.06215057  1.0
