# generated using pymatgen
data_Zn3P2
_symmetry_space_group_name_H-M   'P 1'
_cell_length_a   9.93042872
_cell_length_b   9.93042872
_cell_length_c   9.93042872
_cell_angle_alpha   109.47122063
_cell_angle_beta   109.47122063
_cell_angle_gamma   109.47122063
_symmetry_Int_Tables_number   1
_chemical_formula_structural   Zn3P2
_chemical_formula_sum   'Zn24 P16'
_cell_volume   753.84507923
_cell_formula_units_Z   8
loop_
 _symmetry_equiv_pos_site_id
 _symmetry_equiv_pos_as_xyz
  1  'x, y, z'
loop_
 _atom_site_type_symbol
 _atom_site_label
 _atom_site_symmetry_multiplicity
 _atom_site_fract_x
 _atom_site_fract_y
 _atom_site_fract_z
 _atom_site_occupancy
  Zn  Zn0  1  0.53664161  0.50959953  0.76316885  1.0
  Zn  Zn1  1  1.03664161  0.27347276  1.02704208  1.0
  Zn  Zn2  1  0.24643068  0.77347276  0.73683115  1.0
  Zn  Zn3  1  0.74643068  1.00959953  0.47295792  1.0
  Zn  Zn4  1  0.52704208  1.25356932  0.99040047  1.0
  Zn  Zn5  1  1.02704208  1.03664161  0.27347276  1.0
  Zn  Zn6  1  0.76316885  0.53664161  0.50959953  1.0
  Zn  Zn7  1  1.26316885  0.75356932  1.22652724  1.0
  Zn  Zn8  1  0.77347276  0.73683115  0.24643068  1.0
  Zn  Zn9  1  1.27347276  1.02704208  1.03664161  1.0
  Zn  Zn10  1  0.99040047  0.52704208  1.25356932  1.0
  Zn  Zn11  1  1.49040047  1.23683115  1.46335839  1.0
  Zn  Zn12  1  1.75356932  1.22652724  1.26316885  1.0
  Zn  Zn13  1  1.25356932  0.99040047  1.52704208  1.0
  Zn  Zn14  1  1.46335839  1.49040047  1.23683115  1.0
  Zn  Zn15  1  0.96335839  1.72652724  0.97295792  1.0
  Zn  Zn16  1  1.23683115  1.46335839  1.49040047  1.0
  Zn  Zn17  1  0.73683115  1.24643068  0.77347276  1.0
  Zn  Zn18  1  1.47295792  0.74643068  1.00959953  1.0
  Zn  Zn19  1  0.97295792  0.96335839  1.72652724  1.0
  Zn  Zn20  1  1.00959953  1.47295792  0.74643068  1.0
  Zn  Zn21  1  0.50959953  0.76316885  0.53664161  1.0
  Zn  Zn22  1  1.22652724  1.26316885  1.75356932  1.0
  Zn  Zn23  1  0.72652724  0.97295792  0.96335839  1.0
  P  P24  1  1.74092463  1.49092463  1.25000000  1.0
  P  P25  1  1.24092463  0.99092463  1.25000000  1.0
  P  P26  1  0.75000000  0.75907537  0.00907537  1.0
  P  P27  1  0.25000000  1.24092463  0.99092463  1.0
  P  P28  1  0.25000000  0.74092463  0.49092463  1.0
  P  P29  1  0.75000000  1.25907537  0.50907537  1.0
  P  P30  1  1.49092463  1.25000000  1.74092463  1.0
  P  P31  1  0.99092463  0.25000000  1.24092463  1.0
  P  P32  1  0.00907537  0.75000000  0.75907537  1.0
  P  P33  1  0.50907537  0.75000000  0.25907537  1.0
  P  P34  1  0.25907537  0.50907537  0.75000000  1.0
  P  P35  1  0.75907537  1.00907537  0.75000000  1.0
  P  P36  1  1.00000000  0.50000000  1.00000000  1.0
  P  P37  1  0.50000000  0.50000000  0.50000000  1.0
  P  P38  1  1.00000000  1.00000000  1.50000000  1.0
  P  P39  1  1.50000000  1.00000000  1.00000000  1.0
