# generated using pymatgen
data_VAgAsO5
_symmetry_space_group_name_H-M   'P 1'
_cell_length_a   6.88785947
_cell_length_b   8.91500854
_cell_length_c   7.46089286
_cell_angle_alpha   90.00000000
_cell_angle_beta   115.98700380
_cell_angle_gamma   90.00000000
_symmetry_Int_Tables_number   1
_chemical_formula_structural   VAgAsO5
_chemical_formula_sum   'V4 Ag4 As4 O20'
_cell_volume   411.81775225
_cell_formula_units_Z   4
loop_
 _symmetry_equiv_pos_site_id
 _symmetry_equiv_pos_as_xyz
  1  'x, y, z'
loop_
 _atom_site_type_symbol
 _atom_site_label
 _atom_site_symmetry_multiplicity
 _atom_site_fract_x
 _atom_site_fract_y
 _atom_site_fract_z
 _atom_site_occupancy
  V  V0  1  0.75761384  0.23654219  0.47176702  1.0
  V  V1  1  0.75761384  0.26345781  0.97176702  1.0
  V  V2  1  0.24238616  0.73654219  0.02823298  1.0
  V  V3  1  0.24238616  0.76345781  0.52823298  1.0
  Ag  Ag4  1  0.73691864  0.92121680  0.21936221  1.0
  Ag  Ag5  1  0.73691864  0.57878320  0.71936221  1.0
  Ag  Ag6  1  0.26308136  0.42121680  0.28063779  1.0
  Ag  Ag7  1  0.26308136  0.07878320  0.78063779  1.0
  As  As8  1  0.25091937  0.06115911  0.25376660  1.0
  As  As9  1  0.25091937  0.43884089  0.75376660  1.0
  As  As10  1  0.74908063  0.56115911  0.24623340  1.0
  As  As11  1  0.74908063  0.93884089  0.74623340  1.0
  O  O12  1  0.93374186  0.69346648  0.39933093  1.0
  O  O13  1  0.93374186  0.80653352  0.89933093  1.0
  O  O14  1  0.06625814  0.19346648  0.10066907  1.0
  O  O15  1  0.06625814  0.30653352  0.60066907  1.0
  O  O16  1  0.86989723  0.45186199  0.12807709  1.0
  O  O17  1  0.86989723  0.04813801  0.62807709  1.0
  O  O18  1  0.13010277  0.95186199  0.37192291  1.0
  O  O19  1  0.13010277  0.54813801  0.87192291  1.0
  O  O20  1  0.74893294  0.18836588  0.25479432  1.0
  O  O21  1  0.74893294  0.31163412  0.75479432  1.0
  O  O22  1  0.25106706  0.68836588  0.24520568  1.0
  O  O23  1  0.25106706  0.81163412  0.74520568  1.0
  O  O24  1  0.65632492  0.45015144  0.38837597  1.0
  O  O25  1  0.65632492  0.04984856  0.88837597  1.0
  O  O26  1  0.34367508  0.95015144  0.11162403  1.0
  O  O27  1  0.34367508  0.54984856  0.61162403  1.0
  O  O28  1  0.45785400  0.17246627  0.42401757  1.0
  O  O29  1  0.45785400  0.32753373  0.92401757  1.0
  O  O30  1  0.54214600  0.67246627  0.07598243  1.0
  O  O31  1  0.54214600  0.82753373  0.57598243  1.0
