# generated using pymatgen
data_Li2BPd3
_symmetry_space_group_name_H-M   'P 1'
_cell_length_a   6.80967318
_cell_length_b   6.80967318
_cell_length_c   6.80967318
_cell_angle_alpha   90.00000000
_cell_angle_beta   90.00000000
_cell_angle_gamma   90.00000000
_symmetry_Int_Tables_number   1
_chemical_formula_structural   Li2BPd3
_chemical_formula_sum   'Li8 B4 Pd12'
_cell_volume   315.77577341
_cell_formula_units_Z   4
loop_
 _symmetry_equiv_pos_site_id
 _symmetry_equiv_pos_as_xyz
  1  'x, y, z'
loop_
 _atom_site_type_symbol
 _atom_site_label
 _atom_site_symmetry_multiplicity
 _atom_site_fract_x
 _atom_site_fract_y
 _atom_site_fract_z
 _atom_site_occupancy
  Li  Li0  1  0.44477429  0.94477429  0.55522571  1.0
  Li  Li1  1  0.19477429  0.80522571  0.30522571  1.0
  Li  Li2  1  0.69477429  0.69477429  0.69477429  1.0
  Li  Li3  1  0.94477429  0.55522571  0.44477429  1.0
  Li  Li4  1  0.55522571  0.44477429  0.94477429  1.0
  Li  Li5  1  0.30522571  0.19477429  0.80522571  1.0
  Li  Li6  1  0.80522571  0.30522571  0.19477429  1.0
  Li  Li7  1  0.05522571  0.05522571  0.05522571  1.0
  B  B8  1  0.12500000  0.62500000  0.87500000  1.0
  B  B9  1  0.87500000  0.12500000  0.62500000  1.0
  B  B10  1  0.37500000  0.37500000  0.37500000  1.0
  B  B11  1  0.62500000  0.87500000  0.12500000  1.0
  Pd  Pd12  1  0.37500000  0.80448680  0.94551320  1.0
  Pd  Pd13  1  0.12500000  0.19551320  0.44551320  1.0
  Pd  Pd14  1  0.62500000  0.30448680  0.55448680  1.0
  Pd  Pd15  1  0.87500000  0.69551320  0.05448680  1.0
  Pd  Pd16  1  0.30448680  0.55448680  0.62500000  1.0
  Pd  Pd17  1  0.05448680  0.87500000  0.69551320  1.0
  Pd  Pd18  1  0.55448680  0.62500000  0.30448680  1.0
  Pd  Pd19  1  0.80448680  0.94551320  0.37500000  1.0
  Pd  Pd20  1  0.69551320  0.05448680  0.87500000  1.0
  Pd  Pd21  1  0.44551320  0.12500000  0.19551320  1.0
  Pd  Pd22  1  0.94551320  0.37500000  0.80448680  1.0
  Pd  Pd23  1  0.19551320  0.44551320  0.12500000  1.0
