# generated using pymatgen
data_CO2
_symmetry_space_group_name_H-M   'P 1'
_cell_length_a   3.99276678
_cell_length_b   6.78401679
_cell_length_c   7.13454487
_cell_angle_alpha   90.00000000
_cell_angle_beta   90.00000000
_cell_angle_gamma   90.00000000
_symmetry_Int_Tables_number   1
_chemical_formula_structural   CO2
_chemical_formula_sum   'C8 O16'
_cell_volume   193.25339489
_cell_formula_units_Z   8
loop_
 _symmetry_equiv_pos_site_id
 _symmetry_equiv_pos_as_xyz
  1  'x, y, z'
loop_
 _atom_site_type_symbol
 _atom_site_label
 _atom_site_symmetry_multiplicity
 _atom_site_fract_x
 _atom_site_fract_y
 _atom_site_fract_z
 _atom_site_occupancy
  C  C0  1  -0.00510810  0.81705905  0.91749524  1.0
  C  C1  1  0.49489190  0.68294095  0.08250476  1.0
  C  C2  1  1.00510810  0.31705905  0.58250476  1.0
  C  C3  1  0.50510810  0.18294095  0.41749524  1.0
  C  C4  1  -0.05803560  0.69179226  0.58493736  1.0
  C  C5  1  0.44196440  0.80820774  0.41506264  1.0
  C  C6  1  1.05803560  0.19179226  0.91506264  1.0
  C  C7  1  0.55803560  0.30820774  0.08493736  1.0
  O  O8  1  0.24267266  0.67069095  0.94237505  1.0
  O  O9  1  0.74267266  0.82930905  0.05762495  1.0
  O  O10  1  0.75732734  0.17069095  0.55762495  1.0
  O  O11  1  0.25732734  0.32930905  0.44237505  1.0
  O  O12  1  0.28300164  0.71006092  0.56441947  1.0
  O  O13  1  0.78300164  0.78993908  0.43558053  1.0
  O  O14  1  0.71699836  0.21006092  0.93558053  1.0
  O  O15  1  0.21699836  0.28993908  0.06441947  1.0
  O  O16  1  0.32929606  1.00572833  0.41734366  1.0
  O  O17  1  0.82929606  0.49427167  0.58265634  1.0
  O  O18  1  0.67070394  0.50572833  1.08265634  1.0
  O  O19  1  0.17070394  -0.00572833  -0.08265634  1.0
  O  O20  1  -0.17693522  0.77835552  0.75147668  1.0
  O  O21  1  0.32306478  0.72164448  0.24852332  1.0
  O  O22  1  1.17693522  0.27835552  0.74852332  1.0
  O  O23  1  0.67693522  0.22164448  0.25147668  1.0
