# generated using pymatgen
data_NbFeSi2
_symmetry_space_group_name_H-M   'P 1'
_cell_length_a   8.67418058
_cell_length_b   9.69709692
_cell_length_c   7.56124124
_cell_angle_alpha   90.00000000
_cell_angle_beta   90.00000000
_cell_angle_gamma   90.00000000
_symmetry_Int_Tables_number   1
_chemical_formula_structural   NbFeSi2
_chemical_formula_sum   'Nb12 Fe12 Si24'
_cell_volume   636.00904200
_cell_formula_units_Z   12
loop_
 _symmetry_equiv_pos_site_id
 _symmetry_equiv_pos_as_xyz
  1  'x, y, z'
loop_
 _atom_site_type_symbol
 _atom_site_label
 _atom_site_symmetry_multiplicity
 _atom_site_fract_x
 _atom_site_fract_y
 _atom_site_fract_z
 _atom_site_occupancy
  Si  Si0  1  0.16114769  0.81928536  0.65516936  1.0
  Si  Si1  1  0.16114769  0.81928536  0.34483064  1.0
  Si  Si2  1  0.66114769  0.68071464  0.65516936  1.0
  Si  Si3  1  0.66114769  0.68071464  0.34483064  1.0
  Si  Si4  1  0.83885231  0.18071464  0.65516936  1.0
  Si  Si5  1  0.83885231  0.18071464  0.34483064  1.0
  Si  Si6  1  0.33885231  0.31928536  0.65516936  1.0
  Si  Si7  1  0.33885231  0.31928536  0.34483064  1.0
  Si  Si8  1  0.45678103  0.87858157  0.50000000  1.0
  Si  Si9  1  0.95678103  0.62141843  0.50000000  1.0
  Si  Si10  1  0.54321897  0.12141843  0.50000000  1.0
  Si  Si11  1  0.04321897  0.37858157  0.50000000  1.0
  Si  Si12  1  0.38338647  0.60101145  0.50000000  1.0
  Si  Si13  1  0.88338647  0.89898855  0.50000000  1.0
  Si  Si14  1  0.61661353  0.39898855  0.50000000  1.0
  Si  Si15  1  0.11661353  0.10101145  0.50000000  1.0
  Si  Si16  1  0.46031438  0.88178084  0.00000000  1.0
  Si  Si17  1  0.96031438  0.61821916  0.00000000  1.0
  Si  Si18  1  0.53968562  0.11821916  0.00000000  1.0
  Si  Si19  1  0.03968562  0.38178084  0.00000000  1.0
  Si  Si20  1  0.37772857  0.60338307  0.00000000  1.0
  Si  Si21  1  0.87772857  0.89661693  0.00000000  1.0
  Si  Si22  1  0.62227143  0.39661693  0.00000000  1.0
  Si  Si23  1  0.12227143  0.10338307  0.00000000  1.0
  Fe  Fe24  1  0.40913474  0.75378433  0.75063295  1.0
  Fe  Fe25  1  0.40913474  0.75378433  0.24936705  1.0
  Fe  Fe26  1  0.90913474  0.74621567  0.75063295  1.0
  Fe  Fe27  1  0.90913474  0.74621567  0.24936705  1.0
  Fe  Fe28  1  0.59086526  0.24621567  0.75063295  1.0
  Fe  Fe29  1  0.59086526  0.24621567  0.24936705  1.0
  Fe  Fe30  1  0.09086526  0.25378433  0.75063295  1.0
  Fe  Fe31  1  0.09086526  0.25378433  0.24936705  1.0
  Fe  Fe32  1  0.50000000  0.50000000  0.75442545  1.0
  Fe  Fe33  1  0.50000000  0.50000000  0.24557455  1.0
  Fe  Fe34  1  0.00000000  0.00000000  0.75442545  1.0
  Fe  Fe35  1  0.00000000  0.00000000  0.24557455  1.0
  Nb  Nb36  1  0.16815118  0.81836779  0.00000000  1.0
  Nb  Nb37  1  0.66815118  0.68163221  0.00000000  1.0
  Nb  Nb38  1  0.83184882  0.18163221  0.00000000  1.0
  Nb  Nb39  1  0.33184882  0.31836779  0.00000000  1.0
  Nb  Nb40  1  0.17068266  0.54827665  0.75583305  1.0
  Nb  Nb41  1  0.17068266  0.54827665  0.24416695  1.0
  Nb  Nb42  1  0.67068266  0.95172335  0.75583305  1.0
  Nb  Nb43  1  0.67068266  0.95172335  0.24416695  1.0
  Nb  Nb44  1  0.82931734  0.45172335  0.75583305  1.0
  Nb  Nb45  1  0.82931734  0.45172335  0.24416695  1.0
  Nb  Nb46  1  0.32931734  0.04827665  0.75583305  1.0
  Nb  Nb47  1  0.32931734  0.04827665  0.24416695  1.0
