# generated using pymatgen
data_CsHg
_symmetry_space_group_name_H-M   'P 1'
_cell_length_a   7.48571332
_cell_length_b   7.79902410
_cell_length_c   7.83527622
_cell_angle_alpha   107.91717591
_cell_angle_beta   103.73156096
_cell_angle_gamma   92.07423739
_symmetry_Int_Tables_number   1
_chemical_formula_structural   CsHg
_chemical_formula_sum   'Cs4 Hg4'
_cell_volume   419.84654433
_cell_formula_units_Z   4
loop_
 _symmetry_equiv_pos_site_id
 _symmetry_equiv_pos_as_xyz
  1  'x, y, z'
loop_
 _atom_site_type_symbol
 _atom_site_label
 _atom_site_symmetry_multiplicity
 _atom_site_fract_x
 _atom_site_fract_y
 _atom_site_fract_z
 _atom_site_occupancy
  Cs  Cs0  1  0.81197649  0.21033945  0.87013033  1.0
  Cs  Cs1  1  0.18802351  0.78966055  0.12986967  1.0
  Cs  Cs2  1  0.73831757  0.65608766  0.44195256  1.0
  Cs  Cs3  1  0.26168243  0.34391234  0.55804744  1.0
  Hg  Hg4  1  0.63714360  0.75521998  0.94576603  1.0
  Hg  Hg5  1  0.36285640  0.24478002  0.05423397  1.0
  Hg  Hg6  1  0.31773041  0.89609561  0.70828203  1.0
  Hg  Hg7  1  0.68226959  0.10390439  0.29171797  1.0
