# generated using pymatgen
data_SiO2
_symmetry_space_group_name_H-M   'P 1'
_cell_length_a   11.35381255
_cell_length_b   11.35381255
_cell_length_c   11.35381255
_cell_angle_alpha   102.01023521
_cell_angle_beta   102.01023521
_cell_angle_gamma   125.72017711
_symmetry_Int_Tables_number   1
_chemical_formula_structural   SiO2
_chemical_formula_sum   'Si16 O32'
_cell_volume   1057.43776380
_cell_formula_units_Z   16
loop_
 _symmetry_equiv_pos_site_id
 _symmetry_equiv_pos_as_xyz
  1  'x, y, z'
loop_
 _atom_site_type_symbol
 _atom_site_label
 _atom_site_symmetry_multiplicity
 _atom_site_fract_x
 _atom_site_fract_y
 _atom_site_fract_z
 _atom_site_occupancy
  Si  Si0  1  0.73399387  0.88902860  0.62302246  1.0
  Si  Si1  1  1.26600613  0.88902860  1.15503473  1.0
  Si  Si2  1  0.88902860  0.73399387  1.62302246  1.0
  Si  Si3  1  0.11097140  0.73399387  0.84496527  1.0
  Si  Si4  1  0.73399387  1.11097140  0.84496527  1.0
  Si  Si5  1  1.26600613  1.11097140  1.37697754  1.0
  Si  Si6  1  0.88902860  0.26600613  1.15503473  1.0
  Si  Si7  1  0.11097140  0.26600613  0.37697754  1.0
  Si  Si8  1  1.14060049  0.64060049  1.28120099  1.0
  Si  Si9  1  1.64060049  1.14060049  1.28120099  1.0
  Si  Si10  1  0.35939951  0.64060049  0.50000000  1.0
  Si  Si11  1  0.85939951  1.14060049  0.50000000  1.0
  Si  Si12  1  1.14060049  0.85939951  1.50000000  1.0
  Si  Si13  1  1.64060049  1.35939951  1.50000000  1.0
  Si  Si14  1  0.35939951  0.85939951  0.71879901  1.0
  Si  Si15  1  0.85939951  1.35939951  0.71879901  1.0
  O  O16  1  0.54614922  0.73364181  0.53526354  1.0
  O  O17  1  0.80162173  0.98911433  0.53526354  1.0
  O  O18  1  1.19837827  0.73364181  1.18749259  1.0
  O  O19  1  1.45385078  0.98911433  1.18749259  1.0
  O  O20  1  1.73364181  1.54614922  1.53526354  1.0
  O  O21  1  0.98911433  0.80162173  1.53526354  1.0
  O  O22  1  1.01088567  1.54614922  0.81250741  1.0
  O  O23  1  0.26635819  0.80162173  0.81250741  1.0
  O  O24  1  0.54614922  1.01088567  0.81250741  1.0
  O  O25  1  0.80162173  1.26635819  0.81250741  1.0
  O  O26  1  1.19837827  1.01088567  1.46473646  1.0
  O  O27  1  1.45385078  1.26635819  1.46473646  1.0
  O  O28  1  1.73364181  1.19837827  1.18749259  1.0
  O  O29  1  0.98911433  0.45385078  1.18749259  1.0
  O  O30  1  1.01088567  1.19837827  0.46473646  1.0
  O  O31  1  0.26635819  0.45385078  0.46473646  1.0
  O  O32  1  0.33766008  0.71137175  0.62628833  1.0
  O  O33  1  0.91491658  1.28862825  0.62628833  1.0
  O  O34  1  1.08508342  0.71137175  1.37371167  1.0
  O  O35  1  1.66233992  1.28862825  1.37371167  1.0
  O  O36  1  0.71137175  1.33766008  0.62628833  1.0
  O  O37  1  0.28862825  0.91491658  0.62628833  1.0
  O  O38  1  0.71137175  1.08508342  0.37371167  1.0
  O  O39  1  0.28862825  0.66233992  0.37371167  1.0
  O  O40  1  -0.00000000  0.75880600  0.75880600  1.0
  O  O41  1  0.75880600  1.00000000  0.75880600  1.0
  O  O42  1  1.24119400  1.00000000  1.24119400  1.0
  O  O43  1  -0.00000000  0.24119400  0.24119400  1.0
  O  O44  1  0.83179667  0.83179667  0.66359334  1.0
  O  O45  1  1.16820333  0.83179667  1.00000000  1.0
  O  O46  1  0.83179667  0.16820333  1.00000000  1.0
  O  O47  1  0.16820333  0.16820333  0.33640666  1.0
