# generated using pymatgen
data_BaB2F8
_symmetry_space_group_name_H-M   'P 1'
_cell_length_a   6.89413326
_cell_length_b   6.89413326
_cell_length_c   4.94442478
_cell_angle_alpha   68.47480422
_cell_angle_beta   111.52519578
_cell_angle_gamma   136.43001081
_symmetry_Int_Tables_number   1
_chemical_formula_structural   BaB2F8
_chemical_formula_sum   'Ba1 B2 F8'
_cell_volume   148.79357964
_cell_formula_units_Z   1
loop_
 _symmetry_equiv_pos_site_id
 _symmetry_equiv_pos_as_xyz
  1  'x, y, z'
loop_
 _atom_site_type_symbol
 _atom_site_label
 _atom_site_symmetry_multiplicity
 _atom_site_fract_x
 _atom_site_fract_y
 _atom_site_fract_z
 _atom_site_occupancy
  Ba  Ba0  1  0.00000000  0.00000000  0.00000000  1.0
  B  B1  1  0.65193955  0.34806045  0.70117353  1.0
  B  B2  1  0.34806045  -0.34806045  0.29882647  1.0
  F  F3  1  0.61102754  -0.15726029  0.47465250  1.0
  F  F4  1  1.15726029  0.38897246  0.47465250  1.0
  F  F5  1  0.84273971  0.61102754  0.52534750  1.0
  F  F6  1  0.38897246  0.15726029  0.52534750  1.0
  F  F7  1  0.77072732  0.22927268  0.85077043  1.0
  F  F8  1  0.22927268  -0.22927268  0.14922957  1.0
  F  F9  1  0.59959642  0.40040358  0.90995479  1.0
  F  F10  1  0.40040358  -0.40040358  0.09004521  1.0
