# generated using pymatgen
data_P
_symmetry_space_group_name_H-M   'P 1'
_cell_length_a   5.28832459
_cell_length_b   5.28832459
_cell_length_c   5.28832459
_cell_angle_alpha   109.47122063
_cell_angle_beta   109.47122063
_cell_angle_gamma   109.47122063
_symmetry_Int_Tables_number   1
_chemical_formula_structural   P
_chemical_formula_sum   P8
_cell_volume   113.84983869
_cell_formula_units_Z   8
loop_
 _symmetry_equiv_pos_site_id
 _symmetry_equiv_pos_as_xyz
  1  'x, y, z'
loop_
 _atom_site_type_symbol
 _atom_site_label
 _atom_site_symmetry_multiplicity
 _atom_site_fract_x
 _atom_site_fract_y
 _atom_site_fract_z
 _atom_site_occupancy
  P  P0  1  1.50006435  1.50006435  1.50006435  1.0
  P  P1  1  1.50000000  1.00000000  0.99993565  1.0
  P  P2  1  1.00006435  1.00006435  1.00006435  1.0
  P  P3  1  0.50000000  1.00000000  0.49993565  1.0
  P  P4  1  1.00000000  0.99993565  1.50000000  1.0
  P  P5  1  0.99993565  0.50000000  1.00000000  1.0
  P  P6  1  1.00000000  0.49993565  1.50000000  1.0
  P  P7  1  0.49993565  1.50000000  1.00000000  1.0
