# generated using pymatgen
data_KLa(PS3)2
_symmetry_space_group_name_H-M   'P 1'
_cell_length_a   12.29754906
_cell_length_b   7.68449698
_cell_length_c   11.47318081
_cell_angle_alpha   90.00000000
_cell_angle_beta   109.57113230
_cell_angle_gamma   90.00000000
_symmetry_Int_Tables_number   1
_chemical_formula_structural   KLa(PS3)2
_chemical_formula_sum   'K4 La4 P8 S24'
_cell_volume   1021.58166439
_cell_formula_units_Z   4
loop_
 _symmetry_equiv_pos_site_id
 _symmetry_equiv_pos_as_xyz
  1  'x, y, z'
loop_
 _atom_site_type_symbol
 _atom_site_label
 _atom_site_symmetry_multiplicity
 _atom_site_fract_x
 _atom_site_fract_y
 _atom_site_fract_z
 _atom_site_occupancy
  K  K0  1  0.87102476  0.40566106  0.62949960  1.0
  K  K1  1  0.87102476  0.09433894  0.12949960  1.0
  K  K2  1  0.12897524  0.90566106  0.87050040  1.0
  K  K3  1  0.12897524  0.59433894  0.37050040  1.0
  La  La4  1  0.64726001  0.60609821  0.90284110  1.0
  La  La5  1  0.64726001  0.89390179  0.40284110  1.0
  La  La6  1  0.35273999  0.10609821  0.59715890  1.0
  La  La7  1  0.35273999  0.39390179  0.09715890  1.0
  P  P8  1  0.78621047  0.88160922  0.73367264  1.0
  P  P9  1  0.78621047  0.61839078  0.23367264  1.0
  P  P10  1  0.21378953  0.38160922  0.76632736  1.0
  P  P11  1  0.21378953  0.11839078  0.26632736  1.0
  P  P12  1  0.33197506  0.59824935  0.75330790  1.0
  P  P13  1  0.33197506  0.90175065  0.25330790  1.0
  P  P14  1  0.66802494  0.09824935  0.74669210  1.0
  P  P15  1  0.66802494  0.40175065  0.24669210  1.0
  S  S16  1  0.87951723  0.97576528  0.63282901  1.0
  S  S17  1  0.87951723  0.52423472  0.13282901  1.0
  S  S18  1  0.12048277  0.47576528  0.86717099  1.0
  S  S19  1  0.12048277  0.02423472  0.36717099  1.0
  S  S20  1  0.86558928  0.79631311  0.90922212  1.0
  S  S21  1  0.86558928  0.70368689  0.40922212  1.0
  S  S22  1  0.13441072  0.29631311  0.59077788  1.0
  S  S23  1  0.13441072  0.20368689  0.09077788  1.0
  S  S24  1  0.76952199  0.28383284  0.85697495  1.0
  S  S25  1  0.76952199  0.21616716  0.35697495  1.0
  S  S26  1  0.23047801  0.78383284  0.64302505  1.0
  S  S27  1  0.23047801  0.71616716  0.14302505  1.0
  S  S28  1  0.67417476  0.69342781  0.63856250  1.0
  S  S29  1  0.67417476  0.80657219  0.13856250  1.0
  S  S30  1  0.32582524  0.19342781  0.86143750  1.0
  S  S31  1  0.32582524  0.30657219  0.36143750  1.0
  S  S32  1  0.55252244  0.97930697  0.81576158  1.0
  S  S33  1  0.55252244  0.52069303  0.31576158  1.0
  S  S34  1  0.44747756  0.47930697  0.68423842  1.0
  S  S35  1  0.44747756  0.02069303  0.18423842  1.0
  S  S36  1  0.41273627  0.68127289  0.93093114  1.0
  S  S37  1  0.41273627  0.81872711  0.43093114  1.0
  S  S38  1  0.58726373  0.18127289  0.56906886  1.0
  S  S39  1  0.58726373  0.31872711  0.06906886  1.0
