# generated using pymatgen
data_LaYO3
_symmetry_space_group_name_H-M   'P 1'
_cell_length_a   6.11018534
_cell_length_b   5.90693502
_cell_length_c   8.59255035
_cell_angle_alpha   90.00000000
_cell_angle_beta   90.00000000
_cell_angle_gamma   90.00000000
_symmetry_Int_Tables_number   1
_chemical_formula_structural   LaYO3
_chemical_formula_sum   'La4 Y4 O12'
_cell_volume   310.12634671
_cell_formula_units_Z   4
loop_
 _symmetry_equiv_pos_site_id
 _symmetry_equiv_pos_as_xyz
  1  'x, y, z'
loop_
 _atom_site_type_symbol
 _atom_site_label
 _atom_site_symmetry_multiplicity
 _atom_site_fract_x
 _atom_site_fract_y
 _atom_site_fract_z
 _atom_site_occupancy
  La  La0  1  0.45194237  0.98359285  0.24149768  1.0
  La  La1  1  0.95194237  0.51640715  0.24149768  1.0
  La  La2  1  0.54805763  0.01640715  0.74149768  1.0
  La  La3  1  0.04805763  0.48359285  0.74149768  1.0
  Y  Y4  1  0.50000830  0.50002693  -0.00854885  1.0
  Y  Y5  1  1.00000830  -0.00002693  -0.00854885  1.0
  Y  Y6  1  0.49999170  0.49997307  0.49145115  1.0
  Y  Y7  1  -0.00000830  1.00002693  0.49145115  1.0
  O  O8  1  0.43931674  0.63060862  0.74145139  1.0
  O  O9  1  0.93931674  0.86939138  0.74145139  1.0
  O  O10  1  0.56068326  0.36939138  0.24145139  1.0
  O  O11  1  0.06068326  0.13060862  0.24145139  1.0
  O  O12  1  0.19479040  0.69323070  0.42141778  1.0
  O  O13  1  0.69479040  0.80676930  0.42141778  1.0
  O  O14  1  0.80520960  0.30676930  0.92141778  1.0
  O  O15  1  0.30520960  0.19323070  0.92141778  1.0
  O  O16  1  0.19462214  0.69307960  0.06148200  1.0
  O  O17  1  0.69462214  0.80692040  0.06148200  1.0
  O  O18  1  0.80537786  0.30692040  0.56148200  1.0
  O  O19  1  0.30537786  0.19307960  0.56148200  1.0
