# generated using pymatgen
data_RbI(OF)2
_symmetry_space_group_name_H-M   'P 1'
_cell_length_a   8.66710787
_cell_length_b   6.38070945
_cell_length_c   8.74371909
_cell_angle_alpha   90.00000000
_cell_angle_beta   90.00000000
_cell_angle_gamma   90.00000000
_symmetry_Int_Tables_number   1
_chemical_formula_structural   RbI(OF)2
_chemical_formula_sum   'Rb4 I4 O8 F8'
_cell_volume   483.54775086
_cell_formula_units_Z   4
loop_
 _symmetry_equiv_pos_site_id
 _symmetry_equiv_pos_as_xyz
  1  'x, y, z'
loop_
 _atom_site_type_symbol
 _atom_site_label
 _atom_site_symmetry_multiplicity
 _atom_site_fract_x
 _atom_site_fract_y
 _atom_site_fract_z
 _atom_site_occupancy
  Rb  Rb0  1  0.29496817  0.47399541  0.34539943  1.0
  Rb  Rb1  1  0.79496817  0.52600459  0.34539943  1.0
  Rb  Rb2  1  0.70503183  0.52600459  0.84539943  1.0
  Rb  Rb3  1  0.20503183  0.47399541  0.84539943  1.0
  I  I4  1  0.49006583  0.04866256  0.06699892  1.0
  I  I5  1  0.99006583  0.95133744  0.06699892  1.0
  I  I6  1  0.50993417  0.95133744  0.56699892  1.0
  I  I7  1  0.00993417  0.04866256  0.56699892  1.0
  O  O8  1  0.28732025  0.13739453  0.09245733  1.0
  O  O9  1  0.78732025  0.86260547  0.09245733  1.0
  O  O10  1  0.71267975  0.86260547  0.59245733  1.0
  O  O11  1  0.21267975  0.13739453  0.59245733  1.0
  O  O12  1  0.96836974  0.12541283  0.36658985  1.0
  O  O13  1  0.46836974  0.87458717  0.36658985  1.0
  O  O14  1  0.03163026  0.87458717  0.86658985  1.0
  O  O15  1  0.53163026  0.12541283  0.86658985  1.0
  F  F16  1  0.06860271  0.65716431  0.14437659  1.0
  F  F17  1  0.56860271  0.34283569  0.14437659  1.0
  F  F18  1  0.93139729  0.34283569  0.64437659  1.0
  F  F19  1  0.43139729  0.65716431  0.64437659  1.0
  F  F20  1  0.92683095  0.25358729  0.00337788  1.0
  F  F21  1  0.42683095  0.74641271  0.00337788  1.0
  F  F22  1  0.07316905  0.74641271  0.50337788  1.0
  F  F23  1  0.57316905  0.25358729  0.50337788  1.0
