# generated using pymatgen
data_Cd(ClO3)2
_symmetry_space_group_name_H-M   'P 1'
_cell_length_a   8.32431784
_cell_length_b   6.83995866
_cell_length_c   9.67165762
_cell_angle_alpha   90.00000000
_cell_angle_beta   146.92518042
_cell_angle_gamma   90.00000000
_symmetry_Int_Tables_number   1
_chemical_formula_structural   Cd(ClO3)2
_chemical_formula_sum   'Cd2 Cl4 O12'
_cell_volume   300.52724817
_cell_formula_units_Z   2
loop_
 _symmetry_equiv_pos_site_id
 _symmetry_equiv_pos_as_xyz
  1  'x, y, z'
loop_
 _atom_site_type_symbol
 _atom_site_label
 _atom_site_symmetry_multiplicity
 _atom_site_fract_x
 _atom_site_fract_y
 _atom_site_fract_z
 _atom_site_occupancy
  Cd  Cd0  1  -0.00000000  0.50000000  0.50000000  1.0
  Cd  Cd1  1  0.00000000  0.00000000  0.00000000  1.0
  O  O2  1  1.01926592  0.88668121  0.24246743  1.0
  O  O3  1  1.01926592  0.61331879  0.74246743  1.0
  O  O4  1  -0.01926592  0.38668121  0.25753257  1.0
  O  O5  1  -0.01926592  0.11331879  0.75753257  1.0
  O  O6  1  0.45600852  0.15212785  0.33993384  1.0
  O  O7  1  0.45600852  0.34787215  0.83993384  1.0
  O  O8  1  0.54399148  0.65212785  0.16006616  1.0
  O  O9  1  0.54399148  0.84787215  0.66006616  1.0
  O  O10  1  0.80332246  0.19103691  0.40003929  1.0
  O  O11  1  0.80332246  0.30896309  0.90003929  1.0
  O  O12  1  0.19667754  0.69103691  0.09996071  1.0
  O  O13  1  0.19667754  0.80896309  0.59996071  1.0
  Cl  Cl14  1  0.73715637  0.07044397  0.47900402  1.0
  Cl  Cl15  1  0.73715637  0.42955603  0.97900402  1.0
  Cl  Cl16  1  0.26284363  0.57044397  0.02099598  1.0
  Cl  Cl17  1  0.26284363  0.92955603  0.52099598  1.0
