# generated using pymatgen
data_KClO3
_symmetry_space_group_name_H-M   'P 1'
_cell_length_a   4.55156409
_cell_length_b   4.55156409
_cell_length_c   4.55156409
_cell_angle_alpha   79.07353907
_cell_angle_beta   79.07353907
_cell_angle_gamma   79.07353907
_symmetry_Int_Tables_number   1
_chemical_formula_structural   KClO3
_chemical_formula_sum   'K1 Cl1 O3'
_cell_volume   89.74418801
_cell_formula_units_Z   1
loop_
 _symmetry_equiv_pos_site_id
 _symmetry_equiv_pos_as_xyz
  1  'x, y, z'
loop_
 _atom_site_type_symbol
 _atom_site_label
 _atom_site_symmetry_multiplicity
 _atom_site_fract_x
 _atom_site_fract_y
 _atom_site_fract_z
 _atom_site_occupancy
  K  K0  1  -0.02501831  -0.02501831  -0.02501831  1.0
  Cl  Cl1  1  0.47351215  0.47351215  -0.52648785  1.0
  O  O2  1  0.13222590  0.55199013  -0.44800987  1.0
  O  O3  1  0.55199013  0.13222590  -0.44800987  1.0
  O  O4  1  0.55199013  0.55199013  -0.86777410  1.0
