# generated using pymatgen
data_CsSb2F7
_symmetry_space_group_name_H-M   'P 1'
_cell_length_a   10.62182285
_cell_length_b   10.62182285
_cell_length_c   5.84339405
_cell_angle_alpha   92.72694516
_cell_angle_beta   87.27305484
_cell_angle_gamma   142.45504107
_symmetry_Int_Tables_number   1
_chemical_formula_structural   CsSb2F7
_chemical_formula_sum   'Cs2 Sb4 F14'
_cell_volume   401.24088421
_cell_formula_units_Z   2
loop_
 _symmetry_equiv_pos_site_id
 _symmetry_equiv_pos_as_xyz
  1  'x, y, z'
loop_
 _atom_site_type_symbol
 _atom_site_label
 _atom_site_symmetry_multiplicity
 _atom_site_fract_x
 _atom_site_fract_y
 _atom_site_fract_z
 _atom_site_occupancy
  Cs  Cs0  1  0.50000000  0.00000000  0.50000000  1.0
  Cs  Cs1  1  1.00000000  0.50000000  0.00000000  1.0
  Sb  Sb2  1  0.68140183  -0.14837087  0.94677477  1.0
  Sb  Sb3  1  1.14837087  0.31859817  0.44677477  1.0
  Sb  Sb4  1  0.85162913  0.68140183  0.55322523  1.0
  Sb  Sb5  1  0.31859817  0.14837087  0.05322523  1.0
  F  F6  1  0.52325962  -0.32332137  0.66653572  1.0
  F  F7  1  1.32332137  0.47674038  0.16653572  1.0
  F  F8  1  0.67667863  0.52325962  0.83346428  1.0
  F  F9  1  0.47674038  0.32332137  0.33346428  1.0
  F  F10  1  0.83944189  0.10583374  0.77209363  1.0
  F  F11  1  0.89416626  0.16055811  0.27209363  1.0
  F  F12  1  1.10583374  0.83944189  0.72790637  1.0
  F  F13  1  0.16055811  -0.10583374  0.22790637  1.0
  F  F14  1  0.51955916  0.16100583  1.00782011  1.0
  F  F15  1  0.83899417  0.48044084  0.50782011  1.0
  F  F16  1  1.16100583  0.51955916  0.49217989  1.0
  F  F17  1  0.48044084  -0.16100583  -0.00782011  1.0
  F  F18  1  0.92092919  0.92092919  0.75000000  1.0
  F  F19  1  0.07907081  0.07907081  0.25000000  1.0
