# generated using pymatgen
data_CsBe2BO3F2
_symmetry_space_group_name_H-M   'P 1'
_cell_length_a   4.49089924
_cell_length_b   4.49089924
_cell_length_c   7.74705659
_cell_angle_alpha   73.15445625
_cell_angle_beta   106.84554375
_cell_angle_gamma   120.00115352
_symmetry_Int_Tables_number   1
_chemical_formula_structural   CsBe2BO3F2
_chemical_formula_sum   'Cs1 Be2 B1 O3 F2'
_cell_volume   127.50943563
_cell_formula_units_Z   1
loop_
 _symmetry_equiv_pos_site_id
 _symmetry_equiv_pos_as_xyz
  1  'x, y, z'
loop_
 _atom_site_type_symbol
 _atom_site_label
 _atom_site_symmetry_multiplicity
 _atom_site_fract_x
 _atom_site_fract_y
 _atom_site_fract_z
 _atom_site_occupancy
  Cs  Cs0  1  1.20510998  0.20510998  0.50000000  1.0
  Be  Be1  1  1.01286099  0.39737327  0.92327359  1.0
  Be  Be2  1  1.39737327  0.01286099  0.07672641  1.0
  B  B3  1  0.70511141  -0.29488859  0.00000000  1.0
  O  O4  1  0.39755281  -0.29493428  0.00004553  1.0
  O  O5  1  0.70506572  -0.60244719  0.99995447  1.0
  O  O6  1  0.01266791  0.01266791  -0.00000000  1.0
  F  F7  1  0.94189238  -0.53163446  0.71028160  1.0
  F  F8  1  0.46836554  -0.05810762  0.28971840  1.0
