# generated using pymatgen
data_Lu4Mn2InGe4
_symmetry_space_group_name_H-M   'P 1'
_cell_length_a   8.04777796
_cell_length_b   8.04777796
_cell_length_c   7.04607419
_cell_angle_alpha   74.24894278
_cell_angle_beta   105.75105722
_cell_angle_gamma   150.46831098
_symmetry_Int_Tables_number   1
_chemical_formula_structural   Lu4Mn2InGe4
_chemical_formula_sum   'Lu4 Mn2 In1 Ge4'
_cell_volume   215.89230329
_cell_formula_units_Z   1
loop_
 _symmetry_equiv_pos_site_id
 _symmetry_equiv_pos_as_xyz
  1  'x, y, z'
loop_
 _atom_site_type_symbol
 _atom_site_label
 _atom_site_symmetry_multiplicity
 _atom_site_fract_x
 _atom_site_fract_y
 _atom_site_fract_z
 _atom_site_occupancy
  Lu  Lu0  1  0.65606383  -0.65606383  0.92439614  1.0
  Lu  Lu1  1  1.34393617  -0.34393617  0.07560386  1.0
  Lu  Lu2  1  1.41766940  -0.41766940  0.62999338  1.0
  Lu  Lu3  1  0.58233060  -0.58233060  0.37000662  1.0
  Mn  Mn4  1  0.77633307  -0.77633307  0.38882407  1.0
  Mn  Mn5  1  1.22366693  -0.22366693  0.61117593  1.0
  In  In6  1  0.00000000  0.00000000  0.00000000  1.0
  Ge  Ge7  1  0.93140645  -0.93140645  0.34641583  1.0
  Ge  Ge8  1  1.06859355  -0.06859355  0.65358417  1.0
  Ge  Ge9  1  0.80607500  -0.80607500  0.76052520  1.0
  Ge  Ge10  1  1.19392500  -0.19392500  0.23947480  1.0
