# generated using pymatgen
data_CaInNi
_symmetry_space_group_name_H-M   'P 1'
_cell_length_a   7.25530997
_cell_length_b   4.29517538
_cell_length_c   8.24824494
_cell_angle_alpha   90.00000000
_cell_angle_beta   90.00000000
_cell_angle_gamma   90.00000000
_symmetry_Int_Tables_number   1
_chemical_formula_structural   CaInNi
_chemical_formula_sum   'Ca4 In4 Ni4'
_cell_volume   257.03864465
_cell_formula_units_Z   4
loop_
 _symmetry_equiv_pos_site_id
 _symmetry_equiv_pos_as_xyz
  1  'x, y, z'
loop_
 _atom_site_type_symbol
 _atom_site_label
 _atom_site_symmetry_multiplicity
 _atom_site_fract_x
 _atom_site_fract_y
 _atom_site_fract_z
 _atom_site_occupancy
  Ca  Ca0  1  0.97272990  0.75000000  0.67817889  1.0
  Ca  Ca1  1  0.47272990  0.75000000  0.82182111  1.0
  Ca  Ca2  1  0.02727010  0.25000000  0.32182111  1.0
  Ca  Ca3  1  0.52727010  0.25000000  0.17817889  1.0
  In  In4  1  0.84858019  0.75000000  0.06369009  1.0
  In  In5  1  0.34858019  0.75000000  0.43630991  1.0
  In  In6  1  0.15141981  0.25000000  0.93630991  1.0
  In  In7  1  0.65141981  0.25000000  0.56369009  1.0
  Ni  Ni8  1  0.72168965  0.75000000  0.37401184  1.0
  Ni  Ni9  1  0.22168965  0.75000000  0.12598816  1.0
  Ni  Ni10  1  0.27831035  0.25000000  0.62598816  1.0
  Ni  Ni11  1  0.77831035  0.25000000  0.87401184  1.0
