# generated using pymatgen
data_TeO6
_symmetry_space_group_name_H-M   'P 1'
_cell_length_a   10.25004038
_cell_length_b   10.25004038
_cell_length_c   10.25004038
_cell_angle_alpha   60.00000000
_cell_angle_beta   60.00000000
_cell_angle_gamma   60.00000000
_symmetry_Int_Tables_number   1
_chemical_formula_structural   TeO6
_chemical_formula_sum   'Te8 O48'
_cell_volume   761.48566275
_cell_formula_units_Z   8
loop_
 _symmetry_equiv_pos_site_id
 _symmetry_equiv_pos_as_xyz
  1  'x, y, z'
loop_
 _atom_site_type_symbol
 _atom_site_label
 _atom_site_symmetry_multiplicity
 _atom_site_fract_x
 _atom_site_fract_y
 _atom_site_fract_z
 _atom_site_occupancy
  Te  Te0  1  -0.62500000  0.87500000  0.87500000  1.0
  Te  Te1  1  0.87500000  -0.62500000  0.87500000  1.0
  Te  Te2  1  0.87500000  -0.12500000  0.37500000  1.0
  Te  Te3  1  0.87500000  -0.12500000  0.87500000  1.0
  Te  Te4  1  -0.12500000  0.37500000  1.37500000  1.0
  Te  Te5  1  0.37500000  0.37500000  -0.12500000  1.0
  Te  Te6  1  0.37500000  -0.12500000  1.37500000  1.0
  Te  Te7  1  0.37500000  0.37500000  1.37500000  1.0
  O  O8  1  0.32581309  0.16936115  0.01784887  1.0
  O  O9  1  0.16936115  0.32581309  1.48697689  1.0
  O  O10  1  0.01784887  0.48697689  0.32581309  1.0
  O  O11  1  0.48697689  0.01784887  1.16936115  1.0
  O  O12  1  0.16936115  0.01784887  0.32581309  1.0
  O  O13  1  0.32581309  1.48697689  0.16936115  1.0
  O  O14  1  1.48697689  0.32581309  0.01784887  1.0
  O  O15  1  0.01784887  0.16936115  1.48697689  1.0
  O  O16  1  0.01784887  0.32581309  0.16936115  1.0
  O  O17  1  0.48697689  0.16936115  1.32581309  1.0
  O  O18  1  0.32581309  0.01784887  1.48697689  1.0
  O  O19  1  0.16936115  0.48697689  0.01784887  1.0
  O  O20  1  1.42418691  0.58063885  -0.26784887  1.0
  O  O21  1  1.58063885  0.42418691  0.26302311  1.0
  O  O22  1  -0.26784887  0.26302311  1.42418691  1.0
  O  O23  1  0.26302311  -0.26784887  1.58063885  1.0
  O  O24  1  0.58063885  -0.26784887  0.42418691  1.0
  O  O25  1  0.42418691  0.26302311  0.58063885  1.0
  O  O26  1  0.26302311  0.42418691  -0.26784887  1.0
  O  O27  1  -0.26784887  0.58063885  0.26302311  1.0
  O  O28  1  -0.26784887  0.42418691  1.58063885  1.0
  O  O29  1  1.26302311  0.58063885  0.42418691  1.0
  O  O30  1  0.42418691  -0.26784887  1.26302311  1.0
  O  O31  1  1.58063885  0.26302311  -0.26784887  1.0
  O  O32  1  0.82581309  -0.48215113  0.66936115  1.0
  O  O33  1  0.66936115  -0.01302311  0.82581309  1.0
  O  O34  1  0.51784887  -0.17418691  0.98697689  1.0
  O  O35  1  0.98697689  -0.33063885  0.51784887  1.0
  O  O36  1  0.66936115  -0.17418691  0.51784887  1.0
  O  O37  1  0.82581309  -0.33063885  0.98697689  1.0
  O  O38  1  0.98697689  -0.48215113  0.82581309  1.0
  O  O39  1  0.51784887  -0.01302311  0.66936115  1.0
  O  O40  1  0.51784887  -0.33063885  0.82581309  1.0
  O  O41  1  0.98697689  0.82581309  0.66936115  1.0
  O  O42  1  0.82581309  0.98697689  0.51784887  1.0
  O  O43  1  0.66936115  -0.48215113  0.98697689  1.0
  O  O44  1  0.92418691  -0.76784887  1.08063885  1.0
  O  O45  1  1.08063885  0.76302311  0.92418691  1.0
  O  O46  1  -0.76784887  0.92418691  0.76302311  1.0
  O  O47  1  0.76302311  1.08063885  -0.76784887  1.0
  O  O48  1  1.08063885  0.92418691  -0.76784887  1.0
  O  O49  1  0.92418691  1.08063885  0.76302311  1.0
  O  O50  1  0.76302311  -0.76784887  0.92418691  1.0
  O  O51  1  -0.76784887  0.76302311  1.08063885  1.0
  O  O52  1  -0.76784887  1.08063885  0.92418691  1.0
  O  O53  1  0.76302311  -0.07581309  1.08063885  1.0
  O  O54  1  -0.07581309  0.76302311  0.23215113  1.0
  O  O55  1  1.08063885  -0.76784887  0.76302311  1.0
