# generated using pymatgen
data_YO3
_symmetry_space_group_name_H-M   'P 1'
_cell_length_a   6.43824881
_cell_length_b   7.43355256
_cell_length_c   4.26027152
_cell_angle_alpha   90.00000000
_cell_angle_beta   90.00000000
_cell_angle_gamma   90.00000000
_symmetry_Int_Tables_number   1
_chemical_formula_structural   YO3
_chemical_formula_sum   'Y4 O12'
_cell_volume   203.89259423
_cell_formula_units_Z   4
loop_
 _symmetry_equiv_pos_site_id
 _symmetry_equiv_pos_as_xyz
  1  'x, y, z'
loop_
 _atom_site_type_symbol
 _atom_site_label
 _atom_site_symmetry_multiplicity
 _atom_site_fract_x
 _atom_site_fract_y
 _atom_site_fract_z
 _atom_site_occupancy
  Y  Y0  1  0.65237340  0.25000000  0.56375751  1.0
  Y  Y1  1  0.15237340  0.25000000  0.93624249  1.0
  Y  Y2  1  0.34762660  0.75000000  0.43624249  1.0
  Y  Y3  1  0.84762660  0.75000000  0.06375751  1.0
  O  O4  1  0.85339806  0.04740974  0.89665826  1.0
  O  O5  1  0.35339806  0.45259026  0.60334174  1.0
  O  O6  1  0.14660194  0.54740974  0.10334174  1.0
  O  O7  1  0.64660194  0.95259026  0.39665826  1.0
  O  O8  1  0.14660194  0.95259026  0.10334174  1.0
  O  O9  1  0.64660194  0.54740974  0.39665826  1.0
  O  O10  1  0.85339806  0.45259026  0.89665826  1.0
  O  O11  1  0.35339806  0.04740974  0.60334174  1.0
  O  O12  1  1.00804730  0.25000000  0.43120332  1.0
  O  O13  1  0.50804730  0.25000000  0.06879668  1.0
  O  O14  1  -0.00804730  0.75000000  0.56879668  1.0
  O  O15  1  0.49195270  0.75000000  0.93120332  1.0
