# generated using pymatgen
data_RhSe2
_symmetry_space_group_name_H-M   'P 1'
_cell_length_a   21.07680320
_cell_length_b   3.77691958
_cell_length_c   6.01888951
_cell_angle_alpha   90.00000000
_cell_angle_beta   90.00000000
_cell_angle_gamma   90.00000000
_symmetry_Int_Tables_number   1
_chemical_formula_structural   RhSe2
_chemical_formula_sum   'Rh8 Se16'
_cell_volume   479.13605086
_cell_formula_units_Z   8
loop_
 _symmetry_equiv_pos_site_id
 _symmetry_equiv_pos_as_xyz
  1  'x, y, z'
loop_
 _atom_site_type_symbol
 _atom_site_label
 _atom_site_symmetry_multiplicity
 _atom_site_fract_x
 _atom_site_fract_y
 _atom_site_fract_z
 _atom_site_occupancy
  Rh  Rh0  1  0.42502641  0.75000000  0.58445351  1.0
  Rh  Rh1  1  0.92502641  0.75000000  0.91554649  1.0
  Rh  Rh2  1  0.57497359  0.25000000  0.41554649  1.0
  Rh  Rh3  1  0.07497359  0.25000000  0.08445351  1.0
  Rh  Rh4  1  0.19360852  0.75000000  0.57114574  1.0
  Rh  Rh5  1  0.69360852  0.75000000  0.92885426  1.0
  Rh  Rh6  1  0.80639148  0.25000000  0.42885426  1.0
  Rh  Rh7  1  0.30639148  0.25000000  0.07114574  1.0
  Se  Se8  1  0.37958074  0.75000000  0.96476260  1.0
  Se  Se9  1  0.87958074  0.75000000  0.53523740  1.0
  Se  Se10  1  0.62041926  0.25000000  0.03523740  1.0
  Se  Se11  1  0.12041926  0.25000000  0.46476260  1.0
  Se  Se12  1  0.23791596  0.75000000  0.19508633  1.0
  Se  Se13  1  0.73791596  0.75000000  0.30491367  1.0
  Se  Se14  1  0.76208404  0.25000000  0.80491367  1.0
  Se  Se15  1  0.26208404  0.25000000  0.69508633  1.0
  Se  Se16  1  0.13970272  0.75000000  0.94517264  1.0
  Se  Se17  1  0.63970272  0.75000000  0.55482736  1.0
  Se  Se18  1  0.86029728  0.25000000  0.05482736  1.0
  Se  Se19  1  0.36029728  0.25000000  0.44517264  1.0
  Se  Se20  1  0.00531026  0.75000000  0.22388794  1.0
  Se  Se21  1  0.50531026  0.75000000  0.27611206  1.0
  Se  Se22  1  0.99468974  0.25000000  0.77611206  1.0
  Se  Se23  1  0.49468974  0.25000000  0.72388794  1.0
