# generated using pymatgen
data_BaLiZr2F11
_symmetry_space_group_name_H-M   'P 1'
_cell_length_a   8.19823720
_cell_length_b   8.19823720
_cell_length_c   8.19823720
_cell_angle_alpha   118.96797217
_cell_angle_beta   118.96797217
_cell_angle_gamma   91.79701692
_symmetry_Int_Tables_number   1
_chemical_formula_structural   BaLiZr2F11
_chemical_formula_sum   'Ba2 Li2 Zr4 F22'
_cell_volume   395.49197255
_cell_formula_units_Z   2
loop_
 _symmetry_equiv_pos_site_id
 _symmetry_equiv_pos_as_xyz
  1  'x, y, z'
loop_
 _atom_site_type_symbol
 _atom_site_label
 _atom_site_symmetry_multiplicity
 _atom_site_fract_x
 _atom_site_fract_y
 _atom_site_fract_z
 _atom_site_occupancy
  Ba  Ba0  1  0.19213609  0.19213609  -0.00000000  1.0
  Ba  Ba1  1  0.80786391  0.80786391  0.00000000  1.0
  Li  Li2  1  0.75000000  0.25000000  0.50000000  1.0
  Li  Li3  1  0.25000000  0.75000000  0.50000000  1.0
  Zr  Zr4  1  0.63374235  1.21502174  0.84876408  1.0
  Zr  Zr5  1  0.21502174  0.36625765  0.58127939  1.0
  Zr  Zr6  1  0.36625765  0.78497826  1.15123592  1.0
  Zr  Zr7  1  0.78497826  0.63374235  0.41872061  1.0
  F  F8  1  1.19165498  1.47017060  0.87020541  1.0
  F  F9  1  0.40003480  0.67855043  0.87020541  1.0
  F  F10  1  1.47017060  1.59996520  1.27851562  1.0
  F  F11  1  0.67855043  0.80834502  1.27851562  1.0
  F  F12  1  0.59996520  1.32144957  1.12979459  1.0
  F  F13  1  0.80834502  1.52982940  1.12979459  1.0
  F  F14  1  1.32144957  1.19165498  1.72148438  1.0
  F  F15  1  1.52982940  1.40003480  1.72148438  1.0
  F  F16  1  0.83415287  0.27387109  0.78259111  1.0
  F  F17  1  0.50872002  0.94843824  0.78259111  1.0
  F  F18  1  0.27387109  0.49127998  0.43971822  1.0
  F  F19  1  0.94843824  1.16584713  1.43971822  1.0
  F  F20  1  0.49127998  1.05156176  1.21740889  1.0
  F  F21  1  1.16584713  0.72612891  1.21740889  1.0
  F  F22  1  1.05156176  0.83415287  1.56028178  1.0
  F  F23  1  0.72612891  0.50872002  0.56028178  1.0
  F  F24  1  0.87359264  1.18296285  1.05655550  1.0
  F  F25  1  1.18296285  1.12640736  1.30937021  1.0
  F  F26  1  0.12640736  0.81703715  0.94344450  1.0
  F  F27  1  0.81703715  0.87359264  1.69062979  1.0
  F  F28  1  0.50000000  0.00000000  0.50000000  1.0
  F  F29  1  0.00000000  0.50000000  0.50000000  1.0
