# generated using pymatgen
data_Ag2H12C3S3(BrN3)2
_symmetry_space_group_name_H-M   'P 1'
_cell_length_a   4.55626806
_cell_length_b   8.42521703
_cell_length_c   22.08219507
_cell_angle_alpha   90.00000000
_cell_angle_beta   102.85725216
_cell_angle_gamma   90.00000000
_symmetry_Int_Tables_number   1
_chemical_formula_structural   Ag2H12C3S3(BrN3)2
_chemical_formula_sum   'Ag4 H24 C6 S6 Br4 N12'
_cell_volume   826.42780643
_cell_formula_units_Z   2
loop_
 _symmetry_equiv_pos_site_id
 _symmetry_equiv_pos_as_xyz
  1  'x, y, z'
loop_
 _atom_site_type_symbol
 _atom_site_label
 _atom_site_symmetry_multiplicity
 _atom_site_fract_x
 _atom_site_fract_y
 _atom_site_fract_z
 _atom_site_occupancy
  Ag  Ag0  1  0.52820696  0.44968761  0.18171977  1.0
  Ag  Ag1  1  0.47179304  0.44968761  0.31828023  1.0
  Ag  Ag2  1  0.47179304  0.55031239  0.81828023  1.0
  Ag  Ag3  1  0.52820696  0.55031239  0.68171977  1.0
  H  H4  1  0.81856324  0.61357035  0.02153751  1.0
  H  H5  1  0.18143676  0.61357035  0.47846249  1.0
  H  H6  1  0.18143676  0.38642965  0.97846249  1.0
  H  H7  1  0.81856324  0.38642965  0.52153751  1.0
  H  H8  1  0.02545757  0.49152165  0.08058066  1.0
  H  H9  1  0.97454243  0.49152165  0.41941934  1.0
  H  H10  1  0.97454243  0.50847835  0.91941934  1.0
  H  H11  1  0.02545757  0.50847835  0.58058066  1.0
  H  H12  1  0.84321633  0.87941904  0.02877536  1.0
  H  H13  1  0.15678367  0.87941904  0.47122464  1.0
  H  H14  1  0.15678367  0.12058096  0.97122464  1.0
  H  H15  1  0.84321633  0.12058096  0.52877536  1.0
  H  H16  1  0.08672247  0.97457636  0.09056222  1.0
  H  H17  1  0.91327753  0.97457636  0.40943778  1.0
  H  H18  1  0.91327753  0.02542364  0.90943778  1.0
  H  H19  1  0.08672247  0.02542364  0.59056222  1.0
  H  H20  1  0.20940732  0.93434350  0.29447448  1.0
  H  H21  1  0.79059268  0.93434350  0.20552552  1.0
  H  H22  1  0.79059268  0.06565650  0.70552552  1.0
  H  H23  1  0.20940732  0.06565650  0.79447448  1.0
  H  H24  1  0.31679989  0.11500439  0.33156541  1.0
  H  H25  1  0.68320011  0.11500439  0.16843459  1.0
  H  H26  1  0.68320011  0.88499561  0.66843459  1.0
  H  H27  1  0.31679989  0.88499561  0.83156541  1.0
  C  C28  1  0.07280535  0.73081285  0.09617865  1.0
  C  C29  1  0.92719465  0.73081285  0.40382135  1.0
  C  C30  1  0.92719465  0.26918715  0.90382135  1.0
  C  C31  1  0.07280535  0.26918715  0.59617865  1.0
  C  C32  1  0.00000000  0.13252367  0.25000000  1.0
  C  C33  1  0.00000000  0.86747633  0.75000000  1.0
  S  S34  1  0.32387649  0.72049332  0.16715773  1.0
  S  S35  1  0.67612351  0.72049332  0.33284227  1.0
  S  S36  1  0.67612351  0.27950668  0.83284227  1.0
  S  S37  1  0.32387649  0.27950668  0.66715773  1.0
  S  S38  1  0.00000000  0.33967651  0.25000000  1.0
  S  S39  1  0.00000000  0.66032349  0.75000000  1.0
  Br  Br40  1  0.35393152  0.24382792  0.08333925  1.0
  Br  Br41  1  0.64606848  0.24382792  0.41666075  1.0
  Br  Br42  1  0.64606848  0.75617208  0.91666075  1.0
  Br  Br43  1  0.35393152  0.75617208  0.58333925  1.0
  N  N44  1  0.95380765  0.60188765  0.06494740  1.0
  N  N45  1  0.04619235  0.60188765  0.43505260  1.0
  N  N46  1  0.04619235  0.39811235  0.93505260  1.0
  N  N47  1  0.95380765  0.39811235  0.56494740  1.0
  N  N48  1  0.98336086  0.87305821  0.07174004  1.0
  N  N49  1  0.01663914  0.87305821  0.42825996  1.0
  N  N50  1  0.01663914  0.12694179  0.92825996  1.0
  N  N51  1  0.98336086  0.12694179  0.57174004  1.0
  N  N52  1  0.18463198  0.05444874  0.29527230  1.0
  N  N53  1  0.81536802  0.05444874  0.20472770  1.0
  N  N54  1  0.81536802  0.94555126  0.70472770  1.0
  N  N55  1  0.18463198  0.94555126  0.79527230  1.0
