# generated using pymatgen
data_K8SnSb4
_symmetry_space_group_name_H-M   'P 1'
_cell_length_a   11.64297071
_cell_length_b   11.64297071
_cell_length_c   11.64297071
_cell_angle_alpha   60.00000000
_cell_angle_beta   60.00000000
_cell_angle_gamma   60.00000000
_symmetry_Int_Tables_number   1
_chemical_formula_structural   K8SnSb4
_chemical_formula_sum   'K16 Sn2 Sb8'
_cell_volume   1116.03140675
_cell_formula_units_Z   2
loop_
 _symmetry_equiv_pos_site_id
 _symmetry_equiv_pos_as_xyz
  1  'x, y, z'
loop_
 _atom_site_type_symbol
 _atom_site_label
 _atom_site_symmetry_multiplicity
 _atom_site_fract_x
 _atom_site_fract_y
 _atom_site_fract_z
 _atom_site_occupancy
  K  K0  1  1.12500000  0.12500000  0.62500000  1.0
  K  K1  1  1.12500000  0.62500000  0.12500000  1.0
  K  K2  1  1.62500000  0.12500000  0.12500000  1.0
  K  K3  1  1.12500000  0.12500000  0.12500000  1.0
  K  K4  1  0.97754336  -0.02245664  0.52245664  1.0
  K  K5  1  0.52245664  -0.02245664  0.52245664  1.0
  K  K6  1  0.97754336  -0.47754336  0.52245664  1.0
  K  K7  1  0.52245664  -0.47754336  0.97754336  1.0
  K  K8  1  0.97754336  -0.47754336  0.97754336  1.0
  K  K9  1  0.52245664  -0.02245664  0.97754336  1.0
  K  K10  1  0.27245664  0.27245664  -0.27245664  1.0
  K  K11  1  0.72754336  0.27245664  -0.27245664  1.0
  K  K12  1  0.27245664  0.72754336  -0.27245664  1.0
  K  K13  1  0.72754336  0.72754336  -0.72754336  1.0
  K  K14  1  1.27245664  -0.27245664  0.27245664  1.0
  K  K15  1  0.72754336  0.27245664  0.27245664  1.0
  Sn  Sn16  1  1.25000000  0.25000000  0.25000000  1.0
  Sn  Sn17  1  0.00000000  0.00000000  0.00000000  1.0
  Sb  Sb18  1  0.89675189  -0.10324811  0.30974434  1.0
  Sb  Sb19  1  0.89675189  -0.69025566  0.89675189  1.0
  Sb  Sb20  1  0.30974434  -0.10324811  0.89675189  1.0
  Sb  Sb21  1  0.89675189  -0.10324811  0.89675189  1.0
  Sb  Sb22  1  0.35324811  0.35324811  -0.05974434  1.0
  Sb  Sb23  1  1.35324811  -0.05974434  0.35324811  1.0
  Sb  Sb24  1  0.94025566  0.35324811  0.35324811  1.0
  Sb  Sb25  1  0.35324811  0.35324811  0.35324811  1.0
