# generated using pymatgen
data_NbBr5
_symmetry_space_group_name_H-M   'P 1'
_cell_length_a   6.67368726
_cell_length_b   13.79194150
_cell_length_c   11.33100733
_cell_angle_alpha   90.00000000
_cell_angle_beta   90.00000000
_cell_angle_gamma   90.00000000
_symmetry_Int_Tables_number   1
_chemical_formula_structural   NbBr5
_chemical_formula_sum   'Nb4 Br20'
_cell_volume   1042.94108954
_cell_formula_units_Z   4
loop_
 _symmetry_equiv_pos_site_id
 _symmetry_equiv_pos_as_xyz
  1  'x, y, z'
loop_
 _atom_site_type_symbol
 _atom_site_label
 _atom_site_symmetry_multiplicity
 _atom_site_fract_x
 _atom_site_fract_y
 _atom_site_fract_z
 _atom_site_occupancy
  Br  Br0  1  0.22717477  0.85793933  0.83203597  1.0
  Br  Br1  1  0.22717477  0.85793933  0.16796403  1.0
  Br  Br2  1  0.72717477  0.64206066  0.83203597  1.0
  Br  Br3  1  0.72717477  0.64206066  0.16796403  1.0
  Br  Br4  1  0.77282523  0.14206067  0.83203597  1.0
  Br  Br5  1  0.77282523  0.14206067  0.16796403  1.0
  Br  Br6  1  0.27282523  0.35793934  0.83203597  1.0
  Br  Br7  1  0.27282523  0.35793934  0.16796403  1.0
  Br  Br8  1  0.29557749  0.57697428  0.00000000  1.0
  Br  Br9  1  0.79557749  0.92302572  0.00000000  1.0
  Br  Br10  1  0.70442251  0.42302572  0.00000000  1.0
  Br  Br11  1  0.20442251  0.07697428  0.00000000  1.0
  Br  Br12  1  0.27133436  0.58510108  0.67967543  1.0
  Br  Br13  1  0.27133436  0.58510108  0.32032457  1.0
  Br  Br14  1  0.77133436  0.91489892  0.67967543  1.0
  Br  Br15  1  0.77133436  0.91489892  0.32032457  1.0
  Br  Br16  1  0.72866564  0.41489892  0.67967543  1.0
  Br  Br17  1  0.72866564  0.41489892  0.32032457  1.0
  Br  Br18  1  0.22866564  0.08510108  0.67967543  1.0
  Br  Br19  1  0.22866564  0.08510108  0.32032457  1.0
  Nb  Nb20  1  0.50000000  0.50000000  0.81214352  1.0
  Nb  Nb21  1  0.50000000  0.50000000  0.18785648  1.0
  Nb  Nb22  1  0.00000000  0.00000000  0.81214352  1.0
  Nb  Nb23  1  0.00000000  0.00000000  0.18785648  1.0
