# generated using pymatgen
data_Ba3YIr2O9
_symmetry_space_group_name_H-M   'P 1'
_cell_length_a   5.91395932
_cell_length_b   5.91395932
_cell_length_c   14.83673837
_cell_angle_alpha   90.00000000
_cell_angle_beta   90.00000000
_cell_angle_gamma   120.00000000
_symmetry_Int_Tables_number   1
_chemical_formula_structural   Ba3YIr2O9
_chemical_formula_sum   'Ba6 Y2 Ir4 O18'
_cell_volume   449.39241263
_cell_formula_units_Z   2
loop_
 _symmetry_equiv_pos_site_id
 _symmetry_equiv_pos_as_xyz
  1  'x, y, z'
loop_
 _atom_site_type_symbol
 _atom_site_label
 _atom_site_symmetry_multiplicity
 _atom_site_fract_x
 _atom_site_fract_y
 _atom_site_fract_z
 _atom_site_occupancy
  Y  Y0  1  0.66666667  0.33333333  0.15153760  1.0
  Y  Y1  1  0.33333333  0.66666667  0.65153760  1.0
  Ir  Ir2  1  0.00000000  0.00000000  -0.00359883  1.0
  Ir  Ir3  1  0.00000000  0.00000000  0.49640117  1.0
  Ir  Ir4  1  0.66666667  0.33333333  0.34530434  1.0
  Ir  Ir5  1  0.33333333  0.66666667  0.84530434  1.0
  Ba  Ba6  1  0.00000000  0.00000000  0.75516768  1.0
  Ba  Ba7  1  0.00000000  0.00000000  0.25516768  1.0
  Ba  Ba8  1  0.66666667  0.33333333  0.57243928  1.0
  Ba  Ba9  1  0.33333333  0.66666667  0.07243928  1.0
  Ba  Ba10  1  0.66666667  0.33333333  0.89949962  1.0
  Ba  Ba11  1  0.33333333  0.66666667  0.39949962  1.0
  O  O12  1  0.84578922  0.69157843  0.07533800  1.0
  O  O13  1  0.30842157  0.15421078  0.07533800  1.0
  O  O14  1  0.84578922  0.15421078  0.07533800  1.0
  O  O15  1  0.15421078  0.30842157  0.57533800  1.0
  O  O16  1  0.69157843  0.84578922  0.57533800  1.0
  O  O17  1  0.15421078  0.84578922  0.57533800  1.0
  O  O18  1  0.51223357  0.02446714  0.26370160  1.0
  O  O19  1  -0.02446714  0.48776643  0.26370160  1.0
  O  O20  1  0.51223357  0.48776643  0.26370160  1.0
  O  O21  1  0.48776643  -0.02446714  0.76370160  1.0
  O  O22  1  0.02446714  0.51223357  0.76370160  1.0
  O  O23  1  0.48776643  0.51223357  0.76370160  1.0
  O  O24  1  0.16596512  0.33193025  0.92084384  1.0
  O  O25  1  0.66806975  0.83403488  0.92084384  1.0
  O  O26  1  0.16596512  0.83403488  0.92084384  1.0
  O  O27  1  0.83403488  0.66806975  0.42084384  1.0
  O  O28  1  0.33193025  0.16596512  0.42084384  1.0
  O  O29  1  0.83403488  0.16596512  0.42084384  1.0
