# generated using pymatgen
data_Rb3Cu2Cl7
_symmetry_space_group_name_H-M   'P 1'
_cell_length_a   13.08793741
_cell_length_b   13.08793741
_cell_length_c   7.36197849
_cell_angle_alpha   90.00000000
_cell_angle_beta   90.00000000
_cell_angle_gamma   32.67077333
_symmetry_Int_Tables_number   1
_chemical_formula_structural   Rb3Cu2Cl7
_chemical_formula_sum   'Rb6 Cu4 Cl14'
_cell_volume   680.73595319
_cell_formula_units_Z   2
loop_
 _symmetry_equiv_pos_site_id
 _symmetry_equiv_pos_as_xyz
  1  'x, y, z'
loop_
 _atom_site_type_symbol
 _atom_site_label
 _atom_site_symmetry_multiplicity
 _atom_site_fract_x
 _atom_site_fract_y
 _atom_site_fract_z
 _atom_site_occupancy
  Rb  Rb0  1  0.00000000  0.00000000  0.00000000  1.0
  Rb  Rb1  1  -0.50000000  0.50000000  0.50000000  1.0
  Rb  Rb2  1  0.17844985  1.17844985  -0.00000000  1.0
  Rb  Rb3  1  0.32155015  1.32155015  0.50000000  1.0
  Rb  Rb4  1  0.67844985  0.67844985  0.50000000  1.0
  Rb  Rb5  1  0.82155015  0.82155015  -0.00000000  1.0
  Cu  Cu6  1  0.40518701  1.40518701  -0.00000000  1.0
  Cu  Cu7  1  0.09481299  1.09481299  0.50000000  1.0
  Cu  Cu8  1  0.90518701  0.90518701  0.50000000  1.0
  Cu  Cu9  1  0.59481299  0.59481299  -0.00000000  1.0
  Cl  Cl10  1  0.00000000  0.00000000  0.50000000  1.0
  Cl  Cl11  1  -0.50000000  0.50000000  0.00000000  1.0
  Cl  Cl12  1  0.31071594  1.31071594  0.00000000  1.0
  Cl  Cl13  1  0.18928406  1.18928406  0.50000000  1.0
  Cl  Cl14  1  0.81071594  0.81071594  0.50000000  1.0
  Cl  Cl15  1  0.68928406  0.68928406  0.00000000  1.0
  Cl  Cl16  1  0.30612672  0.87725686  0.71446115  1.0
  Cl  Cl17  1  0.62274314  1.19387328  0.21446115  1.0
  Cl  Cl18  1  0.37725686  0.80612672  0.21446115  1.0
  Cl  Cl19  1  0.69387328  1.12274314  0.71446115  1.0
  Cl  Cl20  1  0.19387328  1.62274314  0.78553885  1.0
  Cl  Cl21  1  -0.12274314  1.30612672  0.28553885  1.0
  Cl  Cl22  1  0.12274314  1.69387328  0.28553885  1.0
  Cl  Cl23  1  -0.19387328  1.37725686  0.78553885  1.0
