# generated using pymatgen
data_Ba5Ga5Pb
_symmetry_space_group_name_H-M   'P 1'
_cell_length_a   6.08847253
_cell_length_b   6.08847253
_cell_length_c   11.00568175
_cell_angle_alpha   90.00000000
_cell_angle_beta   90.00000000
_cell_angle_gamma   120.00000000
_symmetry_Int_Tables_number   1
_chemical_formula_structural   Ba5Ga5Pb
_chemical_formula_sum   'Ba5 Ga5 Pb1'
_cell_volume   353.31679599
_cell_formula_units_Z   1
loop_
 _symmetry_equiv_pos_site_id
 _symmetry_equiv_pos_as_xyz
  1  'x, y, z'
loop_
 _atom_site_type_symbol
 _atom_site_label
 _atom_site_symmetry_multiplicity
 _atom_site_fract_x
 _atom_site_fract_y
 _atom_site_fract_z
 _atom_site_occupancy
  Ba  Ba0  1  0.66666667  0.33333333  0.79532235  1.0
  Ba  Ba1  1  0.66666667  0.33333333  0.20467765  1.0
  Ba  Ba2  1  -0.00000000  -0.00000000  0.66712489  1.0
  Ba  Ba3  1  0.00000000  0.00000000  0.33287511  1.0
  Ba  Ba4  1  0.33333333  0.66666667  -0.00000000  1.0
  Ga  Ga5  1  0.97045550  0.48522775  0.50000000  1.0
  Ga  Ga6  1  0.51477225  0.48522775  0.50000000  1.0
  Ga  Ga7  1  0.51477225  0.02954450  0.50000000  1.0
  Ga  Ga8  1  0.33333333  0.66666667  0.67420376  1.0
  Ga  Ga9  1  0.33333333  0.66666667  0.32579624  1.0
  Pb  Pb10  1  0.00000000  -0.00000000  -0.00000000  1.0
