# generated using pymatgen
data_Ga4O5
_symmetry_space_group_name_H-M   'P 1'
_cell_length_a   6.92997641
_cell_length_b   6.65904344
_cell_length_c   6.59362427
_cell_angle_alpha   63.05327048
_cell_angle_beta   58.93440894
_cell_angle_gamma   58.01232058
_symmetry_Int_Tables_number   1
_chemical_formula_structural   Ga4O5
_chemical_formula_sum   'Ga8 O10'
_cell_volume   214.18420774
_cell_formula_units_Z   2
loop_
 _symmetry_equiv_pos_site_id
 _symmetry_equiv_pos_as_xyz
  1  'x, y, z'
loop_
 _atom_site_type_symbol
 _atom_site_label
 _atom_site_symmetry_multiplicity
 _atom_site_fract_x
 _atom_site_fract_y
 _atom_site_fract_z
 _atom_site_occupancy
  Ga  Ga0  1  -0.11057841  0.46112603  0.27456140  1.0
  Ga  Ga1  1  0.37489099  0.27456140  1.46112603  1.0
  Ga  Ga2  1  -0.21112603  0.36057841  0.87510901  1.0
  Ga  Ga3  1  -0.02456140  0.87510901  0.36057841  1.0
  Ga  Ga4  1  0.27456140  0.37489099  -0.11057841  1.0
  Ga  Ga5  1  0.46112603  -0.11057841  1.37489099  1.0
  Ga  Ga6  1  -0.12489099  0.97543860  0.78887397  1.0
  Ga  Ga7  1  -0.63942159  0.78887397  0.97543860  1.0
  O  O8  1  0.55284310  0.46642248  1.17825703  1.0
  O  O9  1  -0.19752261  0.17825703  0.46642248  1.0
  O  O10  1  -0.21642248  0.69715690  0.44752261  1.0
  O  O11  1  0.07174297  0.44752261  0.69715690  1.0
  O  O12  1  0.17825703  -0.19752261  1.55284310  1.0
  O  O13  1  0.46642248  0.55284310  -0.19752261  1.0
  O  O14  1  -0.55247739  1.07174297  0.78357752  1.0
  O  O15  1  -0.30284310  0.78357752  1.07174297  1.0
  O  O16  1  0.00000000  0.00000000  0.00000000  1.0
  O  O17  1  0.25000000  0.25000000  1.25000000  1.0
