# generated using pymatgen
data_NbBO4
_symmetry_space_group_name_H-M   'P 1'
_cell_length_a   5.23050065
_cell_length_b   5.23050065
_cell_length_c   5.23050065
_cell_angle_alpha   106.08105408
_cell_angle_beta   106.08105408
_cell_angle_gamma   116.48772821
_symmetry_Int_Tables_number   1
_chemical_formula_structural   NbBO4
_chemical_formula_sum   'Nb2 B2 O8'
_cell_volume   108.90238653
_cell_formula_units_Z   2
loop_
 _symmetry_equiv_pos_site_id
 _symmetry_equiv_pos_as_xyz
  1  'x, y, z'
loop_
 _atom_site_type_symbol
 _atom_site_label
 _atom_site_symmetry_multiplicity
 _atom_site_fract_x
 _atom_site_fract_y
 _atom_site_fract_z
 _atom_site_occupancy
  Nb  Nb0  1  0.25000000  0.75000000  0.50000000  1.0
  Nb  Nb1  1  0.50000000  0.50000000  0.00000000  1.0
  B  B2  1  0.00000000  0.00000000  0.00000000  1.0
  B  B3  1  0.75000000  1.25000000  0.50000000  1.0
  O  O4  1  0.17558779  0.99808845  0.82250067  1.0
  O  O5  1  0.74808845  0.42558779  0.32250067  1.0
  O  O6  1  1.10308712  1.42558779  0.67749933  1.0
  O  O7  1  0.17558779  0.35308712  0.17749933  1.0
  O  O8  1  0.57441221  1.25191155  0.67749933  1.0
  O  O9  1  1.00191155  0.82441221  1.17749933  1.0
  O  O10  1  1.64691288  0.82441221  0.82250067  1.0
  O  O11  1  0.57441221  0.89691288  0.32250067  1.0
