# generated using pymatgen
data_KMo5O13
_symmetry_space_group_name_H-M   'P 1'
_cell_length_a   5.59500653
_cell_length_b   5.59500653
_cell_length_c   16.86955797
_cell_angle_alpha   90.00000000
_cell_angle_beta   90.00000000
_cell_angle_gamma   106.82633253
_symmetry_Int_Tables_number   1
_chemical_formula_structural   KMo5O13
_chemical_formula_sum   'K2 Mo10 O26'
_cell_volume   505.47710651
_cell_formula_units_Z   2
loop_
 _symmetry_equiv_pos_site_id
 _symmetry_equiv_pos_as_xyz
  1  'x, y, z'
loop_
 _atom_site_type_symbol
 _atom_site_label
 _atom_site_symmetry_multiplicity
 _atom_site_fract_x
 _atom_site_fract_y
 _atom_site_fract_z
 _atom_site_occupancy
  O  O0  1  -0.08508674  1.50627974  0.37171132  1.0
  O  O1  1  -0.08508674  1.50627974  0.12828868  1.0
  O  O2  1  0.50627974  0.91491326  0.87171132  1.0
  O  O3  1  0.50627974  0.91491326  0.62828868  1.0
  O  O4  1  -0.50627974  1.08508674  0.37171132  1.0
  O  O5  1  -0.50627974  1.08508674  0.12828868  1.0
  O  O6  1  0.08508674  0.49372026  0.87171132  1.0
  O  O7  1  0.08508674  0.49372026  0.62828868  1.0
  O  O8  1  0.00842419  0.99157581  0.38929557  1.0
  O  O9  1  0.00842419  0.99157581  0.11070443  1.0
  O  O10  1  -0.00842419  1.00842419  0.88929557  1.0
  O  O11  1  -0.00842419  1.00842419  0.61070443  1.0
  O  O12  1  0.22022296  0.77977704  0.48997962  1.0
  O  O13  1  0.22022296  0.77977704  0.01002038  1.0
  O  O14  1  -0.22022296  1.22022296  0.98997962  1.0
  O  O15  1  -0.22022296  1.22022296  0.51002038  1.0
  O  O16  1  0.43500191  0.56499809  0.36357242  1.0
  O  O17  1  0.43500191  0.56499809  0.13642758  1.0
  O  O18  1  -0.43500191  1.43500191  0.86357242  1.0
  O  O19  1  -0.43500191  1.43500191  0.63642758  1.0
  O  O20  1  0.69289529  0.69289529  0.50000000  1.0
  O  O21  1  0.69289529  0.69289529  0.00000000  1.0
  O  O22  1  0.30710471  0.30710471  0.50000000  1.0
  O  O23  1  0.30710471  0.30710471  0.00000000  1.0
  O  O24  1  0.20904701  0.79095299  0.25000000  1.0
  O  O25  1  -0.20904701  1.20904701  0.75000000  1.0
  K  K26  1  -0.14199104  1.14199104  0.25000000  1.0
  K  K27  1  0.14199104  0.85800896  0.75000000  1.0
  Mo  Mo28  1  0.00000000  0.00000000  0.50000000  1.0
  Mo  Mo29  1  0.00000000  0.00000000  0.00000000  1.0
  Mo  Mo30  1  0.22718806  0.77281194  0.36129118  1.0
  Mo  Mo31  1  0.22718806  0.77281194  0.13870882  1.0
  Mo  Mo32  1  -0.22718806  1.22718806  0.86129118  1.0
  Mo  Mo33  1  -0.22718806  1.22718806  0.63870882  1.0
  Mo  Mo34  1  -0.38610263  1.38610263  0.42476516  1.0
  Mo  Mo35  1  -0.38610263  1.38610263  0.07523484  1.0
  Mo  Mo36  1  0.38610263  0.61389737  0.92476516  1.0
  Mo  Mo37  1  0.38610263  0.61389737  0.57523484  1.0
