# generated using pymatgen
data_CuTeO4
_symmetry_space_group_name_H-M   'P 1'
_cell_length_a   4.84263555
_cell_length_b   10.60561726
_cell_length_c   7.55382495
_cell_angle_alpha   90.00000000
_cell_angle_beta   131.11446275
_cell_angle_gamma   90.00000000
_symmetry_Int_Tables_number   1
_chemical_formula_structural   CuTeO4
_chemical_formula_sum   'Cu4 Te4 O16'
_cell_volume   292.28652108
_cell_formula_units_Z   4
loop_
 _symmetry_equiv_pos_site_id
 _symmetry_equiv_pos_as_xyz
  1  'x, y, z'
loop_
 _atom_site_type_symbol
 _atom_site_label
 _atom_site_symmetry_multiplicity
 _atom_site_fract_x
 _atom_site_fract_y
 _atom_site_fract_z
 _atom_site_occupancy
  Cu  Cu0  1  0.00000000  0.00000000  0.00000000  1.0
  Cu  Cu1  1  -0.00000000  0.50000000  0.50000000  1.0
  Cu  Cu2  1  -0.00000000  0.00000000  0.50000000  1.0
  Cu  Cu3  1  0.00000000  0.50000000  0.00000000  1.0
  O  O4  1  0.16585549  0.16197743  0.96953483  1.0
  O  O5  1  0.16585549  0.33802257  0.46953483  1.0
  O  O6  1  0.83414451  0.66197743  0.53046517  1.0
  O  O7  1  0.83414451  0.83802257  0.03046517  1.0
  O  O8  1  0.69180147  0.32352040  0.97327835  1.0
  O  O9  1  0.69180147  0.17647960  0.47327835  1.0
  O  O10  1  0.30819853  0.82352040  0.52672165  1.0
  O  O11  1  0.30819853  0.67647960  0.02672165  1.0
  O  O12  1  0.51042635  0.07654860  0.73409187  1.0
  O  O13  1  0.51042635  0.42345140  0.23409187  1.0
  O  O14  1  0.48957365  0.57654860  0.76590813  1.0
  O  O15  1  0.48957365  0.92345140  0.26590813  1.0
  O  O16  1  0.91122690  0.40758899  0.75196253  1.0
  O  O17  1  0.91122690  0.09241101  0.25196253  1.0
  O  O18  1  0.08877310  0.90758899  0.74803747  1.0
  O  O19  1  0.08877310  0.59241101  0.24803747  1.0
  Te  Te20  1  0.66316303  0.24799930  0.70904983  1.0
  Te  Te21  1  0.66316303  0.25200070  0.20904983  1.0
  Te  Te22  1  0.33683697  0.74799930  0.79095017  1.0
  Te  Te23  1  0.33683697  0.75200070  0.29095017  1.0
