# generated using pymatgen
data_CO2
_symmetry_space_group_name_H-M   'P 1'
_cell_length_a   4.95440223
_cell_length_b   4.95440223
_cell_length_c   8.49705101
_cell_angle_alpha   90.00000000
_cell_angle_beta   90.00000000
_cell_angle_gamma   90.00000000
_symmetry_Int_Tables_number   1
_chemical_formula_structural   CO2
_chemical_formula_sum   'C4 O8'
_cell_volume   208.56947608
_cell_formula_units_Z   4
loop_
 _symmetry_equiv_pos_site_id
 _symmetry_equiv_pos_as_xyz
  1  'x, y, z'
loop_
 _atom_site_type_symbol
 _atom_site_label
 _atom_site_symmetry_multiplicity
 _atom_site_fract_x
 _atom_site_fract_y
 _atom_site_fract_z
 _atom_site_occupancy
  C  C0  1  0.50000459  0.49999541  0.25000000  1.0
  C  C1  1  1.00000459  1.00000459  0.50000000  1.0
  C  C2  1  0.49999541  0.50000459  0.75000000  1.0
  C  C3  1  -0.00000459  -0.00000459  0.00000000  1.0
  O  O4  1  0.16716114  0.83282393  1.00000036  1.0
  O  O5  1  0.66716114  0.66717607  0.74999964  1.0
  O  O6  1  0.16717607  0.83283886  0.49999964  1.0
  O  O7  1  0.66717607  0.66716114  0.25000036  1.0
  O  O8  1  0.83283886  0.16717607  0.50000036  1.0
  O  O9  1  0.33283886  0.33282393  0.24999964  1.0
  O  O10  1  0.83282393  0.16716114  -0.00000036  1.0
  O  O11  1  0.33282393  0.33283886  0.75000036  1.0
