# generated using pymatgen
data_Ni(PO5)2
_symmetry_space_group_name_H-M   'P 1'
_cell_length_a   4.96365751
_cell_length_b   8.54413562
_cell_length_c   8.73661690
_cell_angle_alpha   90.00000000
_cell_angle_beta   110.68578371
_cell_angle_gamma   90.00000000
_symmetry_Int_Tables_number   1
_chemical_formula_structural   Ni(PO5)2
_chemical_formula_sum   'Ni2 P4 O20'
_cell_volume   346.63446776
_cell_formula_units_Z   2
loop_
 _symmetry_equiv_pos_site_id
 _symmetry_equiv_pos_as_xyz
  1  'x, y, z'
loop_
 _atom_site_type_symbol
 _atom_site_label
 _atom_site_symmetry_multiplicity
 _atom_site_fract_x
 _atom_site_fract_y
 _atom_site_fract_z
 _atom_site_occupancy
  P  P0  1  1.04291197  0.69946920  0.21154623  1.0
  P  P1  1  1.04291197  0.80053080  0.71154623  1.0
  P  P2  1  -0.04291197  0.19946920  0.28845377  1.0
  P  P3  1  -0.04291197  0.30053080  0.78845377  1.0
  O  O4  1  0.60440566  0.47680688  0.41462456  1.0
  O  O5  1  0.60440566  0.02319312  0.91462456  1.0
  O  O6  1  0.39559434  0.97680688  0.08537544  1.0
  O  O7  1  0.39559434  0.52319312  0.58537544  1.0
  O  O8  1  0.64469938  0.16659692  0.27729978  1.0
  O  O9  1  0.64469938  0.33340308  0.77729978  1.0
  O  O10  1  0.35530062  0.66659692  0.22270022  1.0
  O  O11  1  0.35530062  0.83340308  0.72270022  1.0
  O  O12  1  0.15269690  0.08954353  0.42114943  1.0
  O  O13  1  0.15269690  0.41045647  0.92114943  1.0
  O  O14  1  0.84730310  0.58954353  0.07885057  1.0
  O  O15  1  0.84730310  0.91045647  0.57885057  1.0
  O  O16  1  1.00942121  0.18338292  0.12233097  1.0
  O  O17  1  1.00942121  0.31661708  0.62233097  1.0
  O  O18  1  -0.00942121  0.68338292  0.37766903  1.0
  O  O19  1  -0.00942121  0.81661708  0.87766903  1.0
  O  O20  1  0.96071939  0.87663041  0.17023590  1.0
  O  O21  1  0.96071939  0.62336959  0.67023590  1.0
  O  O22  1  0.03928061  0.37663041  0.32976410  1.0
  O  O23  1  0.03928061  0.12336959  0.82976410  1.0
  Ni  Ni24  1  -0.00000000  0.50000000  0.50000000  1.0
  Ni  Ni25  1  -0.00000000  0.00000000  -0.00000000  1.0
