# generated using pymatgen
data_Y2ZnS4
_symmetry_space_group_name_H-M   'P 1'
_cell_length_a   13.55426233
_cell_length_b   7.91015646
_cell_length_c   6.33402942
_cell_angle_alpha   90.00000000
_cell_angle_beta   90.00000000
_cell_angle_gamma   90.00000000
_symmetry_Int_Tables_number   1
_chemical_formula_structural   Y2ZnS4
_chemical_formula_sum   'Y8 Zn4 S16'
_cell_volume   679.11142497
_cell_formula_units_Z   4
loop_
 _symmetry_equiv_pos_site_id
 _symmetry_equiv_pos_as_xyz
  1  'x, y, z'
loop_
 _atom_site_type_symbol
 _atom_site_label
 _atom_site_symmetry_multiplicity
 _atom_site_fract_x
 _atom_site_fract_y
 _atom_site_fract_z
 _atom_site_occupancy
  Y  Y0  1  0.00000000  0.50000000  -0.00000000  1.0
  Y  Y1  1  0.50000000  0.00000000  0.50000000  1.0
  Y  Y2  1  0.00000000  0.00000000  0.00000000  1.0
  Y  Y3  1  0.50000000  0.50000000  0.50000000  1.0
  Y  Y4  1  0.26598990  0.75000000  0.00418555  1.0
  Y  Y5  1  0.76598990  0.75000000  0.49581445  1.0
  Y  Y6  1  0.73401010  0.25000000  0.99581445  1.0
  Y  Y7  1  0.23401010  0.25000000  0.50418555  1.0
  Zn  Zn8  1  0.09197729  0.75000000  0.58836173  1.0
  Zn  Zn9  1  0.59197729  0.75000000  0.91163827  1.0
  Zn  Zn10  1  0.90802271  0.25000000  0.41163827  1.0
  Zn  Zn11  1  0.40802271  0.25000000  0.08836173  1.0
  S  S12  1  0.09053966  0.75000000  0.22462338  1.0
  S  S13  1  0.59053966  0.75000000  0.27537662  1.0
  S  S14  1  0.90946034  0.25000000  0.77537662  1.0
  S  S15  1  0.40946034  0.25000000  0.72462338  1.0
  S  S16  1  0.43074086  0.75000000  0.75701002  1.0
  S  S17  1  0.93074086  0.75000000  0.74298998  1.0
  S  S18  1  0.56925914  0.25000000  0.24298998  1.0
  S  S19  1  0.06925914  0.25000000  0.25701002  1.0
  S  S20  1  0.16818223  0.51461939  0.75529077  1.0
  S  S21  1  0.66818223  0.98538061  0.74470923  1.0
  S  S22  1  0.83181777  0.01461939  0.24470923  1.0
  S  S23  1  0.33181777  0.48538061  0.25529077  1.0
  S  S24  1  0.83181777  0.48538061  0.24470923  1.0
  S  S25  1  0.33181777  0.01461939  0.25529077  1.0
  S  S26  1  0.16818223  0.98538061  0.75529077  1.0
  S  S27  1  0.66818223  0.51461939  0.74470923  1.0
