# generated using pymatgen
data_Ba4Nb14O23
_symmetry_space_group_name_H-M   'P 1'
_cell_length_a   12.20115679
_cell_length_b   12.20115679
_cell_length_c   4.17649301
_cell_angle_alpha   90.00000000
_cell_angle_beta   90.00000000
_cell_angle_gamma   118.16271476
_symmetry_Int_Tables_number   1
_chemical_formula_structural   Ba4Nb14O23
_chemical_formula_sum   'Ba4 Nb14 O23'
_cell_volume   548.13895200
_cell_formula_units_Z   1
loop_
 _symmetry_equiv_pos_site_id
 _symmetry_equiv_pos_as_xyz
  1  'x, y, z'
loop_
 _atom_site_type_symbol
 _atom_site_label
 _atom_site_symmetry_multiplicity
 _atom_site_fract_x
 _atom_site_fract_y
 _atom_site_fract_z
 _atom_site_occupancy
  Ba  Ba0  1  -0.06775336  1.72895620  0.50000000  1.0
  Ba  Ba1  1  0.72895620  0.93224664  0.50000000  1.0
  Ba  Ba2  1  -0.72895620  1.06775336  0.50000000  1.0
  Ba  Ba3  1  0.06775336  0.27104380  0.50000000  1.0
  Nb  Nb4  1  0.13820519  0.53983523  0.00000000  1.0
  Nb  Nb5  1  -0.46016477  1.13820519  0.00000000  1.0
  Nb  Nb6  1  0.46016477  0.86179481  0.00000000  1.0
  Nb  Nb7  1  -0.13820519  1.46016477  0.00000000  1.0
  Nb  Nb8  1  0.29657042  0.70342958  0.50000000  1.0
  Nb  Nb9  1  -0.29657042  1.29657042  0.50000000  1.0
  Nb  Nb10  1  0.20214307  0.79785693  0.00000000  1.0
  Nb  Nb11  1  -0.20214307  1.20214307  0.00000000  1.0
  Nb  Nb12  1  0.40044267  0.59955733  0.00000000  1.0
  Nb  Nb13  1  -0.40044267  1.40044267  0.00000000  1.0
  Nb  Nb14  1  0.66330613  0.66330613  0.00000000  1.0
  Nb  Nb15  1  0.33669387  0.33669387  0.00000000  1.0
  Nb  Nb16  1  0.50000000  0.50000000  0.50000000  1.0
  Nb  Nb17  1  0.00000000  0.00000000  0.00000000  1.0
  O  O18  1  0.13655977  0.53023714  0.50000000  1.0
  O  O19  1  -0.46976286  1.13655977  0.50000000  1.0
  O  O20  1  0.46976286  0.86344023  0.50000000  1.0
  O  O21  1  -0.13655977  1.46976286  0.50000000  1.0
  O  O22  1  0.03241405  0.63592463  0.00000000  1.0
  O  O23  1  -0.36407537  1.03241405  0.00000000  1.0
  O  O24  1  0.36407537  0.96758595  0.00000000  1.0
  O  O25  1  -0.03241405  1.36407537  0.00000000  1.0
  O  O26  1  -0.23074889  1.56968727  0.00000000  1.0
  O  O27  1  0.56968727  0.76925111  0.00000000  1.0
  O  O28  1  -0.56968727  1.23074889  0.00000000  1.0
  O  O29  1  0.23074889  0.43031273  0.00000000  1.0
  O  O30  1  0.19635762  0.80364238  0.50000000  1.0
  O  O31  1  -0.19635762  1.19635762  0.50000000  1.0
  O  O32  1  0.39969826  0.60030174  0.50000000  1.0
  O  O33  1  -0.39969826  1.39969826  0.50000000  1.0
  O  O34  1  0.09577899  0.90422101  0.00000000  1.0
  O  O35  1  -0.09577899  1.09577899  0.00000000  1.0
  O  O36  1  0.67004337  0.67004337  0.50000000  1.0
  O  O37  1  0.32995663  0.32995663  0.50000000  1.0
  O  O38  1  0.83843694  0.83843694  0.00000000  1.0
  O  O39  1  0.16156306  0.16156306  0.00000000  1.0
  O  O40  1  0.00000000  0.00000000  0.50000000  1.0
