# generated using pymatgen
data_RbMnCl3
_symmetry_space_group_name_H-M   'P 1'
_cell_length_a   7.24024420
_cell_length_b   7.24024420
_cell_length_c   17.94727851
_cell_angle_alpha   90.00000000
_cell_angle_beta   90.00000000
_cell_angle_gamma   120.00000000
_symmetry_Int_Tables_number   1
_chemical_formula_structural   RbMnCl3
_chemical_formula_sum   'Rb6 Mn6 Cl18'
_cell_volume   814.77118804
_cell_formula_units_Z   6
loop_
 _symmetry_equiv_pos_site_id
 _symmetry_equiv_pos_as_xyz
  1  'x, y, z'
loop_
 _atom_site_type_symbol
 _atom_site_label
 _atom_site_symmetry_multiplicity
 _atom_site_fract_x
 _atom_site_fract_y
 _atom_site_fract_z
 _atom_site_occupancy
  Rb  Rb0  1  0.33333333  0.66666667  0.41491211  1.0
  Rb  Rb1  1  0.33333333  0.66666667  0.08508789  1.0
  Rb  Rb2  1  0.66666667  0.33333333  0.91491211  1.0
  Rb  Rb3  1  0.66666667  0.33333333  0.58508789  1.0
  Rb  Rb4  1  0.00000000  0.00000000  0.25000000  1.0
  Rb  Rb5  1  0.00000000  0.00000000  0.75000000  1.0
  Mn  Mn6  1  0.33333333  0.66666667  0.83932952  1.0
  Mn  Mn7  1  0.33333333  0.66666667  0.66067048  1.0
  Mn  Mn8  1  0.66666667  0.33333333  0.33932952  1.0
  Mn  Mn9  1  0.66666667  0.33333333  0.16067048  1.0
  Mn  Mn10  1  0.00000000  0.00000000  0.50000000  1.0
  Mn  Mn11  1  0.00000000  0.00000000  0.00000000  1.0
  Cl  Cl12  1  0.16582837  0.83417163  0.91819543  1.0
  Cl  Cl13  1  0.16582837  0.83417163  0.58180457  1.0
  Cl  Cl14  1  0.16582837  0.33165674  0.91819543  1.0
  Cl  Cl15  1  0.16582837  0.33165674  0.58180457  1.0
  Cl  Cl16  1  0.83417163  0.16582837  0.41819543  1.0
  Cl  Cl17  1  0.83417163  0.16582837  0.08180457  1.0
  Cl  Cl18  1  0.83417163  0.66834326  0.41819543  1.0
  Cl  Cl19  1  0.83417163  0.66834326  0.08180457  1.0
  Cl  Cl20  1  0.66834326  0.83417163  0.91819543  1.0
  Cl  Cl21  1  0.66834326  0.83417163  0.58180457  1.0
  Cl  Cl22  1  0.33165674  0.16582837  0.41819543  1.0
  Cl  Cl23  1  0.33165674  0.16582837  0.08180457  1.0
  Cl  Cl24  1  0.50868300  0.49131700  0.25000000  1.0
  Cl  Cl25  1  0.50868300  0.01736600  0.25000000  1.0
  Cl  Cl26  1  0.49131700  0.50868300  0.75000000  1.0
  Cl  Cl27  1  0.49131700  0.98263400  0.75000000  1.0
  Cl  Cl28  1  0.98263400  0.49131700  0.25000000  1.0
  Cl  Cl29  1  0.01736600  0.50868300  0.75000000  1.0
