# generated using pymatgen
data_CoN3
_symmetry_space_group_name_H-M   'P 1'
_cell_length_a   5.66936439
_cell_length_b   5.66936439
_cell_length_c   5.66936439
_cell_angle_alpha   109.47122063
_cell_angle_beta   109.47122063
_cell_angle_gamma   109.47122063
_symmetry_Int_Tables_number   1
_chemical_formula_structural   CoN3
_chemical_formula_sum   'Co4 N12'
_cell_volume   140.27530552
_cell_formula_units_Z   4
loop_
 _symmetry_equiv_pos_site_id
 _symmetry_equiv_pos_as_xyz
  1  'x, y, z'
loop_
 _atom_site_type_symbol
 _atom_site_label
 _atom_site_symmetry_multiplicity
 _atom_site_fract_x
 _atom_site_fract_y
 _atom_site_fract_z
 _atom_site_occupancy
  Co  Co0  1  1.00000000  0.50000000  1.00000000  1.0
  Co  Co1  1  0.50000000  0.50000000  0.50000000  1.0
  Co  Co2  1  1.00000000  1.00000000  0.50000000  1.0
  Co  Co3  1  0.50000000  1.00000000  1.00000000  1.0
  N  N4  1  0.90706926  0.60030306  0.69323381  1.0
  N  N5  1  0.09293074  0.39969694  0.30676619  1.0
  N  N6  1  0.09293074  0.78616455  0.69323381  1.0
  N  N7  1  0.90706926  1.21383545  1.30676619  1.0
  N  N8  1  1.21383545  1.30676619  0.90706926  1.0
  N  N9  1  0.78616455  0.69323381  0.09293074  1.0
  N  N10  1  0.39969694  0.30676619  0.09293074  1.0
  N  N11  1  0.60030306  0.69323381  0.90706926  1.0
  N  N12  1  0.30676619  0.09293074  0.39969694  1.0
  N  N13  1  0.69323381  0.90706926  0.60030306  1.0
  N  N14  1  1.30676619  0.90706926  1.21383545  1.0
  N  N15  1  0.69323381  0.09293074  0.78616455  1.0
