# generated using pymatgen
data_MgBO3
_symmetry_space_group_name_H-M   'P 1'
_cell_length_a   3.21792225
_cell_length_b   10.38709620
_cell_length_c   12.47451732
_cell_angle_alpha   90.00000000
_cell_angle_beta   95.18098445
_cell_angle_gamma   90.00000000
_symmetry_Int_Tables_number   1
_chemical_formula_structural   MgBO3
_chemical_formula_sum   'Mg8 B8 O24'
_cell_volume   415.25557641
_cell_formula_units_Z   8
loop_
 _symmetry_equiv_pos_site_id
 _symmetry_equiv_pos_as_xyz
  1  'x, y, z'
loop_
 _atom_site_type_symbol
 _atom_site_label
 _atom_site_symmetry_multiplicity
 _atom_site_fract_x
 _atom_site_fract_y
 _atom_site_fract_z
 _atom_site_occupancy
  Mg  Mg0  1  0.78620338  0.58093362  0.59524549  1.0
  Mg  Mg1  1  0.78620338  0.91906638  0.09524549  1.0
  Mg  Mg2  1  0.21379662  0.08093362  0.90475451  1.0
  Mg  Mg3  1  0.21379662  0.41906638  0.40475451  1.0
  Mg  Mg4  1  0.26101601  0.63105647  0.99219279  1.0
  Mg  Mg5  1  0.26101601  0.86894353  0.49219279  1.0
  Mg  Mg6  1  0.73898399  0.13105647  0.50780721  1.0
  Mg  Mg7  1  0.73898399  0.36894353  0.00780721  1.0
  O  O8  1  0.77960559  0.95288639  0.58111853  1.0
  O  O9  1  0.77960559  0.54711361  0.08111853  1.0
  O  O10  1  0.22039441  0.45288639  0.91888147  1.0
  O  O11  1  0.22039441  0.04711361  0.41888147  1.0
  O  O12  1  0.71522498  0.93250889  0.92218129  1.0
  O  O13  1  0.71522498  0.56749111  0.42218129  1.0
  O  O14  1  0.28477502  0.43250889  0.57781871  1.0
  O  O15  1  0.28477502  0.06749111  0.07781871  1.0
  O  O16  1  0.71680103  0.19908429  0.92469264  1.0
  O  O17  1  0.71680103  0.30091571  0.42469264  1.0
  O  O18  1  0.28319897  0.69908429  0.57530736  1.0
  O  O19  1  0.28319897  0.80091571  0.07530736  1.0
  O  O20  1  0.88908866  0.54533085  0.75603344  1.0
  O  O21  1  0.88908866  0.95466915  0.25603344  1.0
  O  O22  1  0.11091134  0.04533085  0.74396656  1.0
  O  O23  1  0.11091134  0.45466915  0.24396656  1.0
  O  O24  1  0.73446835  0.70512710  0.89828782  1.0
  O  O25  1  0.73446835  0.79487290  0.39828782  1.0
  O  O26  1  0.26553165  0.20512710  0.60171218  1.0
  O  O27  1  0.26553165  0.29487290  0.10171218  1.0
  O  O28  1  0.80041791  0.84023386  0.74777443  1.0
  O  O29  1  0.80041791  0.65976614  0.24777443  1.0
  O  O30  1  0.19958209  0.34023386  0.75222557  1.0
  O  O31  1  0.19958209  0.15976614  0.25222557  1.0
  B  B32  1  0.88600175  0.95138935  0.68935400  1.0
  B  B33  1  0.88600175  0.54861065  0.18935400  1.0
  B  B34  1  0.11399825  0.45138935  0.81064600  1.0
  B  B35  1  0.11399825  0.04861065  0.31064600  1.0
  B  B36  1  0.74791975  0.82744494  0.85593020  1.0
  B  B37  1  0.74791975  0.67255506  0.35593020  1.0
  B  B38  1  0.25208025  0.32744494  0.64406980  1.0
  B  B39  1  0.25208025  0.17255506  0.14406980  1.0
