# generated using pymatgen
data_Sm3W(ClO2)3
_symmetry_space_group_name_H-M   'P 1'
_cell_length_a   9.29187177
_cell_length_b   9.29187177
_cell_length_c   5.35714110
_cell_angle_alpha   90.00000000
_cell_angle_beta   90.00000000
_cell_angle_gamma   120.00000000
_symmetry_Int_Tables_number   1
_chemical_formula_structural   Sm3W(ClO2)3
_chemical_formula_sum   'Sm6 W2 Cl6 O12'
_cell_volume   400.56235569
_cell_formula_units_Z   2
loop_
 _symmetry_equiv_pos_site_id
 _symmetry_equiv_pos_as_xyz
  1  'x, y, z'
loop_
 _atom_site_type_symbol
 _atom_site_label
 _atom_site_symmetry_multiplicity
 _atom_site_fract_x
 _atom_site_fract_y
 _atom_site_fract_z
 _atom_site_occupancy
  Sm  Sm0  1  0.68479587  0.59430677  0.25000000  1.0
  Sm  Sm1  1  0.59430677  0.90951090  0.75000000  1.0
  Sm  Sm2  1  0.90951090  0.31520413  0.25000000  1.0
  Sm  Sm3  1  0.40569323  0.09048910  0.25000000  1.0
  Sm  Sm4  1  0.31520413  0.40569323  0.75000000  1.0
  Sm  Sm5  1  0.09048910  0.68479587  0.75000000  1.0
  W  W6  1  0.33333333  0.66666667  0.25000000  1.0
  W  W7  1  0.66666667  0.33333333  0.75000000  1.0
  Cl  Cl8  1  0.04867275  0.80708305  0.25000000  1.0
  Cl  Cl9  1  0.80708305  0.75841030  0.75000000  1.0
  Cl  Cl10  1  0.75841030  0.95132725  0.25000000  1.0
  Cl  Cl11  1  0.19291695  0.24158970  0.25000000  1.0
  Cl  Cl12  1  0.95132725  0.19291695  0.75000000  1.0
  Cl  Cl13  1  0.24158970  0.04867275  0.75000000  1.0
  O  O14  1  0.36393852  0.84011681  0.48227515  1.0
  O  O15  1  0.36393852  0.84011681  0.01772485  1.0
  O  O16  1  0.84011681  0.47617829  0.98227515  1.0
  O  O17  1  0.84011681  0.47617829  0.51772485  1.0
  O  O18  1  0.47617829  0.63606148  0.48227515  1.0
  O  O19  1  0.47617829  0.63606148  0.01772485  1.0
  O  O20  1  0.15988319  0.52382171  0.48227515  1.0
  O  O21  1  0.15988319  0.52382171  0.01772485  1.0
  O  O22  1  0.63606148  0.15988319  0.98227515  1.0
  O  O23  1  0.63606148  0.15988319  0.51772485  1.0
  O  O24  1  0.52382171  0.36393852  0.98227515  1.0
  O  O25  1  0.52382171  0.36393852  0.51772485  1.0
