# generated using pymatgen
data_AlAs3(SeCl)4
_symmetry_space_group_name_H-M   'P 1'
_cell_length_a   12.50478872
_cell_length_b   12.50478872
_cell_length_c   14.51455521
_cell_angle_alpha   60.54426263
_cell_angle_beta   119.45573737
_cell_angle_gamma   116.40375440
_symmetry_Int_Tables_number   1
_chemical_formula_structural   AlAs3(SeCl)4
_chemical_formula_sum   'Al4 As12 Se16 Cl16'
_cell_volume   1658.04747527
_cell_formula_units_Z   4
loop_
 _symmetry_equiv_pos_site_id
 _symmetry_equiv_pos_as_xyz
  1  'x, y, z'
loop_
 _atom_site_type_symbol
 _atom_site_label
 _atom_site_symmetry_multiplicity
 _atom_site_fract_x
 _atom_site_fract_y
 _atom_site_fract_z
 _atom_site_occupancy
  Al  Al0  1  1.70032887  0.22478387  0.93179564  1.0
  Al  Al1  1  0.77521613  0.29967113  0.43179564  1.0
  Al  Al2  1  1.22478387  0.70032887  0.56820436  1.0
  Al  Al3  1  1.29967113  -0.22478387  0.06820436  1.0
  As  As4  1  1.61728874  -0.21741628  0.55806450  1.0
  As  As5  1  1.21741628  -0.61728874  0.05806450  1.0
  As  As6  1  0.78258372  -0.38271126  0.94193550  1.0
  As  As7  1  1.38271126  0.21741628  0.44193550  1.0
  As  As8  1  0.63703397  -0.17196338  0.93677611  1.0
  As  As9  1  1.17196338  0.36296603  0.43677611  1.0
  As  As10  1  0.82803662  0.63703397  0.56322389  1.0
  As  As11  1  0.36296603  0.17196338  0.06322389  1.0
  As  As12  1  1.32291133  0.09044882  0.61626279  1.0
  As  As13  1  0.90955118  0.67708867  0.11626279  1.0
  As  As14  1  1.09044882  0.32291133  0.88373721  1.0
  As  As15  1  1.67708867  -0.09044882  0.38373721  1.0
  Se  Se16  1  0.58689651  -0.34026790  0.87369542  1.0
  Se  Se17  1  1.34026790  0.41310349  0.37369542  1.0
  Se  Se18  1  0.65973210  0.58689651  0.62630458  1.0
  Se  Se19  1  0.41310349  0.34026790  0.12630458  1.0
  Se  Se20  1  1.84030229  -0.06587801  0.57227004  1.0
  Se  Se21  1  1.06587801  0.15969771  0.07227004  1.0
  Se  Se22  1  0.93412199  0.84030229  0.92772996  1.0
  Se  Se23  1  1.15969771  0.06587801  0.42772996  1.0
  Se  Se24  1  0.80498886  -0.02755867  0.85768876  1.0
  Se  Se25  1  1.02755867  0.19501114  0.35768876  1.0
  Se  Se26  1  0.97244133  0.80498886  0.64231124  1.0
  Se  Se27  1  0.19501114  0.02755867  0.14231124  1.0
  Se  Se28  1  1.22507369  0.25083365  0.87141048  1.0
  Se  Se29  1  1.74916635  -0.22507369  0.37141048  1.0
  Se  Se30  1  1.25083365  0.22507369  0.62858952  1.0
  Se  Se31  1  0.77492631  0.74916635  0.12858952  1.0
  Cl  Cl32  1  0.63824807  0.11215432  0.44870242  1.0
  Cl  Cl33  1  0.88784568  -0.63824807  0.94870242  1.0
  Cl  Cl34  1  1.11215432  -0.36175193  0.05129758  1.0
  Cl  Cl35  1  0.36175193  -0.11215432  0.55129758  1.0
  Cl  Cl36  1  1.63806396  0.17770459  0.78409787  1.0
  Cl  Cl37  1  0.82229541  0.36193604  0.28409787  1.0
  Cl  Cl38  1  1.17770459  0.63806396  0.71590213  1.0
  Cl  Cl39  1  1.36193604  -0.17770459  0.21590213  1.0
  Cl  Cl40  1  0.28606021  -0.05557310  0.91989497  1.0
  Cl  Cl41  1  1.05557310  0.71393979  0.41989497  1.0
  Cl  Cl42  1  0.94442690  0.28606021  0.58010503  1.0
  Cl  Cl43  1  0.71393979  0.05557310  0.08010503  1.0
  Cl  Cl44  1  1.57398186  0.31722962  0.90832613  1.0
  Cl  Cl45  1  0.68277038  0.42601814  0.40832613  1.0
  Cl  Cl46  1  1.31722962  0.57398186  0.59167387  1.0
  Cl  Cl47  1  1.42601814  -0.31722962  0.09167387  1.0
