# generated using pymatgen
data_La2SO2
_symmetry_space_group_name_H-M   'P 1'
_cell_length_a   4.07052437
_cell_length_b   4.07052437
_cell_length_c   6.97565580
_cell_angle_alpha   90.00000000
_cell_angle_beta   90.00000000
_cell_angle_gamma   120.00000000
_symmetry_Int_Tables_number   1
_chemical_formula_structural   La2SO2
_chemical_formula_sum   'La2 S1 O2'
_cell_volume   100.09592414
_cell_formula_units_Z   1
loop_
 _symmetry_equiv_pos_site_id
 _symmetry_equiv_pos_as_xyz
  1  'x, y, z'
loop_
 _atom_site_type_symbol
 _atom_site_label
 _atom_site_symmetry_multiplicity
 _atom_site_fract_x
 _atom_site_fract_y
 _atom_site_fract_z
 _atom_site_occupancy
  La  La0  1  0.33333333  0.66666667  0.28019893  1.0
  La  La1  1  0.66666667  0.33333333  0.71980107  1.0
  S  S2  1  0.00000000  0.00000000  0.00000000  1.0
  O  O3  1  0.33333333  0.66666667  0.62841384  1.0
  O  O4  1  0.66666667  0.33333333  0.37158616  1.0
