# generated using pymatgen
data_Cs2Te(MoO4)3
_symmetry_space_group_name_H-M   'P 1'
_cell_length_a   7.52812631
_cell_length_b   7.52812631
_cell_length_c   12.53363918
_cell_angle_alpha   90.00000000
_cell_angle_beta   90.00000000
_cell_angle_gamma   120.00000000
_symmetry_Int_Tables_number   1
_chemical_formula_structural   Cs2Te(MoO4)3
_chemical_formula_sum   'Cs4 Te2 Mo6 O24'
_cell_volume   615.15083022
_cell_formula_units_Z   2
loop_
 _symmetry_equiv_pos_site_id
 _symmetry_equiv_pos_as_xyz
  1  'x, y, z'
loop_
 _atom_site_type_symbol
 _atom_site_label
 _atom_site_symmetry_multiplicity
 _atom_site_fract_x
 _atom_site_fract_y
 _atom_site_fract_z
 _atom_site_occupancy
  Cs  Cs0  1  0.33333333  0.66666667  0.06990853  1.0
  Cs  Cs1  1  0.66666667  0.33333333  0.56990853  1.0
  Cs  Cs2  1  0.33333333  0.66666667  0.43927877  1.0
  Cs  Cs3  1  0.66666667  0.33333333  0.93927877  1.0
  Te  Te4  1  0.00000000  0.00000000  0.00399025  1.0
  Te  Te5  1  0.00000000  0.00000000  0.50399025  1.0
  Mo  Mo6  1  0.79667480  0.66252189  0.23840075  1.0
  Mo  Mo7  1  0.66252189  0.86584708  0.73840075  1.0
  Mo  Mo8  1  0.86584708  0.20332520  0.23840075  1.0
  Mo  Mo9  1  0.33747811  0.13415292  0.23840075  1.0
  Mo  Mo10  1  0.20332520  0.33747811  0.73840075  1.0
  Mo  Mo11  1  0.13415292  0.79667480  0.73840075  1.0
  O  O12  1  0.12640730  0.87767441  0.24632983  1.0
  O  O13  1  0.87767441  0.75126710  0.74632983  1.0
  O  O14  1  0.75126710  0.87359270  0.24632983  1.0
  O  O15  1  0.12232559  0.24873290  0.24632983  1.0
  O  O16  1  0.87359270  0.12232559  0.74632983  1.0
  O  O17  1  0.24873290  0.12640730  0.74632983  1.0
  O  O18  1  0.88195899  0.73339859  0.07572985  1.0
  O  O19  1  0.73339859  0.85143960  0.57572985  1.0
  O  O20  1  0.85143960  0.11804101  0.07572985  1.0
  O  O21  1  0.26660141  0.14856040  0.07572985  1.0
  O  O22  1  0.11804101  0.26660141  0.57572985  1.0
  O  O23  1  0.14856040  0.88195899  0.57572985  1.0
  O  O24  1  0.82086790  0.62147586  0.37363167  1.0
  O  O25  1  0.62147586  0.80060795  0.87363167  1.0
  O  O26  1  0.80060795  0.17913210  0.37363167  1.0
  O  O27  1  0.37852414  0.19939205  0.37363167  1.0
  O  O28  1  0.17913210  0.37852414  0.87363167  1.0
  O  O29  1  0.19939205  0.82086790  0.87363167  1.0
  O  O30  1  0.54572226  0.45542569  0.20401539  1.0
  O  O31  1  0.45542569  0.90970344  0.70401539  1.0
  O  O32  1  0.90970344  0.45427774  0.20401539  1.0
  O  O33  1  0.54457431  0.09029656  0.20401539  1.0
  O  O34  1  0.45427774  0.54457431  0.70401539  1.0
  O  O35  1  0.09029656  0.54572226  0.70401539  1.0
