# generated using pymatgen
data_C2Se3N2
_symmetry_space_group_name_H-M   'P 1'
_cell_length_a   10.44439631
_cell_length_b   13.82824119
_cell_length_c   4.96691821
_cell_angle_alpha   90.00000000
_cell_angle_beta   90.00000000
_cell_angle_gamma   90.00000000
_symmetry_Int_Tables_number   1
_chemical_formula_structural   C2Se3N2
_chemical_formula_sum   'C8 Se12 N8'
_cell_volume   717.36023188
_cell_formula_units_Z   4
loop_
 _symmetry_equiv_pos_site_id
 _symmetry_equiv_pos_as_xyz
  1  'x, y, z'
loop_
 _atom_site_type_symbol
 _atom_site_label
 _atom_site_symmetry_multiplicity
 _atom_site_fract_x
 _atom_site_fract_y
 _atom_site_fract_z
 _atom_site_occupancy
  C  C0  1  0.26882019  0.89675215  0.53249393  1.0
  C  C1  1  0.26882019  0.60324785  0.53249393  1.0
  C  C2  1  0.76882019  0.89675215  0.96750607  1.0
  C  C3  1  0.76882019  0.60324785  0.96750607  1.0
  C  C4  1  0.73117981  0.39675215  0.46750607  1.0
  C  C5  1  0.73117981  0.10324785  0.46750607  1.0
  C  C6  1  0.23117981  0.39675215  0.03249393  1.0
  C  C7  1  0.23117981  0.10324785  0.03249393  1.0
  Se  Se8  1  0.42334329  0.88555959  0.71342067  1.0
  Se  Se9  1  0.42334329  0.61444041  0.71342067  1.0
  Se  Se10  1  0.92334329  0.88555959  0.78657933  1.0
  Se  Se11  1  0.92334329  0.61444041  0.78657933  1.0
  Se  Se12  1  0.57665671  0.38555959  0.28657933  1.0
  Se  Se13  1  0.57665671  0.11444041  0.28657933  1.0
  Se  Se14  1  0.07665671  0.38555959  0.21342067  1.0
  Se  Se15  1  0.07665671  0.11444041  0.21342067  1.0
  Se  Se16  1  0.00341021  0.75000000  1.02518556  1.0
  Se  Se17  1  0.50341021  0.75000000  0.47481444  1.0
  Se  Se18  1  0.99658979  0.25000000  -0.02518556  1.0
  Se  Se19  1  0.49658979  0.25000000  0.52518556  1.0
  N  N20  1  0.33092467  0.40571563  0.92746127  1.0
  N  N21  1  0.33092467  0.09428437  0.92746127  1.0
  N  N22  1  0.83092467  0.40571563  0.57253873  1.0
  N  N23  1  0.83092467  0.09428437  0.57253873  1.0
  N  N24  1  0.66907533  0.90571563  0.07253873  1.0
  N  N25  1  0.66907533  0.59428437  0.07253873  1.0
  N  N26  1  0.16907533  0.90571563  0.42746127  1.0
  N  N27  1  0.16907533  0.59428437  0.42746127  1.0
