# generated using pymatgen
data_CaNiAsHO5
_symmetry_space_group_name_H-M   'P 1'
_cell_length_a   5.99573971
_cell_length_b   7.53052924
_cell_length_c   9.02154412
_cell_angle_alpha   90.00000000
_cell_angle_beta   90.00000000
_cell_angle_gamma   90.00000000
_symmetry_Int_Tables_number   1
_chemical_formula_structural   CaNiAsHO5
_chemical_formula_sum   'Ca4 Ni4 As4 H4 O20'
_cell_volume   407.33257918
_cell_formula_units_Z   4
loop_
 _symmetry_equiv_pos_site_id
 _symmetry_equiv_pos_as_xyz
  1  'x, y, z'
loop_
 _atom_site_type_symbol
 _atom_site_label
 _atom_site_symmetry_multiplicity
 _atom_site_fract_x
 _atom_site_fract_y
 _atom_site_fract_z
 _atom_site_occupancy
  Ca  Ca0  1  0.02532574  0.87121536  0.82733882  1.0
  Ca  Ca1  1  0.52532574  0.62878464  0.17266118  1.0
  Ca  Ca2  1  0.97467426  0.37121536  0.67266118  1.0
  Ca  Ca3  1  0.47467426  0.12878464  0.32733882  1.0
  O  O4  1  0.40918344  0.78894635  0.94060208  1.0
  O  O5  1  0.90918344  0.71105365  0.05939792  1.0
  O  O6  1  0.59081656  0.28894635  0.55939792  1.0
  O  O7  1  0.09081656  0.21105365  0.44060208  1.0
  O  O8  1  0.25129306  0.60614447  0.70196424  1.0
  O  O9  1  0.75129306  0.89385553  0.29803576  1.0
  O  O10  1  0.74870694  0.10614447  0.79803576  1.0
  O  O11  1  0.24870694  0.39385553  0.20196424  1.0
  O  O12  1  0.23526598  0.85190265  0.27484406  1.0
  O  O13  1  0.73526598  0.64809735  0.72515594  1.0
  O  O14  1  0.76473402  0.35190265  0.22515594  1.0
  O  O15  1  0.26473402  0.14809735  0.77484406  1.0
  O  O16  1  0.00227963  0.89543583  0.57340437  1.0
  O  O17  1  0.50227963  0.60456417  0.42659563  1.0
  O  O18  1  0.99772037  0.39543583  0.92659563  1.0
  O  O19  1  0.49772037  0.10456417  0.07340437  1.0
  O  O20  1  0.49003853  0.93648254  0.55824131  1.0
  O  O21  1  0.99003853  0.56351746  0.44175869  1.0
  O  O22  1  0.50996147  0.43648254  0.94175869  1.0
  O  O23  1  0.00996147  0.06351746  0.05824131  1.0
  As  As24  1  0.48303842  0.61938242  0.81947703  1.0
  As  As25  1  0.98303842  0.88061758  0.18052297  1.0
  As  As26  1  0.51696158  0.11938242  0.68052297  1.0
  As  As27  1  0.01696158  0.38061758  0.31947703  1.0
  Ni  Ni28  1  0.24394436  0.74184950  0.49670804  1.0
  Ni  Ni29  1  0.74394436  0.75815050  0.50329196  1.0
  Ni  Ni30  1  0.75605564  0.24184950  0.00329196  1.0
  Ni  Ni31  1  0.25605564  0.25815050  0.99670804  1.0
  H  H32  1  0.48668177  0.99135090  0.01840721  1.0
  H  H33  1  0.98668177  0.50864910  0.98159279  1.0
  H  H34  1  0.51331823  0.49135090  0.48159279  1.0
  H  H35  1  0.01331823  0.00864910  0.51840721  1.0
