# generated using pymatgen
data_MgP3NO9
_symmetry_space_group_name_H-M   'P 1'
_cell_length_a   6.49525533
_cell_length_b   6.49525533
_cell_length_c   6.49525533
_cell_angle_alpha   106.48110928
_cell_angle_beta   106.48110928
_cell_angle_gamma   106.48110928
_symmetry_Int_Tables_number   1
_chemical_formula_structural   MgP3NO9
_chemical_formula_sum   'Mg1 P3 N1 O9'
_cell_volume   231.36412310
_cell_formula_units_Z   1
loop_
 _symmetry_equiv_pos_site_id
 _symmetry_equiv_pos_as_xyz
  1  'x, y, z'
loop_
 _atom_site_type_symbol
 _atom_site_label
 _atom_site_symmetry_multiplicity
 _atom_site_fract_x
 _atom_site_fract_y
 _atom_site_fract_z
 _atom_site_occupancy
  Mg  Mg0  1  -0.00000000  -0.00000000  -0.00000000  1.0
  P  P1  1  1.07449369  0.50000000  -0.07449369  1.0
  P  P2  1  0.50000000  0.92550631  0.07449369  1.0
  P  P3  1  0.92550631  0.07449369  0.50000000  1.0
  N  N4  1  0.50000000  0.50000000  0.50000000  1.0
  O  O5  1  1.65266530  0.93750446  -0.06159108  1.0
  O  O6  1  1.06159108  0.06249554  -0.65266530  1.0
  O  O7  1  1.06249554  -0.65266530  0.06159108  1.0
  O  O8  1  0.34733470  0.06159108  0.06249554  1.0
  O  O9  1  0.93840892  1.65266530  -0.06249554  1.0
  O  O10  1  0.93750446  0.93840892  0.65266530  1.0
  O  O11  1  0.65071800  1.00000000  -0.65071800  1.0
  O  O12  1  1.00000000  0.34928200  -0.34928200  1.0
  O  O13  1  0.34928200  0.65071800  -0.00000000  1.0
