# generated using pymatgen
data_Y4Ge5Rh9
_symmetry_space_group_name_H-M   'P 1'
_cell_length_a   12.06971426
_cell_length_b   12.06971426
_cell_length_c   12.06971426
_cell_angle_alpha   26.62789716
_cell_angle_beta   26.62789716
_cell_angle_gamma   26.62789716
_symmetry_Int_Tables_number   1
_chemical_formula_structural   Y4Ge5Rh9
_chemical_formula_sum   'Y4 Ge5 Rh9'
_cell_volume   311.38301323
_cell_formula_units_Z   1
loop_
 _symmetry_equiv_pos_site_id
 _symmetry_equiv_pos_as_xyz
  1  'x, y, z'
loop_
 _atom_site_type_symbol
 _atom_site_label
 _atom_site_symmetry_multiplicity
 _atom_site_fract_x
 _atom_site_fract_y
 _atom_site_fract_z
 _atom_site_occupancy
  Y  Y0  1  0.94987476  0.94987476  0.94987476  1.0
  Y  Y1  1  1.05012524  1.05012524  0.05012524  1.0
  Y  Y2  1  0.85241105  0.85241105  0.85241105  1.0
  Y  Y3  1  1.14758895  1.14758895  0.14758895  1.0
  Ge  Ge4  1  0.72202861  0.72202861  0.72202861  1.0
  Ge  Ge5  1  1.27797139  1.27797139  0.27797139  1.0
  Ge  Ge6  1  1.61107005  0.61107005  0.61107005  1.0
  Ge  Ge7  1  1.38892995  0.38892995  0.38892995  1.0
  Ge  Ge8  1  1.50000000  0.50000000  0.50000000  1.0
  Rh  Rh9  1  1.38862276  0.38862276  0.89280597  1.0
  Rh  Rh10  1  1.38862276  0.89280597  0.38862276  1.0
  Rh  Rh11  1  1.10719403  0.61137724  0.61137724  1.0
  Rh  Rh12  1  1.61137724  0.10719403  0.61137724  1.0
  Rh  Rh13  1  1.61137724  0.61137724  0.10719403  1.0
  Rh  Rh14  1  1.89280597  0.38862276  0.38862276  1.0
  Rh  Rh15  1  0.50000000  -0.00000000  -0.50000000  1.0
  Rh  Rh16  1  0.50000000  -0.50000000  -0.00000000  1.0
  Rh  Rh17  1  -0.00000000  0.50000000  -0.50000000  1.0
