# generated using pymatgen
data_La3Sn4
_symmetry_space_group_name_H-M   'P 1'
_cell_length_a   6.42148290
_cell_length_b   6.42148290
_cell_length_c   16.05271664
_cell_angle_alpha   90.00000000
_cell_angle_beta   90.00000000
_cell_angle_gamma   138.27648233
_symmetry_Int_Tables_number   1
_chemical_formula_structural   La3Sn4
_chemical_formula_sum   'La6 Sn8'
_cell_volume   440.54598896
_cell_formula_units_Z   2
loop_
 _symmetry_equiv_pos_site_id
 _symmetry_equiv_pos_as_xyz
  1  'x, y, z'
loop_
 _atom_site_type_symbol
 _atom_site_label
 _atom_site_symmetry_multiplicity
 _atom_site_fract_x
 _atom_site_fract_y
 _atom_site_fract_z
 _atom_site_occupancy
  La  La0  1  0.32796554  0.67203446  0.90282813  1.0
  La  La1  1  0.32796554  0.67203446  0.59717187  1.0
  La  La2  1  -0.32796554  0.32796554  0.40282813  1.0
  La  La3  1  -0.32796554  0.32796554  0.09717187  1.0
  La  La4  1  0.04479186  0.95520814  0.75000000  1.0
  La  La5  1  -0.04479186  0.04479186  0.25000000  1.0
  Sn  Sn6  1  -0.38344321  0.38344321  0.89249668  1.0
  Sn  Sn7  1  -0.38344321  0.38344321  0.60750332  1.0
  Sn  Sn8  1  0.38344321  0.61655679  0.39249668  1.0
  Sn  Sn9  1  0.38344321  0.61655679  0.10750332  1.0
  Sn  Sn10  1  -0.22541705  0.22541705  0.75000000  1.0
  Sn  Sn11  1  0.22541705  0.77458295  0.25000000  1.0
  Sn  Sn12  1  0.00000000  0.00000000  0.00000000  1.0
  Sn  Sn13  1  0.00000000  0.00000000  0.50000000  1.0
