# generated using pymatgen
data_SiH12(NF)4
_symmetry_space_group_name_H-M   'P 1'
_cell_length_a   5.42384471
_cell_length_b   5.42384471
_cell_length_c   13.35928632
_cell_angle_alpha   90.00000000
_cell_angle_beta   90.00000000
_cell_angle_gamma   98.51343172
_symmetry_Int_Tables_number   1
_chemical_formula_structural   SiH12(NF)4
_chemical_formula_sum   'Si2 H24 N8 F8'
_cell_volume   388.67426093
_cell_formula_units_Z   2
loop_
 _symmetry_equiv_pos_site_id
 _symmetry_equiv_pos_as_xyz
  1  'x, y, z'
loop_
 _atom_site_type_symbol
 _atom_site_label
 _atom_site_symmetry_multiplicity
 _atom_site_fract_x
 _atom_site_fract_y
 _atom_site_fract_z
 _atom_site_occupancy
  Si  Si0  1  -0.50000000  0.50000000  0.50000000  1.0
  Si  Si1  1  0.00000000  1.00000000  0.00000000  1.0
  H  H2  1  0.43287489  1.33635151  0.17739034  1.0
  H  H3  1  -0.06712511  0.83635151  0.32260966  1.0
  H  H4  1  0.33635151  1.43287489  0.82260966  1.0
  H  H5  1  -0.16364849  0.93287489  0.67739034  1.0
  H  H6  1  -0.33635151  0.56712511  0.17739034  1.0
  H  H7  1  0.16364849  1.06712511  0.32260966  1.0
  H  H8  1  -0.43287489  0.66364849  0.82260966  1.0
  H  H9  1  0.06712511  1.16364849  0.67739034  1.0
  H  H10  1  -0.35831626  1.12532247  0.42636613  1.0
  H  H11  1  0.14168374  0.62532247  0.07363387  1.0
  H  H12  1  0.12532247  0.64168374  0.57363387  1.0
  H  H13  1  -0.37467753  1.14168374  0.92636613  1.0
  H  H14  1  -0.12532247  1.35831626  0.42636613  1.0
  H  H15  1  0.37467753  0.85831626  0.07363387  1.0
  H  H16  1  0.35831626  0.87467753  0.57363387  1.0
  H  H17  1  -0.14168374  1.37467753  0.92636613  1.0
  H  H18  1  -0.34726811  1.34726811  0.33763376  1.0
  H  H19  1  0.15273189  0.84726811  0.16236624  1.0
  H  H20  1  0.34726811  0.65273189  0.66236624  1.0
  H  H21  1  -0.15273189  1.15273189  0.83763376  1.0
  H  H22  1  -0.28073262  1.28073262  0.16399399  1.0
  H  H23  1  0.21926738  0.78073262  0.33600601  1.0
  H  H24  1  0.28073262  0.71926738  0.83600601  1.0
  H  H25  1  -0.21926738  1.21926738  0.66399399  1.0
  N  N26  1  -0.38866854  1.38866854  0.20222370  1.0
  N  N27  1  0.11133146  0.88866854  0.29777630  1.0
  N  N28  1  0.38866854  0.61133146  0.79777630  1.0
  N  N29  1  -0.11133146  1.11133146  0.70222370  1.0
  N  N30  1  -0.31410473  1.31410473  0.41446646  1.0
  N  N31  1  0.18589527  0.81410473  0.08553354  1.0
  N  N32  1  0.31410473  0.68589527  0.58553354  1.0
  N  N33  1  -0.18589527  1.18589527  0.91446646  1.0
  F  F34  1  -0.41522630  0.75856061  0.42624462  1.0
  F  F35  1  0.08477370  1.25856061  0.07375538  1.0
  F  F36  1  -0.24143939  0.58477370  0.57375538  1.0
  F  F37  1  0.25856061  1.08477370  0.92624462  1.0
  F  F38  1  0.24143939  1.41522630  0.42624462  1.0
  F  F39  1  -0.25856061  0.91522630  0.07375538  1.0
  F  F40  1  0.41522630  1.24143939  0.57375538  1.0
  F  F41  1  -0.08477370  0.74143939  0.92624462  1.0
