# generated using pymatgen
data_Al2Si2H4O9
_symmetry_space_group_name_H-M   'P 1'
_cell_length_a   5.21531140
_cell_length_b   9.05563184
_cell_length_c   7.46843723
_cell_angle_alpha   91.59354551
_cell_angle_beta   104.74454877
_cell_angle_gamma   89.76434475
_symmetry_Int_Tables_number   1
_chemical_formula_structural   Al2Si2H4O9
_chemical_formula_sum   'Al4 Si4 H8 O18'
_cell_volume   340.97040268
_cell_formula_units_Z   2
loop_
 _symmetry_equiv_pos_site_id
 _symmetry_equiv_pos_as_xyz
  1  'x, y, z'
loop_
 _atom_site_type_symbol
 _atom_site_label
 _atom_site_symmetry_multiplicity
 _atom_site_fract_x
 _atom_site_fract_y
 _atom_site_fract_z
 _atom_site_occupancy
  Al  Al0  1  0.40792518  0.77479977  -0.47064772  1.0
  Al  Al1  1  0.41539957  0.43883905  -0.46824488  1.0
  Al  Al2  1  0.90794185  0.27479812  -0.47066024  1.0
  Al  Al3  1  0.91538284  0.93883565  -0.46823585  1.0
  Si  Si4  1  0.19389717  0.10064556  -0.08651154  1.0
  Si  Si5  1  0.20819493  0.42907722  -0.08510002  1.0
  Si  Si6  1  0.69393305  0.60065236  -0.08651985  1.0
  Si  Si7  1  0.70815058  0.92907770  -0.08511058  1.0
  H  H8  1  0.06473706  0.70712703  -0.31929063  1.0
  H  H9  1  0.15930141  0.95097646  -0.72406780  1.0
  H  H10  1  0.14788544  0.59833762  -0.72389362  1.0
  H  H11  1  0.16272433  0.26702025  -0.72333901  1.0
  H  H12  1  0.56471816  0.20711194  -0.31940576  1.0
  H  H13  1  0.64773784  0.09834299  -0.72386003  1.0
  H  H14  1  0.66273571  0.76700625  -0.72331014  1.0
  H  H15  1  0.65928948  0.45091690  -0.72412125  1.0
  O  O16  1  0.00202476  0.00251036  0.00871685  1.0
  O  O17  1  0.99574350  0.53569725  -0.01490613  1.0
  O  O18  1  0.08446559  0.10543401  -0.30943064  1.0
  O  O19  1  0.15742443  0.80009270  -0.31941923  1.0
  O  O20  1  0.15614531  0.41473027  -0.30830137  1.0
  O  O21  1  0.17091167  0.29779921  -0.59653319  1.0
  O  O22  1  0.20457849  0.26737607  -0.99082275  1.0
  O  O23  1  0.16975642  0.91160287  -0.60308981  1.0
  O  O24  1  0.25248308  0.60299038  -0.59653805  1.0
  O  O25  1  0.49568287  0.03566432  -1.01489099  1.0
  O  O26  1  0.50208870  0.50249789  -0.99127962  1.0
  O  O27  1  0.58447299  0.60544388  -0.30943705  1.0
  O  O28  1  0.65741550  0.30009020  -0.31943836  1.0
  O  O29  1  0.65614757  0.91471803  -0.30830542  1.0
  O  O30  1  0.66978554  0.41160552  -0.60310514  1.0
  O  O31  1  0.67087964  0.79781863  -0.59652340  1.0
  O  O32  1  0.75245441  0.10298903  -0.59653726  1.0
  O  O33  1  0.70458492  0.76737452  -0.99083950  1.0
