# generated using pymatgen
data_Cs2Na2IrO4
_symmetry_space_group_name_H-M   'P 1'
_cell_length_a   6.75892978
_cell_length_b   6.75892978
_cell_length_c   9.74186154
_cell_angle_alpha   77.31014202
_cell_angle_beta   102.68985798
_cell_angle_gamma   127.28146095
_symmetry_Int_Tables_number   1
_chemical_formula_structural   Cs2Na2IrO4
_chemical_formula_sum   'Cs4 Na4 Ir2 O8'
_cell_volume   343.29710902
_cell_formula_units_Z   2
loop_
 _symmetry_equiv_pos_site_id
 _symmetry_equiv_pos_as_xyz
  1  'x, y, z'
loop_
 _atom_site_type_symbol
 _atom_site_label
 _atom_site_symmetry_multiplicity
 _atom_site_fract_x
 _atom_site_fract_y
 _atom_site_fract_z
 _atom_site_occupancy
  Cs  Cs0  1  0.83334860  0.16665140  0.63670564  1.0
  Cs  Cs1  1  0.16665140  -0.16665140  0.36329436  1.0
  Cs  Cs2  1  0.83151186  0.16848814  0.25893457  1.0
  Cs  Cs3  1  0.16848814  -0.16848814  0.74106543  1.0
  Na  Na4  1  0.47342889  -0.47342889  0.84234354  1.0
  Na  Na5  1  0.52657111  0.47342889  0.15765646  1.0
  Na  Na6  1  0.71574067  0.28425933  0.92582646  1.0
  Na  Na7  1  0.28425933  -0.28425933  0.07417354  1.0
  Ir  Ir8  1  0.00000000  0.00000000  0.00000000  1.0
  Ir  Ir9  1  0.50000000  0.50000000  0.50000000  1.0
  O  O10  1  0.60495953  0.39504047  0.68591589  1.0
  O  O11  1  0.39504047  -0.39504047  0.31408411  1.0
  O  O12  1  0.65607868  -0.11092003  0.97013044  1.0
  O  O13  1  1.11092003  0.34392132  0.97013044  1.0
  O  O14  1  0.88907997  0.65607868  0.02986956  1.0
  O  O15  1  0.34392132  0.11092003  0.02986956  1.0
  O  O16  1  0.62436221  0.37563779  0.40804151  1.0
  O  O17  1  0.37563779  -0.37563779  0.59195849  1.0
