# generated using pymatgen
data_K3CrO4
_symmetry_space_group_name_H-M   'P 1'
_cell_length_a   6.46226051
_cell_length_b   6.46226051
_cell_length_c   6.46226051
_cell_angle_alpha   127.69968173
_cell_angle_beta   127.69968173
_cell_angle_gamma   77.11203923
_symmetry_Int_Tables_number   1
_chemical_formula_structural   K3CrO4
_chemical_formula_sum   'K3 Cr1 O4'
_cell_volume   163.96658865
_cell_formula_units_Z   1
loop_
 _symmetry_equiv_pos_site_id
 _symmetry_equiv_pos_as_xyz
  1  'x, y, z'
loop_
 _atom_site_type_symbol
 _atom_site_label
 _atom_site_symmetry_multiplicity
 _atom_site_fract_x
 _atom_site_fract_y
 _atom_site_fract_z
 _atom_site_occupancy
  K  K0  1  0.50000000  0.50000000  -0.00000000  1.0
  K  K1  1  1.25000000  0.75000000  0.50000000  1.0
  K  K2  1  0.75000000  1.25000000  0.50000000  1.0
  Cr  Cr3  1  -0.00000000  -0.00000000  -0.00000000  1.0
  O  O4  1  0.91741829  0.91741829  0.64538415  1.0
  O  O5  1  0.27203414  0.27203414  0.35461585  1.0
  O  O6  1  0.72796586  1.08258171  1.00000000  1.0
  O  O7  1  1.08258171  0.72796586  1.00000000  1.0
