# generated using pymatgen
data_RbAlCuF6
_symmetry_space_group_name_H-M   'P 1'
_cell_length_a   6.90487905
_cell_length_b   7.21070647
_cell_length_c   10.18978883
_cell_angle_alpha   90.00000000
_cell_angle_beta   90.00000000
_cell_angle_gamma   90.00000000
_symmetry_Int_Tables_number   1
_chemical_formula_structural   RbAlCuF6
_chemical_formula_sum   'Rb4 Al4 Cu4 F24'
_cell_volume   507.33996710
_cell_formula_units_Z   4
loop_
 _symmetry_equiv_pos_site_id
 _symmetry_equiv_pos_as_xyz
  1  'x, y, z'
loop_
 _atom_site_type_symbol
 _atom_site_label
 _atom_site_symmetry_multiplicity
 _atom_site_fract_x
 _atom_site_fract_y
 _atom_site_fract_z
 _atom_site_occupancy
  Al  Al0  1  0.50000000  0.00000000  0.50000000  1.0
  Al  Al1  1  0.50000000  0.50000000  0.50000000  1.0
  Al  Al2  1  0.00000000  0.00000000  0.00000000  1.0
  Al  Al3  1  0.00000000  0.50000000  0.00000000  1.0
  Cu  Cu4  1  0.29726767  0.75000000  0.76018596  1.0
  Cu  Cu5  1  0.79726767  0.75000000  0.73981404  1.0
  Cu  Cu6  1  0.70273233  0.25000000  0.23981404  1.0
  Cu  Cu7  1  0.20273233  0.25000000  0.26018596  1.0
  Rb  Rb8  1  0.48534171  0.75000000  0.12365715  1.0
  Rb  Rb9  1  0.98534171  0.75000000  0.37634285  1.0
  Rb  Rb10  1  0.51465829  0.25000000  0.87634285  1.0
  Rb  Rb11  1  0.01465829  0.25000000  0.62365715  1.0
  F  F12  1  0.36804009  0.50437094  0.65519400  1.0
  F  F13  1  0.36804009  -0.00437094  0.65519400  1.0
  F  F14  1  0.86804009  0.50437094  0.84480600  1.0
  F  F15  1  0.86804009  -0.00437094  0.84480600  1.0
  F  F16  1  0.63195991  1.00437094  0.34480600  1.0
  F  F17  1  0.63195991  0.49562906  0.34480600  1.0
  F  F18  1  0.13195991  1.00437094  0.15519400  1.0
  F  F19  1  0.13195991  0.49562906  0.15519400  1.0
  F  F20  1  0.22436800  0.94566814  0.91514123  1.0
  F  F21  1  0.22436800  0.55433186  0.91514123  1.0
  F  F22  1  0.72436800  0.94566814  0.58485877  1.0
  F  F23  1  0.72436800  0.55433186  0.58485877  1.0
  F  F24  1  0.77563200  0.44566814  0.08485877  1.0
  F  F25  1  0.77563200  0.05433186  0.08485877  1.0
  F  F26  1  0.27563200  0.44566814  0.41514123  1.0
  F  F27  1  0.27563200  0.05433186  0.41514123  1.0
  F  F28  1  0.94682189  0.75000000  0.02607858  1.0
  F  F29  1  0.44682189  0.75000000  0.47392142  1.0
  F  F30  1  0.05317811  0.25000000  0.97392142  1.0
  F  F31  1  0.55317811  0.25000000  0.52607858  1.0
  F  F32  1  0.05438890  0.75000000  0.66986691  1.0
  F  F33  1  0.55438890  0.75000000  0.83013309  1.0
  F  F34  1  0.94561110  0.25000000  0.33013309  1.0
  F  F35  1  0.44561110  0.25000000  0.16986691  1.0
