# generated using pymatgen
data_Cs2NaAu3(CN)6
_symmetry_space_group_name_H-M   'P 1'
_cell_length_a   7.29094479
_cell_length_b   7.29094479
_cell_length_c   18.37314505
_cell_angle_alpha   90.00000000
_cell_angle_beta   90.00000000
_cell_angle_gamma   120.00000000
_symmetry_Int_Tables_number   1
_chemical_formula_structural   Cs2NaAu3(CN)6
_chemical_formula_sum   'Cs4 Na2 Au6 C12 N12'
_cell_volume   845.82740986
_cell_formula_units_Z   2
loop_
 _symmetry_equiv_pos_site_id
 _symmetry_equiv_pos_as_xyz
  1  'x, y, z'
loop_
 _atom_site_type_symbol
 _atom_site_label
 _atom_site_symmetry_multiplicity
 _atom_site_fract_x
 _atom_site_fract_y
 _atom_site_fract_z
 _atom_site_occupancy
  Cs  Cs0  1  0.33333333  0.66666667  0.94494795  1.0
  Cs  Cs1  1  0.33333333  0.66666667  0.55505205  1.0
  Cs  Cs2  1  0.66666667  0.33333333  0.44494795  1.0
  Cs  Cs3  1  0.66666667  0.33333333  0.05505205  1.0
  Na  Na4  1  -0.00000000  -0.00000000  0.50000000  1.0
  Na  Na5  1  0.00000000  0.00000000  0.00000000  1.0
  Au  Au6  1  0.17328058  0.82671942  0.25000000  1.0
  Au  Au7  1  0.17328058  0.34656117  0.25000000  1.0
  Au  Au8  1  0.82671942  0.17328058  0.75000000  1.0
  Au  Au9  1  0.82671942  0.65343883  0.75000000  1.0
  Au  Au10  1  0.65343883  0.82671942  0.25000000  1.0
  Au  Au11  1  0.34656117  0.17328058  0.75000000  1.0
  C  C12  1  0.16935551  0.83064449  0.35761870  1.0
  C  C13  1  0.16935551  0.83064449  0.14238130  1.0
  C  C14  1  0.16935551  0.33871101  0.35761870  1.0
  C  C15  1  0.16935551  0.33871101  0.14238130  1.0
  C  C16  1  0.83064449  0.16935551  0.85761870  1.0
  C  C17  1  0.83064449  0.16935551  0.64238130  1.0
  C  C18  1  0.83064449  0.66128899  0.85761870  1.0
  C  C19  1  0.83064449  0.66128899  0.64238130  1.0
  C  C20  1  0.66128899  0.83064449  0.35761870  1.0
  C  C21  1  0.66128899  0.83064449  0.14238130  1.0
  C  C22  1  0.33871101  0.16935551  0.85761870  1.0
  C  C23  1  0.33871101  0.16935551  0.64238130  1.0
  N  N24  1  0.16372586  0.83627414  0.42126240  1.0
  N  N25  1  0.16372586  0.83627414  0.07873760  1.0
  N  N26  1  0.16372586  0.32745172  0.42126240  1.0
  N  N27  1  0.16372586  0.32745172  0.07873760  1.0
  N  N28  1  0.83627414  0.16372586  0.92126240  1.0
  N  N29  1  0.83627414  0.16372586  0.57873760  1.0
  N  N30  1  0.83627414  0.67254828  0.92126240  1.0
  N  N31  1  0.83627414  0.67254828  0.57873760  1.0
  N  N32  1  0.67254828  0.83627414  0.42126240  1.0
  N  N33  1  0.67254828  0.83627414  0.07873760  1.0
  N  N34  1  0.32745172  0.16372586  0.92126240  1.0
  N  N35  1  0.32745172  0.16372586  0.57873760  1.0
