# generated using pymatgen
data_K2ScP2Se7
_symmetry_space_group_name_H-M   'P 1'
_cell_length_a   12.00417589
_cell_length_b   12.00417589
_cell_length_c   20.68406081
_cell_angle_alpha   67.25683248
_cell_angle_beta   112.74316752
_cell_angle_gamma   146.64419029
_symmetry_Int_Tables_number   1
_chemical_formula_structural   K2ScP2Se7
_chemical_formula_sum   'K8 Sc4 P8 Se28'
_cell_volume   1499.44064281
_cell_formula_units_Z   4
loop_
 _symmetry_equiv_pos_site_id
 _symmetry_equiv_pos_as_xyz
  1  'x, y, z'
loop_
 _atom_site_type_symbol
 _atom_site_label
 _atom_site_symmetry_multiplicity
 _atom_site_fract_x
 _atom_site_fract_y
 _atom_site_fract_z
 _atom_site_occupancy
  K  K0  1  1.52048128  -0.46807228  0.63760092  1.0
  K  K1  1  1.46807228  -0.52048128  0.13760092  1.0
  K  K2  1  0.53192772  0.52048128  0.86239908  1.0
  K  K3  1  0.47951872  0.46807228  0.36239908  1.0
  K  K4  1  0.47796474  0.07355502  0.67500159  1.0
  K  K5  1  0.92644498  -0.47796474  0.17500159  1.0
  K  K6  1  1.07355502  0.47796474  0.82499841  1.0
  K  K7  1  1.52203526  -0.07355502  0.32499841  1.0
  Sc  Sc8  1  0.66038559  -0.00294255  0.99716648  1.0
  Sc  Sc9  1  1.00294255  -0.66038559  0.49716648  1.0
  Sc  Sc10  1  0.99705745  0.66038559  0.50283352  1.0
  Sc  Sc11  1  1.33961441  0.00294255  0.00283352  1.0
  P  P12  1  0.93054786  0.03210400  0.95723405  1.0
  P  P13  1  0.96789600  -0.93054786  0.45723405  1.0
  P  P14  1  1.03210400  0.93054786  0.54276595  1.0
  P  P15  1  1.06945214  -0.03210400  0.04276595  1.0
  P  P16  1  0.56457684  0.20779286  0.85772931  1.0
  P  P17  1  0.79220714  0.43542316  0.35772931  1.0
  P  P18  1  1.20779286  -0.43542316  0.64227069  1.0
  P  P19  1  1.43542316  -0.20779286  0.14227069  1.0
  Se  Se20  1  1.89608232  0.00908610  0.35293313  1.0
  Se  Se21  1  0.99091390  -0.89608232  0.85293313  1.0
  Se  Se22  1  1.00908610  0.89608232  0.14706687  1.0
  Se  Se23  1  0.10391768  -0.00908610  0.64706687  1.0
  Se  Se24  1  0.59597256  -0.25644952  0.96876817  1.0
  Se  Se25  1  1.25644952  -0.59597256  0.46876817  1.0
  Se  Se26  1  0.74355048  0.59597256  0.53123183  1.0
  Se  Se27  1  1.40402744  0.25644952  0.03123183  1.0
  Se  Se28  1  1.72132990  -0.05962023  0.49632707  1.0
  Se  Se29  1  1.05962023  -0.72132990  -0.00367293  1.0
  Se  Se30  1  0.94037977  0.72132990  1.00367293  1.0
  Se  Se31  1  0.27867010  0.05962023  0.50367293  1.0
  Se  Se32  1  1.47181538  -0.25372904  0.72184344  1.0
  Se  Se33  1  1.25372904  -0.47181538  0.22184344  1.0
  Se  Se34  1  0.74627096  0.47181538  0.77815656  1.0
  Se  Se35  1  0.52818462  0.25372904  0.27815656  1.0
  Se  Se36  1  0.53635769  -0.00174797  0.85582897  1.0
  Se  Se37  1  1.00174797  -0.53635769  0.35582897  1.0
  Se  Se38  1  0.99825203  0.53635769  0.64417103  1.0
  Se  Se39  1  1.46364231  0.00174797  0.14417103  1.0
  Se  Se40  1  0.70731237  0.27553466  0.47029978  1.0
  Se  Se41  1  0.72446534  0.29268763  0.97029978  1.0
  Se  Se42  1  1.27553466  -0.29268763  0.02970022  1.0
  Se  Se43  1  1.29268763  -0.27553466  0.52970022  1.0
  Se  Se44  1  0.26614723  0.04115315  0.85985197  1.0
  Se  Se45  1  0.95884685  0.73385277  0.35985197  1.0
  Se  Se46  1  1.04115315  -0.73385277  0.64014803  1.0
  Se  Se47  1  1.73385277  -0.04115315  0.14014803  1.0
