# generated using pymatgen
data_Cs2Hg(BSe)9
_symmetry_space_group_name_H-M   'P 1'
_cell_length_a   10.25488556
_cell_length_b   11.45225382
_cell_length_c   11.21753025
_cell_angle_alpha   103.59353425
_cell_angle_beta   116.01933456
_cell_angle_gamma   89.51304469
_symmetry_Int_Tables_number   1
_chemical_formula_structural   Cs2Hg(BSe)9
_chemical_formula_sum   'Cs4 Hg2 B18 Se18'
_cell_volume   1143.94747870
_cell_formula_units_Z   2
loop_
 _symmetry_equiv_pos_site_id
 _symmetry_equiv_pos_as_xyz
  1  'x, y, z'
loop_
 _atom_site_type_symbol
 _atom_site_label
 _atom_site_symmetry_multiplicity
 _atom_site_fract_x
 _atom_site_fract_y
 _atom_site_fract_z
 _atom_site_occupancy
  Cs  Cs0  1  -0.81340711  -0.98055238  -0.64873197  1.0
  Cs  Cs1  1  -0.18659289  -0.01944762  -0.35126803  1.0
  Cs  Cs2  1  -0.20838069  -0.49236636  -0.83344913  1.0
  Cs  Cs3  1  -0.79161931  -0.50763364  -0.16655087  1.0
  Hg  Hg4  1  -0.68163053  -0.40726311  -0.69444022  1.0
  Hg  Hg5  1  -0.31836947  -0.59273689  -0.30555978  1.0
  B  B6  1  -0.74177660  -0.71729959  -0.90937900  1.0
  B  B7  1  -0.25822340  -0.28270041  -0.09062100  1.0
  B  B8  1  -0.65701630  -0.95985284  -0.99221475  1.0
  B  B9  1  -0.34298370  -0.04014716  -0.00778525  1.0
  B  B10  1  -0.61334126  -0.93569299  -0.12233985  1.0
  B  B11  1  -0.38665874  -0.06430701  -0.87766015  1.0
  B  B12  1  -0.57905279  -0.09285713  -0.94691221  1.0
  B  B13  1  -0.42094721  -0.90714287  -0.05308779  1.0
  B  B14  1  -0.55588689  -0.76838049  -0.26177968  1.0
  B  B15  1  -0.44411311  -0.23161951  -0.73822032  1.0
  B  B16  1  -0.51115680  -0.85127564  -0.95029609  1.0
  B  B17  1  -0.48884320  -0.14872436  -0.04970391  1.0
  B  B18  1  -0.48798888  -0.94749446  -0.84182008  1.0
  B  B19  1  -0.51201112  -0.05250554  -0.15817992  1.0
  B  B20  1  -0.34247365  -0.91418122  -0.87786006  1.0
  B  B21  1  -0.65752635  -0.08581878  -0.12213994  1.0
  B  B22  1  -0.25686694  -0.79310545  -0.58567237  1.0
  B  B23  1  -0.74313306  -0.20689455  -0.41432763  1.0
  Se  Se24  1  -0.86280005  -0.59423125  -0.87789243  1.0
  Se  Se25  1  -0.13719995  -0.40576875  -0.12210757  1.0
  Se  Se26  1  -0.86306342  -0.29633895  -0.60350596  1.0
  Se  Se27  1  -0.13693658  -0.70366105  -0.39649404  1.0
  Se  Se28  1  -0.82878782  -0.88720922  -0.97254673  1.0
  Se  Se29  1  -0.17121218  -0.11279078  -0.02745327  1.0
  Se  Se30  1  -0.72777756  -0.84855184  -0.26675052  1.0
  Se  Se31  1  -0.27222244  -0.15144816  -0.73324948  1.0
  Se  Se32  1  -0.64282834  -0.20600298  -0.86433297  1.0
  Se  Se33  1  -0.35717166  -0.79399702  -0.13566703  1.0
  Se  Se34  1  -0.58997015  -0.66350155  -0.38342135  1.0
  Se  Se35  1  -0.41002985  -0.33649845  -0.61657865  1.0
  Se  Se36  1  -0.54662821  -0.67910338  -0.89005283  1.0
  Se  Se37  1  -0.45337179  -0.32089662  -0.10994717  1.0
  Se  Se38  1  -0.45126088  -0.87375941  -0.64693129  1.0
  Se  Se39  1  -0.54873912  -0.12624059  -0.35306871  1.0
  Se  Se40  1  -0.17103011  -0.80806614  -0.71523073  1.0
  Se  Se41  1  -0.82896989  -0.19193386  -0.28476927  1.0
