# generated using pymatgen
data_Sb2Pb2S5
_symmetry_space_group_name_H-M   'P 1'
_cell_length_a   21.28204853
_cell_length_b   4.02086014
_cell_length_c   11.24176104
_cell_angle_alpha   90.00000000
_cell_angle_beta   90.00000000
_cell_angle_gamma   90.00000000
_symmetry_Int_Tables_number   1
_chemical_formula_structural   Sb2Pb2S5
_chemical_formula_sum   'Sb8 Pb8 S20'
_cell_volume   961.98155601
_cell_formula_units_Z   4
loop_
 _symmetry_equiv_pos_site_id
 _symmetry_equiv_pos_as_xyz
  1  'x, y, z'
loop_
 _atom_site_type_symbol
 _atom_site_label
 _atom_site_symmetry_multiplicity
 _atom_site_fract_x
 _atom_site_fract_y
 _atom_site_fract_z
 _atom_site_occupancy
  Sb  Sb0  1  0.36434003  0.75000000  0.62325917  1.0
  Sb  Sb1  1  0.86434003  0.75000000  0.87674083  1.0
  Sb  Sb2  1  0.63565997  0.25000000  0.37674083  1.0
  Sb  Sb3  1  0.13565997  0.25000000  0.12325917  1.0
  Sb  Sb4  1  0.46529159  0.75000000  0.29976063  1.0
  Sb  Sb5  1  0.96529159  0.75000000  0.20023937  1.0
  Sb  Sb6  1  0.53470841  0.25000000  0.70023937  1.0
  Sb  Sb7  1  0.03470841  0.25000000  0.79976063  1.0
  Pb  Pb8  1  0.20496851  0.75000000  0.82912267  1.0
  Pb  Pb9  1  0.70496851  0.75000000  0.67087733  1.0
  Pb  Pb10  1  0.79503149  0.25000000  0.17087733  1.0
  Pb  Pb11  1  0.29503149  0.25000000  0.32912267  1.0
  Pb  Pb12  1  0.08821375  0.75000000  0.49030856  1.0
  Pb  Pb13  1  0.58821375  0.75000000  1.00969144  1.0
  Pb  Pb14  1  0.91178625  0.25000000  0.50969144  1.0
  Pb  Pb15  1  0.41178625  0.25000000  -0.00969144  1.0
  S  S16  1  0.37022573  0.75000000  0.17730621  1.0
  S  S17  1  0.87022573  0.75000000  0.32269379  1.0
  S  S18  1  0.62977427  0.25000000  0.82269379  1.0
  S  S19  1  0.12977427  0.25000000  0.67730621  1.0
  S  S20  1  0.48158612  0.75000000  0.85602705  1.0
  S  S21  1  0.98158612  0.75000000  0.64397295  1.0
  S  S22  1  0.51841388  0.25000000  0.14397295  1.0
  S  S23  1  0.01841388  0.25000000  0.35602705  1.0
  S  S24  1  0.08130087  0.75000000  0.93608498  1.0
  S  S25  1  0.58130087  0.75000000  0.56391502  1.0
  S  S26  1  0.91869913  0.25000000  0.06391502  1.0
  S  S27  1  0.41869913  0.25000000  0.43608498  1.0
  S  S28  1  0.17211311  0.75000000  0.25464980  1.0
  S  S29  1  0.67211311  0.75000000  0.24535020  1.0
  S  S30  1  0.82788689  0.25000000  0.74535020  1.0
  S  S31  1  0.32788689  0.25000000  0.75464980  1.0
  S  S32  1  0.26830366  0.75000000  0.50560882  1.0
  S  S33  1  0.76830366  0.75000000  0.99439118  1.0
  S  S34  1  0.73169634  0.25000000  0.49439118  1.0
  S  S35  1  0.23169634  0.25000000  0.00560882  1.0
