# generated using pymatgen
data_Tb2Re2Si2C
_symmetry_space_group_name_H-M   'P 1'
_cell_length_a   5.80233393
_cell_length_b   5.80233393
_cell_length_c   6.94852977
_cell_angle_alpha   55.33809181
_cell_angle_beta   124.66190819
_cell_angle_gamma   139.72493525
_symmetry_Int_Tables_number   1
_chemical_formula_structural   Tb2Re2Si2C
_chemical_formula_sum   'Tb2 Re2 Si2 C1'
_cell_volume   120.32548607
_cell_formula_units_Z   1
loop_
 _symmetry_equiv_pos_site_id
 _symmetry_equiv_pos_as_xyz
  1  'x, y, z'
loop_
 _atom_site_type_symbol
 _atom_site_label
 _atom_site_symmetry_multiplicity
 _atom_site_fract_x
 _atom_site_fract_y
 _atom_site_fract_z
 _atom_site_occupancy
  Tb  Tb0  1  1.42710969  -0.42710969  0.70016332  1.0
  Tb  Tb1  1  0.57289031  0.42710969  0.29983668  1.0
  Re  Re2  1  0.79248767  0.20751233  0.90954356  1.0
  Re  Re3  1  1.20751233  -0.20751233  0.09045644  1.0
  Si  Si4  1  0.85886659  -0.85886659  0.32032255  1.0
  Si  Si5  1  0.14113341  -0.14113341  0.67967745  1.0
  C  C6  1  0.00000000  0.00000000  0.00000000  1.0
