# generated using pymatgen
data_AgTe
_symmetry_space_group_name_H-M   'P 1'
_cell_length_a   20.10802957
_cell_length_b   8.96559588
_cell_length_c   4.82553508
_cell_angle_alpha   90.00000000
_cell_angle_beta   90.00000000
_cell_angle_gamma   90.00000000
_symmetry_Int_Tables_number   1
_chemical_formula_structural   AgTe
_chemical_formula_sum   'Ag16 Te16'
_cell_volume   869.94971906
_cell_formula_units_Z   16
loop_
 _symmetry_equiv_pos_site_id
 _symmetry_equiv_pos_as_xyz
  1  'x, y, z'
loop_
 _atom_site_type_symbol
 _atom_site_label
 _atom_site_symmetry_multiplicity
 _atom_site_fract_x
 _atom_site_fract_y
 _atom_site_fract_z
 _atom_site_occupancy
  Ag  Ag0  1  0.92909037  0.50138582  0.09560879  1.0
  Ag  Ag1  1  0.92909037  -0.00138582  0.09560879  1.0
  Ag  Ag2  1  0.42909037  0.50138582  0.40439121  1.0
  Ag  Ag3  1  0.42909037  -0.00138582  0.40439121  1.0
  Ag  Ag4  1  0.07090963  1.00138582  0.90439121  1.0
  Ag  Ag5  1  0.07090963  0.49861418  0.90439121  1.0
  Ag  Ag6  1  0.57090963  1.00138582  0.59560879  1.0
  Ag  Ag7  1  0.57090963  0.49861418  0.59560879  1.0
  Ag  Ag8  1  0.94268427  0.25000000  0.71393682  1.0
  Ag  Ag9  1  0.44268427  0.25000000  0.78606318  1.0
  Ag  Ag10  1  0.05731573  0.75000000  0.28606318  1.0
  Ag  Ag11  1  0.55731573  0.75000000  0.21393682  1.0
  Ag  Ag12  1  0.65876859  0.25000000  0.71946299  1.0
  Ag  Ag13  1  0.15876859  0.25000000  0.78053701  1.0
  Ag  Ag14  1  0.34123141  0.75000000  0.28053701  1.0
  Ag  Ag15  1  0.84123141  0.75000000  0.21946299  1.0
  Te  Te16  1  0.84285008  0.47974590  0.55945573  1.0
  Te  Te17  1  0.84285008  0.02025410  0.55945573  1.0
  Te  Te18  1  0.34285008  0.47974590  0.94054427  1.0
  Te  Te19  1  0.34285008  0.02025410  0.94054427  1.0
  Te  Te20  1  0.15714992  0.97974590  0.44054427  1.0
  Te  Te21  1  0.15714992  0.52025410  0.44054427  1.0
  Te  Te22  1  0.65714992  0.97974590  0.05945573  1.0
  Te  Te23  1  0.65714992  0.52025410  0.05945573  1.0
  Te  Te24  1  0.75854487  0.25000000  0.30905359  1.0
  Te  Te25  1  0.25854487  0.25000000  0.19094641  1.0
  Te  Te26  1  0.24145513  0.75000000  0.69094641  1.0
  Te  Te27  1  0.74145513  0.75000000  0.80905359  1.0
  Te  Te28  1  0.52136323  0.25000000  0.29403454  1.0
  Te  Te29  1  0.02136323  0.25000000  0.20596546  1.0
  Te  Te30  1  0.47863677  0.75000000  0.70596546  1.0
  Te  Te31  1  0.97863677  0.75000000  0.79403454  1.0
