# generated using pymatgen
data_BaSn(PO4)2
_symmetry_space_group_name_H-M   'P 1'
_cell_length_a   4.95409050
_cell_length_b   4.95409050
_cell_length_c   8.00835515
_cell_angle_alpha   86.55353815
_cell_angle_beta   93.44646185
_cell_angle_gamma   115.17248691
_symmetry_Int_Tables_number   1
_chemical_formula_structural   BaSn(PO4)2
_chemical_formula_sum   'Ba1 Sn1 P2 O8'
_cell_volume   177.43157399
_cell_formula_units_Z   1
loop_
 _symmetry_equiv_pos_site_id
 _symmetry_equiv_pos_as_xyz
  1  'x, y, z'
loop_
 _atom_site_type_symbol
 _atom_site_label
 _atom_site_symmetry_multiplicity
 _atom_site_fract_x
 _atom_site_fract_y
 _atom_site_fract_z
 _atom_site_occupancy
  Ba  Ba0  1  -0.00000000  0.00000000  0.50000000  1.0
  Sn  Sn1  1  0.00000000  0.00000000  0.00000000  1.0
  P  P2  1  0.63253914  -0.63253914  0.79097734  1.0
  P  P3  1  0.36746086  -0.36746086  0.20902266  1.0
  O  O4  1  1.28354151  0.23577325  0.80838876  1.0
  O  O5  1  0.76422675  -0.28354151  0.80838876  1.0
  O  O6  1  1.23577325  0.28354151  0.19161124  1.0
  O  O7  1  0.71645849  -0.23577325  0.19161124  1.0
  O  O8  1  0.75987592  -0.75987592  0.94028556  1.0
  O  O9  1  0.24012408  -0.24012408  0.05971444  1.0
  O  O10  1  0.69119582  -0.69119582  0.61454714  1.0
  O  O11  1  0.30880418  -0.30880418  0.38545286  1.0
