# generated using pymatgen
data_Er6Fe23
_symmetry_space_group_name_H-M   'P 1'
_cell_length_a   8.43729990
_cell_length_b   8.43729990
_cell_length_c   8.43729990
_cell_angle_alpha   60.00000000
_cell_angle_beta   60.00000000
_cell_angle_gamma   60.00000000
_symmetry_Int_Tables_number   1
_chemical_formula_structural   Er6Fe23
_chemical_formula_sum   'Er6 Fe23'
_cell_volume   424.71290840
_cell_formula_units_Z   1
loop_
 _symmetry_equiv_pos_site_id
 _symmetry_equiv_pos_as_xyz
  1  'x, y, z'
loop_
 _atom_site_type_symbol
 _atom_site_label
 _atom_site_symmetry_multiplicity
 _atom_site_fract_x
 _atom_site_fract_y
 _atom_site_fract_z
 _atom_site_occupancy
  Er  Er0  1  -0.70945767  0.70945767  0.70945767  1.0
  Er  Er1  1  -0.29054233  0.29054233  0.70945767  1.0
  Er  Er2  1  0.70945767  0.70945767  -0.70945767  1.0
  Er  Er3  1  0.29054233  1.29054233  -0.29054233  1.0
  Er  Er4  1  0.29054233  -0.29054233  1.29054233  1.0
  Er  Er5  1  -0.29054233  0.29054233  0.29054233  1.0
  Fe  Fe6  1  0.87930350  0.87930350  -0.12069650  1.0
  Fe  Fe7  1  1.12069650  0.12069650  0.63791050  1.0
  Fe  Fe8  1  1.12069650  0.63791050  0.12069650  1.0
  Fe  Fe9  1  0.36208950  0.87930350  -0.12069650  1.0
  Fe  Fe10  1  1.63791050  0.12069650  0.12069650  1.0
  Fe  Fe11  1  0.87930350  0.36208950  -0.12069650  1.0
  Fe  Fe12  1  0.87930350  0.87930350  -0.63791050  1.0
  Fe  Fe13  1  1.12069650  0.12069650  0.12069650  1.0
  Fe  Fe14  1  0.67543205  0.67543205  -0.32456795  1.0
  Fe  Fe15  1  1.32456795  0.32456795  0.02629614  1.0
  Fe  Fe16  1  1.32456795  0.02629614  0.32456795  1.0
  Fe  Fe17  1  0.97370386  0.67543205  -0.32456795  1.0
  Fe  Fe18  1  1.02629614  0.32456795  0.32456795  1.0
  Fe  Fe19  1  0.67543205  0.97370386  -0.32456795  1.0
  Fe  Fe20  1  0.67543205  0.67543205  -0.02629614  1.0
  Fe  Fe21  1  1.32456795  0.32456795  0.32456795  1.0
  Fe  Fe22  1  1.50000000  -0.00000000  0.00000000  1.0
  Fe  Fe23  1  1.00000000  0.50000000  -0.50000000  1.0
  Fe  Fe24  1  -0.00000000  1.50000000  0.00000000  1.0
  Fe  Fe25  1  0.50000000  1.00000000  -0.50000000  1.0
  Fe  Fe26  1  0.00000000  -0.00000000  0.50000000  1.0
  Fe  Fe27  1  0.50000000  -0.50000000  1.00000000  1.0
  Fe  Fe28  1  0.00000000  0.00000000  0.00000000  1.0
