# generated using pymatgen
data_In2Si2O7
_symmetry_space_group_name_H-M   'P 1'
_cell_length_a   4.76088524
_cell_length_b   10.46560391
_cell_length_c   5.48769912
_cell_angle_alpha   90.00000000
_cell_angle_beta   97.18464711
_cell_angle_gamma   90.00000000
_symmetry_Int_Tables_number   1
_chemical_formula_structural   In2Si2O7
_chemical_formula_sum   'In4 Si4 O14'
_cell_volume   271.28068266
_cell_formula_units_Z   2
loop_
 _symmetry_equiv_pos_site_id
 _symmetry_equiv_pos_as_xyz
  1  'x, y, z'
loop_
 _atom_site_type_symbol
 _atom_site_label
 _atom_site_symmetry_multiplicity
 _atom_site_fract_x
 _atom_site_fract_y
 _atom_site_fract_z
 _atom_site_occupancy
  In  In0  1  0.60592537  0.15252041  0.40832910  1.0
  In  In1  1  0.60592537  0.34747959  0.90832910  1.0
  In  In2  1  0.39407463  0.65252041  0.09167090  1.0
  In  In3  1  0.39407463  0.84747959  0.59167090  1.0
  Si  Si4  1  0.85963785  0.88836467  0.15040585  1.0
  Si  Si5  1  0.85963785  0.61163533  0.65040585  1.0
  Si  Si6  1  0.14036215  0.38836467  0.34959415  1.0
  Si  Si7  1  0.14036215  0.11163533  0.84959415  1.0
  O  O8  1  0.88357700  0.29272491  0.23359067  1.0
  O  O9  1  0.88357700  0.20727509  0.73359067  1.0
  O  O10  1  0.11642300  0.79272491  0.26640933  1.0
  O  O11  1  0.11642300  0.70727509  0.76640933  1.0
  O  O12  1  0.70616150  0.95504228  0.37374874  1.0
  O  O13  1  0.70616150  0.54495772  0.87374874  1.0
  O  O14  1  0.29383850  0.45504228  0.12625126  1.0
  O  O15  1  0.29383850  0.04495772  0.62625126  1.0
  O  O16  1  0.38245648  0.18458073  0.04040102  1.0
  O  O17  1  0.38245648  0.31541927  0.54040102  1.0
  O  O18  1  0.61754352  0.68458073  0.45959898  1.0
  O  O19  1  0.61754352  0.81541927  0.95959898  1.0
  O  O20  1  -0.00000000  0.50000000  0.50000000  1.0
  O  O21  1  0.00000000  0.00000000  0.00000000  1.0
