# generated using pymatgen
data_Sc3FeC4
_symmetry_space_group_name_H-M   'P 1'
_cell_length_a   6.65247698
_cell_length_b   6.65247698
_cell_length_c   6.65247698
_cell_angle_alpha   150.45461760
_cell_angle_beta   141.84053882
_cell_angle_gamma   48.98476905
_symmetry_Int_Tables_number   1
_chemical_formula_structural   Sc3FeC4
_chemical_formula_sum   'Sc3 Fe1 C4'
_cell_volume   89.32374897
_cell_formula_units_Z   1
loop_
 _symmetry_equiv_pos_site_id
 _symmetry_equiv_pos_as_xyz
  1  'x, y, z'
loop_
 _atom_site_type_symbol
 _atom_site_label
 _atom_site_symmetry_multiplicity
 _atom_site_fract_x
 _atom_site_fract_y
 _atom_site_fract_z
 _atom_site_occupancy
  Sc  Sc0  1  0.50000000  0.50000000  1.00000000  1.0
  Sc  Sc1  1  0.81134659  0.31134659  0.50000000  1.0
  Sc  Sc2  1  0.18865341  0.68865341  0.50000000  1.0
  Fe  Fe3  1  0.00000000  0.00000000  0.00000000  1.0
  C  C4  1  0.54214331  0.87618657  0.66595673  1.0
  C  C5  1  0.78977016  0.12381343  0.66595673  1.0
  C  C6  1  1.21022984  0.87618657  1.33404327  1.0
  C  C7  1  0.45785669  0.12381343  0.33404327  1.0
