# generated using pymatgen
data_Ge(SeO3)2
_symmetry_space_group_name_H-M   'P 1'
_cell_length_a   5.13634993
_cell_length_b   6.98794655
_cell_length_c   8.99277259
_cell_angle_alpha   90.00000000
_cell_angle_beta   124.09225161
_cell_angle_gamma   90.00000000
_symmetry_Int_Tables_number   1
_chemical_formula_structural   Ge(SeO3)2
_chemical_formula_sum   'Ge2 Se4 O12'
_cell_volume   267.30035120
_cell_formula_units_Z   2
loop_
 _symmetry_equiv_pos_site_id
 _symmetry_equiv_pos_as_xyz
  1  'x, y, z'
loop_
 _atom_site_type_symbol
 _atom_site_label
 _atom_site_symmetry_multiplicity
 _atom_site_fract_x
 _atom_site_fract_y
 _atom_site_fract_z
 _atom_site_occupancy
  Ge  Ge0  1  0.00000000  0.50000000  0.50000000  1.0
  Ge  Ge1  1  -0.00000000  -0.00000000  0.00000000  1.0
  Se  Se2  1  0.69117395  0.17295929  0.20303862  1.0
  Se  Se3  1  0.69117395  0.32704071  0.70303862  1.0
  Se  Se4  1  0.30882605  0.67295929  0.29696138  1.0
  Se  Se5  1  0.30882605  0.82704071  0.79696138  1.0
  O  O6  1  0.80604396  0.41080139  0.25824215  1.0
  O  O7  1  0.80604396  0.08919861  0.75824215  1.0
  O  O8  1  0.19395604  0.91080139  0.24175785  1.0
  O  O9  1  0.19395604  0.58919861  0.74175785  1.0
  O  O10  1  0.71002174  0.71281803  0.41239030  1.0
  O  O11  1  0.71002174  0.78718197  0.91239030  1.0
  O  O12  1  0.28997826  0.21281803  0.08760970  1.0
  O  O13  1  0.28997826  0.28718197  0.58760970  1.0
  O  O14  1  0.71756519  0.16213059  0.01717446  1.0
  O  O15  1  0.71756519  0.33786941  0.51717446  1.0
  O  O16  1  0.28243481  0.66213059  0.48282554  1.0
  O  O17  1  0.28243481  0.83786941  0.98282554  1.0
