# generated using pymatgen
data_CsCOF3
_symmetry_space_group_name_H-M   'P 1'
_cell_length_a   6.06050334
_cell_length_b   7.92411756
_cell_length_c   9.72450894
_cell_angle_alpha   90.00000000
_cell_angle_beta   89.00958179
_cell_angle_gamma   90.00000000
_symmetry_Int_Tables_number   1
_chemical_formula_structural   CsCOF3
_chemical_formula_sum   'Cs4 C4 O4 F12'
_cell_volume   466.94141672
_cell_formula_units_Z   4
loop_
 _symmetry_equiv_pos_site_id
 _symmetry_equiv_pos_as_xyz
  1  'x, y, z'
loop_
 _atom_site_type_symbol
 _atom_site_label
 _atom_site_symmetry_multiplicity
 _atom_site_fract_x
 _atom_site_fract_y
 _atom_site_fract_z
 _atom_site_occupancy
  Cs  Cs0  1  0.72923562  0.33780992  0.82055020  1.0
  Cs  Cs1  1  0.72923562  0.16219008  0.32055020  1.0
  Cs  Cs2  1  0.27076438  0.83780992  0.67944980  1.0
  Cs  Cs3  1  0.27076438  0.66219008  0.17944980  1.0
  C  C4  1  0.73624929  0.78978481  0.93252701  1.0
  C  C5  1  0.73624929  0.71021519  0.43252701  1.0
  C  C6  1  0.26375071  0.28978481  0.56747299  1.0
  C  C7  1  0.26375071  0.21021519  0.06747299  1.0
  O  O8  1  0.56989845  0.70446259  0.91498439  1.0
  O  O9  1  0.56989845  0.79553741  0.41498439  1.0
  O  O10  1  0.43010155  0.20446259  0.58501561  1.0
  O  O11  1  0.43010155  0.29553741  0.08501561  1.0
  F  F12  1  0.94740223  0.70050608  0.91980635  1.0
  F  F13  1  0.94740223  0.79949392  0.41980635  1.0
  F  F14  1  0.05259777  0.20050608  0.58019365  1.0
  F  F15  1  0.05259777  0.29949392  0.08019365  1.0
  F  F16  1  0.75870456  0.63029773  0.56307615  1.0
  F  F17  1  0.75870456  0.86970227  0.06307615  1.0
  F  F18  1  0.24129544  0.13029773  0.93692385  1.0
  F  F19  1  0.24129544  0.36970227  0.43692385  1.0
  F  F20  1  0.77366860  0.92763178  0.83799780  1.0
  F  F21  1  0.77366860  0.57236822  0.33799780  1.0
  F  F22  1  0.22633140  0.42763178  0.66200220  1.0
  F  F23  1  0.22633140  0.07236822  0.16200220  1.0
