# generated using pymatgen
data_SbN2F5
_symmetry_space_group_name_H-M   'P 1'
_cell_length_a   9.42145093
_cell_length_b   9.42145093
_cell_length_c   6.81314034
_cell_angle_alpha   89.49125600
_cell_angle_beta   90.50874400
_cell_angle_gamma   43.75970057
_symmetry_Int_Tables_number   1
_chemical_formula_structural   SbN2F5
_chemical_formula_sum   'Sb2 N4 F10'
_cell_volume   418.15451354
_cell_formula_units_Z   2
loop_
 _symmetry_equiv_pos_site_id
 _symmetry_equiv_pos_as_xyz
  1  'x, y, z'
loop_
 _atom_site_type_symbol
 _atom_site_label
 _atom_site_symmetry_multiplicity
 _atom_site_fract_x
 _atom_site_fract_y
 _atom_site_fract_z
 _atom_site_occupancy
  Sb  Sb0  1  0.88012589  0.88012589  0.25000000  1.0
  Sb  Sb1  1  1.11987411  0.11987411  0.75000000  1.0
  F  F2  1  0.77206269  0.77206269  0.25000000  1.0
  F  F3  1  1.22793731  0.22793731  0.75000000  1.0
  F  F4  1  1.65637534  0.10494836  0.39985616  1.0
  F  F5  1  0.89505164  0.34362466  0.89985616  1.0
  F  F6  1  1.10494836  0.65637534  0.10014384  1.0
  F  F7  1  1.34362466  -0.10494836  0.60014384  1.0
  F  F8  1  1.79954257  0.06376901  0.04450601  1.0
  F  F9  1  0.93623099  0.20045743  0.54450601  1.0
  F  F10  1  1.06376901  0.79954257  0.45549399  1.0
  F  F11  1  1.20045743  -0.06376901  0.95549399  1.0
  N  N12  1  0.56383442  0.56383442  0.25000000  1.0
  N  N13  1  1.43616558  0.43616558  0.75000000  1.0
  N  N14  1  1.23254060  0.23254060  0.25000000  1.0
  N  N15  1  0.76745940  0.76745940  0.75000000  1.0
