# generated using pymatgen
data_Cu(NCl2)2
_symmetry_space_group_name_H-M   'P 1'
_cell_length_a   8.57050568
_cell_length_b   8.57050568
_cell_length_c   8.25219562
_cell_angle_alpha   90.00000000
_cell_angle_beta   90.00000000
_cell_angle_gamma   57.90197750
_symmetry_Int_Tables_number   1
_chemical_formula_structural   Cu(NCl2)2
_chemical_formula_sum   'Cu2 N4 Cl8'
_cell_volume   513.49678813
_cell_formula_units_Z   2
loop_
 _symmetry_equiv_pos_site_id
 _symmetry_equiv_pos_as_xyz
  1  'x, y, z'
loop_
 _atom_site_type_symbol
 _atom_site_label
 _atom_site_symmetry_multiplicity
 _atom_site_fract_x
 _atom_site_fract_y
 _atom_site_fract_z
 _atom_site_occupancy
  Cu  Cu0  1  -0.50000000  0.50000000  0.50000000  1.0
  Cu  Cu1  1  0.00000000  0.00000000  0.00000000  1.0
  N  N2  1  0.15337198  1.15337198  0.50000000  1.0
  N  N3  1  0.65337198  0.65337198  0.00000000  1.0
  N  N4  1  0.84662802  0.84662802  0.50000000  1.0
  N  N5  1  0.34662802  1.34662802  0.00000000  1.0
  Cl  Cl6  1  -0.32030106  0.32030106  0.31582741  1.0
  Cl  Cl7  1  -0.82030106  0.82030106  0.18417259  1.0
  Cl  Cl8  1  -0.67969894  0.67969894  0.68417259  1.0
  Cl  Cl9  1  -0.17969894  0.17969894  0.81582741  1.0
  Cl  Cl10  1  0.35773290  1.35773290  0.50000000  1.0
  Cl  Cl11  1  0.85773290  0.85773290  0.00000000  1.0
  Cl  Cl12  1  0.64226710  0.64226710  0.50000000  1.0
  Cl  Cl13  1  0.14226710  1.14226710  0.00000000  1.0
