# generated using pymatgen
data_Bi3Sb
_symmetry_space_group_name_H-M   'P 1'
_cell_length_a   8.39044607
_cell_length_b   8.39044607
_cell_length_c   8.39044607
_cell_angle_alpha   31.30809393
_cell_angle_beta   31.30809393
_cell_angle_gamma   31.30809393
_symmetry_Int_Tables_number   1
_chemical_formula_structural   Bi3Sb
_chemical_formula_sum   'Bi3 Sb1'
_cell_volume   141.56181207
_cell_formula_units_Z   1
loop_
 _symmetry_equiv_pos_site_id
 _symmetry_equiv_pos_as_xyz
  1  'x, y, z'
loop_
 _atom_site_type_symbol
 _atom_site_label
 _atom_site_symmetry_multiplicity
 _atom_site_fract_x
 _atom_site_fract_y
 _atom_site_fract_z
 _atom_site_occupancy
  Bi  Bi0  1  0.79314159  -0.20685841  -0.20685841  1.0
  Bi  Bi1  1  0.29816293  0.29816293  0.29816293  1.0
  Bi  Bi2  1  0.56231655  0.56231655  -0.43768345  1.0
  Sb  Sb3  1  0.06137893  0.06137893  0.06137893  1.0
