# generated using pymatgen
data_La3CuSnSe7
_symmetry_space_group_name_H-M   'P 1'
_cell_length_a   10.81280719
_cell_length_b   10.81280719
_cell_length_c   6.37360397
_cell_angle_alpha   90.00000000
_cell_angle_beta   90.00000000
_cell_angle_gamma   120.00000000
_symmetry_Int_Tables_number   1
_chemical_formula_structural   La3CuSnSe7
_chemical_formula_sum   'La6 Cu2 Sn2 Se14'
_cell_volume   645.34600298
_cell_formula_units_Z   2
loop_
 _symmetry_equiv_pos_site_id
 _symmetry_equiv_pos_as_xyz
  1  'x, y, z'
loop_
 _atom_site_type_symbol
 _atom_site_label
 _atom_site_symmetry_multiplicity
 _atom_site_fract_x
 _atom_site_fract_y
 _atom_site_fract_z
 _atom_site_occupancy
  La  La0  1  0.22061004  0.86578647  0.03632321  1.0
  La  La1  1  0.86578647  0.64517643  0.53632321  1.0
  La  La2  1  0.64517643  0.77938996  0.03632321  1.0
  La  La3  1  0.13421353  0.35482357  0.03632321  1.0
  La  La4  1  0.77938996  0.13421353  0.53632321  1.0
  La  La5  1  0.35482357  0.22061004  0.53632321  1.0
  Cu  Cu6  1  0.00000000  0.00000000  -0.00070951  1.0
  Cu  Cu7  1  0.00000000  0.00000000  0.49929049  1.0
  Sn  Sn8  1  0.33333333  0.66666667  0.61636595  1.0
  Sn  Sn9  1  0.66666667  0.33333333  0.11636595  1.0
  Se  Se10  1  0.90282208  0.74674678  0.01144463  1.0
  Se  Se11  1  0.74674678  0.84392470  0.51144463  1.0
  Se  Se12  1  0.84392470  0.09717792  0.01144463  1.0
  Se  Se13  1  0.25325322  0.15607530  0.01144463  1.0
  Se  Se14  1  0.09717792  0.25325322  0.51144463  1.0
  Se  Se15  1  0.15607530  0.90282208  0.51144463  1.0
  Se  Se16  1  0.57295594  0.48653038  0.28625551  1.0
  Se  Se17  1  0.48653038  0.91357444  0.78625551  1.0
  Se  Se18  1  0.91357444  0.42704406  0.28625551  1.0
  Se  Se19  1  0.51346962  0.08642556  0.28625551  1.0
  Se  Se20  1  0.42704406  0.51346962  0.78625551  1.0
  Se  Se21  1  0.08642556  0.57295594  0.78625551  1.0
  Se  Se22  1  0.33333333  0.66666667  0.22017353  1.0
  Se  Se23  1  0.66666667  0.33333333  0.72017353  1.0
