# generated using pymatgen
data_KPd2F5
_symmetry_space_group_name_H-M   'P 1'
_cell_length_a   6.37415215
_cell_length_b   7.59651534
_cell_length_c   10.85305313
_cell_angle_alpha   90.00000000
_cell_angle_beta   90.00000000
_cell_angle_gamma   90.00000000
_symmetry_Int_Tables_number   1
_chemical_formula_structural   KPd2F5
_chemical_formula_sum   'K4 Pd8 F20'
_cell_volume   525.51942545
_cell_formula_units_Z   4
loop_
 _symmetry_equiv_pos_site_id
 _symmetry_equiv_pos_as_xyz
  1  'x, y, z'
loop_
 _atom_site_type_symbol
 _atom_site_label
 _atom_site_symmetry_multiplicity
 _atom_site_fract_x
 _atom_site_fract_y
 _atom_site_fract_z
 _atom_site_occupancy
  F  F0  1  0.29817959  0.93212284  0.90713799  1.0
  F  F1  1  0.29817959  0.56787716  0.90713799  1.0
  F  F2  1  0.79817959  0.93212284  0.59286201  1.0
  F  F3  1  0.79817959  0.56787716  0.59286201  1.0
  F  F4  1  0.70182041  0.43212284  0.09286201  1.0
  F  F5  1  0.70182041  0.06787716  0.09286201  1.0
  F  F6  1  0.20182041  0.43212284  0.40713799  1.0
  F  F7  1  0.20182041  0.06787716  0.40713799  1.0
  F  F8  1  0.27672626  0.94006596  0.64787123  1.0
  F  F9  1  0.27672626  0.55993404  0.64787123  1.0
  F  F10  1  0.77672626  0.94006596  0.85212877  1.0
  F  F11  1  0.77672626  0.55993404  0.85212877  1.0
  F  F12  1  0.72327374  0.44006596  0.35212877  1.0
  F  F13  1  0.72327374  0.05993404  0.35212877  1.0
  F  F14  1  0.22327374  0.44006596  0.14787123  1.0
  F  F15  1  0.22327374  0.05993404  0.14787123  1.0
  F  F16  1  0.96510645  0.75000000  0.09704950  1.0
  F  F17  1  0.46510645  0.75000000  0.40295050  1.0
  F  F18  1  0.03489355  0.25000000  0.90295050  1.0
  F  F19  1  0.53489355  0.25000000  0.59704950  1.0
  Pd  Pd20  1  0.28987497  0.75000000  0.77440744  1.0
  Pd  Pd21  1  0.78987497  0.75000000  0.72559256  1.0
  Pd  Pd22  1  0.71012503  0.25000000  0.22559256  1.0
  Pd  Pd23  1  0.21012503  0.25000000  0.27440744  1.0
  Pd  Pd24  1  0.50000000  0.00000000  0.50000000  1.0
  Pd  Pd25  1  0.50000000  0.50000000  0.50000000  1.0
  Pd  Pd26  1  0.00000000  0.00000000  0.00000000  1.0
  Pd  Pd27  1  0.00000000  0.50000000  0.00000000  1.0
  K  K28  1  0.48973705  0.75000000  0.11963559  1.0
  K  K29  1  0.98973705  0.75000000  0.38036441  1.0
  K  K30  1  0.51026295  0.25000000  0.88036441  1.0
  K  K31  1  0.01026295  0.25000000  0.61963559  1.0
