# generated using pymatgen
data_Nb3GeTe6
_symmetry_space_group_name_H-M   'P 1'
_cell_length_a   6.53055121
_cell_length_b   14.69417437
_cell_length_c   11.68746222
_cell_angle_alpha   90.00000000
_cell_angle_beta   90.00000000
_cell_angle_gamma   90.00000000
_symmetry_Int_Tables_number   1
_chemical_formula_structural   Nb3GeTe6
_chemical_formula_sum   'Nb12 Ge4 Te24'
_cell_volume   1121.54124211
_cell_formula_units_Z   4
loop_
 _symmetry_equiv_pos_site_id
 _symmetry_equiv_pos_as_xyz
  1  'x, y, z'
loop_
 _atom_site_type_symbol
 _atom_site_label
 _atom_site_symmetry_multiplicity
 _atom_site_fract_x
 _atom_site_fract_y
 _atom_site_fract_z
 _atom_site_occupancy
  Nb  Nb0  1  0.46331842  0.25000000  0.18549152  1.0
  Nb  Nb1  1  0.96331842  0.25000000  0.31450848  1.0
  Nb  Nb2  1  0.53668158  0.75000000  0.81450848  1.0
  Nb  Nb3  1  0.03668158  0.75000000  0.68549152  1.0
  Nb  Nb4  1  0.19795064  0.25000000  0.53182419  1.0
  Nb  Nb5  1  0.69795064  0.25000000  0.96817581  1.0
  Nb  Nb6  1  0.80204936  0.75000000  0.46817581  1.0
  Nb  Nb7  1  0.30204936  0.75000000  0.03182419  1.0
  Nb  Nb8  1  0.17390763  0.25000000  0.83397118  1.0
  Nb  Nb9  1  0.67390763  0.25000000  0.66602882  1.0
  Nb  Nb10  1  0.82609237  0.75000000  0.16602882  1.0
  Nb  Nb11  1  0.32609237  0.75000000  0.33397118  1.0
  Ge  Ge12  1  0.07463475  0.25000000  0.07526208  1.0
  Ge  Ge13  1  0.57463475  0.25000000  0.42473792  1.0
  Ge  Ge14  1  0.92536525  0.75000000  0.92473792  1.0
  Ge  Ge15  1  0.42536525  0.75000000  0.57526208  1.0
  Te  Te16  1  0.36567869  0.37500271  0.99316955  1.0
  Te  Te17  1  0.36567869  0.12499729  0.99316955  1.0
  Te  Te18  1  0.86567869  0.37500271  0.50683045  1.0
  Te  Te19  1  0.86567869  0.12499729  0.50683045  1.0
  Te  Te20  1  0.63432131  0.87500271  0.00683045  1.0
  Te  Te21  1  0.63432131  0.62499729  0.00683045  1.0
  Te  Te22  1  0.13432131  0.87500271  0.49316955  1.0
  Te  Te23  1  0.13432131  0.62499729  0.49316955  1.0
  Te  Te24  1  0.35496010  0.37851143  0.68202604  1.0
  Te  Te25  1  0.35496010  0.12148857  0.68202604  1.0
  Te  Te26  1  0.85496010  0.37851143  0.81797396  1.0
  Te  Te27  1  0.85496010  0.12148857  0.81797396  1.0
  Te  Te28  1  0.64503990  0.87851143  0.31797396  1.0
  Te  Te29  1  0.64503990  0.62148857  0.31797396  1.0
  Te  Te30  1  0.14503990  0.87851143  0.18202604  1.0
  Te  Te31  1  0.14503990  0.62148857  0.18202604  1.0
  Te  Te32  1  0.21569990  0.87830842  0.84015951  1.0
  Te  Te33  1  0.21569990  0.62169158  0.84015951  1.0
  Te  Te34  1  0.71569990  0.87830842  0.65984049  1.0
  Te  Te35  1  0.71569990  0.62169158  0.65984049  1.0
  Te  Te36  1  0.78430010  0.37830842  0.15984049  1.0
  Te  Te37  1  0.78430010  0.12169158  0.15984049  1.0
  Te  Te38  1  0.28430010  0.37830842  0.34015951  1.0
  Te  Te39  1  0.28430010  0.12169158  0.34015951  1.0
