# generated using pymatgen
data_V2H2O5
_symmetry_space_group_name_H-M   'P 1'
_cell_length_a   6.21012797
_cell_length_b   6.21012797
_cell_length_c   4.93103991
_cell_angle_alpha   87.22452717
_cell_angle_beta   92.77547283
_cell_angle_gamma   153.19574106
_symmetry_Int_Tables_number   1
_chemical_formula_structural   V2H2O5
_chemical_formula_sum   'V2 H2 O5'
_cell_volume   85.64921760
_cell_formula_units_Z   1
loop_
 _symmetry_equiv_pos_site_id
 _symmetry_equiv_pos_as_xyz
  1  'x, y, z'
loop_
 _atom_site_type_symbol
 _atom_site_label
 _atom_site_symmetry_multiplicity
 _atom_site_fract_x
 _atom_site_fract_y
 _atom_site_fract_z
 _atom_site_occupancy
  V  V0  1  0.63950064  -0.63950064  0.90607011  1.0
  V  V1  1  1.36049936  -0.36049936  0.09392989  1.0
  O  O2  1  0.87433652  -0.87433652  0.35844465  1.0
  O  O3  1  1.12566348  -0.12566348  0.64155535  1.0
  O  O4  1  0.81069359  -0.81069359  0.85134967  1.0
  O  O5  1  1.18930641  -0.18930641  0.14865033  1.0
  O  O6  1  0.50000000  0.50000000  -0.00000000  1.0
  H  H7  1  0.84961365  -0.84961365  0.55327493  1.0
  H  H8  1  1.15038635  -0.15038635  0.44672507  1.0
