# generated using pymatgen
data_Y(Al2Cu)4
_symmetry_space_group_name_H-M   'P 1'
_cell_length_a   6.73887153
_cell_length_b   6.73887153
_cell_length_c   6.73887153
_cell_angle_alpha   98.37238506
_cell_angle_beta   98.37238506
_cell_angle_gamma   135.13635486
_symmetry_Int_Tables_number   1
_chemical_formula_structural   Y(Al2Cu)4
_chemical_formula_sum   'Y1 Al8 Cu4'
_cell_volume   199.54440677
_cell_formula_units_Z   1
loop_
 _symmetry_equiv_pos_site_id
 _symmetry_equiv_pos_as_xyz
  1  'x, y, z'
loop_
 _atom_site_type_symbol
 _atom_site_label
 _atom_site_symmetry_multiplicity
 _atom_site_fract_x
 _atom_site_fract_y
 _atom_site_fract_z
 _atom_site_occupancy
  Y  Y0  1  0.00000000  0.00000000  0.00000000  1.0
  Al  Al1  1  0.50000000  0.71908604  0.21908604  1.0
  Al  Al2  1  0.71908604  0.50000000  1.21908604  1.0
  Al  Al3  1  0.28091396  0.50000000  0.78091396  1.0
  Al  Al4  1  0.50000000  1.28091396  0.78091396  1.0
  Al  Al5  1  0.00000000  0.65190990  0.65190990  1.0
  Al  Al6  1  0.65190990  1.00000000  0.65190990  1.0
  Al  Al7  1  1.34809010  1.00000000  1.34809010  1.0
  Al  Al8  1  0.00000000  0.34809010  0.34809010  1.0
  Cu  Cu9  1  0.50000000  0.50000000  0.50000000  1.0
  Cu  Cu10  1  1.00000000  1.00000000  0.50000000  1.0
  Cu  Cu11  1  1.00000000  0.50000000  1.00000000  1.0
  Cu  Cu12  1  1.50000000  1.00000000  1.00000000  1.0
