# generated using pymatgen
data_CuH4SeO5
_symmetry_space_group_name_H-M   'P 1'
_cell_length_a   6.66814136
_cell_length_b   7.44816486
_cell_length_c   9.35810785
_cell_angle_alpha   90.00000000
_cell_angle_beta   90.00000000
_cell_angle_gamma   90.00000000
_symmetry_Int_Tables_number   1
_chemical_formula_structural   CuH4SeO5
_chemical_formula_sum   'Cu4 H16 Se4 O20'
_cell_volume   464.77432019
_cell_formula_units_Z   4
loop_
 _symmetry_equiv_pos_site_id
 _symmetry_equiv_pos_as_xyz
  1  'x, y, z'
loop_
 _atom_site_type_symbol
 _atom_site_label
 _atom_site_symmetry_multiplicity
 _atom_site_fract_x
 _atom_site_fract_y
 _atom_site_fract_z
 _atom_site_occupancy
  H  H0  1  0.31078816  0.62249338  0.95889506  1.0
  H  H1  1  0.81078816  0.87750662  0.04110494  1.0
  H  H2  1  0.68921184  0.12249338  0.54110494  1.0
  H  H3  1  0.18921184  0.37750662  0.45889506  1.0
  H  H4  1  0.12178167  0.68324358  0.05470308  1.0
  H  H5  1  0.62178167  0.81675642  0.94529692  1.0
  H  H6  1  0.87821833  0.18324358  0.44529692  1.0
  H  H7  1  0.37821833  0.31675642  0.55470308  1.0
  H  H8  1  0.01493041  0.54870527  0.84347974  1.0
  H  H9  1  0.51493041  0.95129473  0.15652026  1.0
  H  H10  1  0.98506959  0.04870527  0.65652026  1.0
  H  H11  1  0.48506959  0.45129473  0.34347974  1.0
  H  H12  1  0.92862329  0.85037788  0.68222369  1.0
  H  H13  1  0.42862329  0.64962212  0.31777631  1.0
  H  H14  1  0.07137671  0.35037788  0.81777631  1.0
  H  H15  1  0.57137671  0.14962212  0.18222369  1.0
  O  O16  1  0.49805632  0.98253290  0.53279028  1.0
  O  O17  1  0.99805632  0.51746710  0.46720972  1.0
  O  O18  1  0.50194368  0.48253290  0.96720972  1.0
  O  O19  1  0.00194368  0.01746710  0.03279028  1.0
  O  O20  1  0.18712275  0.70097383  0.95868094  1.0
  O  O21  1  0.68712275  0.79902617  0.04131906  1.0
  O  O22  1  0.81287725  0.20097383  0.54131906  1.0
  O  O23  1  0.31287725  0.29902617  0.45868094  1.0
  O  O24  1  0.04259794  0.93562672  0.69184898  1.0
  O  O25  1  0.54259794  0.56437328  0.30815102  1.0
  O  O26  1  0.95740206  0.43562672  0.80815102  1.0
  O  O27  1  0.45740206  0.06437328  0.19184898  1.0
  O  O28  1  0.72391139  0.71876486  0.63569178  1.0
  O  O29  1  0.22391139  0.78123514  0.36430822  1.0
  O  O30  1  0.27608861  0.21876486  0.86430822  1.0
  O  O31  1  0.77608861  0.28123514  0.13569178  1.0
  O  O32  1  0.48400385  0.89270716  0.81022085  1.0
  O  O33  1  0.98400385  0.60729284  0.18977915  1.0
  O  O34  1  0.51599615  0.39270716  0.68977915  1.0
  O  O35  1  0.01599615  0.10729284  0.31022085  1.0
  Cu  Cu36  1  0.22726215  0.96115257  0.90209142  1.0
  Cu  Cu37  1  0.72726215  0.53884743  0.09790858  1.0
  Cu  Cu38  1  0.77273785  0.46115257  0.59790858  1.0
  Cu  Cu39  1  0.27273785  0.03884743  0.40209142  1.0
  Se  Se40  1  0.47783452  0.79361560  0.64083270  1.0
  Se  Se41  1  0.97783452  0.70638440  0.35916730  1.0
  Se  Se42  1  0.52216548  0.29361560  0.85916730  1.0
  Se  Se43  1  0.02216548  0.20638440  0.14083270  1.0
