# generated using pymatgen
data_V2Zn2O7
_symmetry_space_group_name_H-M   'P 1'
_cell_length_a   5.67415235
_cell_length_b   5.67415235
_cell_length_c   10.25771482
_cell_angle_alpha   75.18410151
_cell_angle_beta   104.81589849
_cell_angle_gamma   84.92580857
_symmetry_Int_Tables_number   1
_chemical_formula_structural   V2Zn2O7
_chemical_formula_sum   'V4 Zn4 O14'
_cell_volume   304.45207479
_cell_formula_units_Z   2
loop_
 _symmetry_equiv_pos_site_id
 _symmetry_equiv_pos_as_xyz
  1  'x, y, z'
loop_
 _atom_site_type_symbol
 _atom_site_label
 _atom_site_symmetry_multiplicity
 _atom_site_fract_x
 _atom_site_fract_y
 _atom_site_fract_z
 _atom_site_occupancy
  V  V0  1  1.79743594  0.18732985  0.29257965  1.0
  V  V1  1  0.81267015  -0.79743594  0.79257965  1.0
  V  V2  1  1.18732985  0.79743594  0.20742035  1.0
  V  V3  1  0.20256406  -0.18732985  0.70742035  1.0
  Zn  Zn4  1  1.38126089  0.27079636  0.47714550  1.0
  Zn  Zn5  1  0.72920364  -0.38126089  0.97714550  1.0
  Zn  Zn6  1  1.27079636  0.38126089  0.02285450  1.0
  Zn  Zn7  1  0.61873911  -0.27079636  0.52285450  1.0
  O  O8  1  1.60757670  0.09117462  0.39583658  1.0
  O  O9  1  0.90882538  -0.60757670  0.89583658  1.0
  O  O10  1  1.09117462  0.60757670  0.10416342  1.0
  O  O11  1  0.39242330  -0.09117462  0.60416342  1.0
  O  O12  1  0.30196383  0.02641432  0.11905703  1.0
  O  O13  1  0.97358568  0.69803617  0.61905703  1.0
  O  O14  1  1.02641432  -0.69803617  0.38094297  1.0
  O  O15  1  1.69803617  -0.02641433  0.88094297  1.0
  O  O16  1  1.62926418  0.40820016  0.13741496  1.0
  O  O17  1  0.59179984  -0.62926418  0.63741496  1.0
  O  O18  1  1.40820016  0.62926418  0.36258504  1.0
  O  O19  1  0.37073582  -0.40820016  0.86258504  1.0
  O  O20  1  0.93032644  -0.06967356  0.25000000  1.0
  O  O21  1  1.06967356  0.06967356  0.75000000  1.0
