# generated using pymatgen
data_K2NaBP2
_symmetry_space_group_name_H-M   'P 1'
_cell_length_a   6.82433203
_cell_length_b   6.82433203
_cell_length_c   12.14047782
_cell_angle_alpha   61.56324780
_cell_angle_beta   118.43675220
_cell_angle_gamma   136.92947280
_symmetry_Int_Tables_number   1
_chemical_formula_structural   K2NaBP2
_chemical_formula_sum   'K4 Na2 B2 P4'
_cell_volume   331.68085907
_cell_formula_units_Z   2
loop_
 _symmetry_equiv_pos_site_id
 _symmetry_equiv_pos_as_xyz
  1  'x, y, z'
loop_
 _atom_site_type_symbol
 _atom_site_label
 _atom_site_symmetry_multiplicity
 _atom_site_fract_x
 _atom_site_fract_y
 _atom_site_fract_z
 _atom_site_occupancy
  K  K0  1  0.67638277  0.32361723  0.59069912  1.0
  K  K1  1  1.32361723  -0.32361723  0.40930088  1.0
  K  K2  1  1.48157602  -0.48157602  0.82078729  1.0
  K  K3  1  0.51842398  0.48157602  0.17921271  1.0
  Na  Na4  1  0.20268467  -0.20268467  0.86729667  1.0
  Na  Na5  1  0.79731533  -0.79731533  0.13270333  1.0
  B  B6  1  0.00000000  -0.00000000  0.50000000  1.0
  B  B7  1  0.00000000  0.00000000  0.00000000  1.0
  P  P8  1  0.96787183  -0.96787183  0.62682084  1.0
  P  P9  1  0.03212817  -0.03212817  0.37317916  1.0
  P  P10  1  0.83676599  0.16323401  0.91174385  1.0
  P  P11  1  1.16323401  -0.16323401  0.08825615  1.0
