# generated using pymatgen
data_LaCu3(RuO3)4
_symmetry_space_group_name_H-M   'P 1'
_cell_length_a   6.52137518
_cell_length_b   6.52137518
_cell_length_c   6.52137518
_cell_angle_alpha   109.47122063
_cell_angle_beta   109.47122063
_cell_angle_gamma   109.47122063
_symmetry_Int_Tables_number   1
_chemical_formula_structural   LaCu3(RuO3)4
_chemical_formula_sum   'La1 Cu3 Ru4 O12'
_cell_volume   213.49891265
_cell_formula_units_Z   1
loop_
 _symmetry_equiv_pos_site_id
 _symmetry_equiv_pos_as_xyz
  1  'x, y, z'
loop_
 _atom_site_type_symbol
 _atom_site_label
 _atom_site_symmetry_multiplicity
 _atom_site_fract_x
 _atom_site_fract_y
 _atom_site_fract_z
 _atom_site_occupancy
  La  La0  1  0.00000000  0.00000000  0.00000000  1.0
  Cu  Cu1  1  0.50000000  0.50000000  -0.00000000  1.0
  Cu  Cu2  1  -0.00000000  0.50000000  0.50000000  1.0
  Cu  Cu3  1  0.50000000  0.00000000  0.50000000  1.0
  Ru  Ru4  1  0.50000000  1.00000000  1.00000000  1.0
  Ru  Ru5  1  0.50000000  0.50000000  0.50000000  1.0
  Ru  Ru6  1  1.00000000  1.00000000  0.50000000  1.0
  Ru  Ru7  1  1.00000000  0.50000000  1.00000000  1.0
  O  O8  1  0.82794095  1.30664569  1.13458664  1.0
  O  O9  1  0.82794095  0.69335431  0.52129526  1.0
  O  O10  1  0.17205905  0.30664569  0.47870474  1.0
  O  O11  1  0.17205905  0.69335431  0.86541336  1.0
  O  O12  1  0.52129526  0.82794095  0.69335431  1.0
  O  O13  1  1.13458664  0.82794095  1.30664569  1.0
  O  O14  1  0.69335431  0.86541336  0.17205905  1.0
  O  O15  1  0.69335431  0.52129526  0.82794095  1.0
  O  O16  1  0.86541336  0.17205905  0.69335431  1.0
  O  O17  1  0.47870474  0.17205905  0.30664569  1.0
  O  O18  1  0.30664569  0.47870474  0.17205905  1.0
  O  O19  1  1.30664569  1.13458664  0.82794095  1.0
