# generated using pymatgen
data_YSb(PbO3)2
_symmetry_space_group_name_H-M   'P 1'
_cell_length_a   5.91806251
_cell_length_b   5.93915561
_cell_length_c   10.25307931
_cell_angle_alpha   90.00000000
_cell_angle_beta   125.14787643
_cell_angle_gamma   90.00000000
_symmetry_Int_Tables_number   1
_chemical_formula_structural   YSb(PbO3)2
_chemical_formula_sum   'Y2 Sb2 Pb4 O12'
_cell_volume   294.67010548
_cell_formula_units_Z   2
loop_
 _symmetry_equiv_pos_site_id
 _symmetry_equiv_pos_as_xyz
  1  'x, y, z'
loop_
 _atom_site_type_symbol
 _atom_site_label
 _atom_site_symmetry_multiplicity
 _atom_site_fract_x
 _atom_site_fract_y
 _atom_site_fract_z
 _atom_site_occupancy
  Y  Y0  1  0.50000000  0.00000000  0.50000000  1.0
  Y  Y1  1  0.50000000  0.50000000  -0.00000000  1.0
  Sb  Sb2  1  0.00000000  0.00000000  0.00000000  1.0
  Sb  Sb3  1  -0.00000000  0.50000000  0.50000000  1.0
  Pb  Pb4  1  0.75844945  0.47470602  0.75249819  1.0
  Pb  Pb5  1  0.75844945  1.02529398  0.25249819  1.0
  Pb  Pb6  1  0.24155055  -0.02529398  0.74750181  1.0
  Pb  Pb7  1  0.24155055  0.52529398  0.24750181  1.0
  O  O8  1  0.23096840  0.20296750  0.96135526  1.0
  O  O9  1  0.23096840  0.29703250  0.46135526  1.0
  O  O10  1  0.76903160  0.70296750  0.53864474  1.0
  O  O11  1  0.76903160  0.79703250  0.03864474  1.0
  O  O12  1  0.16050560  0.72619282  0.96307486  1.0
  O  O13  1  0.16050560  0.77380718  0.46307486  1.0
  O  O14  1  0.83949440  0.22619282  0.53692514  1.0
  O  O15  1  0.83949440  0.27380718  0.03692514  1.0
  O  O16  1  0.69147839  0.01451172  0.76413415  1.0
  O  O17  1  0.69147839  0.48548828  0.26413415  1.0
  O  O18  1  0.30852161  0.51451172  0.73586585  1.0
  O  O19  1  0.30852161  0.98548828  0.23586585  1.0
