# generated using pymatgen
data_CaCeO3
_symmetry_space_group_name_H-M   'P 1'
_cell_length_a   8.40102406
_cell_length_b   8.61748022
_cell_length_c   8.51420072
_cell_angle_alpha   90.00000000
_cell_angle_beta   89.55973745
_cell_angle_gamma   90.00000000
_symmetry_Int_Tables_number   1
_chemical_formula_structural   CaCeO3
_chemical_formula_sum   'Ca8 Ce8 O24'
_cell_volume   616.37297214
_cell_formula_units_Z   8
loop_
 _symmetry_equiv_pos_site_id
 _symmetry_equiv_pos_as_xyz
  1  'x, y, z'
loop_
 _atom_site_type_symbol
 _atom_site_label
 _atom_site_symmetry_multiplicity
 _atom_site_fract_x
 _atom_site_fract_y
 _atom_site_fract_z
 _atom_site_occupancy
  Ca  Ca0  1  0.72666325  0.75000000  0.77772107  1.0
  Ca  Ca1  1  0.27333675  0.25000000  0.22227893  1.0
  Ca  Ca2  1  0.76428150  0.75000000  0.24358862  1.0
  Ca  Ca3  1  0.23571850  0.25000000  0.75641138  1.0
  Ca  Ca4  1  0.24375959  0.75000000  0.69804626  1.0
  Ca  Ca5  1  0.75624041  0.25000000  0.30195374  1.0
  Ca  Ca6  1  0.31012605  0.75000000  0.25377666  1.0
  Ca  Ca7  1  0.68987395  0.25000000  0.74622334  1.0
  Ce  Ce8  1  0.50000000  0.00000000  0.00000000  1.0
  Ce  Ce9  1  0.50000000  0.50000000  0.00000000  1.0
  Ce  Ce10  1  0.50000000  0.00000000  0.50000000  1.0
  Ce  Ce11  1  0.50000000  0.50000000  0.50000000  1.0
  Ce  Ce12  1  0.00000000  0.00000000  0.50000000  1.0
  Ce  Ce13  1  0.00000000  0.50000000  0.50000000  1.0
  Ce  Ce14  1  0.00000000  0.00000000  0.00000000  1.0
  Ce  Ce15  1  0.00000000  0.50000000  0.00000000  1.0
  O  O16  1  0.90558958  0.98172535  0.25000700  1.0
  O  O17  1  0.90558958  0.51827465  0.25000700  1.0
  O  O18  1  0.09441042  0.48172535  0.74999300  1.0
  O  O19  1  0.09441042  0.01827465  0.74999300  1.0
  O  O20  1  0.74831398  0.04164686  0.91509104  1.0
  O  O21  1  0.74831398  0.45835314  0.91509104  1.0
  O  O22  1  0.25168602  0.54164686  0.08490896  1.0
  O  O23  1  0.25168602  -0.04164686  0.08490896  1.0
  O  O24  1  0.74985390  0.08147390  0.53933274  1.0
  O  O25  1  0.74985390  0.41852610  0.53933274  1.0
  O  O26  1  0.25014610  0.58147390  0.46066726  1.0
  O  O27  1  0.25014610  -0.08147390  0.46066726  1.0
  O  O28  1  0.47369987  0.91577361  0.74797201  1.0
  O  O29  1  0.47369987  0.58422639  0.74797201  1.0
  O  O30  1  0.52630013  0.41577361  0.25202799  1.0
  O  O31  1  0.52630013  0.08422639  0.25202799  1.0
  O  O32  1  -0.06946996  0.75000000  0.97054900  1.0
  O  O33  1  0.06946996  0.25000000  0.02945100  1.0
  O  O34  1  -0.06948680  0.75000000  0.56395508  1.0
  O  O35  1  0.06948680  0.25000000  0.43604492  1.0
  O  O36  1  0.55567417  0.75000000  0.42126252  1.0
  O  O37  1  0.44432583  0.25000000  0.57873748  1.0
  O  O38  1  0.55922675  0.75000000  0.06316741  1.0
  O  O39  1  0.44077325  0.25000000  0.93683259  1.0
