# generated using pymatgen
data_Tl5Se2Cl
_symmetry_space_group_name_H-M   'P 1'
_cell_length_a   8.77546864
_cell_length_b   8.77546864
_cell_length_c   13.37419789
_cell_angle_alpha   90.00000000
_cell_angle_beta   90.00000000
_cell_angle_gamma   90.00000000
_symmetry_Int_Tables_number   1
_chemical_formula_structural   Tl5Se2Cl
_chemical_formula_sum   'Tl20 Se8 Cl4'
_cell_volume   1029.93159736
_cell_formula_units_Z   4
loop_
 _symmetry_equiv_pos_site_id
 _symmetry_equiv_pos_as_xyz
  1  'x, y, z'
loop_
 _atom_site_type_symbol
 _atom_site_label
 _atom_site_symmetry_multiplicity
 _atom_site_fract_x
 _atom_site_fract_y
 _atom_site_fract_z
 _atom_site_occupancy
  Tl  Tl0  1  0.00000000  0.50000000  0.20132593  1.0
  Tl  Tl1  1  0.00000000  0.50000000  0.70132593  1.0
  Tl  Tl2  1  0.50000000  0.00000000  0.79867407  1.0
  Tl  Tl3  1  0.50000000  0.00000000  0.29867407  1.0
  Tl  Tl4  1  0.83245873  0.12293913  0.10809389  1.0
  Tl  Tl5  1  0.16754127  0.12293913  0.60809389  1.0
  Tl  Tl6  1  0.83245873  0.87706087  0.60809389  1.0
  Tl  Tl7  1  0.16754127  0.87706087  0.10809389  1.0
  Tl  Tl8  1  0.62293913  0.33245873  0.60809389  1.0
  Tl  Tl9  1  0.37706087  0.33245873  0.10809389  1.0
  Tl  Tl10  1  0.62293913  0.66754127  0.10809389  1.0
  Tl  Tl11  1  0.37706087  0.66754127  0.60809389  1.0
  Tl  Tl12  1  0.66754127  0.37706087  0.89190611  1.0
  Tl  Tl13  1  0.33245873  0.37706087  0.39190611  1.0
  Tl  Tl14  1  0.66754127  0.62293913  0.39190611  1.0
  Tl  Tl15  1  0.33245873  0.62293913  0.89190611  1.0
  Tl  Tl16  1  0.87706087  0.16754127  0.39190611  1.0
  Tl  Tl17  1  0.12293913  0.16754127  0.89190611  1.0
  Tl  Tl18  1  0.87706087  0.83245873  0.89190611  1.0
  Tl  Tl19  1  0.12293913  0.83245873  0.39190611  1.0
  Se  Se20  1  0.66186661  0.33813339  0.25000000  1.0
  Se  Se21  1  0.33813339  0.33813339  0.75000000  1.0
  Se  Se22  1  0.66186661  0.66186661  0.75000000  1.0
  Se  Se23  1  0.33813339  0.66186661  0.25000000  1.0
  Se  Se24  1  0.83813339  0.16186661  0.75000000  1.0
  Se  Se25  1  0.16186661  0.16186661  0.25000000  1.0
  Se  Se26  1  0.83813339  0.83813339  0.25000000  1.0
  Se  Se27  1  0.16186661  0.83813339  0.75000000  1.0
  Cl  Cl28  1  0.00000000  0.50000000  0.95327398  1.0
  Cl  Cl29  1  0.00000000  0.50000000  0.45327398  1.0
  Cl  Cl30  1  0.50000000  0.00000000  0.04672602  1.0
  Cl  Cl31  1  0.50000000  0.00000000  0.54672602  1.0
