# generated using pymatgen
data_GdGa3Cu
_symmetry_space_group_name_H-M   'P 1'
_cell_length_a   6.06426555
_cell_length_b   6.06426555
_cell_length_c   6.06426555
_cell_angle_alpha   139.88992274
_cell_angle_beta   139.88992274
_cell_angle_gamma   58.02047335
_symmetry_Int_Tables_number   1
_chemical_formula_structural   GdGa3Cu
_chemical_formula_sum   'Gd1 Ga3 Cu1'
_cell_volume   91.74094901
_cell_formula_units_Z   1
loop_
 _symmetry_equiv_pos_site_id
 _symmetry_equiv_pos_as_xyz
  1  'x, y, z'
loop_
 _atom_site_type_symbol
 _atom_site_label
 _atom_site_symmetry_multiplicity
 _atom_site_fract_x
 _atom_site_fract_y
 _atom_site_fract_z
 _atom_site_occupancy
  Gd  Gd0  1  0.58403076  0.58403076  1.00000000  1.0
  Ga  Ga1  1  0.83500184  0.33500184  0.50000000  1.0
  Ga  Ga2  1  0.33500184  0.83500184  0.50000000  1.0
  Ga  Ga3  1  -0.00924955  -0.00924955  -0.00000000  1.0
  Cu  Cu4  1  0.21301512  0.21301512  0.00000000  1.0
