# generated using pymatgen
data_BaGd2Mn2O7
_symmetry_space_group_name_H-M   'P 1'
_cell_length_a   5.59717830
_cell_length_b   5.59717830
_cell_length_c   19.97428212
_cell_angle_alpha   90.00000000
_cell_angle_beta   90.00000000
_cell_angle_gamma   90.00000000
_symmetry_Int_Tables_number   1
_chemical_formula_structural   BaGd2Mn2O7
_chemical_formula_sum   'Ba4 Gd8 Mn8 O28'
_cell_volume   625.76239807
_cell_formula_units_Z   4
loop_
 _symmetry_equiv_pos_site_id
 _symmetry_equiv_pos_as_xyz
  1  'x, y, z'
loop_
 _atom_site_type_symbol
 _atom_site_label
 _atom_site_symmetry_multiplicity
 _atom_site_fract_x
 _atom_site_fract_y
 _atom_site_fract_z
 _atom_site_occupancy
  Ba  Ba0  1  0.24481328  0.24481328  0.50000000  1.0
  Ba  Ba1  1  0.74481328  0.25518672  0.00000000  1.0
  Ba  Ba2  1  0.75518672  0.75518672  0.50000000  1.0
  Ba  Ba3  1  0.25518672  0.74481328  0.00000000  1.0
  Gd  Gd4  1  0.27323392  0.72676608  0.18316204  1.0
  Gd  Gd5  1  0.27323392  0.72676608  0.81683796  1.0
  Gd  Gd6  1  0.77323392  0.77323392  0.68316204  1.0
  Gd  Gd7  1  0.77323392  0.77323392  0.31683796  1.0
  Gd  Gd8  1  0.72676608  0.27323392  0.18316204  1.0
  Gd  Gd9  1  0.72676608  0.27323392  0.81683796  1.0
  Gd  Gd10  1  0.22676608  0.22676608  0.68316204  1.0
  Gd  Gd11  1  0.22676608  0.22676608  0.31683796  1.0
  Mn  Mn12  1  0.25413598  0.74586402  0.39802444  1.0
  Mn  Mn13  1  0.25413598  0.74586402  0.60197556  1.0
  Mn  Mn14  1  0.75413598  0.75413598  0.89802444  1.0
  Mn  Mn15  1  0.75413598  0.75413598  0.10197556  1.0
  Mn  Mn16  1  0.74586402  0.25413598  0.39802444  1.0
  Mn  Mn17  1  0.74586402  0.25413598  0.60197556  1.0
  Mn  Mn18  1  0.24586402  0.24586402  0.89802444  1.0
  Mn  Mn19  1  0.24586402  0.24586402  0.10197556  1.0
  O  O20  1  0.19443072  0.80556928  0.29049635  1.0
  O  O21  1  0.19443072  0.80556928  0.70950365  1.0
  O  O22  1  0.69443072  0.69443072  0.79049635  1.0
  O  O23  1  0.69443072  0.69443072  0.20950365  1.0
  O  O24  1  0.80556928  0.19443072  0.29049635  1.0
  O  O25  1  0.80556928  0.19443072  0.70950365  1.0
  O  O26  1  0.30556928  0.30556928  0.79049635  1.0
  O  O27  1  0.30556928  0.30556928  0.20950365  1.0
  O  O28  1  0.50000000  0.00000000  0.38861852  1.0
  O  O29  1  0.50000000  0.00000000  0.61138148  1.0
  O  O30  1  0.00000000  0.50000000  0.88861852  1.0
  O  O31  1  0.00000000  0.50000000  0.11138148  1.0
  O  O32  1  0.00000000  0.50000000  0.38861852  1.0
  O  O33  1  0.00000000  0.50000000  0.61138148  1.0
  O  O34  1  0.50000000  0.00000000  0.88861852  1.0
  O  O35  1  0.50000000  0.00000000  0.11138148  1.0
  O  O36  1  0.27078466  0.72921534  0.50000000  1.0
  O  O37  1  0.77078466  0.77078466  0.00000000  1.0
  O  O38  1  0.72921534  0.27078466  0.50000000  1.0
  O  O39  1  0.22921534  0.22921534  0.00000000  1.0
  O  O40  1  0.50000000  0.50000000  0.37683002  1.0
  O  O41  1  0.50000000  0.50000000  0.62316998  1.0
  O  O42  1  0.00000000  0.00000000  0.87683002  1.0
  O  O43  1  0.00000000  0.00000000  0.12316998  1.0
  O  O44  1  0.50000000  0.50000000  0.09766388  1.0
  O  O45  1  0.50000000  0.50000000  0.90233612  1.0
  O  O46  1  0.00000000  0.00000000  0.59766388  1.0
  O  O47  1  0.00000000  0.00000000  0.40233612  1.0
