# generated using pymatgen
data_Li13Sn5
_symmetry_space_group_name_H-M   'P 1'
_cell_length_a   4.68881027
_cell_length_b   4.68881027
_cell_length_c   17.09010163
_cell_angle_alpha   90.00000000
_cell_angle_beta   90.00000000
_cell_angle_gamma   120.00000000
_symmetry_Int_Tables_number   1
_chemical_formula_structural   Li13Sn5
_chemical_formula_sum   'Li13 Sn5'
_cell_volume   325.38729910
_cell_formula_units_Z   1
loop_
 _symmetry_equiv_pos_site_id
 _symmetry_equiv_pos_as_xyz
  1  'x, y, z'
loop_
 _atom_site_type_symbol
 _atom_site_label
 _atom_site_symmetry_multiplicity
 _atom_site_fract_x
 _atom_site_fract_y
 _atom_site_fract_z
 _atom_site_occupancy
  Li  Li0  1  0.33333333  0.66666667  0.05331915  1.0
  Li  Li1  1  0.66666667  0.33333333  0.94668085  1.0
  Li  Li2  1  0.33333333  0.66666667  0.55411616  1.0
  Li  Li3  1  0.66666667  0.33333333  0.44588384  1.0
  Li  Li4  1  0.33333333  0.66666667  0.71762044  1.0
  Li  Li5  1  0.66666667  0.33333333  0.28237956  1.0
  Li  Li6  1  0.33333333  0.66666667  0.88910308  1.0
  Li  Li7  1  0.66666667  0.33333333  0.11089692  1.0
  Li  Li8  1  -0.00000000  -0.00000000  0.16320934  1.0
  Li  Li9  1  0.00000000  0.00000000  0.83679066  1.0
  Li  Li10  1  0.00000000  0.00000000  0.32759662  1.0
  Li  Li11  1  0.00000000  0.00000000  0.67240338  1.0
  Li  Li12  1  0.00000000  0.00000000  0.50000000  1.0
  Sn  Sn13  1  0.33333333  0.66666667  0.22145312  1.0
  Sn  Sn14  1  0.66666667  0.33333333  0.77854688  1.0
  Sn  Sn15  1  0.33333333  0.66666667  0.39188307  1.0
  Sn  Sn16  1  0.66666667  0.33333333  0.60811693  1.0
  Sn  Sn17  1  -0.00000000  0.00000000  0.00000000  1.0
