# generated using pymatgen
data_Sc3(CuGe)4
_symmetry_space_group_name_H-M   'P 1'
_cell_length_a   7.72341957
_cell_length_b   7.72341957
_cell_length_c   7.72341957
_cell_angle_alpha   149.74278070
_cell_angle_beta   129.72472969
_cell_angle_gamma   59.80981638
_symmetry_Int_Tables_number   1
_chemical_formula_structural   Sc3(CuGe)4
_chemical_formula_sum   'Sc3 Cu4 Ge4'
_cell_volume   177.10529681
_cell_formula_units_Z   1
loop_
 _symmetry_equiv_pos_site_id
 _symmetry_equiv_pos_as_xyz
  1  'x, y, z'
loop_
 _atom_site_type_symbol
 _atom_site_label
 _atom_site_symmetry_multiplicity
 _atom_site_fract_x
 _atom_site_fract_y
 _atom_site_fract_z
 _atom_site_occupancy
  Sc  Sc0  1  0.00000000  0.00000000  0.00000000  1.0
  Sc  Sc1  1  0.62650548  0.12650548  0.50000000  1.0
  Sc  Sc2  1  0.37349452  0.87349452  0.50000000  1.0
  Cu  Cu3  1  0.36574133  0.67179551  0.69394582  1.0
  Cu  Cu4  1  1.02215030  0.32820449  0.69394582  1.0
  Cu  Cu5  1  0.97784970  0.67179551  1.30605418  1.0
  Cu  Cu6  1  0.63425867  0.32820449  0.30605418  1.0
  Ge  Ge7  1  0.30606909  0.50000000  0.80606909  1.0
  Ge  Ge8  1  0.69393091  0.50000000  1.19393091  1.0
  Ge  Ge9  1  0.78281538  0.78281538  1.00000000  1.0
  Ge  Ge10  1  0.21718462  0.21718462  0.00000000  1.0
