# generated using pymatgen
data_Na2Cd3(P2O7)2
_symmetry_space_group_name_H-M   'P 1'
_cell_length_a   5.74469063
_cell_length_b   7.97010379
_cell_length_c   7.16370860
_cell_angle_alpha   77.17012547
_cell_angle_beta   68.27932522
_cell_angle_gamma   82.35949209
_symmetry_Int_Tables_number   1
_chemical_formula_structural   Na2Cd3(P2O7)2
_chemical_formula_sum   'Na2 Cd3 P4 O14'
_cell_volume   296.63335665
_cell_formula_units_Z   1
loop_
 _symmetry_equiv_pos_site_id
 _symmetry_equiv_pos_as_xyz
  1  'x, y, z'
loop_
 _atom_site_type_symbol
 _atom_site_label
 _atom_site_symmetry_multiplicity
 _atom_site_fract_x
 _atom_site_fract_y
 _atom_site_fract_z
 _atom_site_occupancy
  Na  Na0  1  -0.40876554  -0.81706647  -0.49297476  1.0
  Na  Na1  1  -0.59123446  -0.18293353  -0.50702524  1.0
  Cd  Cd2  1  -0.81178649  -0.19483406  -0.96690093  1.0
  Cd  Cd3  1  -0.18821351  -0.80516594  -0.03309907  1.0
  Cd  Cd4  1  -0.00000000  -0.50000000  -0.50000000  1.0
  P  P5  1  -0.79928176  -0.83223195  -0.76888471  1.0
  P  P6  1  -0.20071824  -0.16776805  -0.23111529  1.0
  P  P7  1  -0.34865000  -0.42240461  -0.82566044  1.0
  P  P8  1  -0.65135000  -0.57759539  -0.17433956  1.0
  O  O9  1  -0.96246340  -0.77475710  -0.56844163  1.0
  O  O10  1  -0.03753660  -0.22524290  -0.43155837  1.0
  O  O11  1  -0.93955311  -0.93911971  -0.84682256  1.0
  O  O12  1  -0.06044689  -0.06088029  -0.15317744  1.0
  O  O13  1  -0.81208651  -0.65617883  -0.26366272  1.0
  O  O14  1  -0.18791349  -0.34382117  -0.73633728  1.0
  O  O15  1  -0.74464854  -0.64882086  -0.93067471  1.0
  O  O16  1  -0.25535146  -0.35117914  -0.06932529  1.0
  O  O17  1  -0.62821552  -0.35400325  -0.73890159  1.0
  O  O18  1  -0.37178448  -0.64599675  -0.26109841  1.0
  O  O19  1  -0.54711270  -0.92402969  -0.76517772  1.0
  O  O20  1  -0.45288730  -0.07597031  -0.23482228  1.0
  O  O21  1  -0.31684692  -0.61702063  -0.80056517  1.0
  O  O22  1  -0.68315308  -0.38297937  -0.19943483  1.0
