# generated using pymatgen
data_Ta4S9Br8
_symmetry_space_group_name_H-M   'P 1'
_cell_length_a   10.24380871
_cell_length_b   10.24380871
_cell_length_c   10.24380871
_cell_angle_alpha   97.58363558
_cell_angle_beta   97.58363558
_cell_angle_gamma   137.39630537
_symmetry_Int_Tables_number   1
_chemical_formula_structural   Ta4S9Br8
_chemical_formula_sum   'Ta4 S9 Br8'
_cell_volume   677.93877680
_cell_formula_units_Z   1
loop_
 _symmetry_equiv_pos_site_id
 _symmetry_equiv_pos_as_xyz
  1  'x, y, z'
loop_
 _atom_site_type_symbol
 _atom_site_label
 _atom_site_symmetry_multiplicity
 _atom_site_fract_x
 _atom_site_fract_y
 _atom_site_fract_z
 _atom_site_occupancy
  Ta  Ta0  1  1.71339015  0.88771903  0.82567112  1.0
  Ta  Ta1  1  0.88771903  0.71339015  0.82567112  1.0
  Ta  Ta2  1  0.88771903  1.06204791  1.17432888  1.0
  Ta  Ta3  1  1.06204791  0.88771903  0.17432888  1.0
  S  S4  1  0.52837086  0.52837086  0.74223710  1.0
  S  S5  1  0.52837086  0.78613375  1.00000000  1.0
  S  S6  1  0.78613375  1.52837086  1.00000000  1.0
  S  S7  1  0.78613375  0.78613375  0.25776290  1.0
  S  S8  1  0.70439022  0.70439022  0.62524056  1.0
  S  S9  1  0.70439022  1.07914966  1.00000000  1.0
  S  S10  1  1.07914966  1.70439022  1.00000000  1.0
  S  S11  1  1.07914966  1.07914966  0.37475944  1.0
  S  S12  1  -0.00941211  -0.00941211  0.00000000  1.0
  Br  Br13  1  0.99001155  0.21252395  0.77748760  1.0
  Br  Br14  1  1.21252395  0.99001155  0.77748760  1.0
  Br  Br15  1  1.21252395  1.43503635  1.22251240  1.0
  Br  Br16  1  0.43503635  0.21252395  0.22251240  1.0
  Br  Br17  1  1.41017384  0.75448780  0.65568604  1.0
  Br  Br18  1  0.75448780  0.41017384  0.65568604  1.0
  Br  Br19  1  0.75448780  1.09880176  1.34431396  1.0
  Br  Br20  1  1.09880176  0.75448780  0.34431396  1.0
