# generated using pymatgen
data_Yb2O3
_symmetry_space_group_name_H-M   'P 1'
_cell_length_a   9.12932464
_cell_length_b   9.12932464
_cell_length_c   9.12932464
_cell_angle_alpha   109.47122063
_cell_angle_beta   109.47122063
_cell_angle_gamma   109.47122063
_symmetry_Int_Tables_number   1
_chemical_formula_structural   Yb2O3
_chemical_formula_sum   'Yb16 O24'
_cell_volume   585.72540633
_cell_formula_units_Z   8
loop_
 _symmetry_equiv_pos_site_id
 _symmetry_equiv_pos_as_xyz
  1  'x, y, z'
loop_
 _atom_site_type_symbol
 _atom_site_label
 _atom_site_symmetry_multiplicity
 _atom_site_fract_x
 _atom_site_fract_y
 _atom_site_fract_z
 _atom_site_occupancy
  Yb  Yb0  1  1.71737720  1.46737720  1.25000000  1.0
  Yb  Yb1  1  1.21737720  0.96737720  1.25000000  1.0
  Yb  Yb2  1  0.75000000  0.78262280  0.03262280  1.0
  Yb  Yb3  1  0.25000000  1.21737720  0.96737720  1.0
  Yb  Yb4  1  0.25000000  0.71737720  0.46737720  1.0
  Yb  Yb5  1  0.75000000  1.28262280  0.53262280  1.0
  Yb  Yb6  1  1.46737720  1.25000000  1.71737720  1.0
  Yb  Yb7  1  0.96737720  0.25000000  1.21737720  1.0
  Yb  Yb8  1  0.03262280  0.75000000  0.78262280  1.0
  Yb  Yb9  1  0.53262280  0.75000000  0.28262280  1.0
  Yb  Yb10  1  0.28262280  0.53262280  0.75000000  1.0
  Yb  Yb11  1  0.78262280  1.03262280  0.75000000  1.0
  Yb  Yb12  1  1.00000000  0.50000000  1.00000000  1.0
  Yb  Yb13  1  0.50000000  0.50000000  0.50000000  1.0
  Yb  Yb14  1  1.00000000  1.00000000  1.50000000  1.0
  Yb  Yb15  1  1.50000000  1.00000000  1.00000000  1.0
  O  O16  1  0.54221349  0.53331286  0.77095587  1.0
  O  O17  1  1.04221349  1.27125762  1.00890063  1.0
  O  O18  1  0.26235699  0.77125762  0.72904413  1.0
  O  O19  1  0.76235699  1.03331286  0.49109937  1.0
  O  O20  1  0.50890063  1.23764301  0.96668714  1.0
  O  O21  1  1.00890063  1.04221349  1.27125762  1.0
  O  O22  1  0.77095587  0.54221349  0.53331286  1.0
  O  O23  1  1.27095587  0.73764301  1.22874238  1.0
  O  O24  1  0.77125762  0.72904413  0.26235699  1.0
  O  O25  1  1.27125762  1.00890063  1.04221349  1.0
  O  O26  1  0.96668714  1.50890063  1.23764301  1.0
  O  O27  1  1.46668714  1.22904413  1.45778651  1.0
  O  O28  1  1.73764301  1.22874238  1.27095587  1.0
  O  O29  1  1.23764301  0.96668714  1.50890063  1.0
  O  O30  1  1.45778651  1.46668714  1.22904413  1.0
  O  O31  1  0.95778651  0.72874238  0.99109937  1.0
  O  O32  1  1.22904413  1.45778651  1.46668714  1.0
  O  O33  1  0.72904413  1.26235699  0.77125762  1.0
  O  O34  1  1.49109937  0.76235699  1.03331286  1.0
  O  O35  1  0.99109937  0.95778651  0.72874238  1.0
  O  O36  1  1.03331286  0.49109937  0.76235699  1.0
  O  O37  1  0.53331286  0.77095587  0.54221349  1.0
  O  O38  1  1.22874238  1.27095587  1.73764301  1.0
  O  O39  1  0.72874238  0.99109937  0.95778651  1.0
