# generated using pymatgen
data_CdHgSBr
_symmetry_space_group_name_H-M   'P 1'
_cell_length_a   10.05476454
_cell_length_b   10.05476454
_cell_length_c   5.44981153
_cell_angle_alpha   90.00000000
_cell_angle_beta   90.00000000
_cell_angle_gamma   121.53328669
_symmetry_Int_Tables_number   1
_chemical_formula_structural   CdHgSBr
_chemical_formula_sum   'Cd4 Hg4 S4 Br4'
_cell_volume   469.60894924
_cell_formula_units_Z   4
loop_
 _symmetry_equiv_pos_site_id
 _symmetry_equiv_pos_as_xyz
  1  'x, y, z'
loop_
 _atom_site_type_symbol
 _atom_site_label
 _atom_site_symmetry_multiplicity
 _atom_site_fract_x
 _atom_site_fract_y
 _atom_site_fract_z
 _atom_site_occupancy
  Cd  Cd0  1  -0.11152327  0.59684263  0.00000000  1.0
  Cd  Cd1  1  0.59684263  0.88847673  0.00000000  1.0
  Cd  Cd2  1  0.40315737  1.11152327  0.00000000  1.0
  Cd  Cd3  1  0.11152327  0.40315737  0.00000000  1.0
  Hg  Hg4  1  0.11958561  0.88041439  0.50000000  1.0
  Hg  Hg5  1  -0.11958561  0.11958561  0.50000000  1.0
  Hg  Hg6  1  0.64023444  0.64023444  0.50000000  1.0
  Hg  Hg7  1  0.35976556  0.35976556  0.50000000  1.0
  S  S8  1  -0.10858766  0.62698595  0.50000000  1.0
  S  S9  1  0.62698595  0.89141234  0.50000000  1.0
  S  S10  1  0.37301405  1.10858766  0.50000000  1.0
  S  S11  1  0.10858766  0.37301405  0.50000000  1.0
  Br  Br12  1  0.25415447  0.74584553  0.00000000  1.0
  Br  Br13  1  -0.25415447  0.25415447  0.00000000  1.0
  Br  Br14  1  0.50000000  0.50000000  0.00000000  1.0
  Br  Br15  1  0.00000000  0.00000000  0.00000000  1.0
