# generated using pymatgen
data_Cs3Yb2Br9
_symmetry_space_group_name_H-M   'P 1'
_cell_length_a   10.43169702
_cell_length_b   10.43169702
_cell_length_c   10.43169702
_cell_angle_alpha   82.41732314
_cell_angle_beta   82.41732314
_cell_angle_gamma   82.41732314
_symmetry_Int_Tables_number   1
_chemical_formula_structural   Cs3Yb2Br9
_chemical_formula_sum   'Cs6 Yb4 Br18'
_cell_volume   1107.80913954
_cell_formula_units_Z   2
loop_
 _symmetry_equiv_pos_site_id
 _symmetry_equiv_pos_as_xyz
  1  'x, y, z'
loop_
 _atom_site_type_symbol
 _atom_site_label
 _atom_site_symmetry_multiplicity
 _atom_site_fract_x
 _atom_site_fract_y
 _atom_site_fract_z
 _atom_site_occupancy
  Cs  Cs0  1  0.58958572  0.25000000  -0.08958572  1.0
  Cs  Cs1  1  1.08958572  -0.58958572  -0.25000000  1.0
  Cs  Cs2  1  0.75000000  0.08958572  -0.58958572  1.0
  Cs  Cs3  1  0.25000000  0.91041428  -0.41041428  1.0
  Cs  Cs4  1  0.41041428  -0.25000000  0.08958572  1.0
  Cs  Cs5  1  0.91041428  -0.41041428  0.25000000  1.0
  Yb  Yb6  1  0.34436408  0.34436408  -0.65563592  1.0
  Yb  Yb7  1  0.84436408  0.84436408  -0.15563592  1.0
  Yb  Yb8  1  1.15563592  1.15563592  0.15563592  1.0
  Yb  Yb9  1  0.65563592  0.65563592  -0.34436408  1.0
  Br  Br10  1  0.23540440  0.58065357  -0.58578729  1.0
  Br  Br11  1  0.73540440  -0.08578729  0.08065357  1.0
  Br  Br12  1  1.08578729  -0.08065357  -0.73540440  1.0
  Br  Br13  1  0.58578729  0.76459560  -0.58065357  1.0
  Br  Br14  1  0.41934643  0.58578729  -0.23540440  1.0
  Br  Br15  1  0.91934643  -0.73540440  0.08578729  1.0
  Br  Br16  1  0.76459560  0.41934643  -0.41421271  1.0
  Br  Br17  1  0.26459560  0.08578729  -0.08065357  1.0
  Br  Br18  1  0.41421271  0.23540440  -0.41934643  1.0
  Br  Br19  1  0.91421271  0.08065357  -0.26459560  1.0
  Br  Br20  1  1.08065357  -0.26459560  -0.08578729  1.0
  Br  Br21  1  0.58065357  0.41421271  -0.76459560  1.0
  Br  Br22  1  1.09300309  1.25000000  0.40699691  1.0
  Br  Br23  1  0.59300309  0.90699691  -0.25000000  1.0
  Br  Br24  1  0.75000000  0.59300309  -0.09300309  1.0
  Br  Br25  1  1.25000000  1.40699691  0.09300309  1.0
  Br  Br26  1  0.90699691  0.75000000  -0.40699691  1.0
  Br  Br27  1  1.40699691  1.09300309  0.25000000  1.0
