# generated using pymatgen
data_BaMn3(P2O7)2
_symmetry_space_group_name_H-M   'P 1'
_cell_length_a   7.85180963
_cell_length_b   8.04487285
_cell_length_c   9.87846868
_cell_angle_alpha   90.00000000
_cell_angle_beta   112.45173110
_cell_angle_gamma   90.00000000
_symmetry_Int_Tables_number   1
_chemical_formula_structural   BaMn3(P2O7)2
_chemical_formula_sum   'Ba2 Mn6 P8 O28'
_cell_volume   576.69380656
_cell_formula_units_Z   2
loop_
 _symmetry_equiv_pos_site_id
 _symmetry_equiv_pos_as_xyz
  1  'x, y, z'
loop_
 _atom_site_type_symbol
 _atom_site_label
 _atom_site_symmetry_multiplicity
 _atom_site_fract_x
 _atom_site_fract_y
 _atom_site_fract_z
 _atom_site_occupancy
  Ba  Ba0  1  0.00000000  0.00000000  0.00000000  1.0
  Ba  Ba1  1  -0.00000000  0.50000000  0.50000000  1.0
  Mn  Mn2  1  0.50000000  0.00000000  -0.00000000  1.0
  Mn  Mn3  1  0.50000000  0.50000000  0.50000000  1.0
  Mn  Mn4  1  0.69012014  0.12024875  0.53005344  1.0
  Mn  Mn5  1  0.30987986  0.62024875  0.96994656  1.0
  Mn  Mn6  1  0.30987986  0.87975125  0.46994656  1.0
  Mn  Mn7  1  0.69012014  0.37975125  0.03005344  1.0
  P  P8  1  0.60726865  0.70024900  0.80608249  1.0
  P  P9  1  0.39273135  0.20024900  0.69391751  1.0
  P  P10  1  0.39273135  0.29975100  0.19391751  1.0
  P  P11  1  0.60726865  0.79975100  0.30608249  1.0
  P  P12  1  0.88773236  0.05243726  0.29896607  1.0
  P  P13  1  0.11226764  0.55243726  0.20103393  1.0
  P  P14  1  0.11226764  0.94756274  0.70103393  1.0
  P  P15  1  0.88773236  0.44756274  0.79896607  1.0
  O  O16  1  0.12784760  0.67153037  0.08576355  1.0
  O  O17  1  0.87215240  0.17153037  0.41423645  1.0
  O  O18  1  0.87215240  0.32846963  0.91423645  1.0
  O  O19  1  0.12784760  0.82846963  0.58576355  1.0
  O  O20  1  0.34961448  0.13182581  0.11575726  1.0
  O  O21  1  0.65038552  0.63182581  0.38424274  1.0
  O  O22  1  0.65038552  0.86817419  0.88424274  1.0
  O  O23  1  0.34961448  0.36817419  0.61575726  1.0
  O  O24  1  0.80872999  0.87182347  0.32288500  1.0
  O  O25  1  0.19127001  0.37182347  0.17711500  1.0
  O  O26  1  0.19127001  0.12817653  0.67711500  1.0
  O  O27  1  0.80872999  0.62817653  0.82288500  1.0
  O  O28  1  0.47359976  0.07760349  0.61327860  1.0
  O  O29  1  0.52640024  0.57760349  0.88672140  1.0
  O  O30  1  0.52640024  0.92239651  0.38672140  1.0
  O  O31  1  0.47359976  0.42239651  0.11327860  1.0
  O  O32  1  0.76699482  0.11129132  0.14012754  1.0
  O  O33  1  0.23300518  0.61129132  0.35987246  1.0
  O  O34  1  0.23300518  0.88870868  0.85987246  1.0
  O  O35  1  0.76699481  0.38870868  0.64012754  1.0
  O  O36  1  0.49722535  0.70626493  0.63917934  1.0
  O  O37  1  0.50277465  0.20626493  0.86082066  1.0
  O  O38  1  0.50277465  0.29373507  0.36082066  1.0
  O  O39  1  0.49722535  0.79373507  0.13917934  1.0
  O  O40  1  0.08315207  0.01200682  0.30809270  1.0
  O  O41  1  0.91684793  0.51200682  0.19190730  1.0
  O  O42  1  0.91684793  0.98799318  0.69190730  1.0
  O  O43  1  0.08315207  0.48799318  0.80809270  1.0
