# generated using pymatgen
data_Lu2Mo4O15
_symmetry_space_group_name_H-M   'P 1'
_cell_length_a   6.91481819
_cell_length_b   9.58005211
_cell_length_c   10.63873999
_cell_angle_alpha   90.00000000
_cell_angle_beta   104.51269968
_cell_angle_gamma   90.00000000
_symmetry_Int_Tables_number   1
_chemical_formula_structural   Lu2Mo4O15
_chemical_formula_sum   'Lu4 Mo8 O30'
_cell_volume   682.26880832
_cell_formula_units_Z   2
loop_
 _symmetry_equiv_pos_site_id
 _symmetry_equiv_pos_as_xyz
  1  'x, y, z'
loop_
 _atom_site_type_symbol
 _atom_site_label
 _atom_site_symmetry_multiplicity
 _atom_site_fract_x
 _atom_site_fract_y
 _atom_site_fract_z
 _atom_site_occupancy
  Lu  Lu0  1  0.70687172  0.52348491  0.77555501  1.0
  Lu  Lu1  1  0.70687172  0.97651509  0.27555501  1.0
  Lu  Lu2  1  0.29312828  0.02348491  0.72444499  1.0
  Lu  Lu3  1  0.29312828  0.47651509  0.22444499  1.0
  Mo  Mo4  1  0.88027761  0.90842140  0.84270265  1.0
  Mo  Mo5  1  0.88027761  0.59157860  0.34270265  1.0
  Mo  Mo6  1  0.11972239  0.40842140  0.65729735  1.0
  Mo  Mo7  1  0.11972239  0.09157860  0.15729735  1.0
  Mo  Mo8  1  0.42451530  0.74321182  0.99221627  1.0
  Mo  Mo9  1  0.42451530  0.75678818  0.49221627  1.0
  Mo  Mo10  1  0.57548470  0.24321182  0.50778373  1.0
  Mo  Mo11  1  0.57548470  0.25678818  0.00778373  1.0
  O  O12  1  0.53488467  0.62610388  0.90286539  1.0
  O  O13  1  0.53488467  0.87389612  0.40286539  1.0
  O  O14  1  0.46511533  0.12610388  0.59713461  1.0
  O  O15  1  0.46511533  0.37389612  0.09713461  1.0
  O  O16  1  0.61674027  0.66255700  0.60170147  1.0
  O  O17  1  0.61674027  0.83744300  0.10170147  1.0
  O  O18  1  0.38325973  0.16255700  0.89829853  1.0
  O  O19  1  0.38325973  0.33744300  0.39829853  1.0
  O  O20  1  0.62699105  0.95303102  0.81114273  1.0
  O  O21  1  0.62699105  0.54696898  0.31114273  1.0
  O  O22  1  0.37300895  0.45303102  0.68885727  1.0
  O  O23  1  0.37300895  0.04696898  0.18885727  1.0
  O  O24  1  0.71519836  0.34859341  0.91551328  1.0
  O  O25  1  0.71519836  0.15140659  0.41551328  1.0
  O  O26  1  0.28480164  0.84859341  0.58448672  1.0
  O  O27  1  0.28480164  0.65140659  0.08448672  1.0
  O  O28  1  0.88319778  0.72544218  0.84829897  1.0
  O  O29  1  0.88319778  0.77455782  0.34829897  1.0
  O  O30  1  0.11680222  0.22544218  0.65170103  1.0
  O  O31  1  0.11680222  0.27455782  0.15170103  1.0
  O  O32  1  0.96313574  0.97428894  0.71077405  1.0
  O  O33  1  0.96313574  0.52571106  0.21077405  1.0
  O  O34  1  0.03686426  0.47428894  0.78922595  1.0
  O  O35  1  0.03686426  0.02571106  0.28922595  1.0
  O  O36  1  -0.00000000  0.00000000  -0.00000000  1.0
  O  O37  1  0.00000000  0.50000000  0.50000000  1.0
  O  O38  1  0.26742345  0.86285918  0.88259793  1.0
  O  O39  1  0.26742345  0.63714082  0.38259793  1.0
  O  O40  1  0.73257655  0.36285918  0.61740207  1.0
  O  O41  1  0.73257655  0.13714082  0.11740207  1.0
