# generated using pymatgen
data_Hg
_symmetry_space_group_name_H-M   'P 1'
_cell_length_a   5.73221469
_cell_length_b   5.73221469
_cell_length_c   5.73221469
_cell_angle_alpha   107.45863175
_cell_angle_beta   107.45863175
_cell_angle_gamma   113.57603725
_symmetry_Int_Tables_number   1
_chemical_formula_structural   Hg
_chemical_formula_sum   Hg4
_cell_volume   144.43012176
_cell_formula_units_Z   4
loop_
 _symmetry_equiv_pos_site_id
 _symmetry_equiv_pos_as_xyz
  1  'x, y, z'
loop_
 _atom_site_type_symbol
 _atom_site_label
 _atom_site_symmetry_multiplicity
 _atom_site_fract_x
 _atom_site_fract_y
 _atom_site_fract_z
 _atom_site_occupancy
  Hg  Hg0  1  0.70194534  1.12500000  1.07694534  1.0
  Hg  Hg1  1  1.04805466  1.62500000  0.92305466  1.0
  Hg  Hg2  1  0.37500000  0.29805466  0.42305466  1.0
  Hg  Hg3  1  0.87500000  0.95194534  0.57694534  1.0
