# generated using pymatgen
data_K3MoPO7
_symmetry_space_group_name_H-M   'P 1'
_cell_length_a   7.70677752
_cell_length_b   7.70677752
_cell_length_c   9.91002917
_cell_angle_alpha   70.70872863
_cell_angle_beta   109.29127137
_cell_angle_gamma   134.56059691
_symmetry_Int_Tables_number   1
_chemical_formula_structural   K3MoPO7
_chemical_formula_sum   'K6 Mo2 P2 O14'
_cell_volume   391.56085814
_cell_formula_units_Z   2
loop_
 _symmetry_equiv_pos_site_id
 _symmetry_equiv_pos_as_xyz
  1  'x, y, z'
loop_
 _atom_site_type_symbol
 _atom_site_label
 _atom_site_symmetry_multiplicity
 _atom_site_fract_x
 _atom_site_fract_y
 _atom_site_fract_z
 _atom_site_occupancy
  K  K0  1  0.36685947  -0.36685947  0.45811057  1.0
  K  K1  1  0.63314053  0.36685947  0.54188943  1.0
  K  K2  1  0.78754252  0.21245748  0.23226819  1.0
  K  K3  1  0.21245748  -0.21245748  0.76773181  1.0
  K  K4  1  0.43416517  -0.43416517  0.10494335  1.0
  K  K5  1  0.56583483  0.43416517  0.89505665  1.0
  Mo  Mo6  1  0.05569202  -0.05569202  0.30950425  1.0
  Mo  Mo7  1  0.94430798  0.05569202  0.69049575  1.0
  P  P8  1  0.14821587  -0.14821587  0.09916117  1.0
  P  P9  1  0.85178413  0.14821587  0.90083883  1.0
  O  O10  1  0.26387601  -0.26387601  0.15594773  1.0
  O  O11  1  0.73612399  0.26387601  0.84405227  1.0
  O  O12  1  0.10098703  -0.10098703  0.93384431  1.0
  O  O13  1  0.89901297  0.10098703  0.06615569  1.0
  O  O14  1  0.31202242  0.09542159  0.16963257  1.0
  O  O15  1  1.09542159  0.31202242  0.83036743  1.0
  O  O16  1  0.68797758  -0.09542159  0.83036743  1.0
  O  O17  1  0.90457841  0.68797758  0.16963257  1.0
  O  O18  1  0.16708527  -0.16708527  0.46395470  1.0
  O  O19  1  0.83291473  0.16708527  0.53604530  1.0
  O  O20  1  1.22105564  0.24519629  0.33607926  1.0
  O  O21  1  0.24519629  0.22105564  0.66392074  1.0
  O  O22  1  0.77894436  0.75480371  0.66392074  1.0
  O  O23  1  0.75480371  -0.22105564  0.33607926  1.0
