# generated using pymatgen
data_Gd2Co3Ge5
_symmetry_space_group_name_H-M   'P 1'
_cell_length_a   8.12107612
_cell_length_b   8.12107612
_cell_length_c   5.77234978
_cell_angle_alpha   70.28868602
_cell_angle_beta   109.71131398
_cell_angle_gamma   86.51744030
_symmetry_Int_Tables_number   1
_chemical_formula_structural   Gd2Co3Ge5
_chemical_formula_sum   'Gd4 Co6 Ge10'
_cell_volume   330.78465516
_cell_formula_units_Z   2
loop_
 _symmetry_equiv_pos_site_id
 _symmetry_equiv_pos_as_xyz
  1  'x, y, z'
loop_
 _atom_site_type_symbol
 _atom_site_label
 _atom_site_symmetry_multiplicity
 _atom_site_fract_x
 _atom_site_fract_y
 _atom_site_fract_z
 _atom_site_occupancy
  Ge  Ge0  1  0.25982419  -0.07301110  0.67121164  1.0
  Ge  Ge1  1  1.07301110  0.74017581  0.17121164  1.0
  Ge  Ge2  1  0.92698890  -0.74017581  0.82878836  1.0
  Ge  Ge3  1  1.74017581  0.07301110  0.32878836  1.0
  Ge  Ge4  1  0.78233481  -0.21766519  0.75000000  1.0
  Ge  Ge5  1  1.21766519  0.21766519  0.25000000  1.0
  Ge  Ge6  1  1.49186266  0.49186266  0.75000000  1.0
  Ge  Ge7  1  0.50813734  -0.49186266  0.25000000  1.0
  Ge  Ge8  1  1.23062610  0.23062610  0.75000000  1.0
  Ge  Ge9  1  0.76937390  -0.23062610  0.25000000  1.0
  Co  Co10  1  0.53899091  -0.26037705  0.88017194  1.0
  Co  Co11  1  1.26037705  0.46100909  0.38017194  1.0
  Co  Co12  1  0.73962295  -0.46100909  0.61982806  1.0
  Co  Co13  1  1.46100909  0.26037705  0.11982806  1.0
  Co  Co14  1  0.99529395  -0.00470605  0.75000000  1.0
  Co  Co15  1  1.00470605  0.00470605  0.25000000  1.0
  Gd  Gd16  1  1.59574698  0.12839105  0.73330107  1.0
  Gd  Gd17  1  0.87160895  -0.59574698  0.23330107  1.0
  Gd  Gd18  1  1.12839105  0.59574698  0.76669893  1.0
  Gd  Gd19  1  0.40425302  -0.12839105  0.26669893  1.0
