# generated using pymatgen
data_NaEuP2O7
_symmetry_space_group_name_H-M   'P 1'
_cell_length_a   5.34360866
_cell_length_b   8.60042508
_cell_length_c   13.63706362
_cell_angle_alpha   90.00000000
_cell_angle_beta   111.25689425
_cell_angle_gamma   90.00000000
_symmetry_Int_Tables_number   1
_chemical_formula_structural   NaEuP2O7
_chemical_formula_sum   'Na4 Eu4 P8 O28'
_cell_volume   584.08315546
_cell_formula_units_Z   4
loop_
 _symmetry_equiv_pos_site_id
 _symmetry_equiv_pos_as_xyz
  1  'x, y, z'
loop_
 _atom_site_type_symbol
 _atom_site_label
 _atom_site_symmetry_multiplicity
 _atom_site_fract_x
 _atom_site_fract_y
 _atom_site_fract_z
 _atom_site_occupancy
  Na  Na0  1  0.85854341  0.61481610  0.07725741  1.0
  Na  Na1  1  0.85854341  0.88518390  0.57725741  1.0
  Na  Na2  1  0.14145659  0.11481610  0.42274259  1.0
  Na  Na3  1  0.14145659  0.38518390  0.92274259  1.0
  Eu  Eu4  1  0.45872536  0.30434889  0.23296684  1.0
  Eu  Eu5  1  0.45872536  0.19565111  0.73296684  1.0
  Eu  Eu6  1  0.54127464  0.80434889  0.26703316  1.0
  Eu  Eu7  1  0.54127464  0.69565111  0.76703316  1.0
  P  P8  1  0.77115445  0.25686774  0.03268718  1.0
  P  P9  1  0.77115445  0.24313226  0.53268718  1.0
  P  P10  1  0.22884555  0.75686774  0.46731282  1.0
  P  P11  1  0.22884555  0.74313226  0.96731282  1.0
  P  P12  1  0.91832768  0.00448629  0.18183856  1.0
  P  P13  1  0.91832768  0.49551371  0.68183856  1.0
  P  P14  1  0.08167232  0.50448629  0.31816144  1.0
  P  P15  1  0.08167232  0.99551371  0.81816144  1.0
  O  O16  1  0.69002347  0.23747759  0.41345661  1.0
  O  O17  1  0.69002347  0.26252241  0.91345661  1.0
  O  O18  1  0.30997653  0.73747759  0.08654339  1.0
  O  O19  1  0.30997653  0.76252241  0.58654339  1.0
  O  O20  1  0.22240665  0.04057966  0.23084032  1.0
  O  O21  1  0.22240665  0.45942034  0.73084032  1.0
  O  O22  1  0.77759335  0.54057966  0.26915968  1.0
  O  O23  1  0.77759335  0.95942034  0.76915968  1.0
  O  O24  1  0.04364879  0.33898051  0.08695868  1.0
  O  O25  1  0.04364879  0.16101949  0.58695868  1.0
  O  O26  1  0.95635121  0.83898051  0.41304132  1.0
  O  O27  1  0.95635121  0.66101949  0.91304132  1.0
  O  O28  1  0.81064605  0.07237221  0.06298708  1.0
  O  O29  1  0.81064605  0.42762779  0.56298708  1.0
  O  O30  1  0.18935395  0.57237221  0.43701292  1.0
  O  O31  1  0.18935395  0.92762779  0.93701292  1.0
  O  O32  1  0.13749721  0.32993412  0.32536203  1.0
  O  O33  1  0.13749721  0.17006588  0.82536203  1.0
  O  O34  1  0.86250279  0.82993412  0.17463797  1.0
  O  O35  1  0.86250279  0.67006588  0.67463797  1.0
  O  O36  1  0.55703714  0.32224912  0.07245112  1.0
  O  O37  1  0.55703714  0.17775088  0.57245112  1.0
  O  O38  1  0.44296286  0.82224912  0.42754888  1.0
  O  O39  1  0.44296286  0.67775088  0.92754888  1.0
  O  O40  1  0.74791166  0.07672613  0.24084830  1.0
  O  O41  1  0.74791166  0.42327387  0.74084830  1.0
  O  O42  1  0.25208834  0.57672613  0.25915170  1.0
  O  O43  1  0.25208834  0.92327387  0.75915170  1.0
