# generated using pymatgen
data_LiC
_symmetry_space_group_name_H-M   'P 1'
_cell_length_a   3.87812887
_cell_length_b   3.87812887
_cell_length_c   6.08382324
_cell_angle_alpha   90.00000000
_cell_angle_beta   90.00000000
_cell_angle_gamma   101.70474766
_symmetry_Int_Tables_number   1
_chemical_formula_structural   LiC
_chemical_formula_sum   'Li4 C4'
_cell_volume   89.59734253
_cell_formula_units_Z   4
loop_
 _symmetry_equiv_pos_site_id
 _symmetry_equiv_pos_as_xyz
  1  'x, y, z'
loop_
 _atom_site_type_symbol
 _atom_site_label
 _atom_site_symmetry_multiplicity
 _atom_site_fract_x
 _atom_site_fract_y
 _atom_site_fract_z
 _atom_site_occupancy
  Li  Li0  1  -0.35019247  0.35019247  0.36143727  1.0
  Li  Li1  1  0.14980753  0.85019247  0.13856273  1.0
  Li  Li2  1  0.35019247  0.64980753  0.63856273  1.0
  Li  Li3  1  -0.14980753  0.14980753  0.86143727  1.0
  C  C4  1  0.87118237  0.87118237  0.50000000  1.0
  C  C5  1  0.62881763  0.62881763  0.00000000  1.0
  C  C6  1  0.12881763  1.12881763  0.50000000  1.0
  C  C7  1  0.37118237  1.37118237  -0.00000000  1.0
