# generated using pymatgen
data_Ba3Sb2Se7
_symmetry_space_group_name_H-M   'P 1'
_cell_length_a   11.57355261
_cell_length_b   11.57355261
_cell_length_c   13.78708792
_cell_angle_alpha   73.49814522
_cell_angle_beta   106.50185478
_cell_angle_gamma   112.18101795
_symmetry_Int_Tables_number   1
_chemical_formula_structural   Ba3Sb2Se7
_chemical_formula_sum   'Ba12 Sb8 Se28'
_cell_volume   1606.79605620
_cell_formula_units_Z   4
loop_
 _symmetry_equiv_pos_site_id
 _symmetry_equiv_pos_as_xyz
  1  'x, y, z'
loop_
 _atom_site_type_symbol
 _atom_site_label
 _atom_site_symmetry_multiplicity
 _atom_site_fract_x
 _atom_site_fract_y
 _atom_site_fract_z
 _atom_site_occupancy
  Ba  Ba0  1  0.40701908  -0.39419474  0.32761754  1.0
  Ba  Ba1  1  1.39419474  0.59298092  0.82761754  1.0
  Ba  Ba2  1  0.60580526  -0.59298092  0.17238246  1.0
  Ba  Ba3  1  1.59298092  0.39419474  0.67238246  1.0
  Ba  Ba4  1  1.89360011  0.09831664  0.32700093  1.0
  Ba  Ba5  1  0.90168336  -0.89360011  0.82700093  1.0
  Ba  Ba6  1  1.09831664  0.89360011  0.17299907  1.0
  Ba  Ba7  1  0.10639989  -0.09831664  0.67299907  1.0
  Ba  Ba8  1  0.61679684  -0.11694509  0.05546649  1.0
  Ba  Ba9  1  1.11694509  0.38320316  0.55546649  1.0
  Ba  Ba10  1  0.88305491  -0.38320316  0.44453351  1.0
  Ba  Ba11  1  1.38320316  0.11694509  0.94453351  1.0
  Sb  Sb12  1  1.70899757  0.23596492  0.49342967  1.0
  Sb  Sb13  1  0.76403508  -0.70899757  0.99342967  1.0
  Sb  Sb14  1  1.23596492  0.70899757  0.00657033  1.0
  Sb  Sb15  1  0.29100243  -0.23596492  0.50657033  1.0
  Sb  Sb16  1  1.31376762  0.15047109  0.40281303  1.0
  Sb  Sb17  1  0.84952891  -0.31376762  0.90281303  1.0
  Sb  Sb18  1  1.15047109  0.31376762  0.09718697  1.0
  Sb  Sb19  1  0.68623238  -0.15047109  0.59718697  1.0
  Se  Se20  1  0.70421071  -0.19903769  0.31725419  1.0
  Se  Se21  1  1.19903769  0.29578929  0.81725419  1.0
  Se  Se22  1  0.80096231  -0.29578929  0.18274581  1.0
  Se  Se23  1  1.29578929  0.19903769  0.68274581  1.0
  Se  Se24  1  0.60407416  -0.10281717  0.38800042  1.0
  Se  Se25  1  1.10281717  0.39592584  0.88800042  1.0
  Se  Se26  1  0.89718283  -0.39592584  0.11199958  1.0
  Se  Se27  1  1.39592584  0.10281717  0.61199958  1.0
  Se  Se28  1  0.35562994  -0.14412472  0.13964695  1.0
  Se  Se29  1  1.14412472  0.64437006  0.63964695  1.0
  Se  Se30  1  0.85587528  -0.64437006  0.36035305  1.0
  Se  Se31  1  1.64437006  0.14412472  0.86035305  1.0
  Se  Se32  1  1.64259419  0.14807399  0.13931327  1.0
  Se  Se33  1  0.85192601  -0.64259419  0.63931327  1.0
  Se  Se34  1  1.14807399  0.64259419  0.36068673  1.0
  Se  Se35  1  0.35740581  -0.14807399  0.86068673  1.0
  Se  Se36  1  1.57250531  0.40015786  0.41350080  1.0
  Se  Se37  1  0.59984214  -0.57250531  0.91350080  1.0
  Se  Se38  1  1.40015786  0.57250531  0.08649920  1.0
  Se  Se39  1  0.42749469  -0.40015786  0.58649920  1.0
  Se  Se40  1  0.10638958  -0.05918548  0.41012941  1.0
  Se  Se41  1  1.05918548  0.89361042  0.91012941  1.0
  Se  Se42  1  0.94081452  -0.89361042  0.08987059  1.0
  Se  Se43  1  1.89361042  0.05918548  0.58987059  1.0
  Se  Se44  1  1.19197050  0.30834344  0.36446181  1.0
  Se  Se45  1  0.69165656  -0.19197050  0.86446181  1.0
  Se  Se46  1  1.30834344  0.19197050  0.13553819  1.0
  Se  Se47  1  0.80802950  -0.30834344  0.63553819  1.0
