# generated using pymatgen
data_Ca2(ZnSn2)3
_symmetry_space_group_name_H-M   'P 1'
_cell_length_a   13.73342002
_cell_length_b   13.73342002
_cell_length_c   6.44310719
_cell_angle_alpha   90.00000000
_cell_angle_beta   90.00000000
_cell_angle_gamma   152.81677270
_symmetry_Int_Tables_number   1
_chemical_formula_structural   Ca2(ZnSn2)3
_chemical_formula_sum   'Ca4 Zn6 Sn12'
_cell_volume   555.15537203
_cell_formula_units_Z   2
loop_
 _symmetry_equiv_pos_site_id
 _symmetry_equiv_pos_as_xyz
  1  'x, y, z'
loop_
 _atom_site_type_symbol
 _atom_site_label
 _atom_site_symmetry_multiplicity
 _atom_site_fract_x
 _atom_site_fract_y
 _atom_site_fract_z
 _atom_site_occupancy
  Ca  Ca0  1  -0.40356919  0.40356919  0.75000000  1.0
  Ca  Ca1  1  0.40356919  0.59643081  0.25000000  1.0
  Ca  Ca2  1  -0.09361450  0.09361450  0.75000000  1.0
  Ca  Ca3  1  0.09361450  0.90638550  0.25000000  1.0
  Zn  Zn4  1  0.71226130  0.71226130  0.00000000  1.0
  Zn  Zn5  1  0.71226130  0.71226130  0.50000000  1.0
  Zn  Zn6  1  0.28773870  0.28773870  0.00000000  1.0
  Zn  Zn7  1  0.28773870  0.28773870  0.50000000  1.0
  Zn  Zn8  1  0.14781786  0.85218214  0.75000000  1.0
  Zn  Zn9  1  -0.14781786  0.14781786  0.25000000  1.0
  Sn  Sn10  1  0.07567843  0.46637575  0.97905014  1.0
  Sn  Sn11  1  0.07567843  0.46637575  0.52094986  1.0
  Sn  Sn12  1  0.46637575  1.07567843  0.47905014  1.0
  Sn  Sn13  1  0.46637575  1.07567843  0.02094986  1.0
  Sn  Sn14  1  0.53362425  0.92432157  0.97905014  1.0
  Sn  Sn15  1  0.53362425  0.92432157  0.52094986  1.0
  Sn  Sn16  1  -0.07567843  0.53362425  0.47905014  1.0
  Sn  Sn17  1  -0.07567843  0.53362425  0.02094986  1.0
  Sn  Sn18  1  0.04915802  0.95084198  0.75000000  1.0
  Sn  Sn19  1  -0.04915802  0.04915802  0.25000000  1.0
  Sn  Sn20  1  0.42790193  0.57209807  0.75000000  1.0
  Sn  Sn21  1  -0.42790193  0.42790193  0.25000000  1.0
