# generated using pymatgen
data_SrBrF
_symmetry_space_group_name_H-M   'P 1'
_cell_length_a   4.23626290
_cell_length_b   4.23626290
_cell_length_c   7.59086059
_cell_angle_alpha   90.00000000
_cell_angle_beta   90.00000000
_cell_angle_gamma   90.00000000
_symmetry_Int_Tables_number   1
_chemical_formula_structural   SrBrF
_chemical_formula_sum   'Sr2 Br2 F2'
_cell_volume   136.22500198
_cell_formula_units_Z   2
loop_
 _symmetry_equiv_pos_site_id
 _symmetry_equiv_pos_as_xyz
  1  'x, y, z'
loop_
 _atom_site_type_symbol
 _atom_site_label
 _atom_site_symmetry_multiplicity
 _atom_site_fract_x
 _atom_site_fract_y
 _atom_site_fract_z
 _atom_site_occupancy
  Sr  Sr0  1  0.50000000  0.00000000  0.18247335  1.0
  Sr  Sr1  1  0.00000000  0.50000000  0.81752665  1.0
  Br  Br2  1  0.50000000  0.00000000  0.65004571  1.0
  Br  Br3  1  0.00000000  0.50000000  0.34995429  1.0
  F  F4  1  0.00000000  0.00000000  0.00000000  1.0
  F  F5  1  0.50000000  0.50000000  0.00000000  1.0
