# generated using pymatgen
data_SrCuH4(CO2)4
_symmetry_space_group_name_H-M   'P 1'
_cell_length_a   7.63760306
_cell_length_b   8.82006028
_cell_length_c   6.98941710
_cell_angle_alpha   90.00000000
_cell_angle_beta   101.07874521
_cell_angle_gamma   90.00000000
_symmetry_Int_Tables_number   1
_chemical_formula_structural   SrCuH4(CO2)4
_chemical_formula_sum   'Sr2 Cu2 H8 C8 O16'
_cell_volume   462.06143696
_cell_formula_units_Z   2
loop_
 _symmetry_equiv_pos_site_id
 _symmetry_equiv_pos_as_xyz
  1  'x, y, z'
loop_
 _atom_site_type_symbol
 _atom_site_label
 _atom_site_symmetry_multiplicity
 _atom_site_fract_x
 _atom_site_fract_y
 _atom_site_fract_z
 _atom_site_occupancy
  C  C0  1  0.31174883  0.84982107  0.51803112  1.0
  C  C1  1  0.68825117  0.84982107  0.98196888  1.0
  C  C2  1  0.68825117  0.15017893  0.48196888  1.0
  C  C3  1  0.31174883  0.15017893  0.01803112  1.0
  C  C4  1  0.20299018  0.40636795  0.62418069  1.0
  C  C5  1  0.79700982  0.40636795  0.87581931  1.0
  C  C6  1  0.79700982  0.59363205  0.37581931  1.0
  C  C7  1  0.20299018  0.59363205  0.12418069  1.0
  Sr  Sr8  1  0.00000000  0.86113568  0.75000000  1.0
  Sr  Sr9  1  0.00000000  0.13886432  0.25000000  1.0
  O  O10  1  0.31748245  0.76090942  0.66378007  1.0
  O  O11  1  0.68251755  0.76090942  0.83621993  1.0
  O  O12  1  0.68251755  0.23909058  0.33621993  1.0
  O  O13  1  0.31748245  0.23909058  0.16378007  1.0
  O  O14  1  0.19394385  0.95025065  0.47628408  1.0
  O  O15  1  0.80605615  0.95025065  0.02371592  1.0
  O  O16  1  0.80605615  0.04974935  0.52371592  1.0
  O  O17  1  0.19394385  0.04974935  0.97628408  1.0
  O  O18  1  0.09749743  0.68016985  0.01766009  1.0
  O  O19  1  0.90250257  0.68016985  0.48233991  1.0
  O  O20  1  0.90250257  0.31983015  0.98233991  1.0
  O  O21  1  0.09749743  0.31983015  0.51766009  1.0
  O  O22  1  0.35579471  0.44630755  0.58957654  1.0
  O  O23  1  0.64420529  0.44630755  0.91042346  1.0
  O  O24  1  0.64420529  0.55369245  0.41042346  1.0
  O  O25  1  0.35579471  0.55369245  0.08957654  1.0
  Cu  Cu26  1  0.50000000  0.60108444  0.75000000  1.0
  Cu  Cu27  1  0.50000000  0.39891556  0.25000000  1.0
  H  H28  1  0.41502142  0.83618465  0.42750318  1.0
  H  H29  1  0.58497858  0.83618465  0.07249682  1.0
  H  H30  1  0.58497858  0.16381535  0.57249682  1.0
  H  H31  1  0.41502142  0.16381535  0.92750318  1.0
  H  H32  1  0.16523567  0.45263265  0.75800774  1.0
  H  H33  1  0.83476433  0.45263265  0.74199226  1.0
  H  H34  1  0.83476433  0.54736735  0.24199226  1.0
  H  H35  1  0.16523567  0.54736735  0.25800774  1.0
