# generated using pymatgen
data_SrTl2Pd
_symmetry_space_group_name_H-M   'P 1'
_cell_length_a   6.06192164
_cell_length_b   6.06192164
_cell_length_c   8.49517246
_cell_angle_alpha   90.00000000
_cell_angle_beta   90.00000000
_cell_angle_gamma   136.72010478
_symmetry_Int_Tables_number   1
_chemical_formula_structural   SrTl2Pd
_chemical_formula_sum   'Sr2 Tl4 Pd2'
_cell_volume   214.01300639
_cell_formula_units_Z   2
loop_
 _symmetry_equiv_pos_site_id
 _symmetry_equiv_pos_as_xyz
  1  'x, y, z'
loop_
 _atom_site_type_symbol
 _atom_site_label
 _atom_site_symmetry_multiplicity
 _atom_site_fract_x
 _atom_site_fract_y
 _atom_site_fract_z
 _atom_site_occupancy
  Sr  Sr0  1  0.43548914  0.56451086  0.75000000  1.0
  Sr  Sr1  1  -0.43548914  0.43548914  0.25000000  1.0
  Tl  Tl2  1  0.14643565  0.85356435  0.94942831  1.0
  Tl  Tl3  1  0.14643565  0.85356435  0.55057169  1.0
  Tl  Tl4  1  -0.14643565  0.14643565  0.44942831  1.0
  Tl  Tl5  1  -0.14643565  0.14643565  0.05057169  1.0
  Pd  Pd6  1  -0.27940862  0.27940862  0.75000000  1.0
  Pd  Pd7  1  0.27940862  0.72059138  0.25000000  1.0
