# generated using pymatgen
data_SbC6(IF)6
_symmetry_space_group_name_H-M   'P 1'
_cell_length_a   9.50945772
_cell_length_b   9.50945772
_cell_length_c   17.28484242
_cell_angle_alpha   75.67108110
_cell_angle_beta   104.32891890
_cell_angle_gamma   136.24875654
_symmetry_Int_Tables_number   1
_chemical_formula_structural   SbC6(IF)6
_chemical_formula_sum   'Sb2 C12 I12 F12'
_cell_volume   1041.75593109
_cell_formula_units_Z   2
loop_
 _symmetry_equiv_pos_site_id
 _symmetry_equiv_pos_as_xyz
  1  'x, y, z'
loop_
 _atom_site_type_symbol
 _atom_site_label
 _atom_site_symmetry_multiplicity
 _atom_site_fract_x
 _atom_site_fract_y
 _atom_site_fract_z
 _atom_site_occupancy
  Sb  Sb0  1  0.38375576  0.38375576  0.75000000  1.0
  Sb  Sb1  1  0.61624424  0.61624424  0.25000000  1.0
  C  C2  1  0.63516878  0.02007041  0.96734646  1.0
  C  C3  1  0.97992959  0.36483122  0.46734646  1.0
  C  C4  1  1.02007041  0.63516878  0.53265354  1.0
  C  C5  1  0.36483122  -0.02007041  0.03265354  1.0
  C  C6  1  0.43219553  -0.10052047  0.93300504  1.0
  C  C7  1  1.10052047  0.56780447  0.43300504  1.0
  C  C8  1  0.89947953  0.43219553  0.56699496  1.0
  C  C9  1  0.56780447  0.10052047  0.06699496  1.0
  C  C10  1  0.29679757  -0.12032107  0.96542997  1.0
  C  C11  1  1.12032107  0.70320243  0.46542997  1.0
  C  C12  1  0.87967893  0.29679757  0.53457003  1.0
  C  C13  1  0.70320243  0.12032107  0.03457003  1.0
  I  I14  1  0.83898005  0.05365315  0.91669731  1.0
  I  I15  1  0.94634685  0.16101995  0.41669731  1.0
  I  I16  1  1.05365315  0.83898005  0.58330269  1.0
  I  I17  1  0.16101995  -0.05365315  0.08330269  1.0
  I  I18  1  0.70672152  -0.00526074  0.58825902  1.0
  I  I19  1  1.00526074  0.29327848  0.08825902  1.0
  I  I20  1  0.99473926  0.70672152  0.91174098  1.0
  I  I21  1  0.29327848  0.00526074  0.41174098  1.0
  I  I22  1  0.74165975  0.33120475  0.66499456  1.0
  I  I23  1  0.66879525  0.25834025  0.16499456  1.0
  I  I24  1  1.33120475  0.74165975  0.83500544  1.0
  I  I25  1  0.25834025  -0.33120475  0.33500544  1.0
  F  F26  1  0.58238540  -0.42817930  0.83001218  1.0
  F  F27  1  1.42817930  0.41761460  0.33001218  1.0
  F  F28  1  0.57182070  0.58238540  0.66998782  1.0
  F  F29  1  0.41761460  0.42817930  0.16998782  1.0
  F  F30  1  0.49936372  0.27148713  0.77757434  1.0
  F  F31  1  0.72851287  0.50063628  0.27757434  1.0
  F  F32  1  1.27148713  0.49936372  0.72242566  1.0
  F  F33  1  0.50063628  -0.27148713  0.22242566  1.0
  F  F34  1  1.19329687  0.19187666  0.82954840  1.0
  F  F35  1  0.80812334  -0.19329687  0.32954840  1.0
  F  F36  1  0.19187666  0.19329687  0.67045160  1.0
  F  F37  1  0.80670313  0.80812334  0.17045160  1.0
