# generated using pymatgen
data_Te7IrCl7
_symmetry_space_group_name_H-M   'P 1'
_cell_length_a   11.77110907
_cell_length_b   10.91763579
_cell_length_c   9.81250693
_cell_angle_alpha   67.42271166
_cell_angle_beta   64.03323580
_cell_angle_gamma   69.60327985
_symmetry_Int_Tables_number   1
_chemical_formula_structural   Te7IrCl7
_chemical_formula_sum   'Te14 Ir2 Cl14'
_cell_volume   1021.82085688
_cell_formula_units_Z   2
loop_
 _symmetry_equiv_pos_site_id
 _symmetry_equiv_pos_as_xyz
  1  'x, y, z'
loop_
 _atom_site_type_symbol
 _atom_site_label
 _atom_site_symmetry_multiplicity
 _atom_site_fract_x
 _atom_site_fract_y
 _atom_site_fract_z
 _atom_site_occupancy
  Te  Te0  1  -1.00851252  -0.82284571  -0.93378193  1.0
  Te  Te1  1  0.00851252  -0.17715429  -0.06621807  1.0
  Te  Te2  1  -0.68136943  -0.83649404  -0.93214110  1.0
  Te  Te3  1  -0.31863057  -0.16350596  -0.06785890  1.0
  Te  Te4  1  -0.79089316  -0.35737240  -0.95293638  1.0
  Te  Te5  1  -0.20910684  -0.64262760  -0.04706362  1.0
  Te  Te6  1  -0.97551271  -0.54343747  -0.81333117  1.0
  Te  Te7  1  -0.02448729  -0.45656253  -0.18666883  1.0
  Te  Te8  1  -0.31285938  -0.52424190  -0.79094520  1.0
  Te  Te9  1  -0.68714062  -0.47575810  -0.20905480  1.0
  Te  Te10  1  -0.14714198  -0.74551732  -0.64716044  1.0
  Te  Te11  1  -0.85285802  -0.25448268  -0.35283956  1.0
  Te  Te12  1  -0.73306170  -0.74642284  -0.32009129  1.0
  Te  Te13  1  -0.26693830  -0.25357716  -0.67990871  1.0
  Ir  Ir14  1  -0.84740707  -0.65061120  -0.06442901  1.0
  Ir  Ir15  1  -0.15259293  -0.34938880  -0.93557099  1.0
  Cl  Cl16  1  -0.47370118  -0.32750179  -0.96730505  1.0
  Cl  Cl17  1  -0.52629882  -0.67249821  -0.03269495  1.0
  Cl  Cl18  1  -0.29498681  -1.00578748  -0.84565565  1.0
  Cl  Cl19  1  -0.70501319  0.00578748  -0.15434435  1.0
  Cl  Cl20  1  -0.83809357  -0.00104214  -0.75810927  1.0
  Cl  Cl21  1  -0.16190643  -0.99895786  -0.24189073  1.0
  Cl  Cl22  1  -0.73727113  -0.79383180  -0.68414922  1.0
  Cl  Cl23  1  -0.26272887  -0.20616820  -0.31585078  1.0
  Cl  Cl24  1  -0.72803714  -0.49834764  -0.51772375  1.0
  Cl  Cl25  1  -0.27196286  -0.50165236  -0.48227625  1.0
  Cl  Cl26  1  -0.50475903  -0.76367330  -0.35318744  1.0
  Cl  Cl27  1  -0.49524097  -0.23632670  -0.64681256  1.0
  Cl  Cl28  1  -0.96904334  -0.76716135  -0.29330954  1.0
  Cl  Cl29  1  -0.03095666  -0.23283865  -0.70669046  1.0
