# generated using pymatgen
data_Gd2W2O9
_symmetry_space_group_name_H-M   'P 1'
_cell_length_a   7.64436013
_cell_length_b   9.83192962
_cell_length_c   9.30345335
_cell_angle_alpha   90.00000000
_cell_angle_beta   107.79781899
_cell_angle_gamma   90.00000000
_symmetry_Int_Tables_number   1
_chemical_formula_structural   Gd2W2O9
_chemical_formula_sum   'Gd8 W8 O36'
_cell_volume   665.77175107
_cell_formula_units_Z   4
loop_
 _symmetry_equiv_pos_site_id
 _symmetry_equiv_pos_as_xyz
  1  'x, y, z'
loop_
 _atom_site_type_symbol
 _atom_site_label
 _atom_site_symmetry_multiplicity
 _atom_site_fract_x
 _atom_site_fract_y
 _atom_site_fract_z
 _atom_site_occupancy
  Gd  Gd0  1  0.77288419  0.43955986  0.34024611  1.0
  Gd  Gd1  1  0.77288419  0.06044014  0.84024611  1.0
  Gd  Gd2  1  0.22711581  0.93955986  0.15975389  1.0
  Gd  Gd3  1  0.22711581  0.56044014  0.65975389  1.0
  Gd  Gd4  1  0.70749886  0.04918842  0.42973575  1.0
  Gd  Gd5  1  0.70749886  0.45081158  0.92973575  1.0
  Gd  Gd6  1  0.29250114  0.54918842  0.07026425  1.0
  Gd  Gd7  1  0.29250114  0.95081158  0.57026425  1.0
  W  W8  1  0.93397999  0.74368875  0.26748633  1.0
  W  W9  1  0.93397999  0.75631125  0.76748633  1.0
  W  W10  1  0.06602001  0.24368875  0.23251367  1.0
  W  W11  1  0.06602001  0.25631125  0.73251367  1.0
  W  W12  1  0.42027757  0.22343082  0.03509003  1.0
  W  W13  1  0.42027757  0.27656918  0.53509003  1.0
  W  W14  1  0.57972243  0.72343082  0.46490997  1.0
  W  W15  1  0.57972243  0.77656918  0.96490997  1.0
  O  O16  1  -0.00992084  0.11340721  0.08957744  1.0
  O  O17  1  -0.00992084  0.38659279  0.58957744  1.0
  O  O18  1  0.00992084  0.61340721  0.41042256  1.0
  O  O19  1  0.00992084  0.88659279  0.91042256  1.0
  O  O20  1  0.93807883  0.40437746  0.15348788  1.0
  O  O21  1  0.93807883  0.09562254  0.65348788  1.0
  O  O22  1  0.06192117  0.90437746  0.34651212  1.0
  O  O23  1  0.06192117  0.59562254  0.84651212  1.0
  O  O24  1  0.89447287  0.21174292  0.33425090  1.0
  O  O25  1  0.89447287  0.28825708  0.83425090  1.0
  O  O26  1  0.10552713  0.71174292  0.16574910  1.0
  O  O27  1  0.10552713  0.78825708  0.66574910  1.0
  O  O28  1  0.74859447  0.81634716  0.36705951  1.0
  O  O29  1  0.74859447  0.68365284  0.86705951  1.0
  O  O30  1  0.25140553  0.31634716  0.13294049  1.0
  O  O31  1  0.25140553  0.18365284  0.63294049  1.0
  O  O32  1  0.59187067  0.29403558  0.43184198  1.0
  O  O33  1  0.59187067  0.20596442  0.93184198  1.0
  O  O34  1  0.40812933  0.79403558  0.06815802  1.0
  O  O35  1  0.40812933  0.70596442  0.56815802  1.0
  O  O36  1  0.55175114  0.39546395  0.10663972  1.0
  O  O37  1  0.55175114  0.10453605  0.60663972  1.0
  O  O38  1  0.44824886  0.89546395  0.39336028  1.0
  O  O39  1  0.44824886  0.60453605  0.89336028  1.0
  O  O40  1  0.49967383  0.09423133  0.17941905  1.0
  O  O41  1  0.49967383  0.40576867  0.67941905  1.0
  O  O42  1  0.50032617  0.59423133  0.32058095  1.0
  O  O43  1  0.50032617  0.90576867  0.82058095  1.0
  O  O44  1  0.26258264  0.13310375  0.35458169  1.0
  O  O45  1  0.26258264  0.36689625  0.85458169  1.0
  O  O46  1  0.73741736  0.63310375  0.14541831  1.0
  O  O47  1  0.73741736  0.86689625  0.64541831  1.0
  O  O48  1  0.22527339  0.37744789  0.41555676  1.0
  O  O49  1  0.22527339  0.12255211  0.91555676  1.0
  O  O50  1  0.77472661  0.87744789  0.08444324  1.0
  O  O51  1  0.77472661  0.62255211  0.58444324  1.0
