# generated using pymatgen
data_SrCuO3
_symmetry_space_group_name_H-M   'P 1'
_cell_length_a   3.85629630
_cell_length_b   10.82117263
_cell_length_c   8.53406123
_cell_angle_alpha   90.00000000
_cell_angle_beta   90.00515003
_cell_angle_gamma   90.00000000
_symmetry_Int_Tables_number   1
_chemical_formula_structural   SrCuO3
_chemical_formula_sum   'Sr6 Cu6 O18'
_cell_volume   356.12336890
_cell_formula_units_Z   6
loop_
 _symmetry_equiv_pos_site_id
 _symmetry_equiv_pos_as_xyz
  1  'x, y, z'
loop_
 _atom_site_type_symbol
 _atom_site_label
 _atom_site_symmetry_multiplicity
 _atom_site_fract_x
 _atom_site_fract_y
 _atom_site_fract_z
 _atom_site_occupancy
  O  O0  1  0.00017186  0.87465277  0.81986890  1.0
  O  O1  1  0.00017186  0.12534723  0.81986890  1.0
  O  O2  1  0.00003018  0.87467777  0.48018156  1.0
  O  O3  1  0.00003018  0.12532223  0.48018156  1.0
  O  O4  1  0.00027305  0.87624849  0.15000064  1.0
  O  O5  1  0.00027305  0.12375151  0.15000064  1.0
  O  O6  1  -0.00000902  0.62531578  0.81980369  1.0
  O  O7  1  -0.00000902  0.37468422  0.81980369  1.0
  O  O8  1  -0.00016769  0.62535209  0.48012717  1.0
  O  O9  1  -0.00016769  0.37464791  0.48012717  1.0
  O  O10  1  -0.00030717  0.62375593  0.14999296  1.0
  O  O11  1  -0.00030717  0.37624407  0.14999296  1.0
  O  O12  1  0.50000769  0.75000187  0.65000361  1.0
  O  O13  1  0.50000769  0.24999813  0.65000361  1.0
  O  O14  1  0.49974491  0.50000000  0.34388554  1.0
  O  O15  1  0.50011272  0.00000000  0.34384690  1.0
  O  O16  1  0.50023830  0.00000000  0.95612781  1.0
  O  O17  1  0.49988547  0.50000000  0.95618332  1.0
  Sr  Sr18  1  0.49987252  0.75001846  0.34742402  1.0
  Sr  Sr19  1  0.49987252  0.24998154  0.34742402  1.0
  Sr  Sr20  1  0.50013614  0.74997687  0.95258257  1.0
  Sr  Sr21  1  0.50013614  0.25002313  0.95258257  1.0
  Sr  Sr22  1  0.49987520  0.50000000  0.64998980  1.0
  Sr  Sr23  1  0.50013856  0.00000000  0.65000363  1.0
  Cu  Cu24  1  0.00000738  0.75000009  0.65000030  1.0
  Cu  Cu25  1  0.00000738  0.24999991  0.65000030  1.0
  Cu  Cu26  1  -0.00012571  0.50000000  0.98401375  1.0
  Cu  Cu27  1  -0.00026691  0.50000000  0.31596864  1.0
  Cu  Cu28  1  0.00024783  0.00000000  -0.01597169  1.0
  Cu  Cu29  1  0.00011974  0.00000000  0.31598148  1.0
