# generated using pymatgen
data_Cu3Se2
_symmetry_space_group_name_H-M   'P 1'
_cell_length_a   6.38173968
_cell_length_b   6.38173968
_cell_length_c   4.37599730
_cell_angle_alpha   90.00000000
_cell_angle_beta   90.00000000
_cell_angle_gamma   90.00000000
_symmetry_Int_Tables_number   1
_chemical_formula_structural   Cu3Se2
_chemical_formula_sum   'Cu6 Se4'
_cell_volume   178.21949730
_cell_formula_units_Z   2
loop_
 _symmetry_equiv_pos_site_id
 _symmetry_equiv_pos_as_xyz
  1  'x, y, z'
loop_
 _atom_site_type_symbol
 _atom_site_label
 _atom_site_symmetry_multiplicity
 _atom_site_fract_x
 _atom_site_fract_y
 _atom_site_fract_z
 _atom_site_occupancy
  Cu  Cu0  1  0.85443497  0.35443497  0.76163022  1.0
  Cu  Cu1  1  0.64556503  0.85443497  0.23836978  1.0
  Cu  Cu2  1  0.14556503  0.64556503  0.76163022  1.0
  Cu  Cu3  1  0.35443497  0.14556503  0.23836978  1.0
  Cu  Cu4  1  0.50000000  0.50000000  0.00000000  1.0
  Cu  Cu5  1  0.00000000  0.00000000  0.00000000  1.0
  Se  Se6  1  0.26964821  0.76964821  0.26620102  1.0
  Se  Se7  1  0.23035179  0.26964821  0.73379898  1.0
  Se  Se8  1  0.73035179  0.23035179  0.26620102  1.0
  Se  Se9  1  0.76964821  0.73035179  0.73379898  1.0
