# generated using pymatgen
data_MnCdF5
_symmetry_space_group_name_H-M   'P 1'
_cell_length_a   5.55667680
_cell_length_b   5.55667680
_cell_length_c   7.99810807
_cell_angle_alpha   68.56723840
_cell_angle_beta   111.43276160
_cell_angle_gamma   109.57801651
_symmetry_Int_Tables_number   1
_chemical_formula_structural   MnCdF5
_chemical_formula_sum   'Mn2 Cd2 F10'
_cell_volume   208.11012298
_cell_formula_units_Z   2
loop_
 _symmetry_equiv_pos_site_id
 _symmetry_equiv_pos_as_xyz
  1  'x, y, z'
loop_
 _atom_site_type_symbol
 _atom_site_label
 _atom_site_symmetry_multiplicity
 _atom_site_fract_x
 _atom_site_fract_y
 _atom_site_fract_z
 _atom_site_occupancy
  Mn  Mn0  1  0.00000000  -0.00000000  0.00000000  1.0
  Mn  Mn1  1  0.00000000  -0.00000000  0.50000000  1.0
  Cd  Cd2  1  0.54169690  -0.45830310  0.75000000  1.0
  Cd  Cd3  1  0.45830310  0.45830310  0.25000000  1.0
  F  F4  1  0.75697011  0.21059126  0.38125431  1.0
  F  F5  1  0.78940874  -0.75697011  0.88125431  1.0
  F  F6  1  1.21059126  -0.24302989  0.11874569  1.0
  F  F7  1  0.24302989  -0.21059126  0.61874569  1.0
  F  F8  1  1.30570316  0.28356599  0.96268513  1.0
  F  F9  1  0.71643401  0.69429684  0.46268513  1.0
  F  F10  1  1.28356599  0.30570316  0.53731487  1.0
  F  F11  1  1.69429684  -0.28356599  0.03731487  1.0
  F  F12  1  0.89658319  0.89658319  0.75000000  1.0
  F  F13  1  1.10341681  0.10341681  0.25000000  1.0
