# generated using pymatgen
data_Hf9CoMo4
_symmetry_space_group_name_H-M   'P 1'
_cell_length_a   8.67173189
_cell_length_b   8.67173189
_cell_length_c   8.42714222
_cell_angle_alpha   90.00000000
_cell_angle_beta   90.00000000
_cell_angle_gamma   120.00000000
_symmetry_Int_Tables_number   1
_chemical_formula_structural   Hf9CoMo4
_chemical_formula_sum   'Hf18 Co2 Mo8'
_cell_volume   548.81078694
_cell_formula_units_Z   2
loop_
 _symmetry_equiv_pos_site_id
 _symmetry_equiv_pos_as_xyz
  1  'x, y, z'
loop_
 _atom_site_type_symbol
 _atom_site_label
 _atom_site_symmetry_multiplicity
 _atom_site_fract_x
 _atom_site_fract_y
 _atom_site_fract_z
 _atom_site_occupancy
  Hf  Hf0  1  0.20161108  0.79838892  0.44189209  1.0
  Hf  Hf1  1  0.20161108  0.79838892  0.05810791  1.0
  Hf  Hf2  1  0.20161108  0.40322216  0.44189209  1.0
  Hf  Hf3  1  0.20161108  0.40322216  0.05810791  1.0
  Hf  Hf4  1  0.79838892  0.20161108  0.94189209  1.0
  Hf  Hf5  1  0.79838892  0.20161108  0.55810791  1.0
  Hf  Hf6  1  0.79838892  0.59677784  0.94189209  1.0
  Hf  Hf7  1  0.79838892  0.59677784  0.55810791  1.0
  Hf  Hf8  1  0.59677784  0.79838892  0.44189209  1.0
  Hf  Hf9  1  0.59677784  0.79838892  0.05810791  1.0
  Hf  Hf10  1  0.40322216  0.20161108  0.94189209  1.0
  Hf  Hf11  1  0.40322216  0.20161108  0.55810791  1.0
  Hf  Hf12  1  0.54236006  0.45763994  0.25000000  1.0
  Hf  Hf13  1  0.54236006  0.08472012  0.25000000  1.0
  Hf  Hf14  1  0.45763994  0.54236006  0.75000000  1.0
  Hf  Hf15  1  0.45763994  0.91527988  0.75000000  1.0
  Hf  Hf16  1  0.91527988  0.45763994  0.25000000  1.0
  Hf  Hf17  1  0.08472012  0.54236006  0.75000000  1.0
  Co  Co18  1  0.33333333  0.66666667  0.25000000  1.0
  Co  Co19  1  0.66666667  0.33333333  0.75000000  1.0
  Mo  Mo20  1  0.88859803  0.11140197  0.25000000  1.0
  Mo  Mo21  1  0.88859803  0.77719606  0.25000000  1.0
  Mo  Mo22  1  0.11140197  0.88859803  0.75000000  1.0
  Mo  Mo23  1  0.11140197  0.22280394  0.75000000  1.0
  Mo  Mo24  1  0.22280394  0.11140197  0.25000000  1.0
  Mo  Mo25  1  0.77719606  0.88859803  0.75000000  1.0
  Mo  Mo26  1  0.00000000  0.00000000  0.50000000  1.0
  Mo  Mo27  1  0.00000000  0.00000000  0.00000000  1.0
