# generated using pymatgen
data_Cr6O11
_symmetry_space_group_name_H-M   'P 1'
_cell_length_a   9.43981426
_cell_length_b   6.98350387
_cell_length_c   5.37483837
_cell_angle_alpha   72.06374478
_cell_angle_beta   80.89323203
_cell_angle_gamma   89.48764173
_symmetry_Int_Tables_number   1
_chemical_formula_structural   Cr6O11
_chemical_formula_sum   'Cr12 O22'
_cell_volume   332.55701420
_cell_formula_units_Z   2
loop_
 _symmetry_equiv_pos_site_id
 _symmetry_equiv_pos_as_xyz
  1  'x, y, z'
loop_
 _atom_site_type_symbol
 _atom_site_label
 _atom_site_symmetry_multiplicity
 _atom_site_fract_x
 _atom_site_fract_y
 _atom_site_fract_z
 _atom_site_occupancy
  Cr  Cr0  1  -0.75893339  -0.43105706  -0.80901456  1.0
  Cr  Cr1  1  -0.24106661  -0.56894294  -0.19098544  1.0
  Cr  Cr2  1  -0.75917851  -0.92171018  -0.81381446  1.0
  Cr  Cr3  1  -0.24082149  -0.07828982  -0.18618554  1.0
  Cr  Cr4  1  -0.41406604  -0.36004875  -0.72887435  1.0
  Cr  Cr5  1  -0.58593396  -0.63995125  -0.27112565  1.0
  Cr  Cr6  1  -0.41229863  -0.85973369  -0.73106505  1.0
  Cr  Cr7  1  -0.58770137  -0.14026631  -0.26893495  1.0
  Cr  Cr8  1  -0.05988475  -0.80588144  -0.68107116  1.0
  Cr  Cr9  1  -0.94011525  -0.19411856  -0.31892884  1.0
  Cr  Cr10  1  -0.93849300  -0.69467145  -0.32657062  1.0
  Cr  Cr11  1  -0.06150700  -0.30532855  -0.67342938  1.0
  O  O12  1  -0.93109794  -0.83087950  -0.97446185  1.0
  O  O13  1  -0.06890206  -0.16912050  -0.02553815  1.0
  O  O14  1  -0.69937085  -0.64213060  -0.94071485  1.0
  O  O15  1  -0.30062915  -0.35786940  -0.05928515  1.0
  O  O16  1  -0.57660825  -0.30263003  -0.90972283  1.0
  O  O17  1  -0.42339175  -0.69736997  -0.09027717  1.0
  O  O18  1  -0.21927550  -0.73923445  -0.84098921  1.0
  O  O19  1  -0.78072450  -0.26076555  -0.15901079  1.0
  O  O20  1  -0.96625609  -0.54379542  -0.71457868  1.0
  O  O21  1  -0.03374391  -0.45620458  -0.28542132  1.0
  O  O22  1  -0.85263804  -0.20597864  -0.68063497  1.0
  O  O23  1  -0.14736196  -0.79402136  -0.31936503  1.0
  O  O24  1  -0.60445070  -0.98107116  -0.62279652  1.0
  O  O25  1  -0.39554930  -0.01892884  -0.37720348  1.0
  O  O26  1  -0.47185706  -0.63977865  -0.59716191  1.0
  O  O27  1  -0.52814294  -0.36022135  -0.40283809  1.0
  O  O28  1  -0.88883288  -0.90880741  -0.48418064  1.0
  O  O29  1  -0.11116712  -0.09119259  -0.51581936  1.0
  O  O30  1  -0.75272200  -0.57858092  -0.44689311  1.0
  O  O31  1  -0.24727800  -0.42141908  -0.55310689  1.0
  O  O32  1  -0.64838560  -0.92031270  -0.13680780  1.0
  O  O33  1  -0.35161440  -0.07968730  -0.86319220  1.0
