# generated using pymatgen
data_GeP
_symmetry_space_group_name_H-M   'P 1'
_cell_length_a   8.77082532
_cell_length_b   8.77082532
_cell_length_c   9.93766320
_cell_angle_alpha   70.98048717
_cell_angle_beta   109.01951283
_cell_angle_gamma   155.93319975
_symmetry_Int_Tables_number   1
_chemical_formula_structural   GeP
_chemical_formula_sum   'Ge6 P6'
_cell_volume   293.93916154
_cell_formula_units_Z   6
loop_
 _symmetry_equiv_pos_site_id
 _symmetry_equiv_pos_as_xyz
  1  'x, y, z'
loop_
 _atom_site_type_symbol
 _atom_site_label
 _atom_site_symmetry_multiplicity
 _atom_site_fract_x
 _atom_site_fract_y
 _atom_site_fract_z
 _atom_site_occupancy
  Ge  Ge0  1  0.86582100  0.13417900  0.58059579  1.0
  Ge  Ge1  1  0.13417900  -0.13417900  0.41940421  1.0
  Ge  Ge2  1  0.76159454  0.23840546  0.70483608  1.0
  Ge  Ge3  1  0.23840546  -0.23840546  0.29516392  1.0
  Ge  Ge4  1  0.43153239  -0.43153239  0.90371081  1.0
  Ge  Ge5  1  0.56846761  0.43153239  0.09628919  1.0
  P  P6  1  0.85285643  0.14714357  0.94227020  1.0
  P  P7  1  0.14714357  -0.14714357  0.05772980  1.0
  P  P8  1  0.83082411  0.16917589  0.32940394  1.0
  P  P9  1  0.16917589  -0.16917589  0.67059606  1.0
  P  P10  1  0.45470249  -0.45470249  0.67866830  1.0
  P  P11  1  0.54529751  0.45470249  0.32133170  1.0
