# generated using pymatgen
data_SrTa4O11
_symmetry_space_group_name_H-M   'P 1'
_cell_length_a   6.31545816
_cell_length_b   6.31545816
_cell_length_c   12.43341036
_cell_angle_alpha   90.00000000
_cell_angle_beta   90.00000000
_cell_angle_gamma   120.00000000
_symmetry_Int_Tables_number   1
_chemical_formula_structural   SrTa4O11
_chemical_formula_sum   'Sr2 Ta8 O22'
_cell_volume   429.46781537
_cell_formula_units_Z   2
loop_
 _symmetry_equiv_pos_site_id
 _symmetry_equiv_pos_as_xyz
  1  'x, y, z'
loop_
 _atom_site_type_symbol
 _atom_site_label
 _atom_site_symmetry_multiplicity
 _atom_site_fract_x
 _atom_site_fract_y
 _atom_site_fract_z
 _atom_site_occupancy
  Sr  Sr0  1  0.33333333  0.66666667  0.25000000  1.0
  Sr  Sr1  1  0.66666667  0.33333333  0.75000000  1.0
  Ta  Ta2  1  0.35568366  0.35568366  -0.00000000  1.0
  Ta  Ta3  1  0.35568366  -0.00000000  0.50000000  1.0
  Ta  Ta4  1  -0.00000000  0.35568366  0.50000000  1.0
  Ta  Ta5  1  -0.00000000  0.64431634  0.00000000  1.0
  Ta  Ta6  1  0.64431634  0.64431634  0.50000000  1.0
  Ta  Ta7  1  0.64431634  0.00000000  -0.00000000  1.0
  Ta  Ta8  1  0.33333333  0.66666667  0.75000000  1.0
  Ta  Ta9  1  0.66666667  0.33333333  0.25000000  1.0
  O  O10  1  0.62800209  0.56572644  0.34576855  1.0
  O  O11  1  0.62800209  0.06227565  0.15423145  1.0
  O  O12  1  0.56572644  0.62800209  0.65423145  1.0
  O  O13  1  0.56572644  0.93772435  0.84576855  1.0
  O  O14  1  0.93772435  0.56572644  0.15423145  1.0
  O  O15  1  0.93772435  0.37199791  0.34576855  1.0
  O  O16  1  0.43427356  0.37199791  0.15423145  1.0
  O  O17  1  0.43427356  0.06227565  0.34576855  1.0
  O  O18  1  0.37199791  0.93772435  0.65423145  1.0
  O  O19  1  0.37199791  0.43427356  0.84576855  1.0
  O  O20  1  0.06227565  0.62800209  0.84576855  1.0
  O  O21  1  0.06227565  0.43427356  0.65423145  1.0
  O  O22  1  0.75672891  0.75672891  0.00000000  1.0
  O  O23  1  0.75672891  -0.00000000  0.50000000  1.0
  O  O24  1  -0.00000000  0.75672891  0.50000000  1.0
  O  O25  1  -0.00000000  0.24327109  0.00000000  1.0
  O  O26  1  0.24327109  0.24327109  0.50000000  1.0
  O  O27  1  0.24327109  0.00000000  -0.00000000  1.0
  O  O28  1  0.33333333  0.66666667  0.03393549  1.0
  O  O29  1  0.33333333  0.66666667  0.46606451  1.0
  O  O30  1  0.66666667  0.33333333  0.96606451  1.0
  O  O31  1  0.66666667  0.33333333  0.53393549  1.0
