# generated using pymatgen
data_RbSn2(PO4)3
_symmetry_space_group_name_H-M   'P 1'
_cell_length_a   9.47862233
_cell_length_b   9.47862233
_cell_length_c   9.47862233
_cell_angle_alpha   53.04701868
_cell_angle_beta   53.04701868
_cell_angle_gamma   53.04701868
_symmetry_Int_Tables_number   1
_chemical_formula_structural   RbSn2(PO4)3
_chemical_formula_sum   'Rb2 Sn4 P6 O24'
_cell_volume   504.05169665
_cell_formula_units_Z   2
loop_
 _symmetry_equiv_pos_site_id
 _symmetry_equiv_pos_as_xyz
  1  'x, y, z'
loop_
 _atom_site_type_symbol
 _atom_site_label
 _atom_site_symmetry_multiplicity
 _atom_site_fract_x
 _atom_site_fract_y
 _atom_site_fract_z
 _atom_site_occupancy
  Rb  Rb0  1  0.50000000  0.50000000  -0.50000000  1.0
  Rb  Rb1  1  0.00000000  0.00000000  -0.00000000  1.0
  Sn  Sn2  1  0.14991087  0.14991087  0.14991087  1.0
  Sn  Sn3  1  0.85008913  -0.14991087  -0.14991087  1.0
  Sn  Sn4  1  0.34427803  0.34427803  -0.65572197  1.0
  Sn  Sn5  1  0.65572197  0.65572197  -0.34427803  1.0
  P  P6  1  0.53817928  0.25180490  -0.03937860  1.0
  P  P7  1  1.03937860  -0.53817928  -0.25180490  1.0
  P  P8  1  0.74819510  0.03937860  -0.53817928  1.0
  P  P9  1  0.46182072  -0.25180490  0.03937860  1.0
  P  P10  1  0.96062140  0.53817928  -0.74819510  1.0
  P  P11  1  0.25180490  0.96062140  -0.46182072  1.0
  O  O12  1  0.23811647  0.97679938  -0.62606466  1.0
  O  O13  1  0.62606466  -0.23811647  0.02320062  1.0
  O  O14  1  1.02320062  -0.37393534  -0.23811647  1.0
  O  O15  1  0.76188353  0.02320062  -0.37393534  1.0
  O  O16  1  0.37393534  0.23811647  -0.02320062  1.0
  O  O17  1  0.97679938  0.37393534  -0.76188353  1.0
  O  O18  1  0.54274237  0.18067130  -0.53182345  1.0
  O  O19  1  0.53182345  0.45725763  -0.18067130  1.0
  O  O20  1  0.81932870  0.53182345  -0.54274237  1.0
  O  O21  1  0.45725763  0.81932870  -0.46817655  1.0
  O  O22  1  0.46817655  0.54274237  -0.81932870  1.0
  O  O23  1  0.18067130  0.46817655  -0.45725763  1.0
  O  O24  1  0.26992327  0.89492088  -0.87880199  1.0
  O  O25  1  0.87880199  -0.26992327  0.10507912  1.0
  O  O26  1  1.10507912  -0.12119801  -0.26992327  1.0
  O  O27  1  0.73007673  0.10507912  -0.12119801  1.0
  O  O28  1  0.12119801  0.26992327  -0.10507912  1.0
  O  O29  1  0.89492088  0.12119801  -0.73007673  1.0
  O  O30  1  0.52633264  0.20883707  0.15334640  1.0
  O  O31  1  0.84665360  -0.52633264  -0.20883707  1.0
  O  O32  1  0.79116293  -0.15334640  -0.52633264  1.0
  O  O33  1  0.47366736  -0.20883707  -0.15334640  1.0
  O  O34  1  1.15334640  -0.47366736  0.20883707  1.0
  O  O35  1  1.20883707  0.15334640  -0.47366736  1.0
