# generated using pymatgen
data_C4S3N5
_symmetry_space_group_name_H-M   'P 1'
_cell_length_a   8.17007358
_cell_length_b   12.35658775
_cell_length_c   9.99504151
_cell_angle_alpha   65.39892254
_cell_angle_beta   69.96309253
_cell_angle_gamma   65.07193910
_symmetry_Int_Tables_number   1
_chemical_formula_structural   C4S3N5
_chemical_formula_sum   'C16 S12 N20'
_cell_volume   814.69948910
_cell_formula_units_Z   4
loop_
 _symmetry_equiv_pos_site_id
 _symmetry_equiv_pos_as_xyz
  1  'x, y, z'
loop_
 _atom_site_type_symbol
 _atom_site_label
 _atom_site_symmetry_multiplicity
 _atom_site_fract_x
 _atom_site_fract_y
 _atom_site_fract_z
 _atom_site_occupancy
  C  C0  1  -0.52677994  -0.25264151  -0.39858508  1.0
  C  C1  1  -0.47322006  -0.74735849  -0.60141492  1.0
  C  C2  1  -0.55076635  -0.21034635  -0.63382756  1.0
  C  C3  1  -0.44923365  -0.78965365  -0.36617244  1.0
  C  C4  1  -0.42311812  -0.33650336  -0.63199465  1.0
  C  C5  1  -0.57688188  -0.66349664  -0.36800535  1.0
  C  C6  1  -0.39964748  -0.37741883  -0.39715112  1.0
  C  C7  1  -0.60035252  -0.62258117  -0.60284888  1.0
  C  C8  1  -1.01259609  -0.27015612  -0.54305008  1.0
  C  C9  1  0.01259609  -0.72984388  -0.45694992  1.0
  C  C10  1  -0.03952361  -0.22971739  -0.77679207  1.0
  C  C11  1  -0.96047639  -0.77028261  -0.22320793  1.0
  C  C12  1  -0.16169586  -0.10204527  -0.78043229  1.0
  C  C13  1  -0.83830414  -0.89795473  -0.21956771  1.0
  C  C14  1  -0.13286095  -0.14339014  -0.54695271  1.0
  C  C15  1  -0.86713905  -0.85660986  -0.45304729  1.0
  S  S16  1  -0.56487943  -0.22431132  -0.23211224  1.0
  S  S17  1  -0.43512057  -0.77568868  -0.76788776  1.0
  S  S18  1  -0.32059006  -0.46327131  -0.22951540  1.0
  S  S19  1  -0.67940994  -0.53672869  -0.77048460  1.0
  S  S20  1  -0.50311068  -0.23010209  -0.87277897  1.0
  S  S21  1  -0.49688932  -0.76989791  -0.12722103  1.0
  S  S22  1  -0.17296592  -0.11581975  -0.37952239  1.0
  S  S23  1  -0.82703408  -0.88418025  -0.62047761  1.0
  S  S24  1  -0.94416855  -0.35927364  -0.37116589  1.0
  S  S25  1  -0.05583145  -0.64072636  -0.62883411  1.0
  S  S26  1  -0.13687054  -0.12804733  -0.01069145  1.0
  S  S27  1  -0.86312946  -0.87195267  -0.98930855  1.0
  N  N28  1  -0.60342185  -0.16897728  -0.51483823  1.0
  N  N29  1  -0.39657815  -0.83102272  -0.48516177  1.0
  N  N30  1  -0.34773927  -0.42043047  -0.51179997  1.0
  N  N31  1  -0.65226073  -0.57956953  -0.48820003  1.0
  N  N32  1  -0.43528798  -0.36039603  -0.13989383  1.0
  N  N33  1  -0.56471203  -0.63960397  -0.86010617  1.0
  N  N34  1  -0.60768093  -0.14078415  -0.76447356  1.0
  N  N35  1  -0.39231907  -0.85921585  -0.23552644  1.0
  N  N36  1  -0.38690867  -0.35940993  -0.76092721  1.0
  N  N37  1  -0.61309133  -0.64059007  -0.23907279  1.0
  N  N38  1  -0.96384761  -0.31386223  -0.65665486  1.0
  N  N39  1  -0.03615239  -0.68613777  -0.34334514  1.0
  N  N40  1  -0.20684688  -0.05882719  -0.66402604  1.0
  N  N41  1  -0.79315312  -0.94117281  -0.33597396  1.0
  N  N42  1  -1.04930523  -0.25362896  -0.28478951  1.0
  N  N43  1  0.04930523  -0.74637104  -0.71521049  1.0
  N  N44  1  -1.01336663  -0.25538677  -0.90186829  1.0
  N  N45  1  0.01336663  -0.74461323  -0.09813171  1.0
  N  N46  1  -0.22535037  -0.03424253  -0.90831631  1.0
  N  N47  1  -0.77464963  -0.96575747  -0.09168369  1.0
