# generated using pymatgen
data_ScIn2
_symmetry_space_group_name_H-M   'P 1'
_cell_length_a   7.22014876
_cell_length_b   7.22014876
_cell_length_c   4.49788242
_cell_angle_alpha   90.00000000
_cell_angle_beta   90.00000000
_cell_angle_gamma   143.80783580
_symmetry_Int_Tables_number   1
_chemical_formula_structural   ScIn2
_chemical_formula_sum   'Sc2 In4'
_cell_volume   138.45761187
_cell_formula_units_Z   2
loop_
 _symmetry_equiv_pos_site_id
 _symmetry_equiv_pos_as_xyz
  1  'x, y, z'
loop_
 _atom_site_type_symbol
 _atom_site_label
 _atom_site_symmetry_multiplicity
 _atom_site_fract_x
 _atom_site_fract_y
 _atom_site_fract_z
 _atom_site_occupancy
  Sc  Sc0  1  -0.84336619  0.84336619  0.50000000  1.0
  Sc  Sc1  1  -0.15663381  1.15663381  0.50000000  1.0
  In  In2  1  -0.67605566  0.67605566  0.00000000  1.0
  In  In3  1  -0.32394434  1.32394434  0.00000000  1.0
  In  In4  1  0.50000000  0.50000000  0.50000000  1.0
  In  In5  1  0.00000000  0.00000000  0.00000000  1.0
