# generated using pymatgen
data_SiS2
_symmetry_space_group_name_H-M   'P 1'
_cell_length_a   5.82000073
_cell_length_b   5.82000073
_cell_length_c   6.85442369
_cell_angle_alpha   90.00000000
_cell_angle_beta   90.00000000
_cell_angle_gamma   120.00000000
_symmetry_Int_Tables_number   1
_chemical_formula_structural   SiS2
_chemical_formula_sum   'Si3 S6'
_cell_volume   201.07017496
_cell_formula_units_Z   3
loop_
 _symmetry_equiv_pos_site_id
 _symmetry_equiv_pos_as_xyz
  1  'x, y, z'
loop_
 _atom_site_type_symbol
 _atom_site_label
 _atom_site_symmetry_multiplicity
 _atom_site_fract_x
 _atom_site_fract_y
 _atom_site_fract_z
 _atom_site_occupancy
  Si  Si0  1  0.45713825  -0.00000000  0.66666667  1.0
  Si  Si1  1  0.00000000  0.45713825  0.33333333  1.0
  Si  Si2  1  0.54286175  0.54286175  0.00000000  1.0
  S  S3  1  0.37243746  0.31185960  0.73922410  1.0
  S  S4  1  0.31185960  0.37243746  0.26077590  1.0
  S  S5  1  0.68814040  0.06057786  0.40589077  1.0
  S  S6  1  0.62756254  0.93942214  0.92744256  1.0
  S  S7  1  0.93942214  0.62756254  0.07255744  1.0
  S  S8  1  0.06057786  0.68814040  0.59410923  1.0
