# generated using pymatgen
data_LaFe5H7
_symmetry_space_group_name_H-M   'P 1'
_cell_length_a   5.66367854
_cell_length_b   5.66367854
_cell_length_c   8.22581454
_cell_angle_alpha   90.00000000
_cell_angle_beta   90.00000000
_cell_angle_gamma   120.00000000
_symmetry_Int_Tables_number   1
_chemical_formula_structural   LaFe5H7
_chemical_formula_sum   'La2 Fe10 H14'
_cell_volume   228.51080313
_cell_formula_units_Z   2
loop_
 _symmetry_equiv_pos_site_id
 _symmetry_equiv_pos_as_xyz
  1  'x, y, z'
loop_
 _atom_site_type_symbol
 _atom_site_label
 _atom_site_symmetry_multiplicity
 _atom_site_fract_x
 _atom_site_fract_y
 _atom_site_fract_z
 _atom_site_occupancy
  La  La0  1  0.00000000  0.00000000  0.52269730  1.0
  La  La1  1  0.00000000  0.00000000  0.02269730  1.0
  Fe  Fe2  1  0.66666667  0.33333333  0.01607928  1.0
  Fe  Fe3  1  0.33333333  0.66666667  0.51607928  1.0
  Fe  Fe4  1  0.66666667  0.33333333  0.49025979  1.0
  Fe  Fe5  1  0.33333333  0.66666667  0.99025979  1.0
  Fe  Fe6  1  0.51178842  0.02357685  0.77320840  1.0
  Fe  Fe7  1  0.97642315  0.48821158  0.77320840  1.0
  Fe  Fe8  1  0.51178842  0.48821158  0.77320840  1.0
  Fe  Fe9  1  0.48821158  0.97642315  0.27320840  1.0
  Fe  Fe10  1  0.02357685  0.51178842  0.27320840  1.0
  Fe  Fe11  1  0.48821158  0.51178842  0.27320840  1.0
  H  H12  1  0.66666667  0.33333333  0.26715931  1.0
  H  H13  1  0.33333333  0.66666667  0.76715931  1.0
  H  H14  1  0.85877764  0.14122236  0.77330584  1.0
  H  H15  1  0.85877764  0.71755528  0.77330584  1.0
  H  H16  1  0.28244472  0.14122236  0.77330584  1.0
  H  H17  1  0.14122236  0.85877764  0.27330584  1.0
  H  H18  1  0.14122236  0.28244472  0.27330584  1.0
  H  H19  1  0.71755528  0.85877764  0.27330584  1.0
  H  H20  1  0.50272062  0.00544124  0.56042053  1.0
  H  H21  1  0.99455876  0.49727938  0.56042053  1.0
  H  H22  1  0.50272062  0.49727938  0.56042053  1.0
  H  H23  1  0.49727938  0.99455876  0.06042053  1.0
  H  H24  1  0.00544124  0.50272062  0.06042053  1.0
  H  H25  1  0.49727938  0.50272062  0.06042053  1.0
