# generated using pymatgen
data_CdH2SeO5
_symmetry_space_group_name_H-M   'P 1'
_cell_length_a   7.98465082
_cell_length_b   7.77951388
_cell_length_c   8.51057591
_cell_angle_alpha   90.00000000
_cell_angle_beta   122.54061334
_cell_angle_gamma   90.00000000
_symmetry_Int_Tables_number   1
_chemical_formula_structural   CdH2SeO5
_chemical_formula_sum   'Cd4 H8 Se4 O20'
_cell_volume   445.65651359
_cell_formula_units_Z   4
loop_
 _symmetry_equiv_pos_site_id
 _symmetry_equiv_pos_as_xyz
  1  'x, y, z'
loop_
 _atom_site_type_symbol
 _atom_site_label
 _atom_site_symmetry_multiplicity
 _atom_site_fract_x
 _atom_site_fract_y
 _atom_site_fract_z
 _atom_site_occupancy
  Cd  Cd0  1  0.78308532  0.73875215  0.24476569  1.0
  Cd  Cd1  1  0.78308532  0.76124785  0.74476569  1.0
  Cd  Cd2  1  0.21691468  0.23875215  0.25523431  1.0
  Cd  Cd3  1  0.21691468  0.26124785  0.75523431  1.0
  H  H4  1  0.79976437  1.01312312  0.49347129  1.0
  H  H5  1  0.79976437  0.48687688  0.99347129  1.0
  H  H6  1  0.20023563  0.51312312  0.00652871  1.0
  H  H7  1  0.20023563  -0.01312312  0.50652871  1.0
  H  H8  1  0.41527713  0.43265509  0.11556102  1.0
  H  H9  1  0.41527713  0.06734491  0.61556102  1.0
  H  H10  1  0.58472287  0.93265509  0.38443898  1.0
  H  H11  1  0.58472287  0.56734491  0.88443898  1.0
  Se  Se12  1  0.73835546  0.38641225  0.48501914  1.0
  Se  Se13  1  0.73835546  0.11358775  0.98501914  1.0
  Se  Se14  1  0.26164454  0.88641225  0.01498086  1.0
  Se  Se15  1  0.26164454  0.61358775  0.51498086  1.0
  O  O16  1  0.89331437  0.27192816  0.00721315  1.0
  O  O17  1  0.89331437  0.22807184  0.50721315  1.0
  O  O18  1  0.10668563  0.77192816  0.49278685  1.0
  O  O19  1  0.10668563  0.72807184  0.99278685  1.0
  O  O20  1  0.87810583  0.98263901  0.16426196  1.0
  O  O21  1  0.87810583  0.51736099  0.66426196  1.0
  O  O22  1  0.12189417  0.48263901  0.33573804  1.0
  O  O23  1  0.12189417  0.01736099  0.83573804  1.0
  O  O24  1  0.72867546  0.90092772  0.46476388  1.0
  O  O25  1  0.72867546  0.59907228  0.96476388  1.0
  O  O26  1  0.27132454  0.40092772  0.03523612  1.0
  O  O27  1  0.27132454  0.09907228  0.53523612  1.0
  O  O28  1  0.65396030  0.49283236  0.28333477  1.0
  O  O29  1  0.65396030  0.00716764  0.78333477  1.0
  O  O30  1  0.34603970  0.99283236  0.21666523  1.0
  O  O31  1  0.34603970  0.50716764  0.71666523  1.0
  O  O32  1  0.54721358  0.30283423  0.48389070  1.0
  O  O33  1  0.54721358  0.19716577  0.98389070  1.0
  O  O34  1  0.45278642  0.80283423  0.01610930  1.0
  O  O35  1  0.45278642  0.69716577  0.51610930  1.0
