# generated using pymatgen
data_Al2PbO4
_symmetry_space_group_name_H-M   'P 1'
_cell_length_a   5.33688237
_cell_length_b   5.33688237
_cell_length_c   8.59638891
_cell_angle_alpha   90.00000000
_cell_angle_beta   90.00000000
_cell_angle_gamma   58.02041164
_symmetry_Int_Tables_number   1
_chemical_formula_structural   Al2PbO4
_chemical_formula_sum   'Al4 Pb2 O8'
_cell_volume   207.68658201
_cell_formula_units_Z   2
loop_
 _symmetry_equiv_pos_site_id
 _symmetry_equiv_pos_as_xyz
  1  'x, y, z'
loop_
 _atom_site_type_symbol
 _atom_site_label
 _atom_site_symmetry_multiplicity
 _atom_site_fract_x
 _atom_site_fract_y
 _atom_site_fract_z
 _atom_site_occupancy
  Al  Al0  1  -0.28088525  0.93715773  0.05414179  1.0
  Al  Al1  1  0.06284227  0.28088525  0.55414179  1.0
  Al  Al2  1  0.06284227  0.28088525  0.94585821  1.0
  Al  Al3  1  -0.28088525  0.93715773  0.44585821  1.0
  Pb  Pb4  1  -0.60919866  0.67244542  0.75000000  1.0
  Pb  Pb5  1  0.32755458  0.60919866  0.25000000  1.0
  O  O6  1  -0.25950344  0.64121862  0.55305894  1.0
  O  O7  1  -0.64121862  1.25950344  0.05305894  1.0
  O  O8  1  -0.64121862  1.25950344  0.44694106  1.0
  O  O9  1  -0.25950344  0.64121862  0.94694106  1.0
  O  O10  1  -0.80943295  1.18179900  0.75000000  1.0
  O  O11  1  -0.18179900  0.80943295  0.25000000  1.0
  O  O12  1  0.00180306  -0.00180306  0.50000000  1.0
  O  O13  1  0.00180306  -0.00180306  0.00000000  1.0
