# generated using pymatgen
data_La(BIr)2
_symmetry_space_group_name_H-M   'P 1'
_cell_length_a   7.10969688
_cell_length_b   6.14398787
_cell_length_c   5.63691467
_cell_angle_alpha   74.10045515
_cell_angle_beta   56.21293320
_cell_angle_gamma   49.68661165
_symmetry_Int_Tables_number   1
_chemical_formula_structural   La(BIr)2
_chemical_formula_sum   'La2 B4 Ir4'
_cell_volume   154.60757473
_cell_formula_units_Z   2
loop_
 _symmetry_equiv_pos_site_id
 _symmetry_equiv_pos_as_xyz
  1  'x, y, z'
loop_
 _atom_site_type_symbol
 _atom_site_label
 _atom_site_symmetry_multiplicity
 _atom_site_fract_x
 _atom_site_fract_y
 _atom_site_fract_z
 _atom_site_occupancy
  La  La0  1  0.50000000  -0.50000000  0.50000000  1.0
  La  La1  1  0.75000000  0.75000000  0.75000000  1.0
  B  B2  1  0.82219380  -0.82219380  0.82219380  1.0
  B  B3  1  1.42780620  0.07219380  0.42780620  1.0
  B  B4  1  0.17780620  -0.17780620  0.17780620  1.0
  B  B5  1  1.07219380  0.42780620  0.07219380  1.0
  Ir  Ir6  1  0.86911160  0.86911160  -0.86911160  1.0
  Ir  Ir7  1  0.13088840  0.13088840  -0.13088840  1.0
  Ir  Ir8  1  1.38088840  0.38088840  0.11911160  1.0
  Ir  Ir9  1  0.11911160  0.11911160  1.38088840  1.0
