# generated using pymatgen
data_Cr5(Re3Ni2)2
_symmetry_space_group_name_H-M   'P 1'
_cell_length_a   9.11580676
_cell_length_b   9.11580676
_cell_length_c   4.59134346
_cell_angle_alpha   90.00000000
_cell_angle_beta   90.00000000
_cell_angle_gamma   90.00000000
_symmetry_Int_Tables_number   1
_chemical_formula_structural   Cr5(Re3Ni2)2
_chemical_formula_sum   'Cr10 Re12 Ni8'
_cell_volume   381.53115064
_cell_formula_units_Z   2
loop_
 _symmetry_equiv_pos_site_id
 _symmetry_equiv_pos_as_xyz
  1  'x, y, z'
loop_
 _atom_site_type_symbol
 _atom_site_label
 _atom_site_symmetry_multiplicity
 _atom_site_fract_x
 _atom_site_fract_y
 _atom_site_fract_z
 _atom_site_occupancy
  Cr  Cr0  1  0.50000000  0.50000000  0.50000000  1.0
  Cr  Cr1  1  0.00000000  0.00000000  0.00000000  1.0
  Cr  Cr2  1  0.31715256  0.68284744  0.25723528  1.0
  Cr  Cr3  1  0.68284744  0.31715256  0.25723528  1.0
  Cr  Cr4  1  0.18284744  0.18284744  0.75723528  1.0
  Cr  Cr5  1  0.81715256  0.81715256  0.75723528  1.0
  Cr  Cr6  1  0.68284744  0.31715256  0.74276472  1.0
  Cr  Cr7  1  0.31715256  0.68284744  0.74276472  1.0
  Cr  Cr8  1  0.81715256  0.81715256  0.24276472  1.0
  Cr  Cr9  1  0.18284744  0.18284744  0.24276472  1.0
  Re  Re10  1  0.10101196  0.89898804  0.50000000  1.0
  Re  Re11  1  0.89898804  0.10101196  0.50000000  1.0
  Re  Re12  1  0.39898804  0.39898804  0.00000000  1.0
  Re  Re13  1  0.60101196  0.60101196  0.00000000  1.0
  Re  Re14  1  0.36779897  0.96234548  0.50000000  1.0
  Re  Re15  1  0.63220103  0.03765452  0.50000000  1.0
  Re  Re16  1  0.13220103  0.46234548  0.00000000  1.0
  Re  Re17  1  0.86779897  0.53765452  0.00000000  1.0
  Re  Re18  1  0.96234548  0.36779897  0.50000000  1.0
  Re  Re19  1  0.03765452  0.63220103  0.50000000  1.0
  Re  Re20  1  0.46234548  0.13220103  0.00000000  1.0
  Re  Re21  1  0.53765452  0.86779897  0.00000000  1.0
  Ni  Ni22  1  0.43330516  0.24525332  0.50000000  1.0
  Ni  Ni23  1  0.56669484  0.75474668  0.50000000  1.0
  Ni  Ni24  1  0.06669484  0.74525332  0.00000000  1.0
  Ni  Ni25  1  0.93330516  0.25474668  0.00000000  1.0
  Ni  Ni26  1  0.24525332  0.43330516  0.50000000  1.0
  Ni  Ni27  1  0.75474668  0.56669484  0.50000000  1.0
  Ni  Ni28  1  0.74525332  0.06669484  0.00000000  1.0
  Ni  Ni29  1  0.25474668  0.93330516  0.00000000  1.0
