# generated using pymatgen
data_Ba2GaBiTe5
_symmetry_space_group_name_H-M   'P 1'
_cell_length_a   13.81390513
_cell_length_b   9.72631535
_cell_length_c   10.08393335
_cell_angle_alpha   90.00000000
_cell_angle_beta   90.00000000
_cell_angle_gamma   90.00000000
_symmetry_Int_Tables_number   1
_chemical_formula_structural   Ba2GaBiTe5
_chemical_formula_sum   'Ba8 Ga4 Bi4 Te20'
_cell_volume   1354.86112626
_cell_formula_units_Z   4
loop_
 _symmetry_equiv_pos_site_id
 _symmetry_equiv_pos_as_xyz
  1  'x, y, z'
loop_
 _atom_site_type_symbol
 _atom_site_label
 _atom_site_symmetry_multiplicity
 _atom_site_fract_x
 _atom_site_fract_y
 _atom_site_fract_z
 _atom_site_occupancy
  Ba  Ba0  1  0.17611072  0.99373431  0.88125317  1.0
  Ba  Ba1  1  0.17611072  0.50626569  0.88125317  1.0
  Ba  Ba2  1  0.67611072  0.99373431  0.61874683  1.0
  Ba  Ba3  1  0.67611072  0.50626569  0.61874683  1.0
  Ba  Ba4  1  0.82388928  0.49373431  0.11874683  1.0
  Ba  Ba5  1  0.82388928  0.00626569  0.11874683  1.0
  Ba  Ba6  1  0.32388928  0.49373431  0.38125317  1.0
  Ba  Ba7  1  0.32388928  0.00626569  0.38125317  1.0
  Ga  Ga8  1  0.39929337  0.75000000  0.66546999  1.0
  Ga  Ga9  1  0.89929337  0.75000000  0.83453001  1.0
  Ga  Ga10  1  0.60070663  0.25000000  0.33453001  1.0
  Ga  Ga11  1  0.10070663  0.25000000  0.16546999  1.0
  Bi  Bi12  1  0.47023318  0.75000000  0.02661579  1.0
  Bi  Bi13  1  0.97023318  0.75000000  0.47338421  1.0
  Bi  Bi14  1  0.52976682  0.25000000  0.97338421  1.0
  Bi  Bi15  1  0.02976682  0.25000000  0.52661579  1.0
  Te  Te16  1  0.43898402  0.96788275  0.82071246  1.0
  Te  Te17  1  0.43898402  0.53211725  0.82071246  1.0
  Te  Te18  1  0.93898402  0.96788275  0.67928754  1.0
  Te  Te19  1  0.93898402  0.53211725  0.67928754  1.0
  Te  Te20  1  0.56101598  0.46788275  0.17928754  1.0
  Te  Te21  1  0.56101598  0.03211725  0.17928754  1.0
  Te  Te22  1  0.06101598  0.46788275  0.32071246  1.0
  Te  Te23  1  0.06101598  0.03211725  0.32071246  1.0
  Te  Te24  1  0.27281328  0.75000000  0.12849985  1.0
  Te  Te25  1  0.77281328  0.75000000  0.37150015  1.0
  Te  Te26  1  0.72718672  0.25000000  0.87150015  1.0
  Te  Te27  1  0.22718672  0.25000000  0.62849985  1.0
  Te  Te28  1  0.21293959  0.75000000  0.61444223  1.0
  Te  Te29  1  0.71293959  0.75000000  0.88555777  1.0
  Te  Te30  1  0.78706041  0.25000000  0.38555777  1.0
  Te  Te31  1  0.28706041  0.25000000  0.11444223  1.0
  Te  Te32  1  0.00777345  0.75000000  0.04475368  1.0
  Te  Te33  1  0.50777345  0.75000000  0.45524632  1.0
  Te  Te34  1  0.99222655  0.25000000  0.95524632  1.0
  Te  Te35  1  0.49222655  0.25000000  0.54475368  1.0
