# generated using pymatgen
data_K2H2C2O5
_symmetry_space_group_name_H-M   'P 1'
_cell_length_a   5.57250309
_cell_length_b   5.57250309
_cell_length_c   10.63015311
_cell_angle_alpha   75.65153507
_cell_angle_beta   104.34846493
_cell_angle_gamma   109.25740932
_symmetry_Int_Tables_number   1
_chemical_formula_structural   K2H2C2O5
_chemical_formula_sum   'K4 H4 C4 O10'
_cell_volume   296.88558517
_cell_formula_units_Z   2
loop_
 _symmetry_equiv_pos_site_id
 _symmetry_equiv_pos_as_xyz
  1  'x, y, z'
loop_
 _atom_site_type_symbol
 _atom_site_label
 _atom_site_symmetry_multiplicity
 _atom_site_fract_x
 _atom_site_fract_y
 _atom_site_fract_z
 _atom_site_occupancy
  K  K0  1  1.47089934  0.20606470  0.13165024  1.0
  K  K1  1  0.79393530  0.52910066  0.63165024  1.0
  K  K2  1  1.20606470  0.47089934  0.36834976  1.0
  K  K3  1  1.52910066  -0.20606470  0.86834976  1.0
  H  H4  1  1.87378772  -0.05110583  0.30835013  1.0
  H  H5  1  1.05110583  0.12621228  0.80835013  1.0
  H  H6  1  0.94889417  0.87378772  0.19164987  1.0
  H  H7  1  1.12621228  0.05110583  0.69164987  1.0
  C  C8  1  1.59358583  0.04961753  0.44791632  1.0
  C  C9  1  0.95038247  0.40641417  0.94791632  1.0
  C  C10  1  1.04961753  0.59358583  0.05208368  1.0
  C  C11  1  1.40641417  -0.04961753  0.55208368  1.0
  O  O12  1  0.64654347  -0.12356871  0.41033364  1.0
  O  O13  1  1.12356871  0.35345653  0.91033364  1.0
  O  O14  1  0.87643129  0.64654347  0.08966636  1.0
  O  O15  1  0.35345653  0.12356871  0.58966636  1.0
  O  O16  1  1.67391412  0.29032612  0.40855825  1.0
  O  O17  1  0.70967388  0.32608588  0.90855825  1.0
  O  O18  1  1.29032612  0.67391412  0.09144175  1.0
  O  O19  1  1.32608588  -0.29032612  0.59144175  1.0
  O  O20  1  1.00468890  1.00468890  0.25000000  1.0
  O  O21  1  0.99531110  -0.00468890  0.75000000  1.0
