# generated using pymatgen
data_Li5W2O7
_symmetry_space_group_name_H-M   'P 1'
_cell_length_a   5.05424618
_cell_length_b   9.25794630
_cell_length_c   6.14997020
_cell_angle_alpha   70.01604927
_cell_angle_beta   71.69410274
_cell_angle_gamma   77.27253008
_symmetry_Int_Tables_number   1
_chemical_formula_structural   Li5W2O7
_chemical_formula_sum   'Li10 W4 O14'
_cell_volume   254.68932520
_cell_formula_units_Z   2
loop_
 _symmetry_equiv_pos_site_id
 _symmetry_equiv_pos_as_xyz
  1  'x, y, z'
loop_
 _atom_site_type_symbol
 _atom_site_label
 _atom_site_symmetry_multiplicity
 _atom_site_fract_x
 _atom_site_fract_y
 _atom_site_fract_z
 _atom_site_occupancy
  Li  Li0  1  -0.82178295  -0.92678246  -0.43712751  1.0
  Li  Li1  1  -0.17821705  -0.07321754  -0.56287249  1.0
  Li  Li2  1  -0.92952904  -0.65001530  -0.34038837  1.0
  Li  Li3  1  -0.07047096  -0.34998470  -0.65961163  1.0
  Li  Li4  1  -0.80974366  -0.93167236  -0.97820081  1.0
  Li  Li5  1  -0.19025634  -0.06832764  -0.02179919  1.0
  Li  Li6  1  -0.63887680  -0.21409037  -0.60421610  1.0
  Li  Li7  1  -0.36112320  -0.78590963  -0.39578390  1.0
  Li  Li8  1  -0.52868939  -0.49880643  -0.68959429  1.0
  Li  Li9  1  -0.47131061  -0.50119357  -0.31040571  1.0
  W  W10  1  -0.92167780  -0.63448697  -0.83634311  1.0
  W  W11  1  -0.07832220  -0.36551303  -0.16365689  1.0
  W  W12  1  -0.40004736  -0.78623524  -0.89632174  1.0
  W  W13  1  -0.59995264  -0.21376476  -0.10367826  1.0
  O  O14  1  -0.80810245  -0.42765827  -0.42783133  1.0
  O  O15  1  -0.19189755  -0.57234173  -0.57216867  1.0
  O  O16  1  -0.75749149  -0.42576701  -0.96814449  1.0
  O  O17  1  -0.24250851  -0.57423299  -0.03185551  1.0
  O  O18  1  -0.89193895  -0.15207283  -0.83887252  1.0
  O  O19  1  -0.10806105  -0.84792717  -0.16112748  1.0
  O  O20  1  -0.08113559  -0.83959464  -0.71175851  1.0
  O  O21  1  -0.91886441  -0.16040536  -0.28824149  1.0
  O  O22  1  -0.65219218  -0.70866542  -0.61180064  1.0
  O  O23  1  -0.34780782  -0.29133458  -0.38819936  1.0
  O  O24  1  -0.50295639  -0.98076157  -0.75019300  1.0
  O  O25  1  -0.49704361  -0.01923843  -0.24980700  1.0
  O  O26  1  -0.35156137  -0.28935776  -0.87766156  1.0
  O  O27  1  -0.64843863  -0.71064224  -0.12233844  1.0
