# generated using pymatgen
data_In2O3
_symmetry_space_group_name_H-M   'P 1'
_cell_length_a   8.91696354
_cell_length_b   8.91696354
_cell_length_c   8.91696354
_cell_angle_alpha   109.47122063
_cell_angle_beta   109.47122063
_cell_angle_gamma   109.47122063
_symmetry_Int_Tables_number   1
_chemical_formula_structural   In2O3
_chemical_formula_sum   'In16 O24'
_cell_volume   545.79440803
_cell_formula_units_Z   8
loop_
 _symmetry_equiv_pos_site_id
 _symmetry_equiv_pos_as_xyz
  1  'x, y, z'
loop_
 _atom_site_type_symbol
 _atom_site_label
 _atom_site_symmetry_multiplicity
 _atom_site_fract_x
 _atom_site_fract_y
 _atom_site_fract_z
 _atom_site_occupancy
  In  In0  1  1.71622034  1.46622034  1.25000000  1.0
  In  In1  1  1.21622034  0.96622034  1.25000000  1.0
  In  In2  1  0.75000000  0.78377966  0.03377966  1.0
  In  In3  1  0.25000000  1.21622034  0.96622034  1.0
  In  In4  1  0.25000000  0.71622034  0.46622034  1.0
  In  In5  1  0.75000000  1.28377966  0.53377966  1.0
  In  In6  1  1.46622034  1.25000000  1.71622034  1.0
  In  In7  1  0.96622034  0.25000000  1.21622034  1.0
  In  In8  1  0.03377966  0.75000000  0.78377966  1.0
  In  In9  1  0.53377966  0.75000000  0.28377966  1.0
  In  In10  1  0.28377966  0.53377966  0.75000000  1.0
  In  In11  1  0.78377966  1.03377966  0.75000000  1.0
  In  In12  1  1.00000000  0.50000000  1.00000000  1.0
  In  In13  1  0.50000000  0.50000000  0.50000000  1.0
  In  In14  1  1.00000000  1.00000000  1.50000000  1.0
  In  In15  1  1.50000000  1.00000000  1.00000000  1.0
  O  O16  1  0.54417978  0.53692117  0.77209914  1.0
  O  O17  1  1.04417978  0.27208065  1.00725861  1.0
  O  O18  1  0.26482204  0.77208065  0.72790086  1.0
  O  O19  1  0.76482204  1.03692117  0.49274139  1.0
  O  O20  1  0.50725861  1.23517796  0.96307883  1.0
  O  O21  1  1.00725861  1.04417978  0.27208065  1.0
  O  O22  1  0.77209914  0.54417978  0.53692117  1.0
  O  O23  1  1.27209914  0.73517796  1.22791935  1.0
  O  O24  1  0.77208065  0.72790086  0.26482204  1.0
  O  O25  1  1.27208065  1.00725861  1.04417978  1.0
  O  O26  1  0.96307883  0.50725861  1.23517796  1.0
  O  O27  1  1.46307883  1.22790086  1.45582022  1.0
  O  O28  1  1.73517796  1.22791935  1.27209914  1.0
  O  O29  1  1.23517796  0.96307883  1.50725861  1.0
  O  O30  1  1.45582022  1.46307883  1.22790086  1.0
  O  O31  1  0.95582022  1.72791935  0.99274139  1.0
  O  O32  1  1.22790086  1.45582022  1.46307883  1.0
  O  O33  1  0.72790086  1.26482204  0.77208065  1.0
  O  O34  1  1.49274139  0.76482204  1.03692117  1.0
  O  O35  1  0.99274139  0.95582022  1.72791935  1.0
  O  O36  1  1.03692117  1.49274139  0.76482204  1.0
  O  O37  1  0.53692117  0.77209914  0.54417978  1.0
  O  O38  1  1.22791935  1.27209914  1.73517796  1.0
  O  O39  1  0.72791935  0.99274139  0.95582022  1.0
