# generated using pymatgen
data_YCoC6(N3O2)2
_symmetry_space_group_name_H-M   'P 1'
_cell_length_a   7.42807295
_cell_length_b   7.42807295
_cell_length_c   13.05500153
_cell_angle_alpha   90.00000000
_cell_angle_beta   90.00000000
_cell_angle_gamma   119.73352242
_symmetry_Int_Tables_number   1
_chemical_formula_structural   YCoC6(N3O2)2
_chemical_formula_sum   'Y2 Co2 C12 N12 O8'
_cell_volume   625.48917317
_cell_formula_units_Z   2
loop_
 _symmetry_equiv_pos_site_id
 _symmetry_equiv_pos_as_xyz
  1  'x, y, z'
loop_
 _atom_site_type_symbol
 _atom_site_label
 _atom_site_symmetry_multiplicity
 _atom_site_fract_x
 _atom_site_fract_y
 _atom_site_fract_z
 _atom_site_occupancy
  C  C0  1  0.11794118  0.23578230  0.91677814  1.0
  C  C1  1  0.11794118  0.23578230  0.58322186  1.0
  C  C2  1  0.23578230  1.11794118  0.41677814  1.0
  C  C3  1  0.23578230  1.11794118  0.08322186  1.0
  C  C4  1  0.76421770  0.88205882  0.91677814  1.0
  C  C5  1  0.76421770  0.88205882  0.58322186  1.0
  C  C6  1  -0.11794118  0.76421770  0.41677814  1.0
  C  C7  1  -0.11794118  0.76421770  0.08322186  1.0
  C  C8  1  0.11884774  0.88115226  0.91757249  1.0
  C  C9  1  0.11884774  0.88115226  0.58242751  1.0
  C  C10  1  -0.11884774  0.11884774  0.41757249  1.0
  C  C11  1  -0.11884774  0.11884774  0.08242751  1.0
  O  O12  1  -0.35749833  0.35749833  0.82777407  1.0
  O  O13  1  -0.35749833  0.35749833  0.67222593  1.0
  O  O14  1  0.35749833  0.64250167  0.32777407  1.0
  O  O15  1  0.35749833  0.64250167  0.17222593  1.0
  O  O16  1  -0.19344454  0.46576515  0.75000000  1.0
  O  O17  1  0.46576515  0.80655546  0.25000000  1.0
  O  O18  1  0.53423485  1.19344454  0.75000000  1.0
  O  O19  1  0.19344454  0.53423485  0.25000000  1.0
  Y  Y20  1  0.33456662  0.66543338  0.75000000  1.0
  Y  Y21  1  -0.33456662  0.33456662  0.25000000  1.0
  N  N22  1  0.19162195  0.38198015  0.86405125  1.0
  N  N23  1  0.19162195  0.38198015  0.63594875  1.0
  N  N24  1  0.38198015  1.19162195  0.36405125  1.0
  N  N25  1  0.38198015  1.19162195  0.13594875  1.0
  N  N26  1  0.61801985  0.80837805  0.86405125  1.0
  N  N27  1  0.61801985  0.80837805  0.63594875  1.0
  N  N28  1  -0.19162195  0.61801985  0.36405125  1.0
  N  N29  1  -0.19162195  0.61801985  0.13594875  1.0
  N  N30  1  0.19245360  0.80754640  0.86504067  1.0
  N  N31  1  0.19245360  0.80754640  0.63495933  1.0
  N  N32  1  -0.19245360  0.19245360  0.36504067  1.0
  N  N33  1  -0.19245360  0.19245360  0.13495933  1.0
  Co  Co34  1  0.00000000  0.00000000  0.00000000  1.0
  Co  Co35  1  0.00000000  0.00000000  0.50000000  1.0
