# generated using pymatgen
data_V4Bi6PbO20
_symmetry_space_group_name_H-M   'P 1'
_cell_length_a   7.28212498
_cell_length_b   9.55595233
_cell_length_c   8.11660565
_cell_angle_alpha   106.91294838
_cell_angle_beta   113.18048089
_cell_angle_gamma   93.07961045
_symmetry_Int_Tables_number   1
_chemical_formula_structural   V4Bi6PbO20
_chemical_formula_sum   'V4 Bi6 Pb1 O20'
_cell_volume   487.58736318
_cell_formula_units_Z   1
loop_
 _symmetry_equiv_pos_site_id
 _symmetry_equiv_pos_as_xyz
  1  'x, y, z'
loop_
 _atom_site_type_symbol
 _atom_site_label
 _atom_site_symmetry_multiplicity
 _atom_site_fract_x
 _atom_site_fract_y
 _atom_site_fract_z
 _atom_site_occupancy
  V  V0  1  -0.94647528  -0.23952013  -0.72365139  1.0
  V  V1  1  -0.05352472  -0.76047987  -0.27634861  1.0
  V  V2  1  -0.65754593  -0.74011090  -0.60984441  1.0
  V  V3  1  -0.34245407  -0.25988910  -0.39015559  1.0
  Bi  Bi4  1  -0.20895329  -0.67234811  -0.70980975  1.0
  Bi  Bi5  1  -0.79104671  -0.32765189  -0.29019025  1.0
  Bi  Bi6  1  -0.65525418  -0.47645260  -0.87510949  1.0
  Bi  Bi7  1  -0.34474582  -0.52354740  -0.12489051  1.0
  Bi  Bi8  1  -0.58110776  -0.93368466  -0.20983217  1.0
  Bi  Bi9  1  -0.41889224  -0.06631534  -0.79016783  1.0
  Pb  Pb10  1  0.00000000  0.00000000  0.00000000  1.0
  O  O11  1  -0.94297543  -0.57940478  -0.21002314  1.0
  O  O12  1  -0.05702457  -0.42059522  -0.78997686  1.0
  O  O13  1  -0.87539676  -0.86212285  -0.17709576  1.0
  O  O14  1  -0.12460324  -0.13787715  -0.82290424  1.0
  O  O15  1  -0.89942145  -0.72690347  -0.75172784  1.0
  O  O16  1  -0.10057855  -0.27309653  -0.24827216  1.0
  O  O17  1  -0.82500747  -0.16491657  -0.47445415  1.0
  O  O18  1  -0.17499253  -0.83508343  -0.52554585  1.0
  O  O19  1  -0.77298676  -0.24454779  -0.81884514  1.0
  O  O20  1  -0.22701324  -0.75545221  -0.18115486  1.0
  O  O21  1  -0.64505404  -0.92381107  -0.70170284  1.0
  O  O22  1  -0.35494596  -0.07618893  -0.29829716  1.0
  O  O23  1  -0.61830742  -0.68920711  -0.37372043  1.0
  O  O24  1  -0.38169258  -0.31079289  -0.62627957  1.0
  O  O25  1  -0.48027043  -0.63139855  -0.63506872  1.0
  O  O26  1  -0.51972957  -0.36860145  -0.36493128  1.0
  O  O27  1  -0.44618166  -0.62793094  -0.96372935  1.0
  O  O28  1  -0.55381834  -0.37206906  -0.03627065  1.0
  O  O29  1  -0.34372282  -0.89401093  -0.90730306  1.0
  O  O30  1  -0.65627718  -0.10598907  -0.09269694  1.0
