# generated using pymatgen
data_SiO2
_symmetry_space_group_name_H-M   'P 1'
_cell_length_a   8.20272854
_cell_length_b   8.20272854
_cell_length_c   8.20272854
_cell_angle_alpha   60.00000000
_cell_angle_beta   60.00000000
_cell_angle_gamma   60.00000000
_symmetry_Int_Tables_number   1
_chemical_formula_structural   SiO2
_chemical_formula_sum   'Si12 O24'
_cell_volume   390.26537293
_cell_formula_units_Z   12
loop_
 _symmetry_equiv_pos_site_id
 _symmetry_equiv_pos_as_xyz
  1  'x, y, z'
loop_
 _atom_site_type_symbol
 _atom_site_label
 _atom_site_symmetry_multiplicity
 _atom_site_fract_x
 _atom_site_fract_y
 _atom_site_fract_z
 _atom_site_occupancy
  Si  Si0  1  0.86583519  0.12500000  0.38416481  1.0
  Si  Si1  1  0.62500000  -0.13416481  0.38416481  1.0
  Si  Si2  1  1.12500000  -0.37500000  0.38416481  1.0
  Si  Si3  1  1.12500000  -0.61583519  0.86583519  1.0
  Si  Si4  1  0.62500000  1.12500000  0.86583519  1.0
  Si  Si5  1  0.38416481  0.62500000  0.86583519  1.0
  Si  Si6  1  0.38416481  1.12500000  0.62500000  1.0
  Si  Si7  1  0.38416481  0.86583519  1.12500000  1.0
  Si  Si8  1  0.86583519  0.62500000  1.12500000  1.0
  Si  Si9  1  0.86583519  -0.61583519  0.62500000  1.0
  Si  Si10  1  0.62500000  -0.61583519  1.12500000  1.0
  Si  Si11  1  1.12500000  0.86583519  0.62500000  1.0
  O  O12  1  0.78759084  1.12500000  0.62500000  1.0
  O  O13  1  0.46240916  0.78759084  0.62500000  1.0
  O  O14  1  1.12500000  -0.53759084  0.62500000  1.0
  O  O15  1  0.62500000  -0.53759084  0.78759084  1.0
  O  O16  1  0.62500000  0.12500000  0.46240916  1.0
  O  O17  1  0.62500000  0.78759084  1.12500000  1.0
  O  O18  1  0.46240916  0.62500000  1.12500000  1.0
  O  O19  1  1.12500000  0.62500000  0.78759084  1.0
  O  O20  1  0.78759084  -0.37500000  0.46240916  1.0
  O  O21  1  1.12500000  -0.21240916  0.46240916  1.0
  O  O22  1  0.78759084  -0.53759084  1.12500000  1.0
  O  O23  1  0.46240916  1.12500000  0.78759084  1.0
  O  O24  1  1.40885850  0.09114150  0.09114150  1.0
  O  O25  1  1.40885850  0.40885850  0.09114150  1.0
  O  O26  1  1.09114150  0.40885850  0.09114150  1.0
  O  O27  1  1.15885850  -0.15885850  0.15885850  1.0
  O  O28  1  -0.15885850  0.15885850  0.15885850  1.0
  O  O29  1  0.84114150  0.84114150  -0.84114150  1.0
  O  O30  1  1.09114150  0.40885850  0.40885850  1.0
  O  O31  1  1.09114150  0.09114150  0.40885850  1.0
  O  O32  1  -0.84114150  0.84114150  0.84114150  1.0
  O  O33  1  0.15885850  0.15885850  -0.15885850  1.0
  O  O34  1  1.40885850  0.09114150  0.40885850  1.0
  O  O35  1  0.84114150  -0.84114150  0.84114150  1.0
