# generated using pymatgen
data_TiB
_symmetry_space_group_name_H-M   'P 1'
_cell_length_a   6.11001969
_cell_length_b   3.05142060
_cell_length_c   4.56598152
_cell_angle_alpha   90.00000000
_cell_angle_beta   90.00000000
_cell_angle_gamma   90.00000000
_symmetry_Int_Tables_number   1
_chemical_formula_structural   TiB
_chemical_formula_sum   'Ti4 B4'
_cell_volume   85.12925521
_cell_formula_units_Z   4
loop_
 _symmetry_equiv_pos_site_id
 _symmetry_equiv_pos_as_xyz
  1  'x, y, z'
loop_
 _atom_site_type_symbol
 _atom_site_label
 _atom_site_symmetry_multiplicity
 _atom_site_fract_x
 _atom_site_fract_y
 _atom_site_fract_z
 _atom_site_occupancy
  Ti  Ti0  1  0.32251267  0.75000000  0.12232930  1.0
  Ti  Ti1  1  0.82251267  0.75000000  0.37767070  1.0
  Ti  Ti2  1  0.67748733  0.25000000  0.87767070  1.0
  Ti  Ti3  1  0.17748733  0.25000000  0.62232930  1.0
  B  B4  1  0.47014391  0.75000000  0.59874241  1.0
  B  B5  1  0.97014391  0.75000000  0.90125759  1.0
  B  B6  1  0.52985609  0.25000000  0.40125759  1.0
  B  B7  1  0.02985609  0.25000000  0.09874241  1.0
