# generated using pymatgen
data_NaSi
_symmetry_space_group_name_H-M   'P 1'
_cell_length_a   6.89611354
_cell_length_b   6.89611354
_cell_length_c   11.08166898
_cell_angle_alpha   65.07299890
_cell_angle_beta   114.92700110
_cell_angle_gamma   123.19285719
_symmetry_Int_Tables_number   1
_chemical_formula_structural   NaSi
_chemical_formula_sum   'Na8 Si8'
_cell_volume   387.09440773
_cell_formula_units_Z   8
loop_
 _symmetry_equiv_pos_site_id
 _symmetry_equiv_pos_as_xyz
  1  'x, y, z'
loop_
 _atom_site_type_symbol
 _atom_site_label
 _atom_site_symmetry_multiplicity
 _atom_site_fract_x
 _atom_site_fract_y
 _atom_site_fract_z
 _atom_site_occupancy
  Na  Na0  1  1.53787423  0.27455428  0.45222162  1.0
  Na  Na1  1  0.72544572  -0.53787423  0.95222162  1.0
  Na  Na2  1  1.27455428  0.53787423  0.04777838  1.0
  Na  Na3  1  0.46212577  -0.27455428  0.54777838  1.0
  Na  Na4  1  1.31050114  0.01411965  0.14206629  1.0
  Na  Na5  1  0.98588035  -0.31050114  0.64206629  1.0
  Na  Na6  1  1.01411965  0.31050114  0.35793371  1.0
  Na  Na7  1  0.68949886  -0.01411965  0.85793371  1.0
  Si  Si8  1  0.64350527  -0.23235835  0.31246012  1.0
  Si  Si9  1  1.23235835  0.35649473  0.81246012  1.0
  Si  Si10  1  0.76764166  -0.35649473  0.18753988  1.0
  Si  Si11  1  1.35649473  0.23235834  0.68753988  1.0
  Si  Si12  1  1.86243719  0.05822351  0.14204295  1.0
  Si  Si13  1  0.94177649  -0.86243719  0.64204295  1.0
  Si  Si14  1  1.05822351  0.86243719  0.35795705  1.0
  Si  Si15  1  0.13756281  -0.05822351  0.85795705  1.0
