# generated using pymatgen
data_Bi2O3
_symmetry_space_group_name_H-M   'P 1'
_cell_length_a   8.33366057
_cell_length_b   8.33366057
_cell_length_c   5.51753243
_cell_angle_alpha   90.00000000
_cell_angle_beta   90.00000000
_cell_angle_gamma   90.00000000
_symmetry_Int_Tables_number   1
_chemical_formula_structural   Bi2O3
_chemical_formula_sum   'Bi8 O12'
_cell_volume   383.19206728
_cell_formula_units_Z   4
loop_
 _symmetry_equiv_pos_site_id
 _symmetry_equiv_pos_as_xyz
  1  'x, y, z'
loop_
 _atom_site_type_symbol
 _atom_site_label
 _atom_site_symmetry_multiplicity
 _atom_site_fract_x
 _atom_site_fract_y
 _atom_site_fract_z
 _atom_site_occupancy
  Bi  Bi0  1  0.48021840  0.24907361  0.28034841  1.0
  Bi  Bi1  1  1.01978160  0.74907361  0.28034841  1.0
  Bi  Bi2  1  0.75092639  0.48021840  0.71965159  1.0
  Bi  Bi3  1  0.74907361  -0.01978160  0.71965159  1.0
  Bi  Bi4  1  0.51978160  0.75092639  0.28034841  1.0
  Bi  Bi5  1  -0.01978160  0.25092639  0.28034841  1.0
  Bi  Bi6  1  0.24907361  0.51978160  0.71965159  1.0
  Bi  Bi7  1  0.25092639  1.01978160  0.71965159  1.0
  O  O8  1  0.75301733  0.25301733  0.50000000  1.0
  O  O9  1  0.74698267  0.75301733  0.50000000  1.0
  O  O10  1  0.24698267  0.74698267  0.50000000  1.0
  O  O11  1  0.25301733  0.24698267  0.50000000  1.0
  O  O12  1  0.87436760  0.37436760  -0.00000000  1.0
  O  O13  1  0.62563240  0.87436760  -0.00000000  1.0
  O  O14  1  0.12563240  0.62563240  -0.00000000  1.0
  O  O15  1  0.37436760  0.12563240  -0.00000000  1.0
  O  O16  1  0.00000000  0.50000000  0.50000000  1.0
  O  O17  1  0.50000000  0.00000000  0.50000000  1.0
  O  O18  1  0.50000000  0.50000000  0.00000000  1.0
  O  O19  1  0.00000000  0.00000000  0.00000000  1.0
