# generated using pymatgen
data_Na5GeAs3
_symmetry_space_group_name_H-M   'P 1'
_cell_length_a   8.41290545
_cell_length_b   7.61762695
_cell_length_c   15.94925104
_cell_angle_alpha   90.00000000
_cell_angle_beta   121.81233082
_cell_angle_gamma   90.00000000
_symmetry_Int_Tables_number   1
_chemical_formula_structural   Na5GeAs3
_chemical_formula_sum   'Na20 Ge4 As12'
_cell_volume   868.58461529
_cell_formula_units_Z   4
loop_
 _symmetry_equiv_pos_site_id
 _symmetry_equiv_pos_as_xyz
  1  'x, y, z'
loop_
 _atom_site_type_symbol
 _atom_site_label
 _atom_site_symmetry_multiplicity
 _atom_site_fract_x
 _atom_site_fract_y
 _atom_site_fract_z
 _atom_site_occupancy
  Na  Na0  1  0.18587888  0.35482253  0.75773333  1.0
  Na  Na1  1  0.18587888  0.14517747  0.25773333  1.0
  Na  Na2  1  0.81412112  0.85482253  0.74226667  1.0
  Na  Na3  1  0.81412112  0.64517747  0.24226667  1.0
  Na  Na4  1  0.58247246  0.49417461  0.75726076  1.0
  Na  Na5  1  0.58247246  0.00582539  0.25726076  1.0
  Na  Na6  1  0.41752754  0.99417461  0.74273924  1.0
  Na  Na7  1  0.41752754  0.50582539  0.24273924  1.0
  Na  Na8  1  0.08419645  0.53799163  0.91374173  1.0
  Na  Na9  1  0.08419645  0.96200837  0.41374173  1.0
  Na  Na10  1  0.91580355  0.03799163  0.58625827  1.0
  Na  Na11  1  0.91580355  0.46200837  0.08625827  1.0
  Na  Na12  1  0.50454759  0.16272250  0.58119541  1.0
  Na  Na13  1  0.50454759  0.33727750  0.08119541  1.0
  Na  Na14  1  0.49545241  0.66272250  0.91880459  1.0
  Na  Na15  1  0.49545241  0.83727750  0.41880459  1.0
  Na  Na16  1  0.24026219  0.02031085  0.91362232  1.0
  Na  Na17  1  0.24026219  0.47968915  0.41362232  1.0
  Na  Na18  1  0.75973781  0.52031085  0.58637768  1.0
  Na  Na19  1  0.75973781  0.97968915  0.08637768  1.0
  Ge  Ge20  1  0.84306913  0.14374314  0.91227771  1.0
  Ge  Ge21  1  0.84306913  0.35625686  0.41227771  1.0
  Ge  Ge22  1  0.15693087  0.64374314  0.58772229  1.0
  Ge  Ge23  1  0.15693087  0.85625686  0.08772229  1.0
  As  As24  1  0.15975085  0.30988313  0.56707034  1.0
  As  As25  1  0.15975085  0.19011687  0.06707034  1.0
  As  As26  1  0.84024916  0.80988313  0.93292966  1.0
  As  As27  1  0.84024915  0.69011687  0.43292966  1.0
  As  As28  1  0.86158442  0.24063524  0.76965313  1.0
  As  As29  1  0.86158442  0.25936476  0.26965313  1.0
  As  As30  1  0.13841558  0.74063524  0.73034687  1.0
  As  As31  1  0.13841558  0.75936476  0.23034687  1.0
  As  As32  1  0.57349752  0.26520481  0.91788609  1.0
  As  As33  1  0.57349752  0.23479519  0.41788609  1.0
  As  As34  1  0.42650248  0.76520481  0.58211391  1.0
  As  As35  1  0.42650248  0.73479519  0.08211391  1.0
