# generated using pymatgen
data_Ag3CS(NO2)3
_symmetry_space_group_name_H-M   'P 1'
_cell_length_a   8.32355803
_cell_length_b   6.59348095
_cell_length_c   8.41617232
_cell_angle_alpha   94.56814614
_cell_angle_beta   110.68726921
_cell_angle_gamma   90.78213156
_symmetry_Int_Tables_number   1
_chemical_formula_structural   Ag3CS(NO2)3
_chemical_formula_sum   'Ag6 C2 S2 N6 O12'
_cell_volume   430.30303002
_cell_formula_units_Z   2
loop_
 _symmetry_equiv_pos_site_id
 _symmetry_equiv_pos_as_xyz
  1  'x, y, z'
loop_
 _atom_site_type_symbol
 _atom_site_label
 _atom_site_symmetry_multiplicity
 _atom_site_fract_x
 _atom_site_fract_y
 _atom_site_fract_z
 _atom_site_occupancy
  Ag  Ag0  1  -0.77510157  -0.93772045  -0.17683810  1.0
  Ag  Ag1  1  -0.22489843  -0.06227955  -0.82316190  1.0
  Ag  Ag2  1  -0.86176606  -0.39566882  -0.19204555  1.0
  Ag  Ag3  1  -0.13823394  -0.60433118  -0.80795445  1.0
  Ag  Ag4  1  -0.50000000  -0.50000000  -0.50000000  1.0
  Ag  Ag5  1  -0.50000000  0.00000000  -0.50000000  1.0
  C  C6  1  -0.90062230  -0.25240462  -0.55507853  1.0
  C  C7  1  -0.09937770  -0.74759538  -0.44492147  1.0
  S  S8  1  -0.27618040  -0.78074326  -0.61679190  1.0
  S  S9  1  -0.72381960  -0.21925674  -0.38320810  1.0
  N  N10  1  -0.80476791  -0.84026307  -0.81552865  1.0
  N  N11  1  -0.19523209  -0.15973693  -0.18447135  1.0
  N  N12  1  -0.97460550  -0.71649538  -0.32127230  1.0
  N  N13  1  -0.02539450  -0.28350462  -0.67872770  1.0
  N  N14  1  -0.55806042  -0.33414520  -0.85029734  1.0
  N  N15  1  -0.44193958  -0.66585480  -0.14970266  1.0
  O  O16  1  -0.70319631  -0.93226668  -0.87529328  1.0
  O  O17  1  -0.29680369  -0.06773332  -0.12470672  1.0
  O  O18  1  -0.94352593  -0.77859368  -0.91537967  1.0
  O  O19  1  -0.05647407  -0.22140632  -0.08462033  1.0
  O  O20  1  -0.76517483  -0.81134801  -0.65510079  1.0
  O  O21  1  -0.23482517  -0.18865199  -0.34489921  1.0
  O  O22  1  -0.48805844  -0.73686294  -1.03803600  1.0
  O  O23  1  -0.51194156  -0.26313706  0.03803600  1.0
  O  O24  1  -0.54697015  -0.68925427  -0.30578570  1.0
  O  O25  1  -0.45302985  -0.31074573  -0.69421430  1.0
  O  O26  1  -0.70101634  -0.42533847  -0.88612646  1.0
  O  O27  1  -0.29898366  -0.57466153  -0.11387354  1.0
