# generated using pymatgen
data_Ti5As3
_symmetry_space_group_name_H-M   'P 1'
_cell_length_a   9.83141908
_cell_length_b   7.78395375
_cell_length_c   6.75697013
_cell_angle_alpha   90.00000000
_cell_angle_beta   90.00000000
_cell_angle_gamma   90.00000000
_symmetry_Int_Tables_number   1
_chemical_formula_structural   Ti5As3
_chemical_formula_sum   'Ti20 As12'
_cell_volume   517.09275756
_cell_formula_units_Z   4
loop_
 _symmetry_equiv_pos_site_id
 _symmetry_equiv_pos_as_xyz
  1  'x, y, z'
loop_
 _atom_site_type_symbol
 _atom_site_label
 _atom_site_symmetry_multiplicity
 _atom_site_fract_x
 _atom_site_fract_y
 _atom_site_fract_z
 _atom_site_occupancy
  Ti  Ti0  1  0.99762876  0.25000000  0.52798776  1.0
  Ti  Ti1  1  0.49762876  0.25000000  0.97201224  1.0
  Ti  Ti2  1  0.00237124  0.75000000  0.47201224  1.0
  Ti  Ti3  1  0.50237124  0.75000000  0.02798776  1.0
  Ti  Ti4  1  0.93931530  0.44729216  0.19772563  1.0
  Ti  Ti5  1  0.93931530  0.05270784  0.19772563  1.0
  Ti  Ti6  1  0.43931530  0.44729216  0.30227437  1.0
  Ti  Ti7  1  0.43931530  0.05270784  0.30227437  1.0
  Ti  Ti8  1  0.06068470  0.94729216  0.80227437  1.0
  Ti  Ti9  1  0.06068470  0.55270784  0.80227437  1.0
  Ti  Ti10  1  0.56068470  0.94729216  0.69772563  1.0
  Ti  Ti11  1  0.56068470  0.55270784  0.69772563  1.0
  Ti  Ti12  1  0.76901646  0.25000000  0.82878983  1.0
  Ti  Ti13  1  0.26901646  0.25000000  0.67121017  1.0
  Ti  Ti14  1  0.23098354  0.75000000  0.17121017  1.0
  Ti  Ti15  1  0.73098354  0.75000000  0.32878983  1.0
  Ti  Ti16  1  0.70988938  0.25000000  0.34059500  1.0
  Ti  Ti17  1  0.20988938  0.25000000  0.15940500  1.0
  Ti  Ti18  1  0.29011062  0.75000000  0.65940500  1.0
  Ti  Ti19  1  0.79011062  0.75000000  0.84059500  1.0
  As  As20  1  0.67508194  0.49034417  0.07084680  1.0
  As  As21  1  0.67508194  0.00965583  0.07084680  1.0
  As  As22  1  0.17508194  0.49034417  0.42915320  1.0
  As  As23  1  0.17508194  0.00965583  0.42915320  1.0
  As  As24  1  0.32491806  0.99034417  0.92915320  1.0
  As  As25  1  0.32491806  0.50965583  0.92915320  1.0
  As  As26  1  0.82491806  0.99034417  0.57084680  1.0
  As  As27  1  0.82491806  0.50965583  0.57084680  1.0
  As  As28  1  0.51988040  0.25000000  0.58585622  1.0
  As  As29  1  0.01988040  0.25000000  0.91414378  1.0
  As  As30  1  0.48011960  0.75000000  0.41414378  1.0
  As  As31  1  0.98011960  0.75000000  0.08585622  1.0
