# generated using pymatgen
data_KSrCrO4
_symmetry_space_group_name_H-M   'P 1'
_cell_length_a   7.50272099
_cell_length_b   5.84862164
_cell_length_c   10.02030848
_cell_angle_alpha   90.00000000
_cell_angle_beta   90.00000000
_cell_angle_gamma   90.00000000
_symmetry_Int_Tables_number   1
_chemical_formula_structural   KSrCrO4
_chemical_formula_sum   'K4 Sr4 Cr4 O16'
_cell_volume   439.69691132
_cell_formula_units_Z   4
loop_
 _symmetry_equiv_pos_site_id
 _symmetry_equiv_pos_as_xyz
  1  'x, y, z'
loop_
 _atom_site_type_symbol
 _atom_site_label
 _atom_site_symmetry_multiplicity
 _atom_site_fract_x
 _atom_site_fract_y
 _atom_site_fract_z
 _atom_site_occupancy
  K  K0  1  0.84480130  0.75000000  0.42244962  1.0
  K  K1  1  0.34480130  0.75000000  0.07755038  1.0
  K  K2  1  0.15519870  0.25000000  0.57755038  1.0
  K  K3  1  0.65519870  0.25000000  0.92244962  1.0
  Sr  Sr4  1  0.49779545  0.75000000  0.69899889  1.0
  Sr  Sr5  1  -0.00220455  0.75000000  0.80100111  1.0
  Sr  Sr6  1  0.50220455  0.25000000  0.30100111  1.0
  Sr  Sr7  1  1.00220455  0.25000000  0.19899889  1.0
  Cr  Cr8  1  0.77727038  0.75000000  0.08348873  1.0
  Cr  Cr9  1  0.27727038  0.75000000  0.41651127  1.0
  Cr  Cr10  1  0.22272962  0.25000000  0.91651127  1.0
  Cr  Cr11  1  0.72272962  0.25000000  0.58348873  1.0
  O  O12  1  0.71538748  0.99059881  0.16966916  1.0
  O  O13  1  0.71538748  0.50940119  0.16966916  1.0
  O  O14  1  0.21538748  0.99059881  0.33033084  1.0
  O  O15  1  0.21538748  0.50940119  0.33033084  1.0
  O  O16  1  0.28461252  0.49059881  0.83033084  1.0
  O  O17  1  0.28461252  0.00940119  0.83033084  1.0
  O  O18  1  0.78461252  0.49059881  0.66966916  1.0
  O  O19  1  0.78461252  0.00940119  0.66966916  1.0
  O  O20  1  1.00042626  0.75000000  0.06174172  1.0
  O  O21  1  0.50042626  0.75000000  0.43825828  1.0
  O  O22  1  -0.00042626  0.25000000  0.93825828  1.0
  O  O23  1  0.49957374  0.25000000  0.56174172  1.0
  O  O24  1  0.18193793  0.75000000  0.57266237  1.0
  O  O25  1  0.68193793  0.75000000  0.92733763  1.0
  O  O26  1  0.81806207  0.25000000  0.42733763  1.0
  O  O27  1  0.31806207  0.25000000  0.07266237  1.0
