# generated using pymatgen
data_NaAlAs2O7
_symmetry_space_group_name_H-M   'P 1'
_cell_length_a   7.07669571
_cell_length_b   8.32168607
_cell_length_c   9.73992804
_cell_angle_alpha   90.00000000
_cell_angle_beta   107.89189246
_cell_angle_gamma   90.00000000
_symmetry_Int_Tables_number   1
_chemical_formula_structural   NaAlAs2O7
_chemical_formula_sum   'Na4 Al4 As8 O28'
_cell_volume   545.84498218
_cell_formula_units_Z   4
loop_
 _symmetry_equiv_pos_site_id
 _symmetry_equiv_pos_as_xyz
  1  'x, y, z'
loop_
 _atom_site_type_symbol
 _atom_site_label
 _atom_site_symmetry_multiplicity
 _atom_site_fract_x
 _atom_site_fract_y
 _atom_site_fract_z
 _atom_site_occupancy
  Na  Na0  1  0.30682721  0.63842136  0.96959692  1.0
  Na  Na1  1  0.30682721  0.86157864  0.46959692  1.0
  Na  Na2  1  0.69317279  0.13842136  0.53040308  1.0
  Na  Na3  1  0.69317279  0.36157864  0.03040308  1.0
  Al  Al4  1  0.77960854  0.77651604  0.99406894  1.0
  Al  Al5  1  0.77960854  0.72348396  0.49406894  1.0
  Al  Al6  1  0.22039146  0.27651604  0.50593106  1.0
  Al  Al7  1  0.22039146  0.22348396  0.00593106  1.0
  As  As8  1  0.98592491  0.41190324  0.70809396  1.0
  As  As9  1  0.98592491  0.08809676  0.20809396  1.0
  As  As10  1  0.01407509  0.91190324  0.79190604  1.0
  As  As11  1  0.01407509  0.58809676  0.29190604  1.0
  As  As12  1  0.55783687  0.53646120  0.70146634  1.0
  As  As13  1  0.55783687  0.96353880  0.20146634  1.0
  As  As14  1  0.44216313  0.03646120  0.79853366  1.0
  As  As15  1  0.44216313  0.46353880  0.29853366  1.0
  O  O16  1  0.97958468  0.75649515  0.89941827  1.0
  O  O17  1  0.97958468  0.74350485  0.39941827  1.0
  O  O18  1  0.02041532  0.25649515  0.60058173  1.0
  O  O19  1  0.02041532  0.24350485  0.10058173  1.0
  O  O20  1  0.96805596  0.59980101  0.63643098  1.0
  O  O21  1  0.96805596  0.90019899  0.13643098  1.0
  O  O22  1  0.03194404  0.09980101  0.86356902  1.0
  O  O23  1  0.03194404  0.40019899  0.36356902  1.0
  O  O24  1  0.87220924  0.90754764  0.61390264  1.0
  O  O25  1  0.87220924  0.59245236  0.11390264  1.0
  O  O26  1  0.12779076  0.40754764  0.88609736  1.0
  O  O27  1  0.12779076  0.09245236  0.38609736  1.0
  O  O28  1  0.73177450  0.37204362  0.71270453  1.0
  O  O29  1  0.73177450  0.12795638  0.21270453  1.0
  O  O30  1  0.26822550  0.87204362  0.78729547  1.0
  O  O31  1  0.26822550  0.62795638  0.28729547  1.0
  O  O32  1  0.66770071  0.94116094  0.85304531  1.0
  O  O33  1  0.66770071  0.55883906  0.35304531  1.0
  O  O34  1  0.33229929  0.44116094  0.64695469  1.0
  O  O35  1  0.33229929  0.05883906  0.14695469  1.0
  O  O36  1  0.59963681  0.60678180  0.87514875  1.0
  O  O37  1  0.59963681  0.89321820  0.37514875  1.0
  O  O38  1  0.40036319  0.10678180  0.62485125  1.0
  O  O39  1  0.40036319  0.39321820  0.12485125  1.0
  O  O40  1  0.57261072  0.68389917  0.58130232  1.0
  O  O41  1  0.57261072  0.81610083  0.08130232  1.0
  O  O42  1  0.42738928  0.18389917  0.91869768  1.0
  O  O43  1  0.42738928  0.31610083  0.41869768  1.0
