# generated using pymatgen
data_TmZn5
_symmetry_space_group_name_H-M   'P 1'
_cell_length_a   8.91376888
_cell_length_b   8.91376888
_cell_length_c   9.12180095
_cell_angle_alpha   90.00000000
_cell_angle_beta   90.00000000
_cell_angle_gamma   120.00000000
_symmetry_Int_Tables_number   1
_chemical_formula_structural   TmZn5
_chemical_formula_sum   'Tm6 Zn30'
_cell_volume   627.67374294
_cell_formula_units_Z   6
loop_
 _symmetry_equiv_pos_site_id
 _symmetry_equiv_pos_as_xyz
  1  'x, y, z'
loop_
 _atom_site_type_symbol
 _atom_site_label
 _atom_site_symmetry_multiplicity
 _atom_site_fract_x
 _atom_site_fract_y
 _atom_site_fract_z
 _atom_site_occupancy
  Tm  Tm0  1  0.18839802  0.81160198  0.25000000  1.0
  Tm  Tm1  1  0.18839802  0.37679605  0.25000000  1.0
  Tm  Tm2  1  0.81160198  0.18839802  0.75000000  1.0
  Tm  Tm3  1  0.81160198  0.62320395  0.75000000  1.0
  Tm  Tm4  1  0.62320395  0.81160198  0.25000000  1.0
  Tm  Tm5  1  0.37679605  0.18839802  0.75000000  1.0
  Zn  Zn6  1  0.16052717  0.83947283  0.90800487  1.0
  Zn  Zn7  1  0.16052717  0.83947283  0.59199513  1.0
  Zn  Zn8  1  0.16052717  0.32105434  0.90800487  1.0
  Zn  Zn9  1  0.16052717  0.32105434  0.59199513  1.0
  Zn  Zn10  1  0.83947283  0.16052717  0.40800487  1.0
  Zn  Zn11  1  0.83947283  0.16052717  0.09199513  1.0
  Zn  Zn12  1  0.83947283  0.67894566  0.40800487  1.0
  Zn  Zn13  1  0.83947283  0.67894566  0.09199513  1.0
  Zn  Zn14  1  0.67894566  0.83947283  0.90800487  1.0
  Zn  Zn15  1  0.67894566  0.83947283  0.59199513  1.0
  Zn  Zn16  1  0.32105434  0.16052717  0.40800487  1.0
  Zn  Zn17  1  0.32105434  0.16052717  0.09199513  1.0
  Zn  Zn18  1  0.56769884  0.43230116  0.25000000  1.0
  Zn  Zn19  1  0.56769884  0.13539767  0.25000000  1.0
  Zn  Zn20  1  0.43230116  0.56769884  0.75000000  1.0
  Zn  Zn21  1  0.43230116  0.86460233  0.75000000  1.0
  Zn  Zn22  1  0.86460233  0.43230116  0.25000000  1.0
  Zn  Zn23  1  0.13539767  0.56769884  0.75000000  1.0
  Zn  Zn24  1  0.50000000  0.50000000  0.50000000  1.0
  Zn  Zn25  1  0.50000000  0.50000000  0.00000000  1.0
  Zn  Zn26  1  0.50000000  0.00000000  0.50000000  1.0
  Zn  Zn27  1  0.50000000  0.00000000  0.00000000  1.0
  Zn  Zn28  1  -0.00000000  0.50000000  0.50000000  1.0
  Zn  Zn29  1  -0.00000000  0.50000000  -0.00000000  1.0
  Zn  Zn30  1  0.33333333  0.66666667  0.48827949  1.0
  Zn  Zn31  1  0.33333333  0.66666667  0.01172051  1.0
  Zn  Zn32  1  0.66666667  0.33333333  0.98827949  1.0
  Zn  Zn33  1  0.66666667  0.33333333  0.51172051  1.0
  Zn  Zn34  1  0.00000000  0.00000000  0.50000000  1.0
  Zn  Zn35  1  0.00000000  0.00000000  0.00000000  1.0
