# generated using pymatgen
data_Ca(GaS2)2
_symmetry_space_group_name_H-M   'P 1'
_cell_length_a   5.93156677
_cell_length_b   5.93156677
_cell_length_c   10.23661598
_cell_angle_alpha   90.00000000
_cell_angle_beta   90.00000000
_cell_angle_gamma   118.58646953
_symmetry_Int_Tables_number   1
_chemical_formula_structural   Ca(GaS2)2
_chemical_formula_sum   'Ca2 Ga4 S8'
_cell_volume   316.25489355
_cell_formula_units_Z   2
loop_
 _symmetry_equiv_pos_site_id
 _symmetry_equiv_pos_as_xyz
  1  'x, y, z'
loop_
 _atom_site_type_symbol
 _atom_site_label
 _atom_site_symmetry_multiplicity
 _atom_site_fract_x
 _atom_site_fract_y
 _atom_site_fract_z
 _atom_site_occupancy
  Ca  Ca0  1  0.00000000  0.00000000  0.75000000  1.0
  Ca  Ca1  1  0.00000000  0.00000000  0.25000000  1.0
  Ga  Ga2  1  -0.26902197  1.26547288  0.00000000  1.0
  Ga  Ga3  1  0.26547288  0.73097803  0.50000000  1.0
  Ga  Ga4  1  -0.26547288  1.26902197  0.50000000  1.0
  Ga  Ga5  1  0.26902197  0.73452712  0.00000000  1.0
  S  S6  1  -0.14408441  1.69484609  0.00000000  1.0
  S  S7  1  0.69484609  0.85591559  0.50000000  1.0
  S  S8  1  -0.69484609  1.14408441  0.50000000  1.0
  S  S9  1  0.14408441  0.30515391  0.00000000  1.0
  S  S10  1  -0.00000000  1.50000000  0.67060033  1.0
  S  S11  1  -0.00000000  1.50000000  0.32939967  1.0
  S  S12  1  0.50000000  1.00000000  0.17060033  1.0
  S  S13  1  0.50000000  1.00000000  0.82939967  1.0
