# generated using pymatgen
data_RbSbClF3
_symmetry_space_group_name_H-M   'P 1'
_cell_length_a   8.09392651
_cell_length_b   8.75633749
_cell_length_c   15.58598181
_cell_angle_alpha   90.00000000
_cell_angle_beta   90.00000000
_cell_angle_gamma   90.00000000
_symmetry_Int_Tables_number   1
_chemical_formula_structural   RbSbClF3
_chemical_formula_sum   'Rb8 Sb8 Cl8 F24'
_cell_volume   1104.62765929
_cell_formula_units_Z   8
loop_
 _symmetry_equiv_pos_site_id
 _symmetry_equiv_pos_as_xyz
  1  'x, y, z'
loop_
 _atom_site_type_symbol
 _atom_site_label
 _atom_site_symmetry_multiplicity
 _atom_site_fract_x
 _atom_site_fract_y
 _atom_site_fract_z
 _atom_site_occupancy
  Rb  Rb0  1  0.31589755  0.79641198  0.93932526  1.0
  Rb  Rb1  1  0.31589755  0.70358802  0.43932526  1.0
  Rb  Rb2  1  0.81589755  0.79641198  0.56067474  1.0
  Rb  Rb3  1  0.81589755  0.70358802  0.06067474  1.0
  Rb  Rb4  1  0.68410245  0.29641198  0.56067474  1.0
  Rb  Rb5  1  0.68410245  0.20358802  0.06067474  1.0
  Rb  Rb6  1  0.18410245  0.29641198  0.93932526  1.0
  Rb  Rb7  1  0.18410245  0.20358802  0.43932526  1.0
  Sb  Sb8  1  0.35143823  1.00296190  0.67513299  1.0
  Sb  Sb9  1  0.35143823  0.49703810  0.17513299  1.0
  Sb  Sb10  1  0.85143823  1.00296190  0.82486701  1.0
  Sb  Sb11  1  0.85143823  0.49703810  0.32486701  1.0
  Sb  Sb12  1  0.64856177  0.50296190  0.82486701  1.0
  Sb  Sb13  1  0.64856177  -0.00296190  0.32486701  1.0
  Sb  Sb14  1  0.14856177  0.50296190  0.67513299  1.0
  Sb  Sb15  1  0.14856177  -0.00296190  0.17513299  1.0
  Cl  Cl16  1  0.48937624  0.61149999  0.65887661  1.0
  Cl  Cl17  1  0.48937624  0.88850001  0.15887661  1.0
  Cl  Cl18  1  0.98937624  0.61149999  0.84112339  1.0
  Cl  Cl19  1  0.98937624  0.88850001  0.34112339  1.0
  Cl  Cl20  1  0.51062376  0.11149999  0.84112339  1.0
  Cl  Cl21  1  0.51062376  0.38850001  0.34112339  1.0
  Cl  Cl22  1  0.01062376  0.11149999  0.65887661  1.0
  Cl  Cl23  1  0.01062376  0.38850001  0.15887661  1.0
  F  F24  1  0.31616797  0.96513350  0.54962629  1.0
  F  F25  1  0.31616797  0.53486650  0.04962629  1.0
  F  F26  1  0.81616797  0.96513350  0.95037371  1.0
  F  F27  1  0.81616797  0.53486650  0.45037371  1.0
  F  F28  1  0.68383203  0.46513350  0.95037371  1.0
  F  F29  1  0.68383203  0.03486650  0.45037371  1.0
  F  F30  1  0.18383203  0.46513350  0.54962629  1.0
  F  F31  1  0.18383203  0.03486650  0.04962629  1.0
  F  F32  1  0.09424041  0.99263758  0.85284237  1.0
  F  F33  1  0.09424041  0.50736242  0.35284237  1.0
  F  F34  1  0.59424041  0.99263758  0.64715763  1.0
  F  F35  1  0.59424041  0.50736242  0.14715763  1.0
  F  F36  1  0.90575959  0.49263758  0.64715763  1.0
  F  F37  1  0.90575959  0.00736242  0.14715763  1.0
  F  F38  1  0.40575959  0.49263758  0.85284237  1.0
  F  F39  1  0.40575959  0.00736242  0.35284237  1.0
  F  F40  1  0.12270008  0.72260666  0.64600655  1.0
  F  F41  1  0.12270008  0.77739334  0.14600655  1.0
  F  F42  1  0.62270008  0.72260666  0.85399345  1.0
  F  F43  1  0.62270008  0.77739334  0.35399345  1.0
  F  F44  1  0.87729992  0.22260666  0.85399345  1.0
  F  F45  1  0.87729992  0.27739334  0.35399345  1.0
  F  F46  1  0.37729992  0.22260666  0.64600655  1.0
  F  F47  1  0.37729992  0.27739334  0.14600655  1.0
