# generated using pymatgen
data_SrZr4(AsO4)6
_symmetry_space_group_name_H-M   'P 1'
_cell_length_a   9.66351174
_cell_length_b   9.66351174
_cell_length_c   9.66351174
_cell_angle_alpha   56.64692659
_cell_angle_beta   56.64692659
_cell_angle_gamma   56.64692659
_symmetry_Int_Tables_number   1
_chemical_formula_structural   SrZr4(AsO4)6
_chemical_formula_sum   'Sr1 Zr4 As6 O24'
_cell_volume   588.68251615
_cell_formula_units_Z   1
loop_
 _symmetry_equiv_pos_site_id
 _symmetry_equiv_pos_as_xyz
  1  'x, y, z'
loop_
 _atom_site_type_symbol
 _atom_site_label
 _atom_site_symmetry_multiplicity
 _atom_site_fract_x
 _atom_site_fract_y
 _atom_site_fract_z
 _atom_site_occupancy
  Sr  Sr0  1  0.00000000  0.00000000  0.00000000  1.0
  Zr  Zr1  1  0.14701758  0.14701758  0.14701758  1.0
  Zr  Zr2  1  0.85298242  -0.14701758  -0.14701758  1.0
  Zr  Zr3  1  0.35698170  0.35698170  -0.64301830  1.0
  Zr  Zr4  1  0.64301830  0.64301830  -0.35698170  1.0
  As  As5  1  0.53936459  0.24505224  -0.02742905  1.0
  As  As6  1  1.02742905  -0.53936459  -0.24505224  1.0
  As  As7  1  0.75494776  0.02742905  -0.53936459  1.0
  As  As8  1  0.46063541  -0.24505224  0.02742905  1.0
  As  As9  1  0.97257095  -0.46063541  0.24505224  1.0
  As  As10  1  1.24505224  -0.02742905  -0.46063541  1.0
  O  O11  1  0.19364896  1.00211069  -0.62243151  1.0
  O  O12  1  0.62243151  -0.19364896  -0.00211069  1.0
  O  O13  1  0.99788931  -0.37756849  -0.19364896  1.0
  O  O14  1  0.80635104  -0.00211069  -0.37756849  1.0
  O  O15  1  0.37756849  0.19364896  0.00211069  1.0
  O  O16  1  1.00211069  0.37756849  -0.80635104  1.0
  O  O17  1  0.54906469  0.18913993  -0.52907367  1.0
  O  O18  1  0.52907367  0.45093531  -0.18913993  1.0
  O  O19  1  0.81086007  0.52907367  -0.54906469  1.0
  O  O20  1  0.45093531  0.81086007  -0.47092633  1.0
  O  O21  1  0.47092633  0.54906469  -0.81086007  1.0
  O  O22  1  0.18913993  0.47092633  -0.45093531  1.0
  O  O23  1  0.25304934  0.90963317  -0.90541029  1.0
  O  O24  1  0.90541029  -0.25304934  0.09036683  1.0
  O  O25  1  1.09036683  -0.09458971  -0.25304934  1.0
  O  O26  1  0.74695066  0.09036683  -0.09458971  1.0
  O  O27  1  0.09458971  0.25304934  -0.09036683  1.0
  O  O28  1  0.90963317  0.09458971  -0.74695066  1.0
  O  O29  1  0.51894185  0.22909516  0.16899760  1.0
  O  O30  1  0.83100240  -0.51894185  -0.22909516  1.0
  O  O31  1  0.77090484  -0.16899760  -0.51894185  1.0
  O  O32  1  0.48105815  -0.22909516  -0.16899760  1.0
  O  O33  1  1.16899760  -0.48105815  0.22909516  1.0
  O  O34  1  1.22909516  0.16899760  -0.48105815  1.0
