# generated using pymatgen
data_NaCoSeO6F
_symmetry_space_group_name_H-M   'P 1'
_cell_length_a   5.84818202
_cell_length_b   6.34421673
_cell_length_c   9.77013226
_cell_angle_alpha   90.00000000
_cell_angle_beta   126.09433913
_cell_angle_gamma   90.00000000
_symmetry_Int_Tables_number   1
_chemical_formula_structural   NaCoSeO6F
_chemical_formula_sum   'Na2 Co2 Se2 O12 F2'
_cell_volume   292.91158188
_cell_formula_units_Z   2
loop_
 _symmetry_equiv_pos_site_id
 _symmetry_equiv_pos_as_xyz
  1  'x, y, z'
loop_
 _atom_site_type_symbol
 _atom_site_label
 _atom_site_symmetry_multiplicity
 _atom_site_fract_x
 _atom_site_fract_y
 _atom_site_fract_z
 _atom_site_occupancy
  Co  Co0  1  0.50000000  0.00000000  0.50000000  1.0
  Co  Co1  1  0.50000000  0.50000000  0.50000000  1.0
  F  F2  1  0.36650282  0.25000000  0.53201477  1.0
  F  F3  1  0.63349718  0.75000000  0.46798523  1.0
  O  O4  1  0.77924585  0.25000000  0.91845681  1.0
  O  O5  1  0.22075415  0.75000000  0.08154319  1.0
  O  O6  1  0.62021950  0.14600624  0.38537946  1.0
  O  O7  1  0.62021950  0.35399376  0.38537946  1.0
  O  O8  1  0.37978050  0.64600624  0.61462054  1.0
  O  O9  1  0.37978050  0.85399376  0.61462054  1.0
  O  O10  1  0.29767382  0.25000000  0.96677121  1.0
  O  O11  1  0.70232618  0.75000000  0.03322879  1.0
  O  O12  1  0.86935672  0.03247466  0.70771084  1.0
  O  O13  1  0.86935672  0.46752534  0.70771084  1.0
  O  O14  1  0.13064328  0.53247466  0.29228916  1.0
  O  O15  1  0.13064328  0.96752534  0.29228916  1.0
  Se  Se16  1  0.95355525  0.25000000  0.83599734  1.0
  Se  Se17  1  0.04644475  0.75000000  0.16400266  1.0
  Na  Na18  1  0.77970450  0.25000000  0.15919485  1.0
  Na  Na19  1  0.22029550  0.75000000  0.84080515  1.0
