# generated using pymatgen
data_W17O47
_symmetry_space_group_name_H-M   'P 1'
_cell_length_a   12.44766328
_cell_length_b   3.81980899
_cell_length_c   19.07070464
_cell_angle_alpha   90.00000000
_cell_angle_beta   102.60588758
_cell_angle_gamma   90.00000000
_symmetry_Int_Tables_number   1
_chemical_formula_structural   W17O47
_chemical_formula_sum   'W17 O47'
_cell_volume   884.90982591
_cell_formula_units_Z   1
loop_
 _symmetry_equiv_pos_site_id
 _symmetry_equiv_pos_as_xyz
  1  'x, y, z'
loop_
 _atom_site_type_symbol
 _atom_site_label
 _atom_site_symmetry_multiplicity
 _atom_site_fract_x
 _atom_site_fract_y
 _atom_site_fract_z
 _atom_site_occupancy
  O  O0  1  0.02460213  0.50000000  0.85789921  1.0
  O  O1  1  -0.02460213  0.50000000  0.14210079  1.0
  O  O2  1  0.88860389  0.50000000  0.65217943  1.0
  O  O3  1  0.11139611  0.50000000  0.34782057  1.0
  O  O4  1  0.80248437  0.50000000  0.28586989  1.0
  O  O5  1  0.19751563  0.50000000  0.71413011  1.0
  O  O6  1  0.78511644  0.50000000  0.95740915  1.0
  O  O7  1  0.21488356  0.50000000  0.04259085  1.0
  O  O8  1  0.75873659  0.50000000  0.78438085  1.0
  O  O9  1  0.24126341  0.50000000  0.21561915  1.0
  O  O10  1  0.71789483  0.50000000  0.46793233  1.0
  O  O11  1  0.28210517  0.50000000  0.53206767  1.0
  O  O12  1  0.58291565  0.50000000  0.62967075  1.0
  O  O13  1  0.41708435  0.50000000  0.37032925  1.0
  O  O14  1  0.50486557  0.50000000  0.80554702  1.0
  O  O15  1  0.49513443  0.50000000  0.19445298  1.0
  O  O16  1  0.95756681  0.00000000  0.33556348  1.0
  O  O17  1  0.04243319  0.00000000  0.66443652  1.0
  O  O18  1  0.91249295  -0.00000000  0.76393037  1.0
  O  O19  1  0.08750705  -0.00000000  0.23606963  1.0
  O  O20  1  0.87173598  0.00000000  0.88193338  1.0
  O  O21  1  0.12826402  0.00000000  0.11806662  1.0
  O  O22  1  0.86011766  0.00000000  0.19486607  1.0
  O  O23  1  0.13988234  0.00000000  0.80513393  1.0
  O  O24  1  0.83905922  0.00000000  0.55028189  1.0
  O  O25  1  0.16094078  0.00000000  0.44971811  1.0
  O  O26  1  0.77694318  -0.00000000  0.38390646  1.0
  O  O27  1  0.22305682  -0.00000000  0.61609354  1.0
  O  O28  1  0.74426133  0.00000000  0.67726997  1.0
  O  O29  1  0.25573867  0.00000000  0.32273003  1.0
  O  O30  1  0.67098395  0.00000000  0.86098014  1.0
  O  O31  1  0.32901605  0.00000000  0.13901986  1.0
  O  O32  1  0.59284740  -0.00000000  0.73388335  1.0
  O  O33  1  0.40715260  -0.00000000  0.26611665  1.0
  O  O34  1  0.62287368  0.00000000  0.53942672  1.0
  O  O35  1  0.37712632  0.00000000  0.46057328  1.0
  O  O36  1  0.46803047  0.00000000  0.89729581  1.0
  O  O37  1  0.53196953  0.00000000  0.10270419  1.0
  O  O38  1  0.42875128  -0.00000000  0.59899017  1.0
  O  O39  1  0.57124872  -0.00000000  0.40100983  1.0
  O  O40  1  0.34202481  -0.00000000  1.00119375  1.0
  O  O41  1  0.65797519  0.00000000  -0.00119375  1.0
  O  O42  1  0.35555911  0.00000000  0.75468939  1.0
  O  O43  1  0.64444089  0.00000000  0.24531061  1.0
  O  O44  1  0.10776973  0.00000000  0.95460105  1.0
  O  O45  1  0.89223027  0.00000000  0.04539895  1.0
  O  O46  1  0.50000000  0.50000000  -0.00000000  1.0
  W  W47  1  0.03174455  -0.00000000  0.85527054  1.0
  W  W48  1  -0.03174455  -0.00000000  0.14472946  1.0
  W  W49  1  0.89184023  -0.00000000  0.64956385  1.0
  W  W50  1  0.10815977  0.00000000  0.35043615  1.0
  W  W51  1  0.80346783  -0.00000000  0.29035667  1.0
  W  W52  1  0.19653217  -0.00000000  0.70964333  1.0
  W  W53  1  0.78124844  -0.00000000  0.95986565  1.0
  W  W54  1  0.21875156  -0.00000000  0.04013435  1.0
  W  W55  1  0.75918972  0.00000000  0.78490163  1.0
  W  W56  1  0.24081028  0.00000000  0.21509837  1.0
  W  W57  1  0.71691356  0.00000000  0.46662429  1.0
  W  W58  1  0.28308644  0.00000000  0.53337571  1.0
  W  W59  1  0.57929018  -0.00000000  0.62417853  1.0
  W  W60  1  0.42070982  -0.00000000  0.37582147  1.0
  W  W61  1  0.49838800  0.00000000  0.80668644  1.0
  W  W62  1  0.50161200  0.00000000  0.19331356  1.0
  W  W63  1  0.50000000  0.00000000  -0.00000000  1.0
