# generated using pymatgen
data_KSrVO4
_symmetry_space_group_name_H-M   'P 1'
_cell_length_a   5.89572721
_cell_length_b   7.52463889
_cell_length_c   10.03211012
_cell_angle_alpha   90.00000000
_cell_angle_beta   90.00000000
_cell_angle_gamma   90.00000000
_symmetry_Int_Tables_number   1
_chemical_formula_structural   KSrVO4
_chemical_formula_sum   'K4 Sr4 V4 O16'
_cell_volume   445.05669111
_cell_formula_units_Z   4
loop_
 _symmetry_equiv_pos_site_id
 _symmetry_equiv_pos_as_xyz
  1  'x, y, z'
loop_
 _atom_site_type_symbol
 _atom_site_label
 _atom_site_symmetry_multiplicity
 _atom_site_fract_x
 _atom_site_fract_y
 _atom_site_fract_z
 _atom_site_occupancy
  K  K0  1  0.48173574  0.40951118  0.57626048  1.0
  K  K1  1  0.98173574  0.09048882  0.42373952  1.0
  K  K2  1  0.51826426  0.90951118  0.92373952  1.0
  K  K3  1  0.01826426  0.59048882  0.07626048  1.0
  Sr  Sr4  1  0.01992494  0.74875008  0.69854282  1.0
  Sr  Sr5  1  0.51992494  0.75124992  0.30145718  1.0
  Sr  Sr6  1  0.98007506  0.24875008  0.80145718  1.0
  Sr  Sr7  1  0.48007506  0.25124992  0.19854282  1.0
  V  V8  1  0.48271637  0.97392767  0.58467485  1.0
  V  V9  1  0.98271637  0.52607233  0.41532515  1.0
  V  V10  1  0.51728363  0.47392767  0.91532515  1.0
  V  V11  1  0.01728363  0.02607233  0.08467485  1.0
  O  O12  1  0.43009290  0.75331161  0.56137066  1.0
  O  O13  1  0.93009290  0.74668839  0.43862934  1.0
  O  O14  1  0.56990710  0.25331161  0.93862934  1.0
  O  O15  1  0.06990710  0.24668839  0.06137066  1.0
  O  O16  1  0.26629364  0.51234924  0.82983817  1.0
  O  O17  1  0.76629364  0.98765076  0.17016183  1.0
  O  O18  1  0.73370636  0.01234924  0.67016183  1.0
  O  O19  1  0.23370636  0.48765076  0.32983817  1.0
  O  O20  1  0.24521503  0.94541056  0.17360540  1.0
  O  O21  1  0.74521503  0.55458944  0.82639460  1.0
  O  O22  1  0.75478497  0.44541056  0.32639460  1.0
  O  O23  1  0.25478497  0.05458944  0.67360540  1.0
  O  O24  1  0.00699054  0.92833084  0.92865295  1.0
  O  O25  1  0.50699054  0.57166916  0.07134705  1.0
  O  O26  1  0.99300946  0.42833084  0.57134705  1.0
  O  O27  1  0.49300946  0.07166916  0.42865295  1.0
