# generated using pymatgen
data_Sr21In8Pb7
_symmetry_space_group_name_H-M   'P 1'
_cell_length_a   12.49342290
_cell_length_b   12.49342290
_cell_length_c   12.49342290
_cell_angle_alpha   60.00000000
_cell_angle_beta   60.00000000
_cell_angle_gamma   60.00000000
_symmetry_Int_Tables_number   1
_chemical_formula_structural   Sr21In8Pb7
_chemical_formula_sum   'Sr21 In8 Pb7'
_cell_volume   1378.88905769
_cell_formula_units_Z   1
loop_
 _symmetry_equiv_pos_site_id
 _symmetry_equiv_pos_as_xyz
  1  'x, y, z'
loop_
 _atom_site_type_symbol
 _atom_site_label
 _atom_site_symmetry_multiplicity
 _atom_site_fract_x
 _atom_site_fract_y
 _atom_site_fract_z
 _atom_site_occupancy
  Sr  Sr0  1  1.68207612  0.00000000  -0.00000000  1.0
  Sr  Sr1  1  1.00000000  0.31792388  -0.31792388  1.0
  Sr  Sr2  1  1.00000000  0.68207612  -0.68207612  1.0
  Sr  Sr3  1  1.31792388  -0.00000000  0.00000000  1.0
  Sr  Sr4  1  0.00000000  1.68207612  -0.00000000  1.0
  Sr  Sr5  1  0.31792388  1.00000000  -0.31792388  1.0
  Sr  Sr6  1  0.00000000  0.00000000  0.68207612  1.0
  Sr  Sr7  1  0.31792388  -0.31792388  1.00000000  1.0
  Sr  Sr8  1  0.68207612  1.00000000  -0.68207612  1.0
  Sr  Sr9  1  -0.00000000  1.31792388  0.00000000  1.0
  Sr  Sr10  1  0.68207612  -0.68207612  1.00000000  1.0
  Sr  Sr11  1  -0.00000000  0.00000000  0.31792388  1.0
  Sr  Sr12  1  0.62851079  0.62851079  -0.37148921  1.0
  Sr  Sr13  1  0.37148921  1.37148921  -0.11446764  1.0
  Sr  Sr14  1  1.37148921  -0.11446764  0.37148921  1.0
  Sr  Sr15  1  1.11446764  0.62851079  0.62851079  1.0
  Sr  Sr16  1  -0.11446764  1.37148921  0.37148921  1.0
  Sr  Sr17  1  0.62851079  1.11446764  -0.37148921  1.0
  Sr  Sr18  1  0.62851079  0.62851079  1.11446764  1.0
  Sr  Sr19  1  1.37148921  0.37148921  0.37148921  1.0
  Sr  Sr20  1  -0.50000000  0.50000000  0.50000000  1.0
  In  In21  1  0.81105298  0.81105298  -0.18894702  1.0
  In  In22  1  1.18894702  0.18894702  0.43315894  1.0
  In  In23  1  1.18894702  0.43315894  0.18894702  1.0
  In  In24  1  0.56684106  0.81105298  -0.18894702  1.0
  In  In25  1  1.43315894  0.18894702  0.18894702  1.0
  In  In26  1  0.81105298  0.56684106  -0.18894702  1.0
  In  In27  1  0.81105298  0.81105298  -0.43315894  1.0
  In  In28  1  1.18894702  0.18894702  0.18894702  1.0
  Pb  Pb29  1  -0.71260075  0.71260075  0.71260075  1.0
  Pb  Pb30  1  -0.28739925  0.28739925  0.71260075  1.0
  Pb  Pb31  1  0.71260075  0.71260075  -0.71260075  1.0
  Pb  Pb32  1  0.28739925  1.28739925  -0.28739925  1.0
  Pb  Pb33  1  0.28739925  -0.28739925  1.28739925  1.0
  Pb  Pb34  1  -0.28739925  0.28739925  0.28739925  1.0
  Pb  Pb35  1  0.00000000  0.00000000  0.00000000  1.0
