# generated using pymatgen
data_NaY3SiS7
_symmetry_space_group_name_H-M   'P 1'
_cell_length_a   9.97030253
_cell_length_b   9.97030253
_cell_length_c   5.74382107
_cell_angle_alpha   90.00000000
_cell_angle_beta   90.00000000
_cell_angle_gamma   120.00000000
_symmetry_Int_Tables_number   1
_chemical_formula_structural   NaY3SiS7
_chemical_formula_sum   'Na2 Y6 Si2 S14'
_cell_volume   494.47940340
_cell_formula_units_Z   2
loop_
 _symmetry_equiv_pos_site_id
 _symmetry_equiv_pos_as_xyz
  1  'x, y, z'
loop_
 _atom_site_type_symbol
 _atom_site_label
 _atom_site_symmetry_multiplicity
 _atom_site_fract_x
 _atom_site_fract_y
 _atom_site_fract_z
 _atom_site_occupancy
  Na  Na0  1  0.00000000  0.00000000  -0.01429522  1.0
  Na  Na1  1  0.00000000  0.00000000  0.48570478  1.0
  Y  Y2  1  0.76821727  0.63795961  0.20359604  1.0
  Y  Y3  1  0.63795961  0.86974234  0.70359604  1.0
  Y  Y4  1  0.86974234  0.23178273  0.20359604  1.0
  Y  Y5  1  0.36204039  0.13025766  0.20359604  1.0
  Y  Y6  1  0.23178273  0.36204039  0.70359604  1.0
  Y  Y7  1  0.13025766  0.76821727  0.70359604  1.0
  Si  Si8  1  0.33333333  0.66666667  0.11602927  1.0
  Si  Si9  1  0.66666667  0.33333333  0.61602927  1.0
  S  S10  1  0.41359552  0.89163621  0.96366316  1.0
  S  S11  1  0.89163621  0.47804069  0.46366316  1.0
  S  S12  1  0.47804069  0.58640448  0.96366316  1.0
  S  S13  1  0.10836379  0.52195931  0.96366316  1.0
  S  S14  1  0.58640448  0.10836379  0.46366316  1.0
  S  S15  1  0.52195931  0.41359552  0.46366316  1.0
  S  S16  1  0.09679195  0.83394339  0.23881236  1.0
  S  S17  1  0.83394339  0.73715144  0.73881236  1.0
  S  S18  1  0.73715144  0.90320805  0.23881236  1.0
  S  S19  1  0.16605661  0.26284856  0.23881236  1.0
  S  S20  1  0.90320805  0.16605661  0.73881236  1.0
  S  S21  1  0.26284856  0.09679195  0.73881236  1.0
  S  S22  1  0.33333333  0.66666667  0.48545127  1.0
  S  S23  1  0.66666667  0.33333333  0.98545127  1.0
