# generated using pymatgen
data_Cs3MgH5
_symmetry_space_group_name_H-M   'P 1'
_cell_length_a   8.75603826
_cell_length_b   8.75603826
_cell_length_c   8.75603826
_cell_angle_alpha   122.53618885
_cell_angle_beta   122.53618885
_cell_angle_gamma   85.66060196
_symmetry_Int_Tables_number   1
_chemical_formula_structural   Cs3MgH5
_chemical_formula_sum   'Cs6 Mg2 H10'
_cell_volume   455.06772158
_cell_formula_units_Z   2
loop_
 _symmetry_equiv_pos_site_id
 _symmetry_equiv_pos_as_xyz
  1  'x, y, z'
loop_
 _atom_site_type_symbol
 _atom_site_label
 _atom_site_symmetry_multiplicity
 _atom_site_fract_x
 _atom_site_fract_y
 _atom_site_fract_z
 _atom_site_occupancy
  Cs  Cs0  1  0.81962893  0.31962893  1.13925785  1.0
  Cs  Cs1  1  0.68037107  0.81962893  1.50000000  1.0
  Cs  Cs2  1  0.31962893  0.18037107  0.50000000  1.0
  Cs  Cs3  1  0.18037107  0.68037107  0.86074215  1.0
  Cs  Cs4  1  0.75000000  0.75000000  1.00000000  1.0
  Cs  Cs5  1  0.25000000  0.25000000  0.00000000  1.0
  Mg  Mg6  1  0.25000000  0.75000000  0.50000000  1.0
  Mg  Mg7  1  0.75000000  0.25000000  0.50000000  1.0
  H  H8  1  1.21355346  0.71355346  1.25103502  1.0
  H  H9  1  0.53748156  1.03748156  1.25103502  1.0
  H  H10  1  0.96251844  1.21355346  1.50000000  1.0
  H  H11  1  0.28644654  0.53748156  0.50000000  1.0
  H  H12  1  0.71355346  0.46251844  0.50000000  1.0
  H  H13  1  1.03748156  0.78644654  1.50000000  1.0
  H  H14  1  0.46251844  0.96251844  0.74896498  1.0
  H  H15  1  0.78644654  0.28644654  0.74896498  1.0
  H  H16  1  0.00000000  0.00000000  0.00000000  1.0
  H  H17  1  0.50000000  0.50000000  1.00000000  1.0
