# generated using pymatgen
data_K3Nb2Cu3Se8
_symmetry_space_group_name_H-M   'P 1'
_cell_length_a   12.79850060
_cell_length_b   12.79850060
_cell_length_c   15.06186952
_cell_angle_alpha   61.37463724
_cell_angle_beta   118.62536276
_cell_angle_gamma   154.03064741
_symmetry_Int_Tables_number   1
_chemical_formula_structural   K3Nb2Cu3Se8
_chemical_formula_sum   'K6 Nb4 Cu6 Se16'
_cell_volume   940.75547840
_cell_formula_units_Z   2
loop_
 _symmetry_equiv_pos_site_id
 _symmetry_equiv_pos_as_xyz
  1  'x, y, z'
loop_
 _atom_site_type_symbol
 _atom_site_label
 _atom_site_symmetry_multiplicity
 _atom_site_fract_x
 _atom_site_fract_y
 _atom_site_fract_z
 _atom_site_occupancy
  K  K0  1  0.65580066  0.25476843  0.10201549  1.0
  K  K1  1  0.74523157  -0.65580066  0.60201549  1.0
  K  K2  1  1.25476843  0.65580066  0.39798451  1.0
  K  K3  1  1.34419934  -0.25476843  0.89798451  1.0
  K  K4  1  0.00000000  -0.00000000  0.50000000  1.0
  K  K5  1  0.00000000  0.00000000  -0.00000000  1.0
  Nb  Nb6  1  1.59416421  -0.16235626  0.22595594  1.0
  Nb  Nb7  1  1.16235626  -0.59416421  0.72595594  1.0
  Nb  Nb8  1  0.83764374  0.59416421  0.27404406  1.0
  Nb  Nb9  1  0.40583579  0.16235626  0.77404406  1.0
  Cu  Cu10  1  0.33572066  0.09703062  0.27334791  1.0
  Cu  Cu11  1  0.90296938  0.66427934  0.77334791  1.0
  Cu  Cu12  1  1.09703062  -0.66427934  0.22665209  1.0
  Cu  Cu13  1  1.66427934  -0.09703062  0.72665209  1.0
  Cu  Cu14  1  0.72350579  0.72350579  0.25000000  1.0
  Cu  Cu15  1  0.27649421  0.27649421  0.75000000  1.0
  Se  Se16  1  1.44108050  -0.48881380  0.34474684  1.0
  Se  Se17  1  1.48881380  -0.44108050  0.84474684  1.0
  Se  Se18  1  0.51118620  0.44108050  0.15525316  1.0
  Se  Se19  1  0.55891950  0.48881380  0.65525316  1.0
  Se  Se20  1  1.87041087  0.04743223  0.12876917  1.0
  Se  Se21  1  0.95256777  -0.87041087  0.62876917  1.0
  Se  Se22  1  1.04743223  0.87041087  0.37123083  1.0
  Se  Se23  1  0.12958913  -0.04743223  0.87123083  1.0
  Se  Se24  1  0.81259550  0.11960523  0.32242469  1.0
  Se  Se25  1  0.88039477  -0.81259550  0.82242469  1.0
  Se  Se26  1  1.11960523  0.81259550  0.17757531  1.0
  Se  Se27  1  1.18740450  -0.11960523  0.67757531  1.0
  Se  Se28  1  0.67220200  0.25954638  0.38543009  1.0
  Se  Se29  1  0.74045362  -0.67220200  0.88543009  1.0
  Se  Se30  1  1.25954638  0.67220200  0.11456991  1.0
  Se  Se31  1  1.32779800  -0.25954638  0.61456991  1.0
