# generated using pymatgen
data_C3S3O2
_symmetry_space_group_name_H-M   'P 1'
_cell_length_a   6.68063886
_cell_length_b   6.26686873
_cell_length_c   17.85182785
_cell_angle_alpha   90.00000000
_cell_angle_beta   106.44234646
_cell_angle_gamma   90.00000000
_symmetry_Int_Tables_number   1
_chemical_formula_structural   C3S3O2
_chemical_formula_sum   'C12 S12 O8'
_cell_volume   716.83211844
_cell_formula_units_Z   4
loop_
 _symmetry_equiv_pos_site_id
 _symmetry_equiv_pos_as_xyz
  1  'x, y, z'
loop_
 _atom_site_type_symbol
 _atom_site_label
 _atom_site_symmetry_multiplicity
 _atom_site_fract_x
 _atom_site_fract_y
 _atom_site_fract_z
 _atom_site_occupancy
  C  C0  1  0.92494790  0.67116211  0.38042510  1.0
  C  C1  1  0.92494790  0.82883789  0.88042510  1.0
  C  C2  1  0.07505210  0.17116211  0.11957490  1.0
  C  C3  1  0.07505210  0.32883789  0.61957490  1.0
  C  C4  1  0.68825046  0.33570150  0.31880097  1.0
  C  C5  1  0.68825046  0.16429850  0.81880097  1.0
  C  C6  1  0.31174954  0.83570150  0.18119903  1.0
  C  C7  1  0.31174954  0.66429850  0.68119903  1.0
  C  C8  1  0.59796399  0.42906519  0.38361499  1.0
  C  C9  1  0.59796399  0.07093481  0.88361499  1.0
  C  C10  1  0.40203601  0.92906519  0.11638501  1.0
  C  C11  1  0.40203601  0.57093481  0.61638501  1.0
  S  S12  1  0.91264170  0.47533925  0.30939037  1.0
  S  S13  1  0.91264170  0.02466075  0.80939037  1.0
  S  S14  1  0.08735830  0.97533925  0.19060963  1.0
  S  S15  1  0.08735830  0.52466075  0.69060963  1.0
  S  S16  1  0.89362862  0.35443171  0.10102231  1.0
  S  S17  1  0.89362862  0.14556829  0.60102231  1.0
  S  S18  1  0.10637138  0.85443171  0.39897769  1.0
  S  S19  1  0.10637138  0.64556829  0.89897769  1.0
  S  S20  1  0.73414174  0.66067899  0.43033100  1.0
  S  S21  1  0.73414174  0.83932101  0.93033100  1.0
  S  S22  1  0.26585826  0.16067899  0.06966900  1.0
  S  S23  1  0.26585826  0.33932101  0.56966900  1.0
  O  O24  1  0.61169881  0.18191984  0.28065159  1.0
  O  O25  1  0.61169881  0.31808016  0.78065159  1.0
  O  O26  1  0.38830119  0.68191984  0.21934841  1.0
  O  O27  1  0.38830119  0.81808016  0.71934841  1.0
  O  O28  1  0.45148328  0.34812452  0.39964340  1.0
  O  O29  1  0.45148328  0.15187548  0.89964340  1.0
  O  O30  1  0.54851672  0.84812452  0.10035660  1.0
  O  O31  1  0.54851672  0.65187548  0.60035660  1.0
