# generated using pymatgen
data_CaPbO6
_symmetry_space_group_name_H-M   'P 1'
_cell_length_a   7.90720176
_cell_length_b   7.90720176
_cell_length_c   7.90720176
_cell_angle_alpha   90.00000000
_cell_angle_beta   90.00000000
_cell_angle_gamma   90.00000000
_symmetry_Int_Tables_number   1
_chemical_formula_structural   CaPbO6
_chemical_formula_sum   'Ca4 Pb4 O24'
_cell_volume   494.38861528
_cell_formula_units_Z   4
loop_
 _symmetry_equiv_pos_site_id
 _symmetry_equiv_pos_as_xyz
  1  'x, y, z'
loop_
 _atom_site_type_symbol
 _atom_site_label
 _atom_site_symmetry_multiplicity
 _atom_site_fract_x
 _atom_site_fract_y
 _atom_site_fract_z
 _atom_site_occupancy
  Ca  Ca0  1  0.75000000  0.25000000  0.25000000  1.0
  Ca  Ca1  1  0.25000000  0.25000000  0.75000000  1.0
  Ca  Ca2  1  0.25000000  0.75000000  0.25000000  1.0
  Ca  Ca3  1  0.75000000  0.75000000  0.75000000  1.0
  Pb  Pb4  1  0.25000000  0.75000000  0.75000000  1.0
  Pb  Pb5  1  0.75000000  0.75000000  0.25000000  1.0
  Pb  Pb6  1  0.75000000  0.25000000  0.75000000  1.0
  Pb  Pb7  1  0.25000000  0.25000000  0.25000000  1.0
  O  O8  1  0.51095163  0.41368217  0.16928726  1.0
  O  O9  1  0.48904837  0.41368217  0.83071274  1.0
  O  O10  1  0.48904837  0.58631783  0.16928726  1.0
  O  O11  1  0.51095163  0.58631783  0.83071274  1.0
  O  O12  1  0.16928726  0.51095163  0.41368217  1.0
  O  O13  1  0.83071274  0.48904837  0.41368217  1.0
  O  O14  1  0.16928726  0.48904837  0.58631783  1.0
  O  O15  1  0.83071274  0.51095163  0.58631783  1.0
  O  O16  1  0.41368217  0.16928726  0.51095163  1.0
  O  O17  1  0.41368217  0.83071274  0.48904837  1.0
  O  O18  1  0.58631783  0.16928726  0.48904837  1.0
  O  O19  1  0.58631783  0.83071274  0.51095163  1.0
  O  O20  1  -0.01095163  0.08631783  0.33071274  1.0
  O  O21  1  1.01095163  0.08631783  0.66928726  1.0
  O  O22  1  1.01095163  0.91368217  0.33071274  1.0
  O  O23  1  -0.01095163  0.91368217  0.66928726  1.0
  O  O24  1  0.33071274  -0.01095163  0.08631783  1.0
  O  O25  1  0.66928726  1.01095163  0.08631783  1.0
  O  O26  1  0.33071274  1.01095163  0.91368217  1.0
  O  O27  1  0.66928726  -0.01095163  0.91368217  1.0
  O  O28  1  0.08631783  0.33071274  -0.01095163  1.0
  O  O29  1  0.08631783  0.66928726  1.01095163  1.0
  O  O30  1  0.91368217  0.33071274  1.01095163  1.0
  O  O31  1  0.91368217  0.66928726  -0.01095163  1.0
