# generated using pymatgen
data_Al4Mo
_symmetry_space_group_name_H-M   'P 1'
_cell_length_a   9.28958714
_cell_length_b   9.28958714
_cell_length_c   5.23378472
_cell_angle_alpha   87.18806047
_cell_angle_beta   92.81193953
_cell_angle_gamma   32.97488999
_symmetry_Int_Tables_number   1
_chemical_formula_structural   Al4Mo
_chemical_formula_sum   'Al12 Mo3'
_cell_volume   242.12353359
_cell_formula_units_Z   3
loop_
 _symmetry_equiv_pos_site_id
 _symmetry_equiv_pos_as_xyz
  1  'x, y, z'
loop_
 _atom_site_type_symbol
 _atom_site_label
 _atom_site_symmetry_multiplicity
 _atom_site_fract_x
 _atom_site_fract_y
 _atom_site_fract_z
 _atom_site_occupancy
  Al  Al0  1  0.77261257  -0.27333410  0.07236306  1.0
  Al  Al1  1  0.27333410  0.22738743  0.07236306  1.0
  Al  Al2  1  0.73472997  -0.58078185  0.68675665  1.0
  Al  Al3  1  0.58078185  0.26527003  0.68675665  1.0
  Al  Al4  1  1.05779557  -0.30402529  0.80968954  1.0
  Al  Al5  1  0.30402529  -0.05779557  0.80968954  1.0
  Al  Al6  1  0.92233781  -0.45230492  0.58176115  1.0
  Al  Al7  1  0.45230492  0.07766219  0.58176115  1.0
  Al  Al8  1  0.93395179  -0.69854003  0.21603021  1.0
  Al  Al9  1  0.69854003  0.06604821  0.21603021  1.0
  Al  Al10  1  0.14396500  -0.14396500  0.50918280  1.0
  Al  Al11  1  0.49968151  -0.49968151  0.14908254  1.0
  Mo  Mo12  1  1.19304109  -0.46751803  0.33151986  1.0
  Mo  Mo13  1  0.46751803  -0.19304109  0.33151986  1.0
  Mo  Mo14  1  -0.01161955  0.01161955  -0.00850626  1.0
