# generated using pymatgen
data_La3(SiNi)4
_symmetry_space_group_name_H-M   'P 1'
_cell_length_a   12.19706189
_cell_length_b   12.19706189
_cell_length_c   12.19706189
_cell_angle_alpha   160.20061552
_cell_angle_beta   160.50711363
_cell_angle_gamma   27.92427047
_symmetry_Int_Tables_number   1
_chemical_formula_structural   La3(SiNi)4
_chemical_formula_sum   'La3 Si4 Ni4'
_cell_volume   205.00491583
_cell_formula_units_Z   1
loop_
 _symmetry_equiv_pos_site_id
 _symmetry_equiv_pos_as_xyz
  1  'x, y, z'
loop_
 _atom_site_type_symbol
 _atom_site_label
 _atom_site_symmetry_multiplicity
 _atom_site_fract_x
 _atom_site_fract_y
 _atom_site_fract_z
 _atom_site_occupancy
  La  La0  1  0.64987983  0.14987983  0.50000000  1.0
  La  La1  1  0.35012017  0.85012017  0.50000000  1.0
  La  La2  1  0.00000000  0.00000000  0.00000000  1.0
  Si  Si3  1  0.79869895  0.29869895  0.50000000  1.0
  Si  Si4  1  0.20130105  0.70130105  0.50000000  1.0
  Si  Si5  1  0.55178720  0.55178720  1.00000000  1.0
  Si  Si6  1  0.44821280  0.44821280  0.00000000  1.0
  Ni  Ni7  1  0.89993234  0.39993234  0.50000000  1.0
  Ni  Ni8  1  0.10006766  0.60006766  0.50000000  1.0
  Ni  Ni9  1  0.75158546  0.75158546  1.00000000  1.0
  Ni  Ni10  1  0.24841454  0.24841454  -0.00000000  1.0
