# generated using pymatgen
data_Nb4Co2PdSe12
_symmetry_space_group_name_H-M   'P 1'
_cell_length_a   7.21394741
_cell_length_b   7.21394741
_cell_length_c   19.42992709
_cell_angle_alpha   70.77014759
_cell_angle_beta   109.22985241
_cell_angle_gamma   152.61345062
_symmetry_Int_Tables_number   1
_chemical_formula_structural   Nb4Co2PdSe12
_chemical_formula_sum   'Nb4 Co2 Pd1 Se12'
_cell_volume   437.58136060
_cell_formula_units_Z   1
loop_
 _symmetry_equiv_pos_site_id
 _symmetry_equiv_pos_as_xyz
  1  'x, y, z'
loop_
 _atom_site_type_symbol
 _atom_site_label
 _atom_site_symmetry_multiplicity
 _atom_site_fract_x
 _atom_site_fract_y
 _atom_site_fract_z
 _atom_site_occupancy
  Nb  Nb0  1  0.88126758  0.11873242  0.85026905  1.0
  Nb  Nb1  1  1.11873242  -0.11873242  0.14973095  1.0
  Nb  Nb2  1  0.75862429  0.24137571  0.59320096  1.0
  Nb  Nb3  1  1.24137571  -0.24137571  0.40679904  1.0
  Co  Co4  1  0.72447641  -0.72447641  0.28327937  1.0
  Co  Co5  1  0.27552359  -0.27552359  0.71672063  1.0
  Pd  Pd6  1  0.50000000  0.50000000  0.00000000  1.0
  Se  Se7  1  0.89774646  -0.89774646  0.71897228  1.0
  Se  Se8  1  0.10225354  -0.10225354  0.28102772  1.0
  Se  Se9  1  0.86873593  -0.86873593  0.39060276  1.0
  Se  Se10  1  0.13126407  -0.13126407  0.60939724  1.0
  Se  Se11  1  0.69863600  0.30136400  0.76503073  1.0
  Se  Se12  1  1.30136400  -0.30136400  0.23496927  1.0
  Se  Se13  1  0.63322048  0.36677952  0.45194381  1.0
  Se  Se14  1  1.36677952  -0.36677952  0.54805619  1.0
  Se  Se15  1  0.53109235  0.46890765  0.88237208  1.0
  Se  Se16  1  1.46890765  -0.46890765  0.11762792  1.0
  Se  Se17  1  0.31700216  -0.31700216  0.92660859  1.0
  Se  Se18  1  0.68299784  -0.68299784  0.07339141  1.0
