# generated using pymatgen
data_SrMg2FeH8
_symmetry_space_group_name_H-M   'P 1'
_cell_length_a   4.48802373
_cell_length_b   4.48802373
_cell_length_c   6.57864085
_cell_angle_alpha   90.00000000
_cell_angle_beta   90.00000000
_cell_angle_gamma   120.00000000
_symmetry_Int_Tables_number   1
_chemical_formula_structural   SrMg2FeH8
_chemical_formula_sum   'Sr1 Mg2 Fe1 H8'
_cell_volume   114.75644844
_cell_formula_units_Z   1
loop_
 _symmetry_equiv_pos_site_id
 _symmetry_equiv_pos_as_xyz
  1  'x, y, z'
loop_
 _atom_site_type_symbol
 _atom_site_label
 _atom_site_symmetry_multiplicity
 _atom_site_fract_x
 _atom_site_fract_y
 _atom_site_fract_z
 _atom_site_occupancy
  Sr  Sr0  1  0.00000000  0.00000000  0.50000000  1.0
  Mg  Mg1  1  0.33333333  0.66666667  0.12173465  1.0
  Mg  Mg2  1  0.66666667  0.33333333  0.87826535  1.0
  Fe  Fe3  1  0.00000000  0.00000000  0.00000000  1.0
  H  H4  1  0.32234590  0.16117295  0.14401028  1.0
  H  H5  1  0.16117295  0.32234590  0.85598972  1.0
  H  H6  1  0.16117295  0.83882705  0.85598972  1.0
  H  H7  1  0.83882705  0.16117295  0.14401028  1.0
  H  H8  1  0.83882705  0.67765410  0.14401028  1.0
  H  H9  1  0.67765410  0.83882705  0.85598972  1.0
  H  H10  1  0.33333333  0.66666667  0.41271491  1.0
  H  H11  1  0.66666667  0.33333333  0.58728509  1.0
