# generated using pymatgen
data_Lu2Ge2O7
_symmetry_space_group_name_H-M   'P 1'
_cell_length_a   6.80403234
_cell_length_b   6.80403234
_cell_length_c   12.37116073
_cell_angle_alpha   90.00000000
_cell_angle_beta   90.00000000
_cell_angle_gamma   90.00000000
_symmetry_Int_Tables_number   1
_chemical_formula_structural   Lu2Ge2O7
_chemical_formula_sum   'Lu8 Ge8 O28'
_cell_volume   572.72110540
_cell_formula_units_Z   4
loop_
 _symmetry_equiv_pos_site_id
 _symmetry_equiv_pos_as_xyz
  1  'x, y, z'
loop_
 _atom_site_type_symbol
 _atom_site_label
 _atom_site_symmetry_multiplicity
 _atom_site_fract_x
 _atom_site_fract_y
 _atom_site_fract_z
 _atom_site_occupancy
  Lu  Lu0  1  0.14448673  0.62643934  0.86465402  1.0
  Lu  Lu1  1  0.64448673  0.87356066  0.88534598  1.0
  Lu  Lu2  1  0.37356066  0.85551327  0.63534598  1.0
  Lu  Lu3  1  0.87356066  0.64448673  0.11465402  1.0
  Lu  Lu4  1  0.85551327  0.37356066  0.36465402  1.0
  Lu  Lu5  1  0.35551327  0.12643934  0.38534598  1.0
  Lu  Lu6  1  0.62643934  0.14448673  0.13534598  1.0
  Lu  Lu7  1  0.12643934  0.35551327  0.61465402  1.0
  Ge  Ge8  1  0.39984368  0.64947028  0.11786384  1.0
  Ge  Ge9  1  0.89984368  0.85052972  0.63213616  1.0
  Ge  Ge10  1  0.35052972  0.60015632  0.38213616  1.0
  Ge  Ge11  1  0.85052972  0.89984368  0.36786384  1.0
  Ge  Ge12  1  0.60015632  0.35052972  0.61786384  1.0
  Ge  Ge13  1  0.10015632  0.14947028  0.13213616  1.0
  Ge  Ge14  1  0.64947028  0.39984368  0.88213616  1.0
  Ge  Ge15  1  0.14947028  0.10015632  0.86786384  1.0
  O  O16  1  0.46441443  0.58011520  0.87883620  1.0
  O  O17  1  0.96441443  0.91988480  0.87116380  1.0
  O  O18  1  0.41988480  0.53558557  0.62116380  1.0
  O  O19  1  0.91988480  0.96441443  0.12883620  1.0
  O  O20  1  0.53558557  0.41988480  0.37883620  1.0
  O  O21  1  0.03558557  0.08011520  0.37116380  1.0
  O  O22  1  0.58011520  0.46441443  0.12116380  1.0
  O  O23  1  0.08011520  0.03558557  0.62883620  1.0
  O  O24  1  0.33780464  0.93428537  0.82055082  1.0
  O  O25  1  0.83780464  0.56571463  0.92944918  1.0
  O  O26  1  0.06571463  0.66219536  0.67944918  1.0
  O  O27  1  0.56571463  0.83780464  0.07055082  1.0
  O  O28  1  0.66219536  0.06571463  0.32055082  1.0
  O  O29  1  0.16219536  0.43428537  0.42944918  1.0
  O  O30  1  0.93428537  0.33780464  0.17944918  1.0
  O  O31  1  0.43428537  0.16219536  0.57055082  1.0
  O  O32  1  0.17857159  0.64251245  0.04403693  1.0
  O  O33  1  0.67857159  0.85748755  0.70596307  1.0
  O  O34  1  0.35748755  0.82142841  0.45596307  1.0
  O  O35  1  0.85748755  0.67857159  0.29403693  1.0
  O  O36  1  0.82142841  0.35748755  0.54403693  1.0
  O  O37  1  0.32142841  0.14251245  0.20596307  1.0
  O  O38  1  0.64251245  0.17857159  0.95596307  1.0
  O  O39  1  0.14251245  0.32142841  0.79403693  1.0
  O  O40  1  0.30403899  0.69596101  0.25000000  1.0
  O  O41  1  0.80403899  0.80403899  0.50000000  1.0
  O  O42  1  0.69596101  0.30403899  0.75000000  1.0
  O  O43  1  0.19596101  0.19596101  0.00000000  1.0
