# generated using pymatgen
data_SmGa
_symmetry_space_group_name_H-M   'P 1'
_cell_length_a   6.30925864
_cell_length_b   6.30925864
_cell_length_c   4.44266357
_cell_angle_alpha   90.00000000
_cell_angle_beta   90.00000000
_cell_angle_gamma   143.81919125
_symmetry_Int_Tables_number   1
_chemical_formula_structural   SmGa
_chemical_formula_sum   'Sm2 Ga2'
_cell_volume   104.39960942
_cell_formula_units_Z   2
loop_
 _symmetry_equiv_pos_site_id
 _symmetry_equiv_pos_as_xyz
  1  'x, y, z'
loop_
 _atom_site_type_symbol
 _atom_site_label
 _atom_site_symmetry_multiplicity
 _atom_site_fract_x
 _atom_site_fract_y
 _atom_site_fract_z
 _atom_site_occupancy
  Sm  Sm0  1  0.34554036  0.65445964  0.75000000  1.0
  Sm  Sm1  1  -0.34554036  0.34554036  0.25000000  1.0
  Ga  Ga2  1  0.06488046  0.93511954  0.75000000  1.0
  Ga  Ga3  1  -0.06488046  0.06488046  0.25000000  1.0
