# generated using pymatgen
data_Ta2O5
_symmetry_space_group_name_H-M   'P 1'
_cell_length_a   6.92095861
_cell_length_b   6.92095861
_cell_length_c   5.58865622
_cell_angle_alpha   77.70092085
_cell_angle_beta   102.29907915
_cell_angle_gamma   138.34734547
_symmetry_Int_Tables_number   1
_chemical_formula_structural   Ta2O5
_chemical_formula_sum   'Ta4 O10'
_cell_volume   173.23136870
_cell_formula_units_Z   2
loop_
 _symmetry_equiv_pos_site_id
 _symmetry_equiv_pos_as_xyz
  1  'x, y, z'
loop_
 _atom_site_type_symbol
 _atom_site_label
 _atom_site_symmetry_multiplicity
 _atom_site_fract_x
 _atom_site_fract_y
 _atom_site_fract_z
 _atom_site_occupancy
  Ta  Ta0  1  1.61250119  -0.10563120  0.72974954  1.0
  Ta  Ta1  1  1.10563120  -0.61250119  0.22974954  1.0
  Ta  Ta2  1  0.89436880  -0.38749881  0.77025046  1.0
  Ta  Ta3  1  1.38749881  0.10563120  0.27025046  1.0
  O  O4  1  1.56149575  0.33810995  0.98347521  1.0
  O  O5  1  0.66189005  -0.56149575  0.48347521  1.0
  O  O6  1  1.33810995  -0.43850425  0.51652479  1.0
  O  O7  1  1.43850425  -0.33810995  0.01652479  1.0
  O  O8  1  1.27291643  -0.13649227  0.62738499  1.0
  O  O9  1  1.13649227  -0.27291643  0.12738499  1.0
  O  O10  1  0.86350773  -0.72708357  0.87261501  1.0
  O  O11  1  1.72708357  0.13649227  0.37261501  1.0
  O  O12  1  0.89176890  0.89176890  0.75000000  1.0
  O  O13  1  0.10823110  0.10823110  0.25000000  1.0
