# generated using pymatgen
data_GdCo9Si4
_symmetry_space_group_name_H-M   'P 1'
_cell_length_a   7.89882126
_cell_length_b   7.89882126
_cell_length_c   7.89882126
_cell_angle_alpha   121.60175048
_cell_angle_beta   121.60175048
_cell_angle_gamma   87.24737706
_symmetry_Int_Tables_number   1
_chemical_formula_structural   GdCo9Si4
_chemical_formula_sum   'Gd2 Co18 Si8'
_cell_volume   339.61237906
_cell_formula_units_Z   2
loop_
 _symmetry_equiv_pos_site_id
 _symmetry_equiv_pos_as_xyz
  1  'x, y, z'
loop_
 _atom_site_type_symbol
 _atom_site_label
 _atom_site_symmetry_multiplicity
 _atom_site_fract_x
 _atom_site_fract_y
 _atom_site_fract_z
 _atom_site_occupancy
  Co  Co0  1  0.68859990  1.18859990  1.23783854  1.0
  Co  Co1  1  1.04923864  0.54923864  1.23783854  1.0
  Co  Co2  1  0.45076136  0.68859990  0.50000000  1.0
  Co  Co3  1  0.81140010  1.04923864  1.50000000  1.0
  Co  Co4  1  1.18859990  0.95076136  1.50000000  1.0
  Co  Co5  1  0.54923864  0.31140010  0.50000000  1.0
  Co  Co6  1  0.95076136  0.45076136  0.76216146  1.0
  Co  Co7  1  0.31140010  0.81140010  0.76216146  1.0
  Co  Co8  1  0.80164280  0.93048544  1.73212824  1.0
  Co  Co9  1  0.69835720  0.43048544  1.12884263  1.0
  Co  Co10  1  0.43048544  0.30164280  0.73212824  1.0
  Co  Co11  1  0.06951456  0.80164280  0.87115737  1.0
  Co  Co12  1  0.30164280  0.56951456  0.87115737  1.0
  Co  Co13  1  0.19835720  0.06951456  0.26787176  1.0
  Co  Co14  1  0.93048544  0.19835720  1.12884263  1.0
  Co  Co15  1  0.56951456  0.69835720  1.26787176  1.0
  Co  Co16  1  0.50000000  0.00000000  0.50000000  1.0
  Co  Co17  1  -0.00000000  0.50000000  0.50000000  1.0
  Si  Si18  1  1.20949971  0.70949971  1.16368916  1.0
  Si  Si19  1  0.45418945  0.95418945  1.16368916  1.0
  Si  Si20  1  1.04581055  1.20949971  1.50000000  1.0
  Si  Si21  1  0.29050029  0.45418945  0.50000000  1.0
  Si  Si22  1  0.70949971  0.54581055  0.50000000  1.0
  Si  Si23  1  0.95418945  0.79050029  1.50000000  1.0
  Si  Si24  1  0.54581055  1.04581055  0.83631084  1.0
  Si  Si25  1  0.79050029  0.29050029  0.83631084  1.0
  Gd  Gd26  1  0.75000000  0.75000000  1.00000000  1.0
  Gd  Gd27  1  0.25000000  0.25000000  0.00000000  1.0
