# generated using pymatgen
data_CaSn
_symmetry_space_group_name_H-M   'P 1'
_cell_length_a   6.28428670
_cell_length_b   6.28428670
_cell_length_c   4.39547818
_cell_angle_alpha   90.00000000
_cell_angle_beta   90.00000000
_cell_angle_gamma   134.99136700
_symmetry_Int_Tables_number   1
_chemical_formula_structural   CaSn
_chemical_formula_sum   'Ca2 Sn2'
_cell_volume   122.76329562
_cell_formula_units_Z   2
loop_
 _symmetry_equiv_pos_site_id
 _symmetry_equiv_pos_as_xyz
  1  'x, y, z'
loop_
 _atom_site_type_symbol
 _atom_site_label
 _atom_site_symmetry_multiplicity
 _atom_site_fract_x
 _atom_site_fract_y
 _atom_site_fract_z
 _atom_site_occupancy
  Ca  Ca0  1  0.36625811  0.63374189  0.75000000  1.0
  Ca  Ca1  1  -0.36625811  0.36625811  0.25000000  1.0
  Sn  Sn2  1  0.08544355  0.91455645  0.75000000  1.0
  Sn  Sn3  1  -0.08544355  0.08544355  0.25000000  1.0
