# generated using pymatgen
data_KAlSiO4
_symmetry_space_group_name_H-M   'P 1'
_cell_length_a   5.22383096
_cell_length_b   5.22383096
_cell_length_c   8.86461700
_cell_angle_alpha   90.00000000
_cell_angle_beta   90.00000000
_cell_angle_gamma   120.00000000
_symmetry_Int_Tables_number   1
_chemical_formula_structural   KAlSiO4
_chemical_formula_sum   'K2 Al2 Si2 O8'
_cell_volume   209.49267322
_cell_formula_units_Z   2
loop_
 _symmetry_equiv_pos_site_id
 _symmetry_equiv_pos_as_xyz
  1  'x, y, z'
loop_
 _atom_site_type_symbol
 _atom_site_label
 _atom_site_symmetry_multiplicity
 _atom_site_fract_x
 _atom_site_fract_y
 _atom_site_fract_z
 _atom_site_occupancy
  K  K0  1  0.00000000  0.00000000  0.74341242  1.0
  K  K1  1  0.00000000  0.00000000  0.24341242  1.0
  Al  Al2  1  0.66666667  0.33333333  0.54942897  1.0
  Al  Al3  1  0.33333333  0.66666667  0.04942897  1.0
  Si  Si4  1  0.66666667  0.33333333  0.93159751  1.0
  Si  Si5  1  0.33333333  0.66666667  0.43159751  1.0
  O  O6  1  0.39481679  0.38002096  0.98962506  1.0
  O  O7  1  0.98520418  0.60518321  0.98962506  1.0
  O  O8  1  0.61997904  0.01479582  0.98962506  1.0
  O  O9  1  0.60518321  0.61997904  0.48962506  1.0
  O  O10  1  0.01479582  0.39481679  0.48962506  1.0
  O  O11  1  0.38002096  0.98520418  0.48962506  1.0
  O  O12  1  0.66666667  0.33333333  0.74728592  1.0
  O  O13  1  0.33333333  0.66666667  0.24728592  1.0
