# generated using pymatgen
data_Cs2Ca(Cl2O)2
_symmetry_space_group_name_H-M   'P 1'
_cell_length_a   4.52215385
_cell_length_b   8.40161525
_cell_length_c   8.42679714
_cell_angle_alpha   118.70100154
_cell_angle_beta   88.38618303
_cell_angle_gamma   91.65963941
_symmetry_Int_Tables_number   1
_chemical_formula_structural   Cs2Ca(Cl2O)2
_chemical_formula_sum   'Cs2 Ca1 Cl4 O2'
_cell_volume   280.67184753
_cell_formula_units_Z   1
loop_
 _symmetry_equiv_pos_site_id
 _symmetry_equiv_pos_as_xyz
  1  'x, y, z'
loop_
 _atom_site_type_symbol
 _atom_site_label
 _atom_site_symmetry_multiplicity
 _atom_site_fract_x
 _atom_site_fract_y
 _atom_site_fract_z
 _atom_site_occupancy
  Cs  Cs0  1  0.23738387  0.68732311  -0.68685266  1.0
  Cs  Cs1  1  0.76261613  0.31267689  -0.31314734  1.0
  Ca  Ca2  1  0.00000000  0.00000000  0.00000000  1.0
  Cl  Cl3  1  0.72792356  0.89174567  -0.32608769  1.0
  Cl  Cl4  1  0.27207644  0.10825433  -0.67391231  1.0
  Cl  Cl5  1  0.72689847  0.32590689  -0.89378933  1.0
  Cl  Cl6  1  0.27310153  0.67409311  -0.10621067  1.0
  O  O7  1  0.64541593  0.87168222  -0.86970003  1.0
  O  O8  1  0.35458407  0.12831778  -0.13029997  1.0
