# generated using pymatgen
data_Zr6Al16Pt7
_symmetry_space_group_name_H-M   'P 1'
_cell_length_a   8.78311165
_cell_length_b   8.78311165
_cell_length_c   8.78311165
_cell_angle_alpha   60.00000000
_cell_angle_beta   60.00000000
_cell_angle_gamma   60.00000000
_symmetry_Int_Tables_number   1
_chemical_formula_structural   Zr6Al16Pt7
_chemical_formula_sum   'Zr6 Al16 Pt7'
_cell_volume   479.10445877
_cell_formula_units_Z   1
loop_
 _symmetry_equiv_pos_site_id
 _symmetry_equiv_pos_as_xyz
  1  'x, y, z'
loop_
 _atom_site_type_symbol
 _atom_site_label
 _atom_site_symmetry_multiplicity
 _atom_site_fract_x
 _atom_site_fract_y
 _atom_site_fract_z
 _atom_site_occupancy
  Zr  Zr0  1  -0.68579091  0.68579091  0.68579091  1.0
  Zr  Zr1  1  -0.31420909  0.31420909  0.68579091  1.0
  Zr  Zr2  1  0.68579091  0.68579091  -0.68579091  1.0
  Zr  Zr3  1  0.31420909  1.31420909  -0.31420909  1.0
  Zr  Zr4  1  0.31420909  -0.31420909  1.31420909  1.0
  Zr  Zr5  1  -0.31420909  0.31420909  0.31420909  1.0
  Al  Al6  1  0.87976242  0.87976242  -0.12023758  1.0
  Al  Al7  1  1.12023758  0.12023758  0.63928725  1.0
  Al  Al8  1  1.12023758  0.63928725  0.12023758  1.0
  Al  Al9  1  0.36071275  0.87976242  -0.12023758  1.0
  Al  Al10  1  1.63928725  0.12023758  0.12023758  1.0
  Al  Al11  1  0.87976242  0.36071275  -0.12023758  1.0
  Al  Al12  1  0.87976242  0.87976242  -0.63928725  1.0
  Al  Al13  1  1.12023758  0.12023758  0.12023758  1.0
  Al  Al14  1  0.66514083  0.66514083  -0.33485917  1.0
  Al  Al15  1  1.33485917  0.33485917  -0.00457751  1.0
  Al  Al16  1  1.33485917  -0.00457751  0.33485917  1.0
  Al  Al17  1  1.00457751  0.66514083  -0.33485917  1.0
  Al  Al18  1  0.99542249  0.33485917  0.33485917  1.0
  Al  Al19  1  0.66514083  1.00457751  -0.33485917  1.0
  Al  Al20  1  0.66514083  0.66514083  0.00457751  1.0
  Al  Al21  1  1.33485917  0.33485917  0.33485917  1.0
  Pt  Pt22  1  1.50000000  0.00000000  -0.00000000  1.0
  Pt  Pt23  1  1.00000000  0.50000000  -0.50000000  1.0
  Pt  Pt24  1  0.00000000  1.50000000  -0.00000000  1.0
  Pt  Pt25  1  0.50000000  1.00000000  -0.50000000  1.0
  Pt  Pt26  1  -0.00000000  0.00000000  0.50000000  1.0
  Pt  Pt27  1  0.50000000  -0.50000000  1.00000000  1.0
  Pt  Pt28  1  0.00000000  0.00000000  0.00000000  1.0
