# generated using pymatgen
data_Li7Si3
_symmetry_space_group_name_H-M   'P 1'
_cell_length_a   7.57144866
_cell_length_b   7.57144866
_cell_length_c   17.95317474
_cell_angle_alpha   90.00000000
_cell_angle_beta   90.00000000
_cell_angle_gamma   120.00000000
_symmetry_Int_Tables_number   1
_chemical_formula_structural   Li7Si3
_chemical_formula_sum   'Li42 Si18'
_cell_volume   891.31220394
_cell_formula_units_Z   6
loop_
 _symmetry_equiv_pos_site_id
 _symmetry_equiv_pos_as_xyz
  1  'x, y, z'
loop_
 _atom_site_type_symbol
 _atom_site_label
 _atom_site_symmetry_multiplicity
 _atom_site_fract_x
 _atom_site_fract_y
 _atom_site_fract_z
 _atom_site_occupancy
  Li  Li0  1  0.44454609  0.88909218  0.33333333  1.0
  Li  Li1  1  0.11090782  0.55545391  0.00000000  1.0
  Li  Li2  1  0.44454609  0.55545391  0.66666667  1.0
  Li  Li3  1  0.77617526  0.55235052  0.33333333  1.0
  Li  Li4  1  0.44764948  0.22382474  -0.00000000  1.0
  Li  Li5  1  0.77617526  0.22382474  0.66666667  1.0
  Li  Li6  1  0.77983783  0.88897461  0.86523927  1.0
  Li  Li7  1  0.11102539  0.89086322  0.53190593  1.0
  Li  Li8  1  0.10913678  0.22016217  0.19857260  1.0
  Li  Li9  1  0.11102539  0.22016217  0.46809407  1.0
  Li  Li10  1  0.10913678  0.88897461  0.80142740  1.0
  Li  Li11  1  0.77983783  0.89086322  0.13476073  1.0
  Li  Li12  1  0.80003757  0.89024241  0.71149844  1.0
  Li  Li13  1  0.10975759  0.90979517  0.37816511  1.0
  Li  Li14  1  0.09020483  0.19996243  0.04483178  1.0
  Li  Li15  1  0.10975759  0.19996243  0.62183489  1.0
  Li  Li16  1  0.09020483  0.89024241  0.95516822  1.0
  Li  Li17  1  0.80003757  0.90979517  0.28850156  1.0
  Li  Li18  1  0.44746423  0.88884341  0.18321291  1.0
  Li  Li19  1  0.11115659  0.55862082  0.84987958  1.0
  Li  Li20  1  0.44137918  0.55253577  0.51654625  1.0
  Li  Li21  1  0.11115659  0.55253577  0.15012042  1.0
  Li  Li22  1  0.44137918  0.88884341  0.48345375  1.0
  Li  Li23  1  0.44746423  0.55862082  0.81678709  1.0
  Li  Li24  1  0.46900647  0.88871958  0.04028155  1.0
  Li  Li25  1  0.11128042  0.58028690  0.70694822  1.0
  Li  Li26  1  0.41971310  0.53099353  0.37361489  1.0
  Li  Li27  1  0.11128042  0.53099353  0.29305178  1.0
  Li  Li28  1  0.41971310  0.88871958  0.62638511  1.0
  Li  Li29  1  0.46900647  0.58028690  0.95971845  1.0
  Li  Li30  1  0.78035628  0.22150509  0.51625249  1.0
  Li  Li31  1  0.77849491  0.55885120  0.18291915  1.0
  Li  Li32  1  0.44114880  0.21964372  0.84958582  1.0
  Li  Li33  1  0.77849491  0.21964372  0.81708085  1.0
  Li  Li34  1  0.44114880  0.22150509  0.15041418  1.0
  Li  Li35  1  0.78035628  0.55885120  0.48374751  1.0
  Li  Li36  1  0.80275434  0.22082901  0.37320364  1.0
  Li  Li37  1  0.77917099  0.58192532  0.03987031  1.0
  Li  Li38  1  0.41807468  0.19724566  0.70653697  1.0
  Li  Li39  1  0.77917099  0.19724566  0.96012969  1.0
  Li  Li40  1  0.41807468  0.22082901  0.29346303  1.0
  Li  Li41  1  0.80275434  0.58192532  0.62679636  1.0
  Si  Si42  1  0.75941298  0.88387606  0.56597381  1.0
  Si  Si43  1  0.11612394  0.87553691  0.23264047  1.0
  Si  Si44  1  0.12446309  0.24058702  0.89930714  1.0
  Si  Si45  1  0.11612394  0.24058702  0.76735953  1.0
  Si  Si46  1  0.12446309  0.88387606  0.10069286  1.0
  Si  Si47  1  0.75941298  0.87553691  0.43402619  1.0
  Si  Si48  1  0.43565546  0.88960341  0.89876781  1.0
  Si  Si49  1  0.11039659  0.54605204  0.56543448  1.0
  Si  Si50  1  0.45394796  0.56434454  0.23210114  1.0
  Si  Si51  1  0.11039659  0.56434454  0.43456552  1.0
  Si  Si52  1  0.45394796  0.88960341  0.76789886  1.0
  Si  Si53  1  0.43565546  0.54605204  0.10123219  1.0
  Si  Si54  1  0.76446186  0.22683480  0.23220514  1.0
  Si  Si55  1  0.77316520  0.53762706  0.89887180  1.0
  Si  Si56  1  0.46237294  0.23553814  0.56553847  1.0
  Si  Si57  1  0.77316520  0.23553814  0.10112820  1.0
  Si  Si58  1  0.46237294  0.22683480  0.43446153  1.0
  Si  Si59  1  0.76446186  0.53762706  0.76779486  1.0
