# generated using pymatgen
data_Bi
_symmetry_space_group_name_H-M   'P 1'
_cell_length_a   6.63522431
_cell_length_b   6.63522431
_cell_length_c   6.63522431
_cell_angle_alpha   95.49485797
_cell_angle_beta   95.49485797
_cell_angle_gamma   143.94838513
_symmetry_Int_Tables_number   1
_chemical_formula_structural   Bi
_chemical_formula_sum   Bi4
_cell_volume   163.48059414
_cell_formula_units_Z   4
loop_
 _symmetry_equiv_pos_site_id
 _symmetry_equiv_pos_as_xyz
  1  'x, y, z'
loop_
 _atom_site_type_symbol
 _atom_site_label
 _atom_site_symmetry_multiplicity
 _atom_site_fract_x
 _atom_site_fract_y
 _atom_site_fract_z
 _atom_site_occupancy
  Bi  Bi0  1  0.14502171  0.64502171  0.79004341  1.0
  Bi  Bi1  1  0.85497829  0.35497829  1.20995659  1.0
  Bi  Bi2  1  0.64502171  0.85497829  0.50000000  1.0
  Bi  Bi3  1  1.35497829  1.14502171  1.50000000  1.0
