# generated using pymatgen
data_CuTe2PbO7
_symmetry_space_group_name_H-M   'P 1'
_cell_length_a   7.34033271
_cell_length_b   15.78196578
_cell_length_c   5.58710044
_cell_angle_alpha   90.00000000
_cell_angle_beta   90.00000000
_cell_angle_gamma   90.00000000
_symmetry_Int_Tables_number   1
_chemical_formula_structural   CuTe2PbO7
_chemical_formula_sum   'Cu4 Te8 Pb4 O28'
_cell_volume   647.23697739
_cell_formula_units_Z   4
loop_
 _symmetry_equiv_pos_site_id
 _symmetry_equiv_pos_as_xyz
  1  'x, y, z'
loop_
 _atom_site_type_symbol
 _atom_site_label
 _atom_site_symmetry_multiplicity
 _atom_site_fract_x
 _atom_site_fract_y
 _atom_site_fract_z
 _atom_site_occupancy
  Cu  Cu0  1  0.74175105  0.60669480  0.75000000  1.0
  Cu  Cu1  1  0.74175105  0.89330520  0.25000000  1.0
  Cu  Cu2  1  0.25824895  0.10669480  0.75000000  1.0
  Cu  Cu3  1  0.25824895  0.39330520  0.25000000  1.0
  Te  Te4  1  1.00021620  0.82836639  0.75000000  1.0
  Te  Te5  1  1.00021620  0.67163361  0.25000000  1.0
  Te  Te6  1  -0.00021620  0.32836639  0.75000000  1.0
  Te  Te7  1  -0.00021620  0.17163361  0.25000000  1.0
  Te  Te8  1  0.49656888  0.82765792  0.75000000  1.0
  Te  Te9  1  0.49656888  0.67234208  0.25000000  1.0
  Te  Te10  1  0.50343112  0.32765792  0.75000000  1.0
  Te  Te11  1  0.50343112  0.17234208  0.25000000  1.0
  Pb  Pb12  1  0.21553847  0.53514197  0.75000000  1.0
  Pb  Pb13  1  0.21553847  0.96485803  0.25000000  1.0
  Pb  Pb14  1  0.78446153  0.03514197  0.75000000  1.0
  Pb  Pb15  1  0.78446153  0.46485803  0.25000000  1.0
  O  O16  1  0.92333028  0.91268669  1.00469697  1.0
  O  O17  1  0.92333028  0.91268669  0.49530303  1.0
  O  O18  1  0.92333028  0.58731331  0.50469697  1.0
  O  O19  1  0.92333028  0.58731331  -0.00469697  1.0
  O  O20  1  0.07666972  0.41268669  1.00469697  1.0
  O  O21  1  0.07666972  0.41268669  0.49530303  1.0
  O  O22  1  0.07666972  0.08731331  0.50469697  1.0
  O  O23  1  0.07666972  0.08731331  -0.00469697  1.0
  O  O24  1  0.55265163  0.59561348  0.98681747  1.0
  O  O25  1  0.55265163  0.59561348  0.51318253  1.0
  O  O26  1  0.55265163  0.90438652  0.48681747  1.0
  O  O27  1  0.55265163  0.90438652  0.01318253  1.0
  O  O28  1  0.44734837  0.09561348  0.98681747  1.0
  O  O29  1  0.44734837  0.09561348  0.51318253  1.0
  O  O30  1  0.44734837  0.40438652  0.48681747  1.0
  O  O31  1  0.44734837  0.40438652  0.01318253  1.0
  O  O32  1  0.75992180  0.39149178  0.75000000  1.0
  O  O33  1  0.75992180  0.10850822  0.25000000  1.0
  O  O34  1  0.24007820  0.89149178  0.75000000  1.0
  O  O35  1  0.24007820  0.60850822  0.25000000  1.0
  O  O36  1  0.76134955  0.76969771  0.75000000  1.0
  O  O37  1  0.76134955  0.73030229  0.25000000  1.0
  O  O38  1  0.23865045  0.26969771  0.75000000  1.0
  O  O39  1  0.23865045  0.23030229  0.25000000  1.0
  O  O40  1  0.11679694  0.75000000  0.00000000  1.0
  O  O41  1  0.11679694  0.75000000  0.50000000  1.0
  O  O42  1  0.88320306  0.25000000  0.00000000  1.0
  O  O43  1  0.88320306  0.25000000  0.50000000  1.0
