# generated using pymatgen
data_LuMoClO4
_symmetry_space_group_name_H-M   'P 1'
_cell_length_a   5.95902041
_cell_length_b   6.96684110
_cell_length_c   6.49063344
_cell_angle_alpha   73.73576134
_cell_angle_beta   71.35562291
_cell_angle_gamma   77.85494802
_symmetry_Int_Tables_number   1
_chemical_formula_structural   LuMoClO4
_chemical_formula_sum   'Lu2 Mo2 Cl2 O8'
_cell_volume   242.93028691
_cell_formula_units_Z   2
loop_
 _symmetry_equiv_pos_site_id
 _symmetry_equiv_pos_as_xyz
  1  'x, y, z'
loop_
 _atom_site_type_symbol
 _atom_site_label
 _atom_site_symmetry_multiplicity
 _atom_site_fract_x
 _atom_site_fract_y
 _atom_site_fract_z
 _atom_site_occupancy
  Lu  Lu0  1  -0.74312568  -0.86635499  -0.69717126  1.0
  Lu  Lu1  1  -0.25687432  -0.13364501  -0.30282874  1.0
  Mo  Mo2  1  -0.87420638  -0.26803074  -0.85734149  1.0
  Mo  Mo3  1  -0.12579362  -0.73196926  -0.14265851  1.0
  Cl  Cl4  1  -0.49380218  -0.77640267  -0.46650260  1.0
  Cl  Cl5  1  -0.50619782  -0.22359733  -0.53349740  1.0
  O  O6  1  -0.97537948  -0.12922106  -0.63524381  1.0
  O  O7  1  -0.02462052  -0.87077894  -0.36475619  1.0
  O  O8  1  -0.92652326  -0.79384139  -0.97559076  1.0
  O  O9  1  -0.07347674  -0.20615861  -0.02440924  1.0
  O  O10  1  -0.84453018  -0.53029074  -0.74805147  1.0
  O  O11  1  -0.15546982  -0.46970926  -0.25194853  1.0
  O  O12  1  -0.40651598  -0.80516894  -0.97476778  1.0
  O  O13  1  -0.59348402  -0.19483106  -0.02523222  1.0
