# generated using pymatgen
data_ScV(SeO4)2
_symmetry_space_group_name_H-M   'P 1'
_cell_length_a   6.70847507
_cell_length_b   16.35506035
_cell_length_c   6.77752649
_cell_angle_alpha   90.00000000
_cell_angle_beta   93.86140739
_cell_angle_gamma   90.00000000
_symmetry_Int_Tables_number   1
_chemical_formula_structural   ScV(SeO4)2
_chemical_formula_sum   'Sc4 V4 Se8 O32'
_cell_volume   741.92525908
_cell_formula_units_Z   4
loop_
 _symmetry_equiv_pos_site_id
 _symmetry_equiv_pos_as_xyz
  1  'x, y, z'
loop_
 _atom_site_type_symbol
 _atom_site_label
 _atom_site_symmetry_multiplicity
 _atom_site_fract_x
 _atom_site_fract_y
 _atom_site_fract_z
 _atom_site_occupancy
  Sc  Sc0  1  0.93874757  0.30223897  0.14707686  1.0
  Sc  Sc1  1  0.93874757  0.19776103  0.64707686  1.0
  Sc  Sc2  1  0.06125243  0.80223897  0.35292314  1.0
  Sc  Sc3  1  0.06125243  0.69776103  0.85292314  1.0
  V  V4  1  0.67412117  0.48398116  0.18278169  1.0
  V  V5  1  0.67412117  0.01601884  0.68278169  1.0
  V  V6  1  0.32587883  0.98398116  0.31721831  1.0
  V  V7  1  0.32587883  0.51601884  0.81721831  1.0
  Se  Se8  1  0.95120875  0.10765403  0.15363239  1.0
  Se  Se9  1  0.95120875  0.39234597  0.65363239  1.0
  Se  Se10  1  0.04879125  0.60765403  0.34636761  1.0
  Se  Se11  1  0.04879125  0.89234597  0.84636761  1.0
  Se  Se12  1  0.42729709  0.18119852  0.48052713  1.0
  Se  Se13  1  0.42729709  0.31880149  0.98052713  1.0
  Se  Se14  1  0.57270291  0.68119852  0.01947287  1.0
  Se  Se15  1  0.57270291  0.81880149  0.51947287  1.0
  O  O16  1  0.97209823  0.32260836  0.46764968  1.0
  O  O17  1  0.97209823  0.17739164  0.96764968  1.0
  O  O18  1  0.02790177  0.82260836  0.03235032  1.0
  O  O19  1  0.02790177  0.67739164  0.53235032  1.0
  O  O20  1  0.92860096  0.18469993  0.32499520  1.0
  O  O21  1  0.92860096  0.31530007  0.82499520  1.0
  O  O22  1  0.07139904  0.68469993  0.17500480  1.0
  O  O23  1  0.07139904  0.81530007  0.67500480  1.0
  O  O24  1  0.87689998  0.42905270  0.12980291  1.0
  O  O25  1  0.87689998  0.07094730  0.62980291  1.0
  O  O26  1  0.12310002  0.92905270  0.37019709  1.0
  O  O27  1  0.12310002  0.57094730  0.87019709  1.0
  O  O28  1  0.80019060  0.91954497  0.79752533  1.0
  O  O29  1  0.80019060  0.58045503  0.29752533  1.0
  O  O30  1  0.19980940  0.41954497  0.70247467  1.0
  O  O31  1  0.19980940  0.08045503  0.20247467  1.0
  O  O32  1  0.75214325  0.81650552  0.35463097  1.0
  O  O33  1  0.75214325  0.68349448  0.85463097  1.0
  O  O34  1  0.24785675  0.31650552  0.14536903  1.0
  O  O35  1  0.24785675  0.18349448  0.64536903  1.0
  O  O36  1  0.62714942  0.28476430  0.12142955  1.0
  O  O37  1  0.62714942  0.21523570  0.62142955  1.0
  O  O38  1  0.37285058  0.78476430  0.37857045  1.0
  O  O39  1  0.37285058  0.71523570  0.87857045  1.0
  O  O40  1  0.58660535  0.44303395  0.37226160  1.0
  O  O41  1  0.58660535  0.05696605  0.87226160  1.0
  O  O42  1  0.41339465  0.94303395  0.12773840  1.0
  O  O43  1  0.41339465  0.55696605  0.62773840  1.0
  O  O44  1  0.48864033  0.07071767  0.47742989  1.0
  O  O45  1  0.48864033  0.42928233  0.97742989  1.0
  O  O46  1  0.51135967  0.57071767  0.02257011  1.0
  O  O47  1  0.51135967  0.92928233  0.52257011  1.0
