# generated using pymatgen
data_Ta2Te2O9
_symmetry_space_group_name_H-M   'P 1'
_cell_length_a   7.14730555
_cell_length_b   7.81049771
_cell_length_c   14.99039247
_cell_angle_alpha   90.00000000
_cell_angle_beta   101.08692335
_cell_angle_gamma   90.00000000
_symmetry_Int_Tables_number   1
_chemical_formula_structural   Ta2Te2O9
_chemical_formula_sum   'Ta8 Te8 O36'
_cell_volume   821.20587652
_cell_formula_units_Z   4
loop_
 _symmetry_equiv_pos_site_id
 _symmetry_equiv_pos_as_xyz
  1  'x, y, z'
loop_
 _atom_site_type_symbol
 _atom_site_label
 _atom_site_symmetry_multiplicity
 _atom_site_fract_x
 _atom_site_fract_y
 _atom_site_fract_z
 _atom_site_occupancy
  Ta  Ta0  1  0.85156301  1.00067840  0.59381592  1.0
  Ta  Ta1  1  0.85156301  0.49932160  0.09381592  1.0
  Ta  Ta2  1  0.14843699  0.50067840  0.90618408  1.0
  Ta  Ta3  1  0.14843699  -0.00067840  0.40618408  1.0
  Ta  Ta4  1  0.56544338  0.80765229  0.93219875  1.0
  Ta  Ta5  1  0.56544338  0.69234771  0.43219875  1.0
  Ta  Ta6  1  0.43455662  0.30765229  0.56780125  1.0
  Ta  Ta7  1  0.43455662  0.19234771  0.06780125  1.0
  Te  Te8  1  0.96489538  0.92676372  0.81685677  1.0
  Te  Te9  1  0.96489538  0.57323628  0.31685677  1.0
  Te  Te10  1  0.03510462  0.42676372  0.68314323  1.0
  Te  Te11  1  0.03510462  0.07323628  0.18314323  1.0
  Te  Te12  1  0.37117606  0.88135068  0.68848097  1.0
  Te  Te13  1  0.37117606  0.61864932  0.18848097  1.0
  Te  Te14  1  0.62882394  0.38135068  0.81151903  1.0
  Te  Te15  1  0.62882394  0.11864932  0.31151903  1.0
  O  O16  1  0.99572193  0.68150335  0.82663766  1.0
  O  O17  1  0.99572193  0.81849665  0.32663766  1.0
  O  O18  1  0.00427807  0.18150335  0.67336234  1.0
  O  O19  1  0.00427807  0.31849665  0.17336234  1.0
  O  O20  1  0.91120667  0.35788101  0.82444651  1.0
  O  O21  1  0.91120667  0.14211899  0.32444651  1.0
  O  O22  1  0.08879333  0.85788101  0.67555349  1.0
  O  O23  1  0.08879333  0.64211899  0.17555349  1.0
  O  O24  1  0.78788911  0.93124227  0.90394251  1.0
  O  O25  1  0.78788911  0.56875773  0.40394251  1.0
  O  O26  1  0.21211089  0.43124227  0.59605749  1.0
  O  O27  1  0.21211089  0.06875773  0.09605749  1.0
  O  O28  1  0.75183951  0.93370261  0.71067359  1.0
  O  O29  1  0.75183951  0.56629739  0.21067359  1.0
  O  O30  1  0.24816049  0.43370261  0.78932641  1.0
  O  O31  1  0.24816049  0.06629739  0.28932641  1.0
  O  O32  1  0.70891393  0.80519551  0.53755386  1.0
  O  O33  1  0.70891393  0.69480449  0.03755386  1.0
  O  O34  1  0.29108607  0.30519551  0.96244614  1.0
  O  O35  1  0.29108607  0.19480449  0.46244614  1.0
  O  O36  1  0.61291220  0.61892618  0.84453816  1.0
  O  O37  1  0.61291220  0.88107382  0.34453816  1.0
  O  O38  1  0.38708780  0.11892618  0.65546184  1.0
  O  O39  1  0.38708780  0.38107382  0.15546184  1.0
  O  O40  1  0.39560281  0.91586920  0.81831751  1.0
  O  O41  1  0.39560281  0.58413080  0.31831751  1.0
  O  O42  1  0.60439719  0.41586920  0.68168249  1.0
  O  O43  1  0.60439719  0.08413080  0.18168249  1.0
  O  O44  1  0.33439945  0.66740789  0.94874814  1.0
  O  O45  1  0.33439945  0.83259211  0.44874814  1.0
  O  O46  1  0.66560055  0.16740789  0.55125186  1.0
  O  O47  1  0.66560055  0.33259211  0.05125186  1.0
  O  O48  1  -0.00000000  0.00000000  0.50000000  1.0
  O  O49  1  0.00000000  0.50000000  0.00000000  1.0
  O  O50  1  0.50000000  0.00000000  0.00000000  1.0
  O  O51  1  0.50000000  0.50000000  0.50000000  1.0
