# generated using pymatgen
data_LiBeH3
_symmetry_space_group_name_H-M   'P 1'
_cell_length_a   4.84542039
_cell_length_b   4.84542039
_cell_length_c   4.84542039
_cell_angle_alpha   52.45759029
_cell_angle_beta   52.45759029
_cell_angle_gamma   52.45759029
_symmetry_Int_Tables_number   1
_chemical_formula_structural   LiBeH3
_chemical_formula_sum   'Li2 Be2 H6'
_cell_volume   66.19617402
_cell_formula_units_Z   2
loop_
 _symmetry_equiv_pos_site_id
 _symmetry_equiv_pos_as_xyz
  1  'x, y, z'
loop_
 _atom_site_type_symbol
 _atom_site_label
 _atom_site_symmetry_multiplicity
 _atom_site_fract_x
 _atom_site_fract_y
 _atom_site_fract_z
 _atom_site_occupancy
  Li  Li0  1  0.36462699  0.36462699  -0.63537301  1.0
  Li  Li1  1  0.63537301  0.63537301  -0.36462699  1.0
  Be  Be2  1  0.16508251  0.16508251  0.16508251  1.0
  Be  Be3  1  0.83491749  -0.16508251  -0.16508251  1.0
  H  H4  1  0.43538698  0.04414770  -0.19914608  1.0
  H  H5  1  1.19914608  -0.43538698  -0.04414770  1.0
  H  H6  1  0.95585230  0.19914608  -0.43538698  1.0
  H  H7  1  0.56461302  -0.04414770  0.19914608  1.0
  H  H8  1  0.80085392  -0.56461302  0.04414770  1.0
  H  H9  1  1.04414770  -0.19914608  -0.56461302  1.0
