# generated using pymatgen
data_Li8Al3Si5
_symmetry_space_group_name_H-M   'P 1'
_cell_length_a   6.23177194
_cell_length_b   6.23177194
_cell_length_c   6.23177194
_cell_angle_alpha   90.00000000
_cell_angle_beta   90.00000000
_cell_angle_gamma   90.00000000
_symmetry_Int_Tables_number   1
_chemical_formula_structural   Li8Al3Si5
_chemical_formula_sum   'Li8 Al3 Si5'
_cell_volume   242.01074816
_cell_formula_units_Z   1
loop_
 _symmetry_equiv_pos_site_id
 _symmetry_equiv_pos_as_xyz
  1  'x, y, z'
loop_
 _atom_site_type_symbol
 _atom_site_label
 _atom_site_symmetry_multiplicity
 _atom_site_fract_x
 _atom_site_fract_y
 _atom_site_fract_z
 _atom_site_occupancy
  Li  Li0  1  0.25820966  0.25820966  0.74179034  1.0
  Li  Li1  1  0.25820966  0.74179034  0.25820966  1.0
  Li  Li2  1  0.74179034  0.25820966  0.25820966  1.0
  Li  Li3  1  0.74179034  0.74179034  0.74179034  1.0
  Li  Li4  1  0.00000000  0.50000000  0.50000000  1.0
  Li  Li5  1  0.50000000  0.00000000  0.50000000  1.0
  Li  Li6  1  0.50000000  0.50000000  0.00000000  1.0
  Li  Li7  1  0.00000000  0.00000000  0.00000000  1.0
  Al  Al8  1  0.50000000  0.00000000  0.00000000  1.0
  Al  Al9  1  0.00000000  0.50000000  0.00000000  1.0
  Al  Al10  1  0.00000000  0.00000000  0.50000000  1.0
  Si  Si11  1  0.74272948  0.74272948  0.25727052  1.0
  Si  Si12  1  0.74272948  0.25727052  0.74272948  1.0
  Si  Si13  1  0.25727052  0.74272948  0.74272948  1.0
  Si  Si14  1  0.25727052  0.25727052  0.25727052  1.0
  Si  Si15  1  0.50000000  0.50000000  0.50000000  1.0
