# generated using pymatgen
data_CaH12S2O9
_symmetry_space_group_name_H-M   'P 1'
_cell_length_a   7.57939399
_cell_length_b   5.86782997
_cell_length_c   11.08646022
_cell_angle_alpha   81.31305413
_cell_angle_beta   72.82874445
_cell_angle_gamma   88.35695335
_symmetry_Int_Tables_number   1
_chemical_formula_structural   CaH12S2O9
_chemical_formula_sum   'Ca2 H24 S4 O18'
_cell_volume   465.61789603
_cell_formula_units_Z   2
loop_
 _symmetry_equiv_pos_site_id
 _symmetry_equiv_pos_as_xyz
  1  'x, y, z'
loop_
 _atom_site_type_symbol
 _atom_site_label
 _atom_site_symmetry_multiplicity
 _atom_site_fract_x
 _atom_site_fract_y
 _atom_site_fract_z
 _atom_site_occupancy
  Ca  Ca0  1  -0.88470592  -0.59088303  -0.76478321  1.0
  Ca  Ca1  1  -0.11529408  -0.40911697  -0.23521679  1.0
  H  H2  1  -0.71627588  -0.96303101  -0.91785137  1.0
  H  H3  1  -0.28372412  -0.03696899  -0.08214863  1.0
  H  H4  1  -0.56404127  -0.94173191  -0.85081644  1.0
  H  H5  1  -0.43595873  -0.05826809  -0.14918356  1.0
  H  H6  1  -0.71045491  -0.84003406  -0.56665220  1.0
  H  H7  1  -0.28954509  -0.15996594  -0.43334780  1.0
  H  H8  1  -0.91440635  -0.79247857  -0.49006798  1.0
  H  H9  1  -0.08559365  -0.20752143  -0.50993202  1.0
  H  H10  1  -0.27598256  -0.75128589  -0.60839757  1.0
  H  H11  1  -0.72401744  -0.24871411  -0.39160243  1.0
  H  H12  1  -0.23298763  -0.67269724  -0.97083351  1.0
  H  H13  1  -0.76701237  -0.32730276  -0.02916649  1.0
  H  H14  1  -0.72469884  -0.51650622  -0.39627971  1.0
  H  H15  1  -0.27530116  -0.48349378  -0.60372029  1.0
  H  H16  1  -0.46303536  -0.47537837  -0.88098248  1.0
  H  H17  1  -0.53696464  -0.52462163  -0.11901752  1.0
  H  H18  1  -0.17198931  -0.42947126  -0.94947084  1.0
  H  H19  1  -0.82801069  -0.57052874  -0.05052916  1.0
  H  H20  1  -0.52808150  -0.36980472  -0.75346146  1.0
  H  H21  1  -0.47191850  -0.63019528  -0.24653854  1.0
  H  H22  1  -0.82649814  -0.31240124  -0.57047493  1.0
  H  H23  1  -0.17350186  -0.68759876  -0.42952507  1.0
  H  H24  1  -0.82581158  -0.14285363  -0.69624886  1.0
  H  H25  1  -0.17418842  -0.85714637  -0.30375114  1.0
  S  S26  1  -0.80328115  -0.94291243  -0.18196663  1.0
  S  S27  1  -0.19671885  -0.05708757  -0.81803337  1.0
  S  S28  1  -0.60479207  -0.87170189  -0.35328469  1.0
  S  S29  1  -0.39520793  -0.12829811  -0.64671531  1.0
  O  O30  1  -0.29360047  -0.97759788  -0.91702003  1.0
  O  O31  1  -0.70639953  -0.02240212  -0.08297997  1.0
  O  O32  1  -0.69813220  -0.93294936  -0.83725735  1.0
  O  O33  1  -0.30186780  -0.06705064  -0.16274265  1.0
  O  O34  1  -0.07328649  -0.87010721  -0.81266857  1.0
  O  O35  1  -0.92671351  -0.12989279  -0.18733143  1.0
  O  O36  1  -0.83130631  -0.79969841  -0.57705388  1.0
  O  O37  1  -0.16869369  -0.20030159  -0.42294612  1.0
  O  O38  1  -0.90795711  -0.72806384  -0.15268819  1.0
  O  O39  1  -0.09204289  -0.27193616  -0.84731181  1.0
  O  O40  1  -0.76338511  -0.49521174  -1.00098331  1.0
  O  O41  1  -0.23661489  -0.50478826  0.00098331  1.0
  O  O42  1  -0.56945454  -0.46816136  -0.80461018  1.0
  O  O43  1  -0.43054546  -0.53183864  -0.19538982  1.0
  O  O44  1  -0.79324728  -0.37252669  -0.40925571  1.0
  O  O45  1  -0.20675272  -0.62747331  -0.59074429  1.0
  O  O46  1  -0.88990490  -0.27946416  -0.63739613  1.0
  O  O47  1  -0.11009510  -0.72053584  -0.36260387  1.0
