# generated using pymatgen
data_Li3Zn
_symmetry_space_group_name_H-M   'P 1'
_cell_length_a   5.51636099
_cell_length_b   5.51636099
_cell_length_c   5.88568036
_cell_angle_alpha   90.00000000
_cell_angle_beta   90.00000000
_cell_angle_gamma   129.49856231
_symmetry_Int_Tables_number   1
_chemical_formula_structural   Li3Zn
_chemical_formula_sum   'Li6 Zn2'
_cell_volume   138.20287213
_cell_formula_units_Z   2
loop_
 _symmetry_equiv_pos_site_id
 _symmetry_equiv_pos_as_xyz
  1  'x, y, z'
loop_
 _atom_site_type_symbol
 _atom_site_label
 _atom_site_symmetry_multiplicity
 _atom_site_fract_x
 _atom_site_fract_y
 _atom_site_fract_z
 _atom_site_occupancy
  Li  Li0  1  -0.39148645  0.39148645  0.25000000  1.0
  Li  Li1  1  0.39148645  0.60851355  0.75000000  1.0
  Li  Li2  1  -0.13419529  0.13419529  0.48476602  1.0
  Li  Li3  1  0.13419529  0.86580471  0.51523398  1.0
  Li  Li4  1  -0.13419529  0.13419529  1.01523398  1.0
  Li  Li5  1  0.13419529  0.86580471  -0.01523398  1.0
  Zn  Zn6  1  0.34839185  0.65160815  0.25000000  1.0
  Zn  Zn7  1  -0.34839185  0.34839185  0.75000000  1.0
