# generated using pymatgen
data_Al2FeC
_symmetry_space_group_name_H-M   'P 1'
_cell_length_a   4.88890702
_cell_length_b   6.77577603
_cell_length_c   5.19386314
_cell_angle_alpha   90.00000000
_cell_angle_beta   90.00000000
_cell_angle_gamma   90.00000000
_symmetry_Int_Tables_number   1
_chemical_formula_structural   Al2FeC
_chemical_formula_sum   'Al8 Fe4 C4'
_cell_volume   172.05263224
_cell_formula_units_Z   4
loop_
 _symmetry_equiv_pos_site_id
 _symmetry_equiv_pos_as_xyz
  1  'x, y, z'
loop_
 _atom_site_type_symbol
 _atom_site_label
 _atom_site_symmetry_multiplicity
 _atom_site_fract_x
 _atom_site_fract_y
 _atom_site_fract_z
 _atom_site_occupancy
  Al  Al0  1  0.74318003  0.55952356  0.10888208  1.0
  Al  Al1  1  0.24318003  0.94047644  0.39111792  1.0
  Al  Al2  1  0.25681997  0.05952356  0.89111792  1.0
  Al  Al3  1  0.75681997  0.44047644  0.60888208  1.0
  Al  Al4  1  0.25681997  0.44047644  0.89111792  1.0
  Al  Al5  1  0.75681997  0.05952356  0.60888208  1.0
  Al  Al6  1  0.74318003  0.94047644  0.10888208  1.0
  Al  Al7  1  0.24318003  0.55952356  0.39111792  1.0
  Fe  Fe8  1  0.53397905  0.75000000  0.73582622  1.0
  Fe  Fe9  1  0.03397905  0.75000000  0.76417378  1.0
  Fe  Fe10  1  0.46602095  0.25000000  0.26417378  1.0
  Fe  Fe11  1  0.96602095  0.25000000  0.23582622  1.0
  C  C12  1  0.82594148  0.75000000  0.43548926  1.0
  C  C13  1  0.32594148  0.75000000  0.06451074  1.0
  C  C14  1  0.17405852  0.25000000  0.56451074  1.0
  C  C15  1  0.67405852  0.25000000  0.93548926  1.0
