# generated using pymatgen
data_AlHSO5
_symmetry_space_group_name_H-M   'P 1'
_cell_length_a   5.08842829
_cell_length_b   5.08842829
_cell_length_c   7.08253154
_cell_angle_alpha   70.05760637
_cell_angle_beta   109.94239363
_cell_angle_gamma   89.70428911
_symmetry_Int_Tables_number   1
_chemical_formula_structural   AlHSO5
_chemical_formula_sum   'Al2 H2 S2 O10'
_cell_volume   160.50953298
_cell_formula_units_Z   2
loop_
 _symmetry_equiv_pos_site_id
 _symmetry_equiv_pos_as_xyz
  1  'x, y, z'
loop_
 _atom_site_type_symbol
 _atom_site_label
 _atom_site_symmetry_multiplicity
 _atom_site_fract_x
 _atom_site_fract_y
 _atom_site_fract_z
 _atom_site_occupancy
  Al  Al0  1  0.50000000  -0.50000000  0.00000000  1.0
  Al  Al1  1  0.50000000  -0.50000000  0.50000000  1.0
  H  H2  1  0.27987868  0.27987868  0.75000000  1.0
  H  H3  1  0.72012132  -0.27987868  0.25000000  1.0
  S  S4  1  0.87140713  -0.12859287  0.75000000  1.0
  S  S5  1  0.12859287  0.12859287  0.25000000  1.0
  O  O6  1  0.18278618  -0.19207085  0.85032222  1.0
  O  O7  1  1.19207085  0.81721382  0.35032222  1.0
  O  O8  1  0.80792915  0.18278618  0.64967778  1.0
  O  O9  1  0.81721382  0.19207085  0.14967778  1.0
  O  O10  1  0.74239262  -0.23748929  0.91713060  1.0
  O  O11  1  1.23748929  -0.74239262  0.41713060  1.0
  O  O12  1  0.76251071  -0.25760738  0.58286940  1.0
  O  O13  1  0.25760738  0.23748929  0.08286940  1.0
  O  O14  1  0.41505351  0.41505351  0.75000000  1.0
  O  O15  1  0.58494649  -0.41505351  0.25000000  1.0
