# generated using pymatgen
data_CuPtF6
_symmetry_space_group_name_H-M   'P 1'
_cell_length_a   9.71361408
_cell_length_b   5.08596560
_cell_length_c   5.08101933
_cell_angle_alpha   60.95272407
_cell_angle_beta   75.77402237
_cell_angle_gamma   76.09779074
_symmetry_Int_Tables_number   1
_chemical_formula_structural   CuPtF6
_chemical_formula_sum   'Cu2 Pt2 F12'
_cell_volume   210.53769686
_cell_formula_units_Z   2
loop_
 _symmetry_equiv_pos_site_id
 _symmetry_equiv_pos_as_xyz
  1  'x, y, z'
loop_
 _atom_site_type_symbol
 _atom_site_label
 _atom_site_symmetry_multiplicity
 _atom_site_fract_x
 _atom_site_fract_y
 _atom_site_fract_z
 _atom_site_occupancy
  Cu  Cu0  1  -0.50000000  -0.50000000  -0.50000000  1.0
  Cu  Cu1  1  0.00000000  0.00000000  0.00000000  1.0
  Pt  Pt2  1  -0.75028321  -0.71640551  -0.77565247  1.0
  Pt  Pt3  1  -0.24971679  -0.28359449  -0.22434753  1.0
  F  F4  1  -0.12628419  -0.64901526  -0.96390006  1.0
  F  F5  1  -0.87371581  -0.35098474  -0.03609994  1.0
  F  F6  1  -0.62514699  -0.45885772  -0.78551667  1.0
  F  F7  1  -0.37485301  -0.54114228  -0.21448333  1.0
  F  F8  1  -0.87395043  -0.98520109  -0.75481842  1.0
  F  F9  1  -0.12604957  -0.01479891  -0.24518158  1.0
  F  F10  1  -0.37097366  -0.92511177  -0.47588493  1.0
  F  F11  1  -0.62902634  -0.07488823  -0.52411507  1.0
  F  F12  1  -0.87088560  -0.70520943  -0.41297761  1.0
  F  F13  1  -0.12911440  -0.29479057  -0.58702239  1.0
  F  F14  1  -0.62849843  -0.73994398  -0.14431740  1.0
  F  F15  1  -0.37150157  -0.26005602  -0.85568260  1.0
