# generated using pymatgen
data_KTaV2O8
_symmetry_space_group_name_H-M   'P 1'
_cell_length_a   15.94119806
_cell_length_b   5.62488054
_cell_length_c   8.82075742
_cell_angle_alpha   90.00000000
_cell_angle_beta   90.00000000
_cell_angle_gamma   90.00000000
_symmetry_Int_Tables_number   1
_chemical_formula_structural   KTaV2O8
_chemical_formula_sum   'K4 Ta4 V8 O32'
_cell_volume   790.93380819
_cell_formula_units_Z   4
loop_
 _symmetry_equiv_pos_site_id
 _symmetry_equiv_pos_as_xyz
  1  'x, y, z'
loop_
 _atom_site_type_symbol
 _atom_site_label
 _atom_site_symmetry_multiplicity
 _atom_site_fract_x
 _atom_site_fract_y
 _atom_site_fract_z
 _atom_site_occupancy
  K  K0  1  0.12368504  0.75000000  0.96397050  1.0
  K  K1  1  0.62368504  0.75000000  0.53602950  1.0
  K  K2  1  0.87631496  0.25000000  0.03602950  1.0
  K  K3  1  0.37631496  0.25000000  0.46397050  1.0
  Ta  Ta4  1  0.36959803  0.75000000  0.85216071  1.0
  Ta  Ta5  1  0.86959803  0.75000000  0.64783929  1.0
  Ta  Ta6  1  0.63040197  0.25000000  0.14783929  1.0
  Ta  Ta7  1  0.13040197  0.25000000  0.35216071  1.0
  V  V8  1  0.48934790  0.75000000  0.21383371  1.0
  V  V9  1  0.98934790  0.75000000  0.28616629  1.0
  V  V10  1  0.51065210  0.25000000  0.78616629  1.0
  V  V11  1  0.01065210  0.25000000  0.71383371  1.0
  V  V12  1  0.21361446  0.75000000  0.54987377  1.0
  V  V13  1  0.71361446  0.75000000  0.95012623  1.0
  V  V14  1  0.78638554  0.25000000  0.45012623  1.0
  V  V15  1  0.28638554  0.25000000  0.04987377  1.0
  O  O16  1  0.44354301  0.49765826  0.77212076  1.0
  O  O17  1  0.44354301  0.00234174  0.77212076  1.0
  O  O18  1  0.94354301  0.49765826  0.72787924  1.0
  O  O19  1  0.94354301  0.00234174  0.72787924  1.0
  O  O20  1  0.55645699  0.99765826  0.22787924  1.0
  O  O21  1  0.55645699  0.50234174  0.22787924  1.0
  O  O22  1  0.05645699  0.99765826  0.27212076  1.0
  O  O23  1  0.05645699  0.50234174  0.27212076  1.0
  O  O24  1  0.29024305  -0.00728138  0.93670623  1.0
  O  O25  1  0.29024305  0.50728138  0.93670623  1.0
  O  O26  1  0.79024305  -0.00728138  0.56329377  1.0
  O  O27  1  0.79024305  0.50728138  0.56329377  1.0
  O  O28  1  0.70975695  0.49271862  0.06329377  1.0
  O  O29  1  0.70975695  1.00728138  0.06329377  1.0
  O  O30  1  0.20975695  0.49271862  0.43670623  1.0
  O  O31  1  0.20975695  1.00728138  0.43670623  1.0
  O  O32  1  0.43190734  0.75000000  0.04580938  1.0
  O  O33  1  0.93190734  0.75000000  0.45419062  1.0
  O  O34  1  0.56809266  0.25000000  0.95419062  1.0
  O  O35  1  0.06809266  0.25000000  0.54580938  1.0
  O  O36  1  0.42944162  0.75000000  0.36339331  1.0
  O  O37  1  0.92944162  0.75000000  0.13660669  1.0
  O  O38  1  0.57055838  0.25000000  0.63660669  1.0
  O  O39  1  0.07055838  0.25000000  0.86339331  1.0
  O  O40  1  0.30620608  0.75000000  0.65880176  1.0
  O  O41  1  0.80620608  0.75000000  0.84119824  1.0
  O  O42  1  0.69379392  0.25000000  0.34119824  1.0
  O  O43  1  0.19379392  0.25000000  0.15880176  1.0
  O  O44  1  0.13362097  0.75000000  0.66263547  1.0
  O  O45  1  0.63362097  0.75000000  0.83736453  1.0
  O  O46  1  0.86637903  0.25000000  0.33736453  1.0
  O  O47  1  0.36637903  0.25000000  0.16263547  1.0
