# generated using pymatgen
data_Bi2Rh3Se2
_symmetry_space_group_name_H-M   'P 1'
_cell_length_a   7.16480255
_cell_length_b   7.16480255
_cell_length_c   8.49449109
_cell_angle_alpha   56.07826641
_cell_angle_beta   123.92173359
_cell_angle_gamma   107.84383140
_symmetry_Int_Tables_number   1
_chemical_formula_structural   Bi2Rh3Se2
_chemical_formula_sum   'Bi4 Rh6 Se4'
_cell_volume   300.24921945
_cell_formula_units_Z   2
loop_
 _symmetry_equiv_pos_site_id
 _symmetry_equiv_pos_as_xyz
  1  'x, y, z'
loop_
 _atom_site_type_symbol
 _atom_site_label
 _atom_site_symmetry_multiplicity
 _atom_site_fract_x
 _atom_site_fract_y
 _atom_site_fract_z
 _atom_site_occupancy
  Bi  Bi0  1  0.76722022  -0.76722022  0.78061133  1.0
  Bi  Bi1  1  1.23277978  -0.23277978  0.21938867  1.0
  Bi  Bi2  1  0.25114077  -0.25114077  0.75864915  1.0
  Bi  Bi3  1  0.74885923  0.25114077  0.24135085  1.0
  Rh  Rh4  1  1.01046726  -0.01046726  0.76629498  1.0
  Rh  Rh5  1  -0.01046726  0.01046726  0.23370502  1.0
  Rh  Rh6  1  0.74595782  0.74595782  -0.00000000  1.0
  Rh  Rh7  1  0.25404218  0.25404218  -0.00000000  1.0
  Rh  Rh8  1  1.50000000  -0.00000000  0.00000000  1.0
  Rh  Rh9  1  1.00000000  0.50000000  0.00000000  1.0
  Se  Se10  1  1.68332837  -0.24551549  0.68230119  1.0
  Se  Se11  1  1.24551549  0.31667163  0.68230119  1.0
  Se  Se12  1  0.75448451  0.68332837  0.31769881  1.0
  Se  Se13  1  1.31667163  0.24551549  0.31769881  1.0
