# generated using pymatgen
data_SnIBr
_symmetry_space_group_name_H-M   'P 1'
_cell_length_a   8.95368770
_cell_length_b   4.38333434
_cell_length_c   12.35789594
_cell_angle_alpha   90.00000000
_cell_angle_beta   90.00000000
_cell_angle_gamma   90.00000000
_symmetry_Int_Tables_number   1
_chemical_formula_structural   SnIBr
_chemical_formula_sum   'Sn4 I4 Br4'
_cell_volume   485.01042533
_cell_formula_units_Z   4
loop_
 _symmetry_equiv_pos_site_id
 _symmetry_equiv_pos_as_xyz
  1  'x, y, z'
loop_
 _atom_site_type_symbol
 _atom_site_label
 _atom_site_symmetry_multiplicity
 _atom_site_fract_x
 _atom_site_fract_y
 _atom_site_fract_z
 _atom_site_occupancy
  Sn  Sn0  1  0.90185975  0.75000000  0.14480160  1.0
  Sn  Sn1  1  0.40185975  0.75000000  0.35519840  1.0
  Sn  Sn2  1  0.09814025  0.25000000  0.85519840  1.0
  Sn  Sn3  1  0.59814025  0.25000000  0.64480160  1.0
  I  I4  1  0.96159337  0.75000000  0.70774514  1.0
  I  I5  1  0.46159337  0.75000000  0.79225486  1.0
  I  I6  1  0.03840663  0.25000000  0.29225486  1.0
  I  I7  1  0.53840663  0.25000000  0.20774514  1.0
  Br  Br8  1  0.67046024  0.75000000  0.46757669  1.0
  Br  Br9  1  0.17046024  0.75000000  0.03242331  1.0
  Br  Br10  1  0.32953976  0.25000000  0.53242331  1.0
  Br  Br11  1  0.82953976  0.25000000  0.96757669  1.0
