# generated using pymatgen
data_Cs3Tl2Cl9
_symmetry_space_group_name_H-M   'P 1'
_cell_length_a   9.97468779
_cell_length_b   9.97468779
_cell_length_c   9.97468779
_cell_angle_alpha   81.64257535
_cell_angle_beta   81.64257535
_cell_angle_gamma   81.64257535
_symmetry_Int_Tables_number   1
_chemical_formula_structural   Cs3Tl2Cl9
_chemical_formula_sum   'Cs6 Tl4 Cl18'
_cell_volume   963.60545360
_cell_formula_units_Z   2
loop_
 _symmetry_equiv_pos_site_id
 _symmetry_equiv_pos_as_xyz
  1  'x, y, z'
loop_
 _atom_site_type_symbol
 _atom_site_label
 _atom_site_symmetry_multiplicity
 _atom_site_fract_x
 _atom_site_fract_y
 _atom_site_fract_z
 _atom_site_occupancy
  Cs  Cs0  1  0.58897833  0.25000000  -0.08897833  1.0
  Cs  Cs1  1  1.08897833  -0.58897833  -0.25000000  1.0
  Cs  Cs2  1  0.75000000  0.08897833  -0.58897833  1.0
  Cs  Cs3  1  0.25000000  0.91102167  -0.41102167  1.0
  Cs  Cs4  1  0.41102167  -0.25000000  0.08897833  1.0
  Cs  Cs5  1  0.91102167  -0.41102167  0.25000000  1.0
  Tl  Tl6  1  1.34752096  1.34752096  0.34752096  1.0
  Tl  Tl7  1  0.84752096  0.84752096  -0.15247904  1.0
  Tl  Tl8  1  1.15247904  1.15247904  0.15247904  1.0
  Tl  Tl9  1  0.65247904  0.65247904  -0.34752096  1.0
  Cl  Cl10  1  0.22998290  0.57747986  -0.59125606  1.0
  Cl  Cl11  1  0.72998290  -0.09125606  0.07747986  1.0
  Cl  Cl12  1  1.09125606  -0.07747986  -0.72998290  1.0
  Cl  Cl13  1  0.59125606  0.77001710  -0.57747986  1.0
  Cl  Cl14  1  0.42252014  0.59125606  -0.22998290  1.0
  Cl  Cl15  1  0.92252014  -0.72998290  0.09125606  1.0
  Cl  Cl16  1  0.77001710  0.42252014  -0.40874394  1.0
  Cl  Cl17  1  0.27001710  0.09125606  -0.07747986  1.0
  Cl  Cl18  1  0.40874394  0.22998290  -0.42252014  1.0
  Cl  Cl19  1  0.90874394  0.07747986  -0.27001710  1.0
  Cl  Cl20  1  1.07747986  -0.27001710  -0.09125606  1.0
  Cl  Cl21  1  0.57747986  0.40874394  -0.77001710  1.0
  Cl  Cl22  1  1.09526372  1.25000000  0.40473628  1.0
  Cl  Cl23  1  0.59526372  0.90473628  -0.25000000  1.0
  Cl  Cl24  1  0.75000000  0.59526372  -0.09526372  1.0
  Cl  Cl25  1  1.25000000  1.40473628  0.09526372  1.0
  Cl  Cl26  1  0.90473628  0.75000000  -0.40473628  1.0
  Cl  Cl27  1  1.40473628  1.09526372  0.25000000  1.0
