# generated using pymatgen
data_Y2Ga2Co15
_symmetry_space_group_name_H-M   'P 1'
_cell_length_a   8.34719847
_cell_length_b   8.34719847
_cell_length_c   8.17350601
_cell_angle_alpha   90.00000000
_cell_angle_beta   90.00000000
_cell_angle_gamma   120.00000000
_symmetry_Int_Tables_number   1
_chemical_formula_structural   Y2Ga2Co15
_chemical_formula_sum   'Y4 Ga4 Co30'
_cell_volume   493.19708136
_cell_formula_units_Z   2
loop_
 _symmetry_equiv_pos_site_id
 _symmetry_equiv_pos_as_xyz
  1  'x, y, z'
loop_
 _atom_site_type_symbol
 _atom_site_label
 _atom_site_symmetry_multiplicity
 _atom_site_fract_x
 _atom_site_fract_y
 _atom_site_fract_z
 _atom_site_occupancy
  Ga  Ga0  1  0.33333333  0.66666667  0.40402774  1.0
  Ga  Ga1  1  0.66666667  0.33333333  0.59597226  1.0
  Ga  Ga2  1  0.66666667  0.33333333  0.90402774  1.0
  Ga  Ga3  1  0.33333333  0.66666667  0.09597226  1.0
  Co  Co4  1  0.32771999  0.37388432  0.25000000  1.0
  Co  Co5  1  0.62611568  0.95383567  0.25000000  1.0
  Co  Co6  1  0.04616433  0.67228001  0.25000000  1.0
  Co  Co7  1  0.62611568  0.67228001  0.25000000  1.0
  Co  Co8  1  0.04616433  0.37388432  0.25000000  1.0
  Co  Co9  1  0.32771999  0.95383567  0.25000000  1.0
  Co  Co10  1  0.67228001  0.62611568  0.75000000  1.0
  Co  Co11  1  0.37388432  0.04616433  0.75000000  1.0
  Co  Co12  1  0.95383567  0.32771999  0.75000000  1.0
  Co  Co13  1  0.37388432  0.32771999  0.75000000  1.0
  Co  Co14  1  0.95383567  0.62611568  0.75000000  1.0
  Co  Co15  1  0.67228001  0.04616433  0.75000000  1.0
  Co  Co16  1  0.16268407  0.83731593  0.52411539  1.0
  Co  Co17  1  0.16268407  0.32536815  0.52411539  1.0
  Co  Co18  1  0.67463185  0.83731593  0.52411539  1.0
  Co  Co19  1  0.83731593  0.16268407  0.47588461  1.0
  Co  Co20  1  0.83731593  0.67463185  0.47588461  1.0
  Co  Co21  1  0.32536815  0.16268407  0.47588461  1.0
  Co  Co22  1  0.83731593  0.16268407  0.02411539  1.0
  Co  Co23  1  0.83731593  0.67463185  0.02411539  1.0
  Co  Co24  1  0.32536815  0.16268407  0.02411539  1.0
  Co  Co25  1  0.16268407  0.83731593  -0.02411539  1.0
  Co  Co26  1  0.16268407  0.32536815  -0.02411539  1.0
  Co  Co27  1  0.67463185  0.83731593  -0.02411539  1.0
  Co  Co28  1  0.50000000  0.50000000  0.50000000  1.0
  Co  Co29  1  0.50000000  0.00000000  0.50000000  1.0
  Co  Co30  1  -0.00000000  0.50000000  0.50000000  1.0
  Co  Co31  1  0.50000000  0.50000000  0.00000000  1.0
  Co  Co32  1  0.50000000  0.00000000  0.00000000  1.0
  Co  Co33  1  -0.00000000  0.50000000  0.00000000  1.0
  Y  Y34  1  0.33333333  0.66666667  0.75000000  1.0
  Y  Y35  1  0.66666667  0.33333333  0.25000000  1.0
  Y  Y36  1  0.00000000  0.00000000  0.25000000  1.0
  Y  Y37  1  0.00000000  0.00000000  0.75000000  1.0
