# generated using pymatgen
data_Y2Fe17N3
_symmetry_space_group_name_H-M   'P 1'
_cell_length_a   8.63875332
_cell_length_b   8.63875332
_cell_length_c   8.36857517
_cell_angle_alpha   90.00000000
_cell_angle_beta   90.00000000
_cell_angle_gamma   120.00000000
_symmetry_Int_Tables_number   1
_chemical_formula_structural   Y2Fe17N3
_chemical_formula_sum   'Y4 Fe34 N6'
_cell_volume   540.85929615
_cell_formula_units_Z   2
loop_
 _symmetry_equiv_pos_site_id
 _symmetry_equiv_pos_as_xyz
  1  'x, y, z'
loop_
 _atom_site_type_symbol
 _atom_site_label
 _atom_site_symmetry_multiplicity
 _atom_site_fract_x
 _atom_site_fract_y
 _atom_site_fract_z
 _atom_site_occupancy
  Y  Y0  1  0.33333333  0.66666667  0.25000000  1.0
  Y  Y1  1  0.66666667  0.33333333  0.75000000  1.0
  Y  Y2  1  -0.00000000  0.00000000  0.25000000  1.0
  Y  Y3  1  0.00000000  -0.00000000  0.75000000  1.0
  Fe  Fe4  1  0.16931363  0.83068637  0.47960580  1.0
  Fe  Fe5  1  0.16931363  0.83068637  0.02039420  1.0
  Fe  Fe6  1  0.16931363  0.33862726  0.47960580  1.0
  Fe  Fe7  1  0.16931363  0.33862726  0.02039420  1.0
  Fe  Fe8  1  0.83068637  0.16931363  0.97960580  1.0
  Fe  Fe9  1  0.83068637  0.16931363  0.52039420  1.0
  Fe  Fe10  1  0.83068637  0.66137274  0.97960580  1.0
  Fe  Fe11  1  0.83068637  0.66137274  0.52039420  1.0
  Fe  Fe12  1  0.66137274  0.83068637  0.47960580  1.0
  Fe  Fe13  1  0.66137274  0.83068637  0.02039420  1.0
  Fe  Fe14  1  0.33862726  0.16931363  0.97960580  1.0
  Fe  Fe15  1  0.33862726  0.16931363  0.52039420  1.0
  Fe  Fe16  1  0.67174293  0.61920164  0.25000000  1.0
  Fe  Fe17  1  0.67174293  0.05254129  0.25000000  1.0
  Fe  Fe18  1  0.61920164  0.67174293  0.75000000  1.0
  Fe  Fe19  1  0.61920164  0.94745871  0.75000000  1.0
  Fe  Fe20  1  0.94745871  0.61920164  0.25000000  1.0
  Fe  Fe21  1  0.94745871  0.32825707  0.25000000  1.0
  Fe  Fe22  1  0.38079836  0.32825707  0.25000000  1.0
  Fe  Fe23  1  0.38079836  0.05254129  0.25000000  1.0
  Fe  Fe24  1  0.32825707  0.94745871  0.75000000  1.0
  Fe  Fe25  1  0.32825707  0.38079836  0.75000000  1.0
  Fe  Fe26  1  0.05254129  0.67174293  0.75000000  1.0
  Fe  Fe27  1  0.05254129  0.38079836  0.75000000  1.0
  Fe  Fe28  1  0.50000000  0.50000000  0.50000000  1.0
  Fe  Fe29  1  0.50000000  0.50000000  0.00000000  1.0
  Fe  Fe30  1  0.50000000  0.00000000  0.50000000  1.0
  Fe  Fe31  1  0.50000000  0.00000000  0.00000000  1.0
  Fe  Fe32  1  0.00000000  0.50000000  0.50000000  1.0
  Fe  Fe33  1  0.00000000  0.50000000  0.00000000  1.0
  Fe  Fe34  1  0.33333333  0.66666667  0.89165355  1.0
  Fe  Fe35  1  0.33333333  0.66666667  0.60834645  1.0
  Fe  Fe36  1  0.66666667  0.33333333  0.39165355  1.0
  Fe  Fe37  1  0.66666667  0.33333333  0.10834645  1.0
  N  N38  1  0.16371907  0.83628093  0.25000000  1.0
  N  N39  1  0.16371907  0.32743814  0.25000000  1.0
  N  N40  1  0.83628093  0.16371907  0.75000000  1.0
  N  N41  1  0.83628093  0.67256186  0.75000000  1.0
  N  N42  1  0.67256186  0.83628093  0.25000000  1.0
  N  N43  1  0.32743814  0.16371907  0.75000000  1.0
