# generated using pymatgen
data_KNiCl3
_symmetry_space_group_name_H-M   'P 1'
_cell_length_a   11.96712776
_cell_length_b   11.96712776
_cell_length_c   6.00642122
_cell_angle_alpha   90.00000000
_cell_angle_beta   90.00000000
_cell_angle_gamma   120.00000000
_symmetry_Int_Tables_number   1
_chemical_formula_structural   KNiCl3
_chemical_formula_sum   'K6 Ni6 Cl18'
_cell_volume   744.94853785
_cell_formula_units_Z   6
loop_
 _symmetry_equiv_pos_site_id
 _symmetry_equiv_pos_as_xyz
  1  'x, y, z'
loop_
 _atom_site_type_symbol
 _atom_site_label
 _atom_site_symmetry_multiplicity
 _atom_site_fract_x
 _atom_site_fract_y
 _atom_site_fract_z
 _atom_site_occupancy
  K  K0  1  0.33425855  0.33425855  0.19343994  1.0
  K  K1  1  0.33425855  0.00000000  0.69343994  1.0
  K  K2  1  0.00000000  0.33425855  0.69343994  1.0
  K  K3  1  -0.00000000  0.66574145  0.19343994  1.0
  K  K4  1  0.66574145  0.66574145  0.69343994  1.0
  K  K5  1  0.66574145  0.00000000  0.19343994  1.0
  Ni  Ni6  1  0.33333333  0.66666667  0.37957261  1.0
  Ni  Ni7  1  0.33333333  0.66666667  0.87957261  1.0
  Ni  Ni8  1  0.66666667  0.33333333  0.37957261  1.0
  Ni  Ni9  1  0.66666667  0.33333333  0.87957261  1.0
  Ni  Ni10  1  0.00000000  0.00000000  0.02971913  1.0
  Ni  Ni11  1  0.00000000  0.00000000  0.52971913  1.0
  Cl  Cl12  1  0.33282776  0.82361538  0.12738655  1.0
  Cl  Cl13  1  0.33282776  0.50921238  0.62738655  1.0
  Cl  Cl14  1  0.82361538  0.33282776  0.12738655  1.0
  Cl  Cl15  1  0.82361538  0.49078762  0.62738655  1.0
  Cl  Cl16  1  0.49078762  0.82361538  0.62738655  1.0
  Cl  Cl17  1  0.49078762  0.66717224  0.12738655  1.0
  Cl  Cl18  1  0.17638462  0.66717224  0.62738655  1.0
  Cl  Cl19  1  0.17638462  0.50921238  0.12738655  1.0
  Cl  Cl20  1  0.66717224  0.49078762  0.12738655  1.0
  Cl  Cl21  1  0.66717224  0.17638462  0.62738655  1.0
  Cl  Cl22  1  0.50921238  0.33282776  0.62738655  1.0
  Cl  Cl23  1  0.50921238  0.17638462  0.12738655  1.0
  Cl  Cl24  1  0.84237820  0.84237820  0.28279885  1.0
  Cl  Cl25  1  0.84237820  0.00000000  0.78279885  1.0
  Cl  Cl26  1  -0.00000000  0.84237820  0.78279885  1.0
  Cl  Cl27  1  0.00000000  0.15762180  0.28279885  1.0
  Cl  Cl28  1  0.15762180  0.15762180  0.78279885  1.0
  Cl  Cl29  1  0.15762180  0.00000000  0.28279885  1.0
