# generated using pymatgen
data_RbCo(BrO2)3
_symmetry_space_group_name_H-M   'P 1'
_cell_length_a   7.60874384
_cell_length_b   7.60874384
_cell_length_c   13.81103203
_cell_angle_alpha   91.09631997
_cell_angle_beta   88.90368003
_cell_angle_gamma   48.29555536
_symmetry_Int_Tables_number   1
_chemical_formula_structural   RbCo(BrO2)3
_chemical_formula_sum   'Rb2 Co2 Br6 O12'
_cell_volume   596.28889168
_cell_formula_units_Z   2
loop_
 _symmetry_equiv_pos_site_id
 _symmetry_equiv_pos_as_xyz
  1  'x, y, z'
loop_
 _atom_site_type_symbol
 _atom_site_label
 _atom_site_symmetry_multiplicity
 _atom_site_fract_x
 _atom_site_fract_y
 _atom_site_fract_z
 _atom_site_occupancy
  Rb  Rb0  1  0.42725078  -0.57274922  0.25000000  1.0
  Rb  Rb1  1  1.57274922  0.57274922  0.75000000  1.0
  Co  Co2  1  0.00000000  -0.00000000  0.50000000  1.0
  Co  Co3  1  -0.00000000  0.00000000  0.00000000  1.0
  Br  Br4  1  0.26586233  0.05812618  0.34524180  1.0
  Br  Br5  1  0.94187382  0.73413767  0.84524180  1.0
  Br  Br6  1  1.05812618  -0.73413767  0.15475820  1.0
  Br  Br7  1  1.73413767  -0.05812618  0.65475820  1.0
  Br  Br8  1  0.50000000  -0.50000000  0.50000000  1.0
  Br  Br9  1  0.50000000  -0.50000000  0.00000000  1.0
  O  O10  1  1.83352968  0.11415081  0.39508282  1.0
  O  O11  1  0.88584919  -0.83352968  0.89508282  1.0
  O  O12  1  1.11415081  0.83352968  0.10491718  1.0
  O  O13  1  0.16647032  -0.11415081  0.60491718  1.0
  O  O14  1  1.72281533  0.21888844  0.07343567  1.0
  O  O15  1  0.78111156  -0.72281533  0.57343567  1.0
  O  O16  1  1.21888844  0.72281533  0.42656433  1.0
  O  O17  1  0.27718467  -0.21888844  0.92656433  1.0
  O  O18  1  1.16518176  0.10426488  0.47058101  1.0
  O  O19  1  0.89573512  -0.16518176  0.97058101  1.0
  O  O20  1  1.10426488  0.16518176  0.02941899  1.0
  O  O21  1  0.83481824  -0.10426488  0.52941899  1.0
