# generated using pymatgen
data_MgTe(H4O3)3
_symmetry_space_group_name_H-M   'P 1'
_cell_length_a   6.03608678
_cell_length_b   6.03608678
_cell_length_c   6.03608678
_cell_angle_alpha   98.05872936
_cell_angle_beta   98.05872936
_cell_angle_gamma   98.05872936
_symmetry_Int_Tables_number   1
_chemical_formula_structural   MgTe(H4O3)3
_chemical_formula_sum   'Mg1 Te1 H12 O9'
_cell_volume   212.71381341
_cell_formula_units_Z   1
loop_
 _symmetry_equiv_pos_site_id
 _symmetry_equiv_pos_as_xyz
  1  'x, y, z'
loop_
 _atom_site_type_symbol
 _atom_site_label
 _atom_site_symmetry_multiplicity
 _atom_site_fract_x
 _atom_site_fract_y
 _atom_site_fract_z
 _atom_site_occupancy
  Mg  Mg0  1  0.00559646  0.00559646  0.00559646  1.0
  Te  Te1  1  0.54600814  0.54600814  0.54600814  1.0
  H  H2  1  1.03392447  0.54641491  -0.04497871  1.0
  H  H3  1  0.95502129  1.03392447  -0.45358509  1.0
  H  H4  1  0.54641491  0.95502129  0.03392447  1.0
  H  H5  1  1.12497597  0.63721953  -0.26203093  1.0
  H  H6  1  0.73796907  1.12497597  -0.36278047  1.0
  H  H7  1  0.63721953  0.73796907  0.12497597  1.0
  H  H8  1  1.07807112  0.42506025  -0.72122533  1.0
  H  H9  1  0.27877467  1.07807112  -0.57493975  1.0
  H  H10  1  0.42506025  0.27877467  0.07807112  1.0
  H  H11  1  0.81882722  0.38474465  0.17222941  1.0
  H  H12  1  1.17222941  -0.18117278  0.38474465  1.0
  H  H13  1  1.38474465  0.17222941  -0.18117278  1.0
  O  O14  1  1.23053201  0.59065045  -0.50277288  1.0
  O  O15  1  0.49722712  1.23053201  -0.40934955  1.0
  O  O16  1  0.59065045  0.49722712  0.23053201  1.0
  O  O17  1  1.05205811  0.67849497  -0.12535646  1.0
  O  O18  1  0.87464354  1.05205811  -0.32150503  1.0
  O  O19  1  0.67849497  0.87464354  0.05205811  1.0
  O  O20  1  0.96808927  0.34304306  0.13852431  1.0
  O  O21  1  1.13852431  -0.03191073  0.34304306  1.0
  O  O22  1  1.34304306  0.13852431  -0.03191073  1.0
