# generated using pymatgen
data_Gd3(Co2Sn)4
_symmetry_space_group_name_H-M   'P 1'
_cell_length_a   8.97667893
_cell_length_b   8.97667893
_cell_length_c   7.48591258
_cell_angle_alpha   90.00000000
_cell_angle_beta   90.00000000
_cell_angle_gamma   120.00000000
_symmetry_Int_Tables_number   1
_chemical_formula_structural   Gd3(Co2Sn)4
_chemical_formula_sum   'Gd6 Co16 Sn8'
_cell_volume   522.40432905
_cell_formula_units_Z   2
loop_
 _symmetry_equiv_pos_site_id
 _symmetry_equiv_pos_as_xyz
  1  'x, y, z'
loop_
 _atom_site_type_symbol
 _atom_site_label
 _atom_site_symmetry_multiplicity
 _atom_site_fract_x
 _atom_site_fract_y
 _atom_site_fract_z
 _atom_site_occupancy
  Co  Co0  1  0.00000000  0.00000000  -0.00738911  1.0
  Co  Co1  1  0.00000000  0.00000000  0.49261089  1.0
  Co  Co2  1  0.19265949  0.09632974  0.24039349  1.0
  Co  Co3  1  0.09632974  0.19265949  0.74039349  1.0
  Co  Co4  1  0.09632974  0.90367026  0.74039349  1.0
  Co  Co5  1  0.90367026  0.09632974  0.24039349  1.0
  Co  Co6  1  0.90367026  0.80734051  0.24039349  1.0
  Co  Co7  1  0.80734051  0.90367026  0.74039349  1.0
  Co  Co8  1  0.68471094  0.84235547  0.04333812  1.0
  Co  Co9  1  0.84235547  0.68471094  0.54333812  1.0
  Co  Co10  1  0.84235547  0.15764453  0.54333812  1.0
  Co  Co11  1  0.15764453  0.84235547  0.04333812  1.0
  Co  Co12  1  0.15764453  0.31528906  0.04333812  1.0
  Co  Co13  1  0.31528906  0.15764453  0.54333812  1.0
  Co  Co14  1  0.33333333  0.66666667  0.43303578  1.0
  Co  Co15  1  0.66666667  0.33333333  0.93303578  1.0
  Gd  Gd16  1  0.94135423  0.47067711  0.21576675  1.0
  Gd  Gd17  1  0.47067711  0.94135423  0.71576675  1.0
  Gd  Gd18  1  0.47067711  0.52932289  0.71576675  1.0
  Gd  Gd19  1  0.52932289  0.47067711  0.21576675  1.0
  Gd  Gd20  1  0.52932289  0.05864577  0.21576675  1.0
  Gd  Gd21  1  0.05864577  0.52932289  0.71576675  1.0
  Sn  Sn22  1  0.33333333  0.66666667  0.05348047  1.0
  Sn  Sn23  1  0.66666667  0.33333333  0.55348047  1.0
  Sn  Sn24  1  0.65672282  0.82836141  0.41909260  1.0
  Sn  Sn25  1  0.82836141  0.65672282  0.91909260  1.0
  Sn  Sn26  1  0.82836141  0.17163859  0.91909260  1.0
  Sn  Sn27  1  0.17163859  0.82836141  0.41909260  1.0
  Sn  Sn28  1  0.17163859  0.34327718  0.41909260  1.0
  Sn  Sn29  1  0.34327718  0.17163859  0.91909260  1.0
