# generated using pymatgen
data_TaO2
_symmetry_space_group_name_H-M   'P 1'
_cell_length_a   10.39091012
_cell_length_b   10.39091012
_cell_length_c   10.39091012
_cell_angle_alpha   94.41242166
_cell_angle_beta   94.41242166
_cell_angle_gamma   147.79316887
_symmetry_Int_Tables_number   1
_chemical_formula_structural   TaO2
_chemical_formula_sum   'Ta16 O32'
_cell_volume   574.49395324
_cell_formula_units_Z   16
loop_
 _symmetry_equiv_pos_site_id
 _symmetry_equiv_pos_as_xyz
  1  'x, y, z'
loop_
 _atom_site_type_symbol
 _atom_site_label
 _atom_site_symmetry_multiplicity
 _atom_site_fract_x
 _atom_site_fract_y
 _atom_site_fract_z
 _atom_site_occupancy
  Ta  Ta0  1  0.25004565  0.74998288  0.75000081  1.0
  Ta  Ta1  1  0.99998207  0.50004484  1.24999919  1.0
  Ta  Ta2  1  0.49998288  1.24998207  0.99993723  1.0
  Ta  Ta3  1  1.25004484  0.50004565  1.00006277  1.0
  Ta  Ta4  1  1.49995435  1.50001712  1.74999919  1.0
  Ta  Ta5  1  0.75001793  0.74995516  0.25000081  1.0
  Ta  Ta6  1  1.25001712  1.00001793  1.50006277  1.0
  Ta  Ta7  1  0.49995516  0.74995435  0.49993723  1.0
  Ta  Ta8  1  0.75002155  1.24994708  0.74998942  1.0
  Ta  Ta9  1  0.49995766  1.00003213  1.25001058  1.0
  Ta  Ta10  1  0.99994708  1.74995766  0.99992553  1.0
  Ta  Ta11  1  0.75003213  1.00002155  1.00007447  1.0
  Ta  Ta12  1  0.99997845  1.00005292  1.75001058  1.0
  Ta  Ta13  1  1.25004234  1.24996787  1.24998942  1.0
  Ta  Ta14  1  1.75005292  1.50004234  1.50007447  1.0
  Ta  Ta15  1  0.99996787  1.24997845  1.49992553  1.0
  O  O16  1  0.74999610  1.10662999  0.60661334  1.0
  O  O17  1  1.50001665  1.14338275  1.39338666  1.0
  O  O18  1  1.85662999  1.75001665  1.85663390  1.0
  O  O19  1  0.89338275  0.99999610  0.14336610  1.0
  O  O20  1  1.00000390  0.14337001  0.89338666  1.0
  O  O21  1  0.24998335  1.10661725  1.10661334  1.0
  O  O22  1  0.89337001  1.49998335  0.64336610  1.0
  O  O23  1  1.85661725  1.25000390  1.35663390  1.0
  O  O24  1  0.24998042  0.60661841  0.60661821  1.0
  O  O25  1  1.00000020  0.64336221  1.39338179  1.0
  O  O26  1  1.35661841  1.25000020  1.85663799  1.0
  O  O27  1  0.39336221  0.49998042  0.14336201  1.0
  O  O28  1  1.50001958  0.64338159  0.89338179  1.0
  O  O29  1  0.74999980  1.60663779  1.10661821  1.0
  O  O30  1  0.39338159  0.99999980  0.64336201  1.0
  O  O31  1  1.35663779  0.75001958  1.35663799  1.0
  O  O32  1  0.74999884  1.39332784  0.89330887  1.0
  O  O33  1  0.50001897  0.85668997  1.10669113  1.0
  O  O34  1  1.14332784  1.75001897  1.14332900  1.0
  O  O35  1  0.60668997  0.99999884  0.85667100  1.0
  O  O36  1  1.00000116  0.85667216  1.60669113  1.0
  O  O37  1  1.24998103  1.39331003  1.39330887  1.0
  O  O38  1  1.60667216  1.49998103  1.35667100  1.0
  O  O39  1  1.14331003  1.25000116  1.64332900  1.0
  O  O40  1  0.24998317  0.89331381  0.89331062  1.0
  O  O41  1  1.00000319  1.35667255  1.10668938  1.0
  O  O42  1  0.64331381  1.25000319  1.14333064  1.0
  O  O43  1  1.10667255  1.49998317  0.85666936  1.0
  O  O44  1  1.50001683  1.35668619  1.60668938  1.0
  O  O45  1  0.74999681  0.89332745  1.39331062  1.0
  O  O46  1  1.10668619  0.99999681  1.35666936  1.0
  O  O47  1  1.64332745  1.75001683  1.64333064  1.0
