# generated using pymatgen
data_Ti3O5
_symmetry_space_group_name_H-M   'P 1'
_cell_length_a   7.24872310
_cell_length_b   5.05635757
_cell_length_c   10.01146478
_cell_angle_alpha   90.00000000
_cell_angle_beta   109.87329876
_cell_angle_gamma   90.00000000
_symmetry_Int_Tables_number   1
_chemical_formula_structural   Ti3O5
_chemical_formula_sum   'Ti12 O20'
_cell_volume   345.08896773
_cell_formula_units_Z   4
loop_
 _symmetry_equiv_pos_site_id
 _symmetry_equiv_pos_as_xyz
  1  'x, y, z'
loop_
 _atom_site_type_symbol
 _atom_site_label
 _atom_site_symmetry_multiplicity
 _atom_site_fract_x
 _atom_site_fract_y
 _atom_site_fract_z
 _atom_site_occupancy
  Ti  Ti0  1  0.84005635  0.23710811  0.12239376  1.0
  Ti  Ti1  1  0.84005635  0.76289189  0.62239376  1.0
  Ti  Ti2  1  0.15994365  0.23710811  0.37760624  1.0
  Ti  Ti3  1  0.15994365  0.76289189  0.87760624  1.0
  Ti  Ti4  1  0.75000819  0.75006165  0.24998648  1.0
  Ti  Ti5  1  0.75000819  0.24993835  0.74998648  1.0
  Ti  Ti6  1  0.24999181  0.75006165  0.25001352  1.0
  Ti  Ti7  1  0.24999181  0.24993835  0.75001352  1.0
  Ti  Ti8  1  0.65994890  0.73704725  0.87757037  1.0
  Ti  Ti9  1  0.65994890  0.26295275  0.37757037  1.0
  Ti  Ti10  1  0.34005110  0.73704725  0.62242963  1.0
  Ti  Ti11  1  0.34005110  0.26295275  0.12242963  1.0
  O  O12  1  0.88991262  0.40719419  0.33147077  1.0
  O  O13  1  0.88991262  0.59280581  0.83147077  1.0
  O  O14  1  0.11008738  0.40719419  0.16852923  1.0
  O  O15  1  0.11008738  0.59280581  0.66852923  1.0
  O  O16  1  0.78550373  0.91260720  0.43990366  1.0
  O  O17  1  0.78550373  0.08739280  0.93990366  1.0
  O  O18  1  0.21449627  0.91260720  0.06009634  1.0
  O  O19  1  0.21449627  0.08739280  0.56009634  1.0
  O  O20  1  0.71448073  0.58739970  0.06007931  1.0
  O  O21  1  0.71448073  0.41260030  0.56007931  1.0
  O  O22  1  0.28551927  0.58739970  0.43992069  1.0
  O  O23  1  0.28551927  0.41260030  0.93992069  1.0
  O  O24  1  0.61008452  0.90706959  0.66850184  1.0
  O  O25  1  0.61008452  0.09293041  0.16850184  1.0
  O  O26  1  0.38991548  0.90706959  0.83149816  1.0
  O  O27  1  0.38991548  0.09293041  0.33149816  1.0
  O  O28  1  0.50000000  0.56308023  0.25000000  1.0
  O  O29  1  0.50000000  0.43691977  0.75000000  1.0
  O  O30  1  0.00000000  0.93707425  0.25000000  1.0
  O  O31  1  0.00000000  0.06292575  0.75000000  1.0
