# generated using pymatgen
data_Ga2Au
_symmetry_space_group_name_H-M   'P 1'
_cell_length_a   7.25796337
_cell_length_b   3.70307144
_cell_length_c   8.32688512
_cell_angle_alpha   90.00000000
_cell_angle_beta   90.00000000
_cell_angle_gamma   90.00000000
_symmetry_Int_Tables_number   1
_chemical_formula_structural   Ga2Au
_chemical_formula_sum   'Ga8 Au4'
_cell_volume   223.79966692
_cell_formula_units_Z   4
loop_
 _symmetry_equiv_pos_site_id
 _symmetry_equiv_pos_as_xyz
  1  'x, y, z'
loop_
 _atom_site_type_symbol
 _atom_site_label
 _atom_site_symmetry_multiplicity
 _atom_site_fract_x
 _atom_site_fract_y
 _atom_site_fract_z
 _atom_site_occupancy
  Ga  Ga0  1  0.87112441  0.25000000  0.43519785  1.0
  Ga  Ga1  1  0.37112441  0.25000000  0.06480215  1.0
  Ga  Ga2  1  0.12887559  0.75000000  0.56480215  1.0
  Ga  Ga3  1  0.62887559  0.75000000  0.93519785  1.0
  Ga  Ga4  1  0.45433322  0.25000000  0.64687024  1.0
  Ga  Ga5  1  0.95433322  0.25000000  0.85312976  1.0
  Ga  Ga6  1  0.54566678  0.75000000  0.35312976  1.0
  Ga  Ga7  1  0.04566678  0.75000000  0.14687024  1.0
  Au  Au8  1  0.24160212  0.25000000  0.35487578  1.0
  Au  Au9  1  0.74160212  0.25000000  0.14512422  1.0
  Au  Au10  1  0.75839788  0.75000000  0.64512422  1.0
  Au  Au11  1  0.25839788  0.75000000  0.85487578  1.0
