# generated using pymatgen
data_Ca(BH)2
_symmetry_space_group_name_H-M   'P 1'
_cell_length_a   3.34942026
_cell_length_b   3.57541802
_cell_length_c   16.65693779
_cell_angle_alpha   90.00000000
_cell_angle_beta   85.80007152
_cell_angle_gamma   90.00000000
_symmetry_Int_Tables_number   1
_chemical_formula_structural   Ca(BH)2
_chemical_formula_sum   'Ca4 B8 H8'
_cell_volume   198.94076987
_cell_formula_units_Z   4
loop_
 _symmetry_equiv_pos_site_id
 _symmetry_equiv_pos_as_xyz
  1  'x, y, z'
loop_
 _atom_site_type_symbol
 _atom_site_label
 _atom_site_symmetry_multiplicity
 _atom_site_fract_x
 _atom_site_fract_y
 _atom_site_fract_z
 _atom_site_occupancy
  Ca  Ca0  1  0.78903017  0.49993353  0.38520922  1.0
  Ca  Ca1  1  0.21096983  0.99993353  0.11479078  1.0
  Ca  Ca2  1  0.21096983  0.50006647  0.61479078  1.0
  Ca  Ca3  1  0.78903017  0.00006647  0.88520922  1.0
  B  B4  1  0.74889922  0.99998991  0.50663897  1.0
  B  B5  1  0.25110078  0.49998991  0.99336103  1.0
  B  B6  1  0.25110078  0.00001009  0.49336103  1.0
  B  B7  1  0.74889922  0.50001009  0.00663897  1.0
  B  B8  1  0.88722301  0.49998815  0.75387912  1.0
  B  B9  1  0.11277699  0.99998815  0.74612088  1.0
  B  B10  1  0.11277699  0.50001185  0.24612088  1.0
  B  B11  1  0.88722301  0.00001185  0.25387912  1.0
  H  H12  1  0.67092750  0.49984316  0.69604880  1.0
  H  H13  1  0.32907250  0.99984316  0.80395120  1.0
  H  H14  1  0.32907250  0.50015684  0.30395120  1.0
  H  H15  1  0.67092750  0.00015684  0.19604880  1.0
  H  H16  1  0.35876133  0.00005636  0.68696656  1.0
  H  H17  1  0.64123867  0.50005636  0.81303344  1.0
  H  H18  1  0.64123867  0.99994364  0.31303344  1.0
  H  H19  1  0.35876133  0.49994364  0.18696656  1.0
