# generated using pymatgen
data_Nb13Zn4N
_symmetry_space_group_name_H-M   'P 1'
_cell_length_a   10.97445087
_cell_length_b   10.97445087
_cell_length_c   10.97445087
_cell_angle_alpha   60.00000000
_cell_angle_beta   60.00000000
_cell_angle_gamma   60.00000000
_symmetry_Int_Tables_number   1
_chemical_formula_structural   Nb13Zn4N
_chemical_formula_sum   'Nb26 Zn8 N2'
_cell_volume   934.61640118
_cell_formula_units_Z   2
loop_
 _symmetry_equiv_pos_site_id
 _symmetry_equiv_pos_as_xyz
  1  'x, y, z'
loop_
 _atom_site_type_symbol
 _atom_site_label
 _atom_site_symmetry_multiplicity
 _atom_site_fract_x
 _atom_site_fract_y
 _atom_site_fract_z
 _atom_site_occupancy
  Nb  Nb0  1  0.99659946  -0.74947165  0.75627273  1.0
  Nb  Nb1  1  -0.00340054  0.75627273  0.25052835  1.0
  Nb  Nb2  1  -0.00052835  0.25340054  0.25340054  1.0
  Nb  Nb3  1  0.49372727  0.25340054  0.25340054  1.0
  Nb  Nb4  1  -0.74947165  0.99659946  0.75627273  1.0
  Nb  Nb5  1  0.99659946  -0.00340054  0.75627273  1.0
  Nb  Nb6  1  0.99659946  -0.24372727  0.99659946  1.0
  Nb  Nb7  1  -0.74947165  0.75627273  0.99659946  1.0
  Nb  Nb8  1  0.25340054  -0.00052835  0.25340054  1.0
  Nb  Nb9  1  0.25340054  0.25340054  -0.00052835  1.0
  Nb  Nb10  1  0.49372727  0.25340054  -0.00052835  1.0
  Nb  Nb11  1  0.49372727  -0.00052835  0.25340054  1.0
  Nb  Nb12  1  0.75627273  -0.00340054  0.99659946  1.0
  Nb  Nb13  1  -0.74947165  0.99659946  0.99659946  1.0
  Nb  Nb14  1  0.25340054  0.49372727  -0.00052835  1.0
  Nb  Nb15  1  0.25340054  -0.00052835  0.49372727  1.0
  Nb  Nb16  1  -0.24372727  0.99659946  0.25052835  1.0
  Nb  Nb17  1  0.75627273  -0.74947165  0.99659946  1.0
  Nb  Nb18  1  0.99659946  -0.74947165  0.99659946  1.0
  Nb  Nb19  1  -0.00340054  0.99659946  0.25052835  1.0
  Nb  Nb20  1  0.25340054  0.49372727  0.25340054  1.0
  Nb  Nb21  1  -0.00052835  0.49372727  0.25340054  1.0
  Nb  Nb22  1  -0.00052835  0.25340054  0.49372727  1.0
  Nb  Nb23  1  0.25340054  0.25340054  0.49372727  1.0
  Nb  Nb24  1  0.50000000  0.50000000  -0.50000000  1.0
  Nb  Nb25  1  0.75000000  -0.25000000  0.75000000  1.0
  Zn  Zn26  1  0.66429517  -0.33570483  1.00711450  1.0
  Zn  Zn27  1  0.66429517  0.00711450  0.66429517  1.0
  Zn  Zn28  1  0.58570483  -0.41429517  0.58570483  1.0
  Zn  Zn29  1  1.24288550  -0.41429517  0.58570483  1.0
  Zn  Zn30  1  1.00711450  -0.33570483  0.66429517  1.0
  Zn  Zn31  1  0.66429517  -0.33570483  0.66429517  1.0
  Zn  Zn32  1  0.58570483  0.24288550  0.58570483  1.0
  Zn  Zn33  1  0.58570483  -0.41429517  1.24288550  1.0
  N  N34  1  0.00000000  1.00000000  -0.00000000  1.0
  N  N35  1  0.25000000  0.25000000  0.25000000  1.0
