# generated using pymatgen
data_Zr2Ni
_symmetry_space_group_name_H-M   'P 1'
_cell_length_a   5.28851573
_cell_length_b   5.28851573
_cell_length_c   5.28851573
_cell_angle_alpha   104.20638892
_cell_angle_beta   104.20638892
_cell_angle_gamma   120.60849510
_symmetry_Int_Tables_number   1
_chemical_formula_structural   Zr2Ni
_chemical_formula_sum   'Zr4 Ni2'
_cell_volume   110.58348354
_cell_formula_units_Z   2
loop_
 _symmetry_equiv_pos_site_id
 _symmetry_equiv_pos_as_xyz
  1  'x, y, z'
loop_
 _atom_site_type_symbol
 _atom_site_label
 _atom_site_symmetry_multiplicity
 _atom_site_fract_x
 _atom_site_fract_y
 _atom_site_fract_z
 _atom_site_occupancy
  Zr  Zr0  1  0.66344023  0.16344023  0.82688045  1.0
  Zr  Zr1  1  0.33655977  0.83655977  1.17311955  1.0
  Zr  Zr2  1  0.16344023  0.33655977  0.50000000  1.0
  Zr  Zr3  1  0.83655977  0.66344023  1.50000000  1.0
  Ni  Ni4  1  0.25000000  0.25000000  -0.00000000  1.0
  Ni  Ni5  1  0.75000000  0.75000000  1.00000000  1.0
