# generated using pymatgen
data_Na2Al2B2O7
_symmetry_space_group_name_H-M   'P 1'
_cell_length_a   4.87960777
_cell_length_b   4.87960777
_cell_length_c   15.58834880
_cell_angle_alpha   90.00000000
_cell_angle_beta   90.00000000
_cell_angle_gamma   120.00000000
_symmetry_Int_Tables_number   1
_chemical_formula_structural   Na2Al2B2O7
_chemical_formula_sum   'Na4 Al4 B4 O14'
_cell_volume   321.44048452
_cell_formula_units_Z   2
loop_
 _symmetry_equiv_pos_site_id
 _symmetry_equiv_pos_as_xyz
  1  'x, y, z'
loop_
 _atom_site_type_symbol
 _atom_site_label
 _atom_site_symmetry_multiplicity
 _atom_site_fract_x
 _atom_site_fract_y
 _atom_site_fract_z
 _atom_site_occupancy
  Na  Na0  1  0.00000000  0.00000000  0.25000000  1.0
  Na  Na1  1  0.00000000  0.00000000  0.75000000  1.0
  Na  Na2  1  0.00000000  0.00000000  0.00000000  1.0
  Na  Na3  1  0.00000000  0.00000000  0.50000000  1.0
  Al  Al4  1  0.33333333  0.66666667  0.13848979  1.0
  Al  Al5  1  0.33333333  0.66666667  0.36151021  1.0
  Al  Al6  1  0.66666667  0.33333333  0.63848979  1.0
  Al  Al7  1  0.66666667  0.33333333  0.86151021  1.0
  B  B8  1  0.33333333  0.66666667  0.60386700  1.0
  B  B9  1  0.33333333  0.66666667  0.89613300  1.0
  B  B10  1  0.66666667  0.33333333  0.10386700  1.0
  B  B11  1  0.66666667  0.33333333  0.39613300  1.0
  O  O12  1  0.64443833  0.60465658  0.10383592  1.0
  O  O13  1  0.64443833  0.03978175  0.39616408  1.0
  O  O14  1  0.60465658  0.64443833  0.60383592  1.0
  O  O15  1  0.60465658  0.96021825  0.89616408  1.0
  O  O16  1  0.96021825  0.60465658  0.39616408  1.0
  O  O17  1  0.96021825  0.35556167  0.10383592  1.0
  O  O18  1  0.39534342  0.35556167  0.39616408  1.0
  O  O19  1  0.39534342  0.03978175  0.10383592  1.0
  O  O20  1  0.35556167  0.96021825  0.60383592  1.0
  O  O21  1  0.35556167  0.39534342  0.89616408  1.0
  O  O22  1  0.03978175  0.64443833  0.89616408  1.0
  O  O23  1  0.03978175  0.39534342  0.60383592  1.0
  O  O24  1  0.33333333  0.66666667  0.25000000  1.0
  O  O25  1  0.66666667  0.33333333  0.75000000  1.0
