# generated using pymatgen
data_Ti3NiS6
_symmetry_space_group_name_H-M   'P 1'
_cell_length_a   6.61944782
_cell_length_b   6.61944782
_cell_length_c   6.61944782
_cell_angle_alpha   52.66145752
_cell_angle_beta   52.66145752
_cell_angle_gamma   52.66145752
_symmetry_Int_Tables_number   1
_chemical_formula_structural   Ti3NiS6
_chemical_formula_sum   'Ti3 Ni1 S6'
_cell_volume   169.77726109
_cell_formula_units_Z   1
loop_
 _symmetry_equiv_pos_site_id
 _symmetry_equiv_pos_as_xyz
  1  'x, y, z'
loop_
 _atom_site_type_symbol
 _atom_site_label
 _atom_site_symmetry_multiplicity
 _atom_site_fract_x
 _atom_site_fract_y
 _atom_site_fract_z
 _atom_site_occupancy
  Ti  Ti0  1  0.17053594  0.17053594  0.17053594  1.0
  Ti  Ti1  1  0.82946406  -0.17053594  -0.17053594  1.0
  Ti  Ti2  1  0.50000000  0.50000000  -0.50000000  1.0
  Ni  Ni3  1  0.00000000  0.00000000  0.00000000  1.0
  S  S4  1  0.08424523  0.75064524  -0.59021935  1.0
  S  S5  1  0.59021935  0.91575477  -0.75064524  1.0
  S  S6  1  0.24935476  0.59021935  -0.08424523  1.0
  S  S7  1  0.91575477  0.24935476  -0.40978065  1.0
  S  S8  1  0.40978065  0.08424523  -0.24935476  1.0
  S  S9  1  0.75064524  0.40978065  -0.91575477  1.0
