# generated using pymatgen
data_Sb3(BrF8)2
_symmetry_space_group_name_H-M   'P 1'
_cell_length_a   8.02515634
_cell_length_b   8.02515634
_cell_length_c   15.15000202
_cell_angle_alpha   84.72508387
_cell_angle_beta   95.27491613
_cell_angle_gamma   120.14744658
_symmetry_Int_Tables_number   1
_chemical_formula_structural   Sb3(BrF8)2
_chemical_formula_sum   'Sb6 Br4 F32'
_cell_volume   838.96882315
_cell_formula_units_Z   2
loop_
 _symmetry_equiv_pos_site_id
 _symmetry_equiv_pos_as_xyz
  1  'x, y, z'
loop_
 _atom_site_type_symbol
 _atom_site_label
 _atom_site_symmetry_multiplicity
 _atom_site_fract_x
 _atom_site_fract_y
 _atom_site_fract_z
 _atom_site_occupancy
  Sb  Sb0  1  0.73551476  -0.00029338  0.87736819  1.0
  Sb  Sb1  1  1.00029338  0.26448524  0.37736819  1.0
  Sb  Sb2  1  0.99970662  0.73551476  0.62263181  1.0
  Sb  Sb3  1  0.26448524  0.00029338  0.12263181  1.0
  Sb  Sb4  1  0.50000000  -0.00000000  0.50000000  1.0
  Sb  Sb5  1  1.00000000  0.50000000  0.00000000  1.0
  Br  Br6  1  0.41004367  0.26774825  0.79275592  1.0
  Br  Br7  1  0.73225175  0.58995633  0.29275592  1.0
  Br  Br8  1  1.26774825  0.41004367  0.70724408  1.0
  Br  Br9  1  0.58995633  -0.26774825  0.20724408  1.0
  F  F10  1  0.97147828  -0.00381872  0.88151076  1.0
  F  F11  1  1.00381872  0.02852172  0.38151076  1.0
  F  F12  1  0.99618128  0.97147828  0.61848924  1.0
  F  F13  1  0.02852172  0.00381872  0.11848924  1.0
  F  F14  1  0.65385204  -0.17059280  0.97962865  1.0
  F  F15  1  1.17059280  0.34614797  0.47962865  1.0
  F  F16  1  0.82940720  0.65385204  0.52037135  1.0
  F  F17  1  0.34614796  0.17059280  0.02037135  1.0
  F  F18  1  0.60094701  -0.19438742  0.79449142  1.0
  F  F19  1  1.19438742  0.39905299  0.29449142  1.0
  F  F20  1  0.80561258  0.60094701  0.70550858  1.0
  F  F21  1  0.39905299  0.19438742  0.20550858  1.0
  F  F22  1  0.52006651  -0.18753722  0.57900139  1.0
  F  F23  1  1.18753722  0.47993349  0.07900139  1.0
  F  F24  1  0.81246278  0.52006651  0.92099861  1.0
  F  F25  1  0.47993349  0.18753722  0.42099861  1.0
  F  F26  1  0.78252533  0.11778736  0.47369879  1.0
  F  F27  1  0.88221264  0.21747467  0.97369879  1.0
  F  F28  1  1.11778736  0.78252533  0.02630121  1.0
  F  F29  1  0.21747467  -0.11778736  0.52630121  1.0
  F  F30  1  0.52589597  0.04934661  0.88607115  1.0
  F  F31  1  0.95065339  0.47410403  0.38607115  1.0
  F  F32  1  1.04934661  0.52589597  0.61392885  1.0
  F  F33  1  0.47410403  -0.04934661  0.11392885  1.0
  F  F34  1  0.57249410  0.16659631  0.59453895  1.0
  F  F35  1  0.83340369  0.42750590  0.09453895  1.0
  F  F36  1  1.16659631  0.57249410  0.90546105  1.0
  F  F37  1  0.42750590  -0.16659631  0.40546105  1.0
  F  F38  1  0.21151634  -0.16248164  0.70835741  1.0
  F  F39  1  1.16248164  0.78848366  0.20835741  1.0
  F  F40  1  0.83751836  0.21151634  0.79164259  1.0
  F  F41  1  0.78848366  0.16248164  0.29164259  1.0
