# generated using pymatgen
data_Hf9Re4P
_symmetry_space_group_name_H-M   'P 1'
_cell_length_a   8.54539961
_cell_length_b   8.54539961
_cell_length_c   8.61394887
_cell_angle_alpha   90.00000000
_cell_angle_beta   90.00000000
_cell_angle_gamma   120.00000000
_symmetry_Int_Tables_number   1
_chemical_formula_structural   Hf9Re4P
_chemical_formula_sum   'Hf18 Re8 P2'
_cell_volume   544.75054576
_cell_formula_units_Z   2
loop_
 _symmetry_equiv_pos_site_id
 _symmetry_equiv_pos_as_xyz
  1  'x, y, z'
loop_
 _atom_site_type_symbol
 _atom_site_label
 _atom_site_symmetry_multiplicity
 _atom_site_fract_x
 _atom_site_fract_y
 _atom_site_fract_z
 _atom_site_occupancy
  Hf  Hf0  1  0.19588187  0.80411813  0.45036719  1.0
  Hf  Hf1  1  0.19588187  0.39176374  0.45036719  1.0
  Hf  Hf2  1  0.60823626  0.80411813  0.45036719  1.0
  Hf  Hf3  1  0.80411813  0.19588187  0.54963281  1.0
  Hf  Hf4  1  0.80411813  0.60823626  0.54963281  1.0
  Hf  Hf5  1  0.39176374  0.19588187  0.54963281  1.0
  Hf  Hf6  1  0.80411813  0.19588187  0.95036719  1.0
  Hf  Hf7  1  0.80411813  0.60823626  0.95036719  1.0
  Hf  Hf8  1  0.39176374  0.19588187  0.95036719  1.0
  Hf  Hf9  1  0.19588187  0.80411813  0.04963281  1.0
  Hf  Hf10  1  0.19588187  0.39176374  0.04963281  1.0
  Hf  Hf11  1  0.60823626  0.80411813  0.04963281  1.0
  Hf  Hf12  1  0.54025461  0.45974539  0.25000000  1.0
  Hf  Hf13  1  0.54025461  0.08050922  0.25000000  1.0
  Hf  Hf14  1  0.91949078  0.45974539  0.25000000  1.0
  Hf  Hf15  1  0.45974539  0.54025461  0.75000000  1.0
  Hf  Hf16  1  0.45974539  0.91949078  0.75000000  1.0
  Hf  Hf17  1  0.08050922  0.54025461  0.75000000  1.0
  Re  Re18  1  0.89081740  0.10918260  0.25000000  1.0
  Re  Re19  1  0.89081740  0.78163479  0.25000000  1.0
  Re  Re20  1  0.21836521  0.10918260  0.25000000  1.0
  Re  Re21  1  0.10918260  0.89081740  0.75000000  1.0
  Re  Re22  1  0.10918260  0.21836521  0.75000000  1.0
  Re  Re23  1  0.78163479  0.89081740  0.75000000  1.0
  Re  Re24  1  0.00000000  0.00000000  0.50000000  1.0
  Re  Re25  1  0.00000000  0.00000000  0.00000000  1.0
  P  P26  1  0.33333333  0.66666667  0.25000000  1.0
  P  P27  1  0.66666667  0.33333333  0.75000000  1.0
