# generated using pymatgen
data_Na3CoS3
_symmetry_space_group_name_H-M   'P 1'
_cell_length_a   11.73083595
_cell_length_b   11.73083595
_cell_length_c   12.11760176
_cell_angle_alpha   90.00000000
_cell_angle_beta   90.00000000
_cell_angle_gamma   136.11106694
_symmetry_Int_Tables_number   1
_chemical_formula_structural   Na3CoS3
_chemical_formula_sum   'Na24 Co8 S24'
_cell_volume   1156.03875457
_cell_formula_units_Z   8
loop_
 _symmetry_equiv_pos_site_id
 _symmetry_equiv_pos_as_xyz
  1  'x, y, z'
loop_
 _atom_site_type_symbol
 _atom_site_label
 _atom_site_symmetry_multiplicity
 _atom_site_fract_x
 _atom_site_fract_y
 _atom_site_fract_z
 _atom_site_occupancy
  S  S0  1  -0.36024612  0.36024612  0.82432148  1.0
  S  S1  1  0.36024612  0.63975388  0.32432148  1.0
  S  S2  1  0.24785185  1.16508140  0.60982298  1.0
  S  S3  1  -0.16508140  0.75214815  0.60982298  1.0
  S  S4  1  0.75214815  0.83491860  0.10982298  1.0
  S  S5  1  0.16508140  0.24785185  0.10982298  1.0
  S  S6  1  0.03133385  0.96866615  0.33555657  1.0
  S  S7  1  -0.03133385  0.03133385  0.83555657  1.0
  S  S8  1  0.49971397  0.90317911  0.73940844  1.0
  S  S9  1  0.09682089  0.50028603  0.73940844  1.0
  S  S10  1  0.50028603  1.09682089  0.23940844  1.0
  S  S11  1  -0.09682089  0.49971397  0.23940844  1.0
  S  S12  1  0.43876117  0.56123883  0.83539399  1.0
  S  S13  1  -0.43876117  0.43876117  0.33539399  1.0
  S  S14  1  0.30446773  0.69553227  0.02426337  1.0
  S  S15  1  -0.30446773  0.30446773  0.52426337  1.0
  S  S16  1  0.21112483  0.78887517  0.50483159  1.0
  S  S17  1  -0.21112483  0.21112483  0.00483159  1.0
  S  S18  1  0.09534644  0.90465356  0.01105093  1.0
  S  S19  1  -0.09534644  0.09534644  0.51105093  1.0
  S  S20  1  0.12848559  0.87151441  0.83670192  1.0
  S  S21  1  -0.12848559  0.12848559  0.33670192  1.0
  S  S22  1  0.37517944  0.62482056  0.50431224  1.0
  S  S23  1  -0.37517944  0.37517944  0.00431224  1.0
  Co  Co24  1  0.33443483  0.66556517  0.84270678  1.0
  Co  Co25  1  -0.33443483  0.33443483  0.34270678  1.0
  Co  Co26  1  0.29451996  0.70548004  0.61926135  1.0
  Co  Co27  1  -0.29451996  0.29451996  0.11926135  1.0
  Co  Co28  1  0.00664465  0.99335535  0.51614633  1.0
  Co  Co29  1  -0.00664465  0.00664465  0.01614633  1.0
  Co  Co30  1  0.05123922  0.94876078  0.71883454  1.0
  Co  Co31  1  -0.05123922  0.05123922  0.21883454  1.0
  Na  Na32  1  0.23438649  0.76561351  0.25975846  1.0
  Na  Na33  1  -0.23438649  0.23438649  0.75975846  1.0
  Na  Na34  1  -0.43126804  0.43126804  0.57179891  1.0
  Na  Na35  1  0.43126804  0.56873196  0.07179891  1.0
  Na  Na36  1  0.43619056  1.00464553  0.95178972  1.0
  Na  Na37  1  -0.00464553  0.56380944  0.95178972  1.0
  Na  Na38  1  0.56380944  0.99535447  0.45178972  1.0
  Na  Na39  1  0.00464553  0.43619056  0.45178972  1.0
  Na  Na40  1  0.39251448  1.04801619  0.66965418  1.0
  Na  Na41  1  -0.04801619  0.60748552  0.66965418  1.0
  Na  Na42  1  0.60748552  0.95198381  0.16965418  1.0
  Na  Na43  1  0.04801619  0.39251448  0.16965418  1.0
  Na  Na44  1  0.65786206  0.81913148  0.66370522  1.0
  Na  Na45  1  0.18086852  0.34213794  0.66370522  1.0
  Na  Na46  1  0.34213794  1.18086852  0.16370522  1.0
  Na  Na47  1  -0.18086852  0.65786206  0.16370522  1.0
  Na  Na48  1  0.67754445  0.91926447  0.92244571  1.0
  Na  Na49  1  0.08073553  0.32245555  0.92244571  1.0
  Na  Na50  1  0.32245555  1.08073553  0.42244571  1.0
  Na  Na51  1  -0.08073553  0.67754445  0.42244571  1.0
  Na  Na52  1  0.32622748  1.24736494  0.86503952  1.0
  Na  Na53  1  -0.24736494  0.67377252  0.86503952  1.0
  Na  Na54  1  0.67377252  0.75263506  0.36503952  1.0
  Na  Na55  1  0.24736494  0.32622748  0.36503952  1.0
