# generated using pymatgen
data_Cs2CO3
_symmetry_space_group_name_H-M   'P 1'
_cell_length_a   8.22995301
_cell_length_b   6.27304483
_cell_length_c   10.58444407
_cell_angle_alpha   90.00000000
_cell_angle_beta   90.00000000
_cell_angle_gamma   90.00000000
_symmetry_Int_Tables_number   1
_chemical_formula_structural   Cs2CO3
_chemical_formula_sum   'Cs8 C4 O12'
_cell_volume   546.44165700
_cell_formula_units_Z   4
loop_
 _symmetry_equiv_pos_site_id
 _symmetry_equiv_pos_as_xyz
  1  'x, y, z'
loop_
 _atom_site_type_symbol
 _atom_site_label
 _atom_site_symmetry_multiplicity
 _atom_site_fract_x
 _atom_site_fract_y
 _atom_site_fract_z
 _atom_site_occupancy
  Cs  Cs0  1  0.98324682  0.75000000  0.71603966  1.0
  Cs  Cs1  1  0.48324682  0.75000000  0.78396034  1.0
  Cs  Cs2  1  0.01675318  0.25000000  0.28396034  1.0
  Cs  Cs3  1  0.51675318  0.25000000  0.21603966  1.0
  Cs  Cs4  1  0.83109695  0.75000000  0.08346861  1.0
  Cs  Cs5  1  0.33109695  0.75000000  0.41653139  1.0
  Cs  Cs6  1  0.16890305  0.25000000  0.91653139  1.0
  Cs  Cs7  1  0.66890305  0.25000000  0.58346861  1.0
  C  C8  1  0.73297870  0.75000000  0.41686241  1.0
  C  C9  1  0.23297870  0.75000000  0.08313759  1.0
  C  C10  1  0.26702130  0.25000000  0.58313759  1.0
  C  C11  1  0.76702130  0.25000000  0.91686241  1.0
  O  O12  1  0.75112801  0.93041163  0.35722866  1.0
  O  O13  1  0.75112801  0.56958837  0.35722866  1.0
  O  O14  1  0.25112801  0.93041163  0.14277134  1.0
  O  O15  1  0.25112801  0.56958837  0.14277134  1.0
  O  O16  1  0.24887199  0.43041163  0.64277134  1.0
  O  O17  1  0.24887199  0.06958837  0.64277134  1.0
  O  O18  1  0.74887199  0.43041163  0.85722866  1.0
  O  O19  1  0.74887199  0.06958837  0.85722866  1.0
  O  O20  1  0.69280132  0.75000000  0.53647923  1.0
  O  O21  1  0.19280132  0.75000000  0.96352077  1.0
  O  O22  1  0.30719868  0.25000000  0.46352077  1.0
  O  O23  1  0.80719868  0.25000000  0.03647923  1.0
