# generated using pymatgen
data_Sr5P3O12F
_symmetry_space_group_name_H-M   'P 1'
_cell_length_a   9.83692766
_cell_length_b   9.83692766
_cell_length_c   7.20200644
_cell_angle_alpha   90.00000000
_cell_angle_beta   90.00000000
_cell_angle_gamma   120.00000000
_symmetry_Int_Tables_number   1
_chemical_formula_structural   Sr5P3O12F
_chemical_formula_sum   'Sr10 P6 O24 F2'
_cell_volume   603.53587810
_cell_formula_units_Z   2
loop_
 _symmetry_equiv_pos_site_id
 _symmetry_equiv_pos_as_xyz
  1  'x, y, z'
loop_
 _atom_site_type_symbol
 _atom_site_label
 _atom_site_symmetry_multiplicity
 _atom_site_fract_x
 _atom_site_fract_y
 _atom_site_fract_z
 _atom_site_occupancy
  Sr  Sr0  1  -0.00708592  0.75829633  0.25000000  1.0
  Sr  Sr1  1  0.75829633  0.76538224  0.75000000  1.0
  Sr  Sr2  1  0.76538224  1.00708592  0.25000000  1.0
  Sr  Sr3  1  0.24170367  0.23461776  0.25000000  1.0
  Sr  Sr4  1  1.00708592  0.24170367  0.75000000  1.0
  Sr  Sr5  1  0.23461776  -0.00708592  0.75000000  1.0
  Sr  Sr6  1  0.33333333  0.66666667  0.49978718  1.0
  Sr  Sr7  1  0.33333333  0.66666667  0.00021282  1.0
  Sr  Sr8  1  0.66666667  0.33333333  -0.00021282  1.0
  Sr  Sr9  1  0.66666667  0.33333333  0.50021282  1.0
  P  P10  1  0.37209013  0.97065510  0.25000000  1.0
  P  P11  1  0.97065510  0.59856497  0.75000000  1.0
  P  P12  1  0.59856497  0.62790987  0.25000000  1.0
  P  P13  1  0.02934490  0.40143503  0.25000000  1.0
  P  P14  1  0.62790987  0.02934490  0.75000000  1.0
  P  P15  1  0.40143503  0.37209013  0.75000000  1.0
  O  O16  1  0.26293350  0.91576476  0.42405310  1.0
  O  O17  1  0.26293350  0.91576476  0.07594690  1.0
  O  O18  1  0.91576476  0.65283125  0.92405310  1.0
  O  O19  1  0.91576476  0.65283125  0.57594690  1.0
  O  O20  1  0.65283125  0.73706650  0.42405310  1.0
  O  O21  1  0.65283125  0.73706650  0.07594690  1.0
  O  O22  1  0.08423524  0.34716875  0.42405310  1.0
  O  O23  1  0.08423524  0.34716875  0.07594690  1.0
  O  O24  1  0.73706650  0.08423524  0.92405310  1.0
  O  O25  1  0.73706650  0.08423524  0.57594690  1.0
  O  O26  1  0.34716875  0.26293350  0.92405310  1.0
  O  O27  1  0.34716875  0.26293350  0.57594690  1.0
  O  O28  1  0.47045765  0.88553972  0.25000000  1.0
  O  O29  1  0.88553972  0.41508207  0.75000000  1.0
  O  O30  1  0.41508207  0.52954235  0.25000000  1.0
  O  O31  1  0.11446028  0.58491793  0.25000000  1.0
  O  O32  1  0.52954235  0.11446028  0.75000000  1.0
  O  O33  1  0.58491793  0.47045765  0.75000000  1.0
  O  O34  1  0.67236773  0.51999374  0.25000000  1.0
  O  O35  1  0.51999374  0.84762601  0.75000000  1.0
  O  O36  1  0.84762601  0.32763227  0.25000000  1.0
  O  O37  1  0.48000626  0.15237399  0.25000000  1.0
  O  O38  1  0.32763227  0.48000626  0.75000000  1.0
  O  O39  1  0.15237399  0.67236773  0.75000000  1.0
  F  F40  1  0.00000000  0.00000000  0.50000000  1.0
  F  F41  1  0.00000000  0.00000000  0.00000000  1.0
