# generated using pymatgen
data_Nb2Se
_symmetry_space_group_name_H-M   'P 1'
_cell_length_a   7.23668796
_cell_length_b   7.23668796
_cell_length_c   9.35548195
_cell_angle_alpha   87.73834332
_cell_angle_beta   92.26165668
_cell_angle_gamma   152.53824241
_symmetry_Int_Tables_number   1
_chemical_formula_structural   Nb2Se
_chemical_formula_sum   'Nb8 Se4'
_cell_volume   225.75402715
_cell_formula_units_Z   4
loop_
 _symmetry_equiv_pos_site_id
 _symmetry_equiv_pos_as_xyz
  1  'x, y, z'
loop_
 _atom_site_type_symbol
 _atom_site_label
 _atom_site_symmetry_multiplicity
 _atom_site_fract_x
 _atom_site_fract_y
 _atom_site_fract_z
 _atom_site_occupancy
  Nb  Nb0  1  0.28291913  -0.28291913  0.87588529  1.0
  Nb  Nb1  1  0.71708087  0.28291913  0.12411471  1.0
  Nb  Nb2  1  0.91388733  0.08611267  0.35422789  1.0
  Nb  Nb3  1  0.08611267  -0.08611267  0.64577211  1.0
  Nb  Nb4  1  0.75620624  0.24379376  0.62287699  1.0
  Nb  Nb5  1  0.24379376  -0.24379376  0.37712301  1.0
  Nb  Nb6  1  0.41529069  -0.41529069  0.60164010  1.0
  Nb  Nb7  1  0.58470931  0.41529069  0.39835990  1.0
  Se  Se8  1  0.63959749  0.36040251  0.86109606  1.0
  Se  Se9  1  0.36040251  -0.36040251  0.13890394  1.0
  Se  Se10  1  0.92421636  0.07578364  0.81523255  1.0
  Se  Se11  1  0.07578364  -0.07578364  0.18476745  1.0
