# generated using pymatgen
data_Sr3MnBiO6
_symmetry_space_group_name_H-M   'P 1'
_cell_length_a   5.35064056
_cell_length_b   24.09370979
_cell_length_c   5.37615800
_cell_angle_alpha   90.00000000
_cell_angle_beta   89.85370604
_cell_angle_gamma   90.00000000
_symmetry_Int_Tables_number   1
_chemical_formula_structural   Sr3MnBiO6
_chemical_formula_sum   'Sr12 Mn4 Bi4 O24'
_cell_volume   693.07472387
_cell_formula_units_Z   4
loop_
 _symmetry_equiv_pos_site_id
 _symmetry_equiv_pos_as_xyz
  1  'x, y, z'
loop_
 _atom_site_type_symbol
 _atom_site_label
 _atom_site_symmetry_multiplicity
 _atom_site_fract_x
 _atom_site_fract_y
 _atom_site_fract_z
 _atom_site_occupancy
  Sr  Sr0  1  0.25205074  0.42111031  0.48231921  1.0
  Sr  Sr1  1  0.74794926  0.92111031  0.51768079  1.0
  Sr  Sr2  1  0.74913241  0.07458666  0.51793182  1.0
  Sr  Sr3  1  0.25086759  0.57458666  0.48206818  1.0
  Sr  Sr4  1  0.75088621  0.41986546  -0.01798310  1.0
  Sr  Sr5  1  0.24911379  0.91986546  0.01798310  1.0
  Sr  Sr6  1  0.75202334  0.57334713  -0.01766315  1.0
  Sr  Sr7  1  0.24797666  0.07334713  0.01766315  1.0
  Sr  Sr8  1  0.75456591  0.68963745  0.48893988  1.0
  Sr  Sr9  1  0.24543409  0.18963745  0.51106012  1.0
  Sr  Sr10  1  0.25467272  0.30481389  -0.01120641  1.0
  Sr  Sr11  1  0.74532728  0.80481389  0.01120641  1.0
  Mn  Mn12  1  0.75003478  -0.00976519  0.01671919  1.0
  Mn  Mn13  1  0.24996522  0.49023481  -0.01671919  1.0
  Mn  Mn14  1  0.74996517  0.50424185  0.48327761  1.0
  Mn  Mn15  1  0.25003483  0.00424185  0.51672239  1.0
  Bi  Bi16  1  0.76890274  0.18829256  -0.00965280  1.0
  Bi  Bi17  1  0.23109726  0.68829256  0.00965280  1.0
  Bi  Bi18  1  0.73122103  0.30617056  0.50951324  1.0
  Bi  Bi19  1  0.26877897  0.80617056  0.49048676  1.0
  O  O20  1  0.00001586  -0.00199007  0.76672298  1.0
  O  O21  1  -0.00001586  0.49800993  0.23327702  1.0
  O  O22  1  -0.00033099  0.49639517  0.73305437  1.0
  O  O23  1  0.00033099  -0.00360483  0.26694563  1.0
  O  O24  1  0.82711219  0.69553779  -0.00555310  1.0
  O  O25  1  0.17288781  0.19553779  0.00555310  1.0
  O  O26  1  0.75074561  0.30979349  0.90598360  1.0
  O  O27  1  0.24925439  0.80979349  0.09401640  1.0
  O  O28  1  0.75332883  0.10105371  0.02832769  1.0
  O  O29  1  0.24667117  0.60105371  -0.02832769  1.0
  O  O30  1  0.74674983  0.39341466  0.47164501  1.0
  O  O31  1  0.25325017  0.89341466  0.52835499  1.0
  O  O32  1  0.74855310  0.59130844  0.48888239  1.0
  O  O33  1  0.25144690  0.09130844  0.51111761  1.0
  O  O34  1  0.74939947  0.18466248  0.59387890  1.0
  O  O35  1  0.25060053  0.68466248  0.40612110  1.0
  O  O36  1  0.50032537  -0.00191748  0.76694874  1.0
  O  O37  1  0.49967463  0.49808252  0.23305126  1.0
  O  O38  1  0.49999970  0.49646563  0.73329233  1.0
  O  O39  1  0.50000030  -0.00353437  0.26670767  1.0
  O  O40  1  0.32724163  0.29892269  0.49429326  1.0
  O  O41  1  0.67275837  0.79892269  0.50570674  1.0
  O  O42  1  0.24860344  0.40315280  -0.01114884  1.0
  O  O43  1  0.75139656  0.90315280  0.01114884  1.0
