# generated using pymatgen
data_CuC2(NO3)2
_symmetry_space_group_name_H-M   'P 1'
_cell_length_a   5.19245005
_cell_length_b   6.26852151
_cell_length_c   5.39880329
_cell_angle_alpha   69.03445383
_cell_angle_beta   99.89922447
_cell_angle_gamma   99.28987668
_symmetry_Int_Tables_number   1
_chemical_formula_structural   CuC2(NO3)2
_chemical_formula_sum   'Cu1 C2 N2 O6'
_cell_volume   160.69234954
_cell_formula_units_Z   1
loop_
 _symmetry_equiv_pos_site_id
 _symmetry_equiv_pos_as_xyz
  1  'x, y, z'
loop_
 _atom_site_type_symbol
 _atom_site_label
 _atom_site_symmetry_multiplicity
 _atom_site_fract_x
 _atom_site_fract_y
 _atom_site_fract_z
 _atom_site_occupancy
  C  C0  1  -0.89237130  -0.08548168  -0.44783103  1.0
  C  C1  1  -0.10762870  -0.91451832  -0.55216897  1.0
  N  N2  1  -0.71831576  -0.72560154  -0.05689671  1.0
  N  N3  1  -0.28168424  -0.27439846  -0.94310329  1.0
  O  O4  1  -0.81646253  -0.15046527  -0.61683093  1.0
  O  O5  1  -0.18353747  -0.84953473  -0.38316907  1.0
  O  O6  1  -0.63723392  -0.63051577  -0.25743385  1.0
  O  O7  1  -0.36276608  -0.36948423  -0.74256615  1.0
  O  O8  1  -0.19053686  -0.85226077  -0.79877368  1.0
  O  O9  1  -0.80946314  -0.14773923  -0.20122632  1.0
  Cu  Cu10  1  0.00000000  0.00000000  0.00000000  1.0
