# generated using pymatgen
data_MnCoGe
_symmetry_space_group_name_H-M   'P 1'
_cell_length_a   5.81975959
_cell_length_b   3.77807875
_cell_length_c   7.07285331
_cell_angle_alpha   90.00000000
_cell_angle_beta   90.00000000
_cell_angle_gamma   90.00000000
_symmetry_Int_Tables_number   1
_chemical_formula_structural   MnCoGe
_chemical_formula_sum   'Mn4 Co4 Ge4'
_cell_volume   155.51443299
_cell_formula_units_Z   4
loop_
 _symmetry_equiv_pos_site_id
 _symmetry_equiv_pos_as_xyz
  1  'x, y, z'
loop_
 _atom_site_type_symbol
 _atom_site_label
 _atom_site_symmetry_multiplicity
 _atom_site_fract_x
 _atom_site_fract_y
 _atom_site_fract_z
 _atom_site_occupancy
  Mn  Mn0  1  0.96919401  0.75000000  0.68989350  1.0
  Mn  Mn1  1  0.46919401  0.75000000  0.81010650  1.0
  Mn  Mn2  1  0.03080599  0.25000000  0.31010650  1.0
  Mn  Mn3  1  0.53080599  0.25000000  0.18989350  1.0
  Co  Co4  1  0.84041725  0.75000000  0.05919586  1.0
  Co  Co5  1  0.34041725  0.75000000  0.44080414  1.0
  Co  Co6  1  0.15958275  0.25000000  0.94080414  1.0
  Co  Co7  1  0.65958275  0.25000000  0.55919586  1.0
  Ge  Ge8  1  0.73974807  0.75000000  0.37875114  1.0
  Ge  Ge9  1  0.23974807  0.75000000  0.12124886  1.0
  Ge  Ge10  1  0.26025193  0.25000000  0.62124886  1.0
  Ge  Ge11  1  0.76025193  0.25000000  0.87875114  1.0
