# generated using pymatgen
data_Cs4Tl2O
_symmetry_space_group_name_H-M   'P 1'
_cell_length_a   9.97428444
_cell_length_b   9.97428444
_cell_length_c   9.97428444
_cell_angle_alpha   77.17128471
_cell_angle_beta   77.17128471
_cell_angle_gamma   77.17128471
_symmetry_Int_Tables_number   1
_chemical_formula_structural   Cs4Tl2O
_chemical_formula_sum   'Cs12 Tl6 O3'
_cell_volume   927.68143253
_cell_formula_units_Z   3
loop_
 _symmetry_equiv_pos_site_id
 _symmetry_equiv_pos_as_xyz
  1  'x, y, z'
loop_
 _atom_site_type_symbol
 _atom_site_label
 _atom_site_symmetry_multiplicity
 _atom_site_fract_x
 _atom_site_fract_y
 _atom_site_fract_z
 _atom_site_occupancy
  Cs  Cs0  1  1.71375604  1.01451995  0.01451995  1.0
  Cs  Cs1  1  1.01451995  1.01451995  0.71375604  1.0
  Cs  Cs2  1  1.01451995  1.71375604  0.01451995  1.0
  Cs  Cs3  1  1.28624396  -0.01451995  -0.01451995  1.0
  Cs  Cs4  1  0.98548005  -0.01451995  0.28624396  1.0
  Cs  Cs5  1  0.98548005  0.28624396  -0.01451995  1.0
  Cs  Cs6  1  0.96234766  0.63388829  -0.36611171  1.0
  Cs  Cs7  1  0.63388829  0.63388829  -0.03765234  1.0
  Cs  Cs8  1  0.63388829  0.96234766  -0.36611171  1.0
  Cs  Cs9  1  1.03765234  1.36611171  0.36611171  1.0
  Cs  Cs10  1  1.36611171  1.36611171  0.03765234  1.0
  Cs  Cs11  1  1.36611171  1.03765234  0.36611171  1.0
  Tl  Tl12  1  0.61334965  0.34692341  -0.65307659  1.0
  Tl  Tl13  1  0.34692341  0.34692341  -0.38665035  1.0
  Tl  Tl14  1  0.34692341  0.61334965  -0.65307659  1.0
  Tl  Tl15  1  0.38665035  0.65307659  -0.34692341  1.0
  Tl  Tl16  1  0.65307659  0.65307659  -0.61334965  1.0
  Tl  Tl17  1  0.65307659  0.38665035  -0.34692341  1.0
  O  O18  1  1.17905874  1.17905874  0.17905874  1.0
  O  O19  1  0.82094126  0.82094126  -0.17905874  1.0
  O  O20  1  0.00000000  0.00000000  0.00000000  1.0
