# generated using pymatgen
data_NiP
_symmetry_space_group_name_H-M   'P 1'
_cell_length_a   12.41381466
_cell_length_b   12.41381466
_cell_length_c   4.92272178
_cell_angle_alpha   90.00000000
_cell_angle_beta   90.00000000
_cell_angle_gamma   27.90895867
_symmetry_Int_Tables_number   1
_chemical_formula_structural   NiP
_chemical_formula_sum   'Ni14 P14'
_cell_volume   355.07880527
_cell_formula_units_Z   14
loop_
 _symmetry_equiv_pos_site_id
 _symmetry_equiv_pos_as_xyz
  1  'x, y, z'
loop_
 _atom_site_type_symbol
 _atom_site_label
 _atom_site_symmetry_multiplicity
 _atom_site_fract_x
 _atom_site_fract_y
 _atom_site_fract_z
 _atom_site_occupancy
  Ni  Ni0  1  -0.11715773  0.99425055  0.18964751  1.0
  Ni  Ni1  1  -0.00574945  0.88284227  0.68964751  1.0
  Ni  Ni2  1  0.00574945  0.11715773  0.18964751  1.0
  Ni  Ni3  1  -0.88284227  1.00574945  0.68964751  1.0
  Ni  Ni4  1  -0.73554579  1.14722995  0.14225073  1.0
  Ni  Ni5  1  0.14722995  0.26445421  0.64225073  1.0
  Ni  Ni6  1  -0.14722995  0.73554579  0.14225073  1.0
  Ni  Ni7  1  -0.26445421  0.85277005  0.64225073  1.0
  Ni  Ni8  1  -0.40808488  0.70563432  0.17531716  1.0
  Ni  Ni9  1  -0.29436568  0.59191512  0.67531716  1.0
  Ni  Ni10  1  0.29436568  0.40808488  0.17531716  1.0
  Ni  Ni11  1  -0.59191512  1.29436568  0.67531716  1.0
  Ni  Ni12  1  -0.44769526  0.44769526  0.16120715  1.0
  Ni  Ni13  1  -0.55230474  0.55230474  0.66120715  1.0
  P  P14  1  -0.33788835  1.04798050  0.33095140  1.0
  P  P15  1  0.04798050  0.66211165  0.83095140  1.0
  P  P16  1  -0.04798050  0.33788835  0.33095140  1.0
  P  P17  1  -0.66211165  0.95201950  0.83095140  1.0
  P  P18  1  -0.48185470  0.90416673  0.48630613  1.0
  P  P19  1  -0.09583327  0.51814530  0.98630613  1.0
  P  P20  1  0.09583327  0.48185470  0.48630613  1.0
  P  P21  1  -0.51814530  1.09583327  0.98630613  1.0
  P  P22  1  -0.61653031  0.75404514  0.35889275  1.0
  P  P23  1  -0.24595486  0.38346969  0.85889275  1.0
  P  P24  1  0.24595486  0.61653031  0.35889275  1.0
  P  P25  1  -0.38346969  1.24595486  0.85889275  1.0
  P  P26  1  -0.18949275  0.18949275  0.50156153  1.0
  P  P27  1  -0.81050725  0.81050725  0.00156153  1.0
