# generated using pymatgen
data_KVBP2HO9
_symmetry_space_group_name_H-M   'P 1'
_cell_length_a   8.45970626
_cell_length_b   8.21654295
_cell_length_c   5.22442624
_cell_angle_alpha   86.09241086
_cell_angle_beta   80.49214360
_cell_angle_gamma   86.92587563
_symmetry_Int_Tables_number   1
_chemical_formula_structural   KVBP2HO9
_chemical_formula_sum   'K2 V2 B2 P4 H2 O18'
_cell_volume   356.99482205
_cell_formula_units_Z   2
loop_
 _symmetry_equiv_pos_site_id
 _symmetry_equiv_pos_as_xyz
  1  'x, y, z'
loop_
 _atom_site_type_symbol
 _atom_site_label
 _atom_site_symmetry_multiplicity
 _atom_site_fract_x
 _atom_site_fract_y
 _atom_site_fract_z
 _atom_site_occupancy
  K  K0  1  -0.88883584  -0.67332537  -0.27821368  1.0
  K  K1  1  -0.11116416  -0.32667463  -0.72178632  1.0
  V  V2  1  -0.19334593  -0.80412413  -0.73115027  1.0
  V  V3  1  -0.80665407  -0.19587587  -0.26884973  1.0
  B  B4  1  -0.55526614  -0.73260173  -0.87455867  1.0
  B  B5  1  -0.44473386  -0.26739827  -0.12544133  1.0
  P  P6  1  -0.69710872  -0.41769810  -0.80322360  1.0
  P  P7  1  -0.30289128  -0.58230190  -0.19677640  1.0
  P  P8  1  -0.81358031  -0.93812988  -0.78584839  1.0
  P  P9  1  -0.18641969  -0.06187012  -0.21415161  1.0
  H  H10  1  -0.49483364  -0.82914860  -0.52757215  1.0
  H  H11  1  -0.50516636  -0.17085140  -0.47242785  1.0
  O  O12  1  -0.20682307  -0.59562347  -0.96795030  1.0
  O  O13  1  -0.79317693  -0.40437653  -0.03204970  1.0
  O  O14  1  -0.66158757  -0.85200027  -0.94306688  1.0
  O  O15  1  -0.33841243  -0.14799973  -0.05693312  1.0
  O  O16  1  -0.84691628  -0.07626313  -0.94937691  1.0
  O  O17  1  -0.15308372  -0.92373687  -0.05062309  1.0
  O  O18  1  -0.53523718  -0.32696125  -0.87543885  1.0
  O  O19  1  -0.46476282  -0.67303875  -0.12456115  1.0
  O  O20  1  -0.95277824  -0.80639188  -0.75311812  1.0
  O  O21  1  -0.04722176  -0.19360812  -0.24688188  1.0
  O  O22  1  -0.65492446  -0.60189961  -0.73056619  1.0
  O  O23  1  -0.34507554  -0.39810039  -0.26943381  1.0
  O  O24  1  -0.44314875  -0.80466330  -0.70572087  1.0
  O  O25  1  -0.55685125  -0.19533670  -0.29427913  1.0
  O  O26  1  -0.79596058  -0.35391577  -0.55522906  1.0
  O  O27  1  -0.20403942  -0.64608423  -0.44477094  1.0
  O  O28  1  -0.77778805  -1.00167141  -0.51364337  1.0
  O  O29  1  -0.22221195  0.00167141  -0.48635663  1.0
