# generated using pymatgen
data_La3Ni4(P2O)2
_symmetry_space_group_name_H-M   'P 1'
_cell_length_a   13.53992685
_cell_length_b   13.53992685
_cell_length_c   13.53992685
_cell_angle_alpha   162.95122321
_cell_angle_beta   162.95122321
_cell_angle_gamma   24.20127167
_symmetry_Int_Tables_number   1
_chemical_formula_structural   La3Ni4(P2O)2
_chemical_formula_sum   'La3 Ni4 P4 O2'
_cell_volume   213.31674276
_cell_formula_units_Z   1
loop_
 _symmetry_equiv_pos_site_id
 _symmetry_equiv_pos_as_xyz
  1  'x, y, z'
loop_
 _atom_site_type_symbol
 _atom_site_label
 _atom_site_symmetry_multiplicity
 _atom_site_fract_x
 _atom_site_fract_y
 _atom_site_fract_z
 _atom_site_occupancy
  La  La0  1  0.70240266  0.70240266  1.00000000  1.0
  La  La1  1  0.29759734  0.29759734  0.00000000  1.0
  La  La2  1  0.00000000  0.00000000  0.00000000  1.0
  Ni  Ni3  1  0.40753050  0.90753050  0.50000000  1.0
  Ni  Ni4  1  0.59246950  0.09246950  0.50000000  1.0
  Ni  Ni5  1  0.90753050  0.40753050  0.50000000  1.0
  Ni  Ni6  1  0.09246950  0.59246950  0.50000000  1.0
  P  P7  1  0.86773631  0.86773631  1.00000000  1.0
  P  P8  1  0.13226369  0.13226369  0.00000000  1.0
  P  P9  1  0.54976256  0.54976256  1.00000000  1.0
  P  P10  1  0.45023744  0.45023744  0.00000000  1.0
  O  O11  1  0.25000000  0.75000000  0.50000000  1.0
  O  O12  1  0.75000000  0.25000000  0.50000000  1.0
