# generated using pymatgen
data_CsV3(SeO6)2
_symmetry_space_group_name_H-M   'P 1'
_cell_length_a   7.22040284
_cell_length_b   7.22040284
_cell_length_c   12.21802513
_cell_angle_alpha   90.00000000
_cell_angle_beta   90.00000000
_cell_angle_gamma   120.00000000
_symmetry_Int_Tables_number   1
_chemical_formula_structural   CsV3(SeO6)2
_chemical_formula_sum   'Cs2 V6 Se4 O24'
_cell_volume   551.63841564
_cell_formula_units_Z   2
loop_
 _symmetry_equiv_pos_site_id
 _symmetry_equiv_pos_as_xyz
  1  'x, y, z'
loop_
 _atom_site_type_symbol
 _atom_site_label
 _atom_site_symmetry_multiplicity
 _atom_site_fract_x
 _atom_site_fract_y
 _atom_site_fract_z
 _atom_site_occupancy
  Cs  Cs0  1  0.33333333  0.66666667  0.10201757  1.0
  Cs  Cs1  1  0.66666667  0.33333333  0.60201757  1.0
  V  V2  1  0.78892433  0.66695301  0.28078477  1.0
  V  V3  1  0.66695301  0.87802868  0.78078477  1.0
  V  V4  1  0.87802868  0.21107567  0.28078477  1.0
  V  V5  1  0.33304699  0.12197132  0.28078477  1.0
  V  V6  1  0.21107567  0.33304699  0.78078477  1.0
  V  V7  1  0.12197132  0.78892433  0.78078477  1.0
  Se  Se8  1  0.33333333  0.66666667  0.56817357  1.0
  Se  Se9  1  0.66666667  0.33333333  0.06817357  1.0
  Se  Se10  1  0.00000000  0.00000000  -0.00949388  1.0
  Se  Se11  1  -0.00000000  -0.00000000  0.49050612  1.0
  O  O12  1  0.13079876  0.88014317  0.25132426  1.0
  O  O13  1  0.88014317  0.74934442  0.75132426  1.0
  O  O14  1  0.74934442  0.86920124  0.25132426  1.0
  O  O15  1  0.11985683  0.25065558  0.25132426  1.0
  O  O16  1  0.86920124  0.11985683  0.75132426  1.0
  O  O17  1  0.25065558  0.13079876  0.75132426  1.0
  O  O18  1  0.88278868  0.74836171  0.43079784  1.0
  O  O19  1  0.74836171  0.86557303  0.93079784  1.0
  O  O20  1  0.86557303  0.11721132  0.43079784  1.0
  O  O21  1  0.25163829  0.13442697  0.43079784  1.0
  O  O22  1  0.11721132  0.25163829  0.93079784  1.0
  O  O23  1  0.13442697  0.88278868  0.93079784  1.0
  O  O24  1  0.80196675  0.58536201  0.12634077  1.0
  O  O25  1  0.58536201  0.78339526  0.62634077  1.0
  O  O26  1  0.78339526  0.19803325  0.12634077  1.0
  O  O27  1  0.41463799  0.21660474  0.12634077  1.0
  O  O28  1  0.19803325  0.41463799  0.62634077  1.0
  O  O29  1  0.21660474  0.80196675  0.62634077  1.0
  O  O30  1  0.54591293  0.46333887  0.30525329  1.0
  O  O31  1  0.46333887  0.91742594  0.80525329  1.0
  O  O32  1  0.91742594  0.45408707  0.30525329  1.0
  O  O33  1  0.53666113  0.08257406  0.30525329  1.0
  O  O34  1  0.45408707  0.53666113  0.80525329  1.0
  O  O35  1  0.08257406  0.54591293  0.80525329  1.0
