# generated using pymatgen
data_K3YN6
_symmetry_space_group_name_H-M   'P 1'
_cell_length_a   7.87846127
_cell_length_b   7.87846127
_cell_length_c   7.87846127
_cell_angle_alpha   89.29549103
_cell_angle_beta   89.29549103
_cell_angle_gamma   89.29549103
_symmetry_Int_Tables_number   1
_chemical_formula_structural   K3YN6
_chemical_formula_sum   'K6 Y2 N12'
_cell_volume   488.90728708
_cell_formula_units_Z   2
loop_
 _symmetry_equiv_pos_site_id
 _symmetry_equiv_pos_as_xyz
  1  'x, y, z'
loop_
 _atom_site_type_symbol
 _atom_site_label
 _atom_site_symmetry_multiplicity
 _atom_site_fract_x
 _atom_site_fract_y
 _atom_site_fract_z
 _atom_site_occupancy
  K  K0  1  0.83671144  0.50000000  0.16328856  1.0
  K  K1  1  0.50000000  1.16328856  -0.16328856  1.0
  K  K2  1  1.16328856  -0.16328856  0.50000000  1.0
  K  K3  1  0.65974901  1.00000000  -0.65974901  1.0
  K  K4  1  1.00000000  0.34025099  -0.34025099  1.0
  K  K5  1  0.34025099  0.65974901  0.00000000  1.0
  Y  Y6  1  0.75195317  0.75195317  0.75195317  1.0
  Y  Y7  1  0.24804683  0.24804683  0.24804683  1.0
  N  N8  1  0.82464554  1.02279857  -0.32474481  1.0
  N  N9  1  1.32474481  -0.02279857  0.17535446  1.0
  N  N10  1  0.97720143  0.17535446  0.32474481  1.0
  N  N11  1  1.17535446  0.32474481  -0.02279857  1.0
  N  N12  1  0.67525519  0.82464554  0.02279857  1.0
  N  N13  1  1.02279857  0.67525519  -0.17535446  1.0
  N  N14  1  1.48155538  0.82626656  -0.32468331  1.0
  N  N15  1  1.32468331  0.17373344  -0.48155538  1.0
  N  N16  1  1.17373344  -0.48155538  0.32468331  1.0
  N  N17  1  0.51844462  0.32468331  0.17373344  1.0
  N  N18  1  0.67531669  1.48155538  -0.17373344  1.0
  N  N19  1  0.82626656  0.67531669  0.48155538  1.0
