# generated using pymatgen
data_Hf2Ni12P7
_symmetry_space_group_name_H-M   'P 1'
_cell_length_a   9.00870681
_cell_length_b   9.00870681
_cell_length_c   3.58030124
_cell_angle_alpha   90.00000000
_cell_angle_beta   90.00000000
_cell_angle_gamma   120.00000000
_symmetry_Int_Tables_number   1
_chemical_formula_structural   Hf2Ni12P7
_chemical_formula_sum   'Hf2 Ni12 P7'
_cell_volume   251.63735219
_cell_formula_units_Z   1
loop_
 _symmetry_equiv_pos_site_id
 _symmetry_equiv_pos_as_xyz
  1  'x, y, z'
loop_
 _atom_site_type_symbol
 _atom_site_label
 _atom_site_symmetry_multiplicity
 _atom_site_fract_x
 _atom_site_fract_y
 _atom_site_fract_z
 _atom_site_occupancy
  Hf  Hf0  1  0.00000000  0.00000000  0.50000000  1.0
  Hf  Hf1  1  0.66666667  0.33333333  0.00000000  1.0
  Ni  Ni2  1  0.72101698  0.61774361  0.50000000  1.0
  Ni  Ni3  1  0.89672662  0.27898302  0.50000000  1.0
  Ni  Ni4  1  0.38225639  0.10327338  0.50000000  1.0
  Ni  Ni5  1  0.24156124  0.44609667  0.50000000  1.0
  Ni  Ni6  1  0.20453543  0.75843876  0.50000000  1.0
  Ni  Ni7  1  0.55390333  0.79546457  0.50000000  1.0
  Ni  Ni8  1  0.49087525  0.54687907  0.00000000  1.0
  Ni  Ni9  1  0.05600382  0.50912475  0.00000000  1.0
  Ni  Ni10  1  0.45312093  0.94399618  0.00000000  1.0
  Ni  Ni11  1  0.27005671  0.23097516  0.00000000  1.0
  Ni  Ni12  1  0.96091845  0.72994329  0.00000000  1.0
  Ni  Ni13  1  0.76902484  0.03908155  0.00000000  1.0
  P  P14  1  0.45438725  0.37575978  0.50000000  1.0
  P  P15  1  0.92137252  0.54561275  0.50000000  1.0
  P  P16  1  0.62424022  0.07862748  0.50000000  1.0
  P  P17  1  0.04009620  0.25361557  0.00000000  1.0
  P  P18  1  0.21351937  0.95990380  0.00000000  1.0
  P  P19  1  0.74638443  0.78648063  0.00000000  1.0
  P  P20  1  0.33333333  0.66666667  0.00000000  1.0
