# generated using pymatgen
data_Y2MgCu2
_symmetry_space_group_name_H-M   'P 1'
_cell_length_a   7.61325960
_cell_length_b   7.61325960
_cell_length_c   3.74759389
_cell_angle_alpha   90.00000000
_cell_angle_beta   90.00000000
_cell_angle_gamma   90.00000000
_symmetry_Int_Tables_number   1
_chemical_formula_structural   Y2MgCu2
_chemical_formula_sum   'Y4 Mg2 Cu4'
_cell_volume   217.21699456
_cell_formula_units_Z   2
loop_
 _symmetry_equiv_pos_site_id
 _symmetry_equiv_pos_as_xyz
  1  'x, y, z'
loop_
 _atom_site_type_symbol
 _atom_site_label
 _atom_site_symmetry_multiplicity
 _atom_site_fract_x
 _atom_site_fract_y
 _atom_site_fract_z
 _atom_site_occupancy
  Y  Y0  1  0.32928846  0.17071154  0.50000000  1.0
  Y  Y1  1  0.82928846  0.32928846  0.50000000  1.0
  Y  Y2  1  0.67071154  0.82928846  0.50000000  1.0
  Y  Y3  1  0.17071154  0.67071154  0.50000000  1.0
  Mg  Mg4  1  0.50000000  0.50000000  0.00000000  1.0
  Mg  Mg5  1  0.00000000  0.00000000  0.00000000  1.0
  Cu  Cu6  1  0.87757186  0.62242814  0.00000000  1.0
  Cu  Cu7  1  0.37757186  0.87757186  0.00000000  1.0
  Cu  Cu8  1  0.12242814  0.37757186  0.00000000  1.0
  Cu  Cu9  1  0.62242814  0.12242814  0.00000000  1.0
