# generated using pymatgen
data_Zr(SO6)2
_symmetry_space_group_name_H-M   'P 1'
_cell_length_a   15.77564747
_cell_length_b   15.12437904
_cell_length_c   6.37847445
_cell_angle_alpha   83.88266730
_cell_angle_beta   72.41270216
_cell_angle_gamma   23.70463054
_symmetry_Int_Tables_number   1
_chemical_formula_structural   Zr(SO6)2
_chemical_formula_sum   'Zr2 S4 O24'
_cell_volume   522.63208872
_cell_formula_units_Z   2
loop_
 _symmetry_equiv_pos_site_id
 _symmetry_equiv_pos_as_xyz
  1  'x, y, z'
loop_
 _atom_site_type_symbol
 _atom_site_label
 _atom_site_symmetry_multiplicity
 _atom_site_fract_x
 _atom_site_fract_y
 _atom_site_fract_z
 _atom_site_occupancy
  O  O0  1  0.66180382  0.46481217  0.24064794  1.0
  O  O1  1  0.58819618  0.78518783  0.00935206  1.0
  O  O2  1  0.46481217  0.66180382  0.63273607  1.0
  O  O3  1  0.78518783  0.58819618  0.61726393  1.0
  O  O4  1  0.24064794  0.63273607  0.66180382  1.0
  O  O5  1  0.00935206  0.61726393  0.58819618  1.0
  O  O6  1  0.63273607  0.24064794  0.46481217  1.0
  O  O7  1  0.61726393  0.00935206  0.78518783  1.0
  O  O8  1  0.62521125  0.21042353  -0.07589162  1.0
  O  O9  1  0.62478875  0.03957647  0.32589162  1.0
  O  O10  1  0.21042353  0.62521125  1.24025685  1.0
  O  O11  1  1.24025685  -0.07589162  0.21042353  1.0
  O  O12  1  0.03957647  0.62478875  1.00974315  1.0
  O  O13  1  1.00974315  0.32589162  0.03957647  1.0
  O  O14  1  -0.07589162  1.24025685  0.62521125  1.0
  O  O15  1  0.32589162  1.00974315  0.62478875  1.0
  O  O16  1  0.54299656  0.41361761  0.16709292  1.0
  O  O17  1  -0.29299656  0.83638239  1.08290708  1.0
  O  O18  1  0.16709292  0.87629291  0.54299656  1.0
  O  O19  1  1.08290708  0.37370709  -0.29299656  1.0
  O  O20  1  0.87629291  0.16709292  0.41361761  1.0
  O  O21  1  0.37370709  1.08290708  0.83638239  1.0
  O  O22  1  0.41361761  0.54299656  0.87629291  1.0
  O  O23  1  0.83638239  -0.29299656  0.37370709  1.0
  S  S24  1  1.19636531  0.19636531  -0.19636531  1.0
  S  S25  1  0.80363469  -0.19636531  0.19636531  1.0
  S  S26  1  1.05363469  0.05363469  0.44636531  1.0
  S  S27  1  0.44636531  0.44636531  1.05363469  1.0
  Zr  Zr28  1  0.50000000  0.50000000  0.50000000  1.0
  Zr  Zr29  1  0.75000000  0.75000000  0.75000000  1.0
