# generated using pymatgen
data_SrPH2O4F
_symmetry_space_group_name_H-M   'P 1'
_cell_length_a   7.61337560
_cell_length_b   7.19995523
_cell_length_c   8.48023741
_cell_angle_alpha   90.00000000
_cell_angle_beta   109.16195862
_cell_angle_gamma   90.00000000
_symmetry_Int_Tables_number   1
_chemical_formula_structural   SrPH2O4F
_chemical_formula_sum   'Sr4 P4 H8 O16 F4'
_cell_volume   439.09701102
_cell_formula_units_Z   4
loop_
 _symmetry_equiv_pos_site_id
 _symmetry_equiv_pos_as_xyz
  1  'x, y, z'
loop_
 _atom_site_type_symbol
 _atom_site_label
 _atom_site_symmetry_multiplicity
 _atom_site_fract_x
 _atom_site_fract_y
 _atom_site_fract_z
 _atom_site_occupancy
  Sr  Sr0  1  0.14096082  0.86022665  0.35272578  1.0
  Sr  Sr1  1  0.85903918  0.36022665  0.14727422  1.0
  Sr  Sr2  1  0.85903918  0.13977335  0.64727422  1.0
  Sr  Sr3  1  0.14096082  0.63977335  0.85272578  1.0
  P  P4  1  0.78435274  0.85418054  0.99468909  1.0
  P  P5  1  0.21564726  0.35418054  0.50531091  1.0
  P  P6  1  0.21564726  0.14581946  0.00531091  1.0
  P  P7  1  0.78435274  0.64581946  0.49468909  1.0
  H  H8  1  0.30013528  0.95596310  0.73290234  1.0
  H  H9  1  0.69986472  0.45596310  0.76709766  1.0
  H  H10  1  0.69986472  0.04403690  0.26709766  1.0
  H  H11  1  0.30013528  0.54403690  0.23290234  1.0
  H  H12  1  0.48348539  0.88433098  0.70632356  1.0
  H  H13  1  0.51651461  0.38433098  0.79367644  1.0
  H  H14  1  0.51651461  0.11566902  0.29367644  1.0
  H  H15  1  0.48348539  0.61566902  0.20632356  1.0
  O  O16  1  0.92734383  0.69500484  0.03885819  1.0
  O  O17  1  0.07265617  0.19500484  0.46114181  1.0
  O  O18  1  0.07265617  0.30499516  0.96114181  1.0
  O  O19  1  0.92734383  0.80499516  0.53885819  1.0
  O  O20  1  0.73390037  0.92848887  0.81775513  1.0
  O  O21  1  0.26609963  0.42848887  0.68224487  1.0
  O  O22  1  0.26609963  0.07151113  0.18224487  1.0
  O  O23  1  0.73390037  0.57151113  0.31775513  1.0
  O  O24  1  0.83518942  1.00097235  0.13452876  1.0
  O  O25  1  0.16481058  0.50097235  0.36547124  1.0
  O  O26  1  0.16481058  -0.00097235  0.86547124  1.0
  O  O27  1  0.83518942  0.49902765  0.63452876  1.0
  O  O28  1  0.34646159  0.87609872  0.66036382  1.0
  O  O29  1  0.65353841  0.37609872  0.83963618  1.0
  O  O30  1  0.65353841  0.12390128  0.33963618  1.0
  O  O31  1  0.34646159  0.62390128  0.16036382  1.0
  F  F32  1  0.59261647  0.76314878  1.00139591  1.0
  F  F33  1  0.40738353  0.26314878  0.49860409  1.0
  F  F34  1  0.40738353  0.23685122  -0.00139591  1.0
  F  F35  1  0.59261647  0.73685122  0.50139591  1.0
