# generated using pymatgen
data_Rb8In11
_symmetry_space_group_name_H-M   'P 1'
_cell_length_a   18.73414748
_cell_length_b   18.73414748
_cell_length_c   18.73414748
_cell_angle_alpha   32.39464879
_cell_angle_beta   32.39464879
_cell_angle_gamma   32.39464879
_symmetry_Int_Tables_number   1
_chemical_formula_structural   Rb8In11
_chemical_formula_sum   'Rb16 In22'
_cell_volume   1677.83242188
_cell_formula_units_Z   2
loop_
 _symmetry_equiv_pos_site_id
 _symmetry_equiv_pos_as_xyz
  1  'x, y, z'
loop_
 _atom_site_type_symbol
 _atom_site_label
 _atom_site_symmetry_multiplicity
 _atom_site_fract_x
 _atom_site_fract_y
 _atom_site_fract_z
 _atom_site_occupancy
  Rb  Rb0  1  0.59086652  0.15344233  -0.17813960  1.0
  Rb  Rb1  1  1.09086652  0.32186040  -0.34655767  1.0
  Rb  Rb2  1  0.67813960  0.34655767  -0.09086652  1.0
  Rb  Rb3  1  1.17813960  0.40913348  -0.15344233  1.0
  Rb  Rb4  1  0.84655767  0.17813960  0.40913348  1.0
  Rb  Rb5  1  0.34655767  0.90913348  -0.32186040  1.0
  Rb  Rb6  1  1.40913348  -0.15344233  0.17813960  1.0
  Rb  Rb7  1  0.90913348  0.67813960  -0.65344233  1.0
  Rb  Rb8  1  0.82186040  -0.40913348  0.15344233  1.0
  Rb  Rb9  1  1.32186040  -0.34655767  0.09086652  1.0
  Rb  Rb10  1  0.65344233  0.09086652  0.32186040  1.0
  Rb  Rb11  1  1.15344233  -0.17813960  -0.40913348  1.0
  Rb  Rb12  1  0.92109929  -0.07890071  -0.07890071  1.0
  Rb  Rb13  1  0.42109929  0.42109929  0.42109929  1.0
  Rb  Rb14  1  0.57890071  0.57890071  -0.42109929  1.0
  Rb  Rb15  1  1.07890071  0.07890071  0.07890071  1.0
  In  In16  1  0.56484488  0.00246561  0.27177822  1.0
  In  In17  1  1.06484488  0.77177822  -0.49753439  1.0
  In  In18  1  0.22822178  0.49753439  -0.06484488  1.0
  In  In19  1  0.72822178  0.43515512  -0.00246561  1.0
  In  In20  1  0.99753439  0.72822178  -0.56484488  1.0
  In  In21  1  0.49753439  0.93515512  -0.77177822  1.0
  In  In22  1  0.43515512  0.99753439  -0.27177822  1.0
  In  In23  1  0.93515512  0.22822178  -0.50246561  1.0
  In  In24  1  1.27177822  -0.43515512  0.00246561  1.0
  In  In25  1  0.77177822  0.50246561  0.06484488  1.0
  In  In26  1  0.50246561  1.06484488  -0.22822178  1.0
  In  In27  1  1.00246561  0.27177822  -0.43515512  1.0
  In  In28  1  0.54545720  0.75000000  -0.04545720  1.0
  In  In29  1  1.04545720  -0.54545720  0.25000000  1.0
  In  In30  1  0.25000000  1.04545720  -0.54545720  1.0
  In  In31  1  0.75000000  0.95454280  -0.45454280  1.0
  In  In32  1  0.45454280  0.25000000  0.04545720  1.0
  In  In33  1  0.95454280  0.54545720  -0.25000000  1.0
  In  In34  1  0.79829498  0.79829498  -0.20170502  1.0
  In  In35  1  0.29829498  0.29829498  0.29829498  1.0
  In  In36  1  0.70170502  0.70170502  -0.29829498  1.0
  In  In37  1  0.20170502  0.20170502  0.20170502  1.0
