# generated using pymatgen
data_GdBO3
_symmetry_space_group_name_H-M   'P 1'
_cell_length_a   6.67980292
_cell_length_b   6.67980292
_cell_length_c   9.75498916
_cell_angle_alpha   70.32462842
_cell_angle_beta   109.67537158
_cell_angle_gamma   119.92799597
_symmetry_Int_Tables_number   1
_chemical_formula_structural   GdBO3
_chemical_formula_sum   'Gd6 B6 O18'
_cell_volume   347.52610837
_cell_formula_units_Z   6
loop_
 _symmetry_equiv_pos_site_id
 _symmetry_equiv_pos_as_xyz
  1  'x, y, z'
loop_
 _atom_site_type_symbol
 _atom_site_label
 _atom_site_symmetry_multiplicity
 _atom_site_fract_x
 _atom_site_fract_y
 _atom_site_fract_z
 _atom_site_occupancy
  Gd  Gd0  1  0.65691000  -0.17110229  0.00071365  1.0
  Gd  Gd1  1  1.17110229  0.34309000  0.50071365  1.0
  Gd  Gd2  1  0.82889771  -0.34309000  0.49928635  1.0
  Gd  Gd3  1  1.34309000  0.17110229  -0.00071365  1.0
  Gd  Gd4  1  1.50000000  -0.00000000  0.50000000  1.0
  Gd  Gd5  1  1.00000000  -0.50000000  0.00000000  1.0
  B  B6  1  0.84544122  -0.91790889  0.25292977  1.0
  B  B7  1  0.91790889  -0.84544122  0.75292977  1.0
  B  B8  1  0.08209111  -0.15455878  0.24707023  1.0
  B  B9  1  0.15455878  -0.08209111  0.74707023  1.0
  B  B10  1  1.32009595  0.32009595  0.25000000  1.0
  B  B11  1  0.67990405  -0.32009595  0.75000000  1.0
  O  O12  1  0.78325014  -0.96509008  0.39357763  1.0
  O  O13  1  0.96509008  -0.78325014  0.89357763  1.0
  O  O14  1  0.03490992  -0.21674986  0.10642237  1.0
  O  O15  1  0.21674986  -0.03490992  0.60642237  1.0
  O  O16  1  1.68930864  0.12948009  0.11295134  1.0
  O  O17  1  0.87051991  -0.68930864  0.61295134  1.0
  O  O18  1  1.12948009  0.68930864  0.38704866  1.0
  O  O19  1  0.31069136  -0.12948009  0.88704866  1.0
  O  O20  1  1.29578306  0.08331259  0.24787298  1.0
  O  O21  1  0.91668741  -0.29578306  0.74787298  1.0
  O  O22  1  1.08331259  0.29578306  0.25212702  1.0
  O  O23  1  0.70421694  -0.08331259  0.75212702  1.0
  O  O24  1  1.47775023  0.38279536  0.38965430  1.0
  O  O25  1  0.61720464  -0.47775023  0.88965430  1.0
  O  O26  1  1.38279536  0.47775023  0.11034570  1.0
  O  O27  1  0.52224977  -0.38279536  0.61034570  1.0
  O  O28  1  0.86877062  -0.13122938  0.25000000  1.0
  O  O29  1  1.13122938  0.13122938  0.75000000  1.0
