# generated using pymatgen
data_LaNiSnH2
_symmetry_space_group_name_H-M   'P 1'
_cell_length_a   8.72099125
_cell_length_b   4.45052759
_cell_length_c   7.70227834
_cell_angle_alpha   90.00000000
_cell_angle_beta   90.00000000
_cell_angle_gamma   90.00000000
_symmetry_Int_Tables_number   1
_chemical_formula_structural   LaNiSnH2
_chemical_formula_sum   'La4 Ni4 Sn4 H8'
_cell_volume   298.94862332
_cell_formula_units_Z   4
loop_
 _symmetry_equiv_pos_site_id
 _symmetry_equiv_pos_as_xyz
  1  'x, y, z'
loop_
 _atom_site_type_symbol
 _atom_site_label
 _atom_site_symmetry_multiplicity
 _atom_site_fract_x
 _atom_site_fract_y
 _atom_site_fract_z
 _atom_site_occupancy
  La  La0  1  0.50002989  0.25000000  0.75001307  1.0
  La  La1  1  0.00002989  0.25000000  0.74998693  1.0
  La  La2  1  0.49997011  0.75000000  0.24998693  1.0
  La  La3  1  0.99997011  0.75000000  0.25001307  1.0
  Ni  Ni4  1  0.74998261  0.25000000  0.08314591  1.0
  Ni  Ni5  1  0.24998261  0.25000000  0.41685409  1.0
  Ni  Ni6  1  0.25001739  0.75000000  0.91685409  1.0
  Ni  Ni7  1  0.75001739  0.75000000  0.58314591  1.0
  Sn  Sn8  1  0.74997836  0.25000000  0.41655419  1.0
  Sn  Sn9  1  0.24997836  0.25000000  0.08344581  1.0
  Sn  Sn10  1  0.25002164  0.75000000  0.58344581  1.0
  Sn  Sn11  1  0.75002164  0.75000000  0.91655419  1.0
  H  H12  1  0.43338403  0.25000000  0.41653526  1.0
  H  H13  1  0.93338403  0.25000000  0.08346474  1.0
  H  H14  1  0.56661597  0.75000000  0.58346474  1.0
  H  H15  1  0.06661597  0.75000000  0.91653526  1.0
  H  H16  1  0.06658144  0.25000000  0.41665575  1.0
  H  H17  1  0.56658144  0.25000000  0.08334425  1.0
  H  H18  1  0.93341856  0.75000000  0.58334425  1.0
  H  H19  1  0.43341856  0.75000000  0.91665575  1.0
