# generated using pymatgen
data_Li4HgGe2S7
_symmetry_space_group_name_H-M   'P 1'
_cell_length_a   9.21671975
_cell_length_b   9.21671975
_cell_length_c   10.29192277
_cell_angle_alpha   86.81176354
_cell_angle_beta   93.18823646
_cell_angle_gamma   136.53203006
_symmetry_Int_Tables_number   1
_chemical_formula_structural   Li4HgGe2S7
_chemical_formula_sum   'Li8 Hg2 Ge4 S14'
_cell_volume   600.37926984
_cell_formula_units_Z   2
loop_
 _symmetry_equiv_pos_site_id
 _symmetry_equiv_pos_as_xyz
  1  'x, y, z'
loop_
 _atom_site_type_symbol
 _atom_site_label
 _atom_site_symmetry_multiplicity
 _atom_site_fract_x
 _atom_site_fract_y
 _atom_site_fract_z
 _atom_site_occupancy
  Li  Li0  1  0.47168867  0.15501285  0.48672162  1.0
  Li  Li1  1  0.84498715  0.52831133  0.98672162  1.0
  Li  Li2  1  0.97772685  0.37215749  0.70410760  1.0
  Li  Li3  1  0.62784251  0.02227315  0.20410760  1.0
  Li  Li4  1  1.12098239  0.22757251  0.40727275  1.0
  Li  Li5  1  0.77242749  -0.12098239  0.90727275  1.0
  Li  Li6  1  0.25251183  0.06437964  0.12679557  1.0
  Li  Li7  1  0.93562036  0.74748817  0.62679557  1.0
  Hg  Hg8  1  0.51186075  -0.24105681  0.55264482  1.0
  Hg  Hg9  1  1.24105681  0.48813925  0.05264482  1.0
  Ge  Ge10  1  1.06749381  0.60648821  0.32829816  1.0
  Ge  Ge11  1  0.39351179  -0.06749381  0.82829816  1.0
  Ge  Ge12  1  0.69666713  0.65538321  0.26130266  1.0
  Ge  Ge13  1  0.34461679  0.30333287  0.76130266  1.0
  S  S14  1  0.79680912  0.54291927  0.41390964  1.0
  S  S15  1  0.45708073  0.20319088  0.91390964  1.0
  S  S16  1  0.34274661  -0.05374639  0.29474372  1.0
  S  S17  1  1.05374639  0.65725339  0.79474372  1.0
  S  S18  1  0.87903450  0.78377248  0.08309571  1.0
  S  S19  1  0.21622752  0.12096550  0.58309571  1.0
  S  S20  1  0.93002965  0.40178275  0.15471387  1.0
  S  S21  1  0.59821725  0.06997035  0.65471387  1.0
  S  S22  1  0.74941359  -0.09336173  0.35158527  1.0
  S  S23  1  1.09336173  0.25058641  0.85158527  1.0
  S  S24  1  1.35279101  0.36645779  0.22322626  1.0
  S  S25  1  0.63354221  -0.35279101  0.72322626  1.0
  S  S26  1  1.12013964  0.46843429  0.48629236  1.0
  S  S27  1  0.53156571  -0.12013964  0.98629236  1.0
