# generated using pymatgen
data_TaMoN
_symmetry_space_group_name_H-M   'P 1'
_cell_length_a   3.09162560
_cell_length_b   3.09162560
_cell_length_c   7.82667017
_cell_angle_alpha   90.00000000
_cell_angle_beta   90.00000000
_cell_angle_gamma   90.00000000
_symmetry_Int_Tables_number   1
_chemical_formula_structural   TaMoN
_chemical_formula_sum   'Ta2 Mo2 N2'
_cell_volume   74.80847838
_cell_formula_units_Z   2
loop_
 _symmetry_equiv_pos_site_id
 _symmetry_equiv_pos_as_xyz
  1  'x, y, z'
loop_
 _atom_site_type_symbol
 _atom_site_label
 _atom_site_symmetry_multiplicity
 _atom_site_fract_x
 _atom_site_fract_y
 _atom_site_fract_z
 _atom_site_occupancy
  Ta  Ta0  1  0.50000000  0.00000000  0.66480000  1.0
  Ta  Ta1  1  0.00000000  0.50000000  0.33520000  1.0
  Mo  Mo2  1  0.50000000  0.00000000  0.09681830  1.0
  Mo  Mo3  1  0.00000000  0.50000000  0.90318170  1.0
  N  N4  1  0.50000000  0.00000000  0.37546372  1.0
  N  N5  1  0.00000000  0.50000000  0.62453628  1.0
