# generated using pymatgen
data_Nb3AgTe4
_symmetry_space_group_name_H-M   'P 1'
_cell_length_a   9.84744623
_cell_length_b   9.84744623
_cell_length_c   4.68167385
_cell_angle_alpha   90.00000000
_cell_angle_beta   90.00000000
_cell_angle_gamma   120.00000000
_symmetry_Int_Tables_number   1
_chemical_formula_structural   Nb3AgTe4
_chemical_formula_sum   'Nb6 Ag2 Te8'
_cell_volume   393.16877867
_cell_formula_units_Z   2
loop_
 _symmetry_equiv_pos_site_id
 _symmetry_equiv_pos_as_xyz
  1  'x, y, z'
loop_
 _atom_site_type_symbol
 _atom_site_label
 _atom_site_symmetry_multiplicity
 _atom_site_fract_x
 _atom_site_fract_y
 _atom_site_fract_z
 _atom_site_occupancy
  Nb  Nb0  1  0.35771702  0.85091122  0.25000000  1.0
  Nb  Nb1  1  0.85091122  0.49319420  0.75000000  1.0
  Nb  Nb2  1  0.49319420  0.64228298  0.25000000  1.0
  Nb  Nb3  1  0.14908878  0.50680580  0.25000000  1.0
  Nb  Nb4  1  0.64228298  0.14908878  0.75000000  1.0
  Nb  Nb5  1  0.50680580  0.35771702  0.75000000  1.0
  Ag  Ag6  1  -0.00000000  0.00000000  0.25000000  1.0
  Ag  Ag7  1  0.00000000  -0.00000000  0.75000000  1.0
  Te  Te8  1  0.01096775  0.69809811  0.25000000  1.0
  Te  Te9  1  0.69809811  0.68713036  0.75000000  1.0
  Te  Te10  1  0.68713036  0.98903225  0.25000000  1.0
  Te  Te11  1  0.30190189  0.31286964  0.25000000  1.0
  Te  Te12  1  0.98903225  0.30190189  0.75000000  1.0
  Te  Te13  1  0.31286964  0.01096775  0.75000000  1.0
  Te  Te14  1  0.66666667  0.33333333  0.25000000  1.0
  Te  Te15  1  0.33333333  0.66666667  0.75000000  1.0
