# generated using pymatgen
data_CsTlO2
_symmetry_space_group_name_H-M   'P 1'
_cell_length_a   7.05846856
_cell_length_b   7.05846856
_cell_length_c   7.05846856
_cell_angle_alpha   29.58095312
_cell_angle_beta   29.58095312
_cell_angle_gamma   29.58095312
_symmetry_Int_Tables_number   1
_chemical_formula_structural   CsTlO2
_chemical_formula_sum   'Cs1 Tl1 O2'
_cell_volume   75.86360289
_cell_formula_units_Z   1
loop_
 _symmetry_equiv_pos_site_id
 _symmetry_equiv_pos_as_xyz
  1  'x, y, z'
loop_
 _atom_site_type_symbol
 _atom_site_label
 _atom_site_symmetry_multiplicity
 _atom_site_fract_x
 _atom_site_fract_y
 _atom_site_fract_z
 _atom_site_occupancy
  Cs  Cs0  1  0.00000000  -0.00000000  0.00000000  1.0
  Tl  Tl1  1  1.50000000  0.50000000  0.50000000  1.0
  O  O2  1  0.77539984  0.77539984  0.77539984  1.0
  O  O3  1  1.22460016  1.22460016  0.22460016  1.0
