# generated using pymatgen
data_Zn5B3Rh7
_symmetry_space_group_name_H-M   'P 1'
_cell_length_a   11.10367555
_cell_length_b   2.85043556
_cell_length_c   11.78419518
_cell_angle_alpha   90.00000000
_cell_angle_beta   90.00000000
_cell_angle_gamma   90.00000000
_symmetry_Int_Tables_number   1
_chemical_formula_structural   Zn5B3Rh7
_chemical_formula_sum   'Zn10 B6 Rh14'
_cell_volume   372.97344998
_cell_formula_units_Z   2
loop_
 _symmetry_equiv_pos_site_id
 _symmetry_equiv_pos_as_xyz
  1  'x, y, z'
loop_
 _atom_site_type_symbol
 _atom_site_label
 _atom_site_symmetry_multiplicity
 _atom_site_fract_x
 _atom_site_fract_y
 _atom_site_fract_z
 _atom_site_occupancy
  Zn  Zn0  1  0.95223005  0.50000000  0.63435878  1.0
  Zn  Zn1  1  0.45223005  0.50000000  0.36564122  1.0
  Zn  Zn2  1  0.04776995  0.50000000  0.36564122  1.0
  Zn  Zn3  1  0.54776995  0.50000000  0.63435878  1.0
  Zn  Zn4  1  0.37036708  0.50000000  0.15258574  1.0
  Zn  Zn5  1  0.87036708  0.50000000  0.84741426  1.0
  Zn  Zn6  1  0.62963292  0.50000000  0.84741426  1.0
  Zn  Zn7  1  0.12963292  0.50000000  0.15258574  1.0
  Zn  Zn8  1  0.75000000  0.50000000  0.31162234  1.0
  Zn  Zn9  1  0.25000000  0.50000000  0.68837766  1.0
  B  B10  1  0.88193697  0.50000000  0.09330544  1.0
  B  B11  1  0.38193697  0.50000000  0.90669456  1.0
  B  B12  1  0.11806303  0.50000000  0.90669456  1.0
  B  B13  1  0.61806303  0.50000000  0.09330544  1.0
  B  B14  1  0.75000000  0.50000000  0.53922414  1.0
  B  B15  1  0.25000000  0.50000000  0.46077586  1.0
  Rh  Rh16  1  0.92102504  0.00000000  0.21956373  1.0
  Rh  Rh17  1  0.42102504  0.00000000  0.78043627  1.0
  Rh  Rh18  1  0.07897496  0.00000000  0.78043627  1.0
  Rh  Rh19  1  0.57897496  0.00000000  0.21956373  1.0
  Rh  Rh20  1  0.87394352  0.00000000  0.46369703  1.0
  Rh  Rh21  1  0.37394352  0.00000000  0.53630297  1.0
  Rh  Rh22  1  0.12605648  0.00000000  0.53630297  1.0
  Rh  Rh23  1  0.62605648  0.00000000  0.46369703  1.0
  Rh  Rh24  1  0.75000000  0.00000000  0.02497817  1.0
  Rh  Rh25  1  0.25000000  0.00000000  0.97502183  1.0
  Rh  Rh26  1  0.75000000  0.00000000  0.68209644  1.0
  Rh  Rh27  1  0.25000000  0.00000000  0.31790356  1.0
  Rh  Rh28  1  0.00000000  0.00000000  0.00000000  1.0
  Rh  Rh29  1  0.50000000  0.00000000  0.00000000  1.0
