# generated using pymatgen
data_EuRe2
_symmetry_space_group_name_H-M   'P 1'
_cell_length_a   5.48174447
_cell_length_b   5.48174447
_cell_length_c   8.79888637
_cell_angle_alpha   90.00000000
_cell_angle_beta   90.00000000
_cell_angle_gamma   120.00000000
_symmetry_Int_Tables_number   1
_chemical_formula_structural   EuRe2
_chemical_formula_sum   'Eu4 Re8'
_cell_volume   228.97913741
_cell_formula_units_Z   4
loop_
 _symmetry_equiv_pos_site_id
 _symmetry_equiv_pos_as_xyz
  1  'x, y, z'
loop_
 _atom_site_type_symbol
 _atom_site_label
 _atom_site_symmetry_multiplicity
 _atom_site_fract_x
 _atom_site_fract_y
 _atom_site_fract_z
 _atom_site_occupancy
  Eu  Eu0  1  0.33333333  0.66666667  0.93692736  1.0
  Eu  Eu1  1  0.33333333  0.66666667  0.56307264  1.0
  Eu  Eu2  1  0.66666667  0.33333333  0.43692736  1.0
  Eu  Eu3  1  0.66666667  0.33333333  0.06307264  1.0
  Re  Re4  1  0.17039550  0.82960450  0.25000000  1.0
  Re  Re5  1  0.17039550  0.34079101  0.25000000  1.0
  Re  Re6  1  0.82960450  0.17039550  0.75000000  1.0
  Re  Re7  1  0.82960450  0.65920899  0.75000000  1.0
  Re  Re8  1  0.65920899  0.82960450  0.25000000  1.0
  Re  Re9  1  0.34079101  0.17039550  0.75000000  1.0
  Re  Re10  1  0.00000000  0.00000000  0.50000000  1.0
  Re  Re11  1  -0.00000000  -0.00000000  -0.00000000  1.0
