# generated using pymatgen
data_YGa6
_symmetry_space_group_name_H-M   'P 1'
_cell_length_a   5.98168174
_cell_length_b   5.98168174
_cell_length_c   7.59490335
_cell_angle_alpha   90.00000000
_cell_angle_beta   90.00000000
_cell_angle_gamma   90.00000000
_symmetry_Int_Tables_number   1
_chemical_formula_structural   YGa6
_chemical_formula_sum   'Y2 Ga12'
_cell_volume   271.74956412
_cell_formula_units_Z   2
loop_
 _symmetry_equiv_pos_site_id
 _symmetry_equiv_pos_as_xyz
  1  'x, y, z'
loop_
 _atom_site_type_symbol
 _atom_site_label
 _atom_site_symmetry_multiplicity
 _atom_site_fract_x
 _atom_site_fract_y
 _atom_site_fract_z
 _atom_site_occupancy
  Y  Y0  1  0.50000000  0.00000000  0.00000000  1.0
  Y  Y1  1  0.00000000  0.50000000  0.00000000  1.0
  Ga  Ga2  1  0.82160654  0.67839346  0.35200563  1.0
  Ga  Ga3  1  0.82160654  0.32160654  0.64799437  1.0
  Ga  Ga4  1  0.32160654  0.17839346  0.64799437  1.0
  Ga  Ga5  1  0.32160654  0.82160654  0.35200563  1.0
  Ga  Ga6  1  0.67839346  0.82160654  0.64799437  1.0
  Ga  Ga7  1  0.67839346  0.17839346  0.35200563  1.0
  Ga  Ga8  1  0.17839346  0.32160654  0.35200563  1.0
  Ga  Ga9  1  0.17839346  0.67839346  0.64799437  1.0
  Ga  Ga10  1  0.00000000  0.00000000  0.16162270  1.0
  Ga  Ga11  1  0.00000000  0.00000000  0.83837730  1.0
  Ga  Ga12  1  0.50000000  0.50000000  0.83837730  1.0
  Ga  Ga13  1  0.50000000  0.50000000  0.16162270  1.0
