# generated using pymatgen
data_Tl2Ni(CN)4
_symmetry_space_group_name_H-M   'P 1'
_cell_length_a   6.38437790
_cell_length_b   7.35738262
_cell_length_c   9.82300083
_cell_angle_alpha   90.00000000
_cell_angle_beta   112.04552446
_cell_angle_gamma   90.00000000
_symmetry_Int_Tables_number   1
_chemical_formula_structural   Tl2Ni(CN)4
_chemical_formula_sum   'Tl4 Ni2 C8 N8'
_cell_volume   427.67355024
_cell_formula_units_Z   2
loop_
 _symmetry_equiv_pos_site_id
 _symmetry_equiv_pos_as_xyz
  1  'x, y, z'
loop_
 _atom_site_type_symbol
 _atom_site_label
 _atom_site_symmetry_multiplicity
 _atom_site_fract_x
 _atom_site_fract_y
 _atom_site_fract_z
 _atom_site_occupancy
  Tl  Tl0  1  0.70010523  0.84977054  0.42046213  1.0
  Tl  Tl1  1  0.70010523  0.65022946  0.92046213  1.0
  Tl  Tl2  1  0.29989477  0.34977054  0.07953787  1.0
  Tl  Tl3  1  0.29989477  0.15022946  0.57953787  1.0
  Ni  Ni4  1  -0.00000000  0.50000000  0.50000000  1.0
  Ni  Ni5  1  -0.00000000  0.00000000  -0.00000000  1.0
  C  C6  1  0.99486126  0.50098673  0.31082347  1.0
  C  C7  1  0.99486126  -0.00098673  0.81082347  1.0
  C  C8  1  0.00513874  1.00098673  0.18917653  1.0
  C  C9  1  0.00513874  0.49901327  0.68917653  1.0
  C  C10  1  0.75259310  0.34630748  0.44155383  1.0
  C  C11  1  0.75259310  0.15369252  0.94155383  1.0
  C  C12  1  0.24740690  0.84630748  0.05844617  1.0
  C  C13  1  0.24740690  0.65369252  0.55844617  1.0
  N  N14  1  0.99133092  0.99816489  0.69058035  1.0
  N  N15  1  0.99133092  0.50183511  0.19058035  1.0
  N  N16  1  0.00866908  0.49816489  0.80941965  1.0
  N  N17  1  0.00866908  0.00183511  0.30941965  1.0
  N  N18  1  0.59763323  0.24638687  0.40359720  1.0
  N  N19  1  0.59763323  0.25361313  0.90359720  1.0
  N  N20  1  0.40236677  0.74638687  0.09640280  1.0
  N  N21  1  0.40236677  0.75361313  0.59640280  1.0
