# generated using pymatgen
data_Ba3Au2
_symmetry_space_group_name_H-M   'P 1'
_cell_length_a   8.75831740
_cell_length_b   8.75831740
_cell_length_c   8.75831740
_cell_angle_alpha   70.98189918
_cell_angle_beta   70.98189918
_cell_angle_gamma   70.98189918
_symmetry_Int_Tables_number   1
_chemical_formula_structural   Ba3Au2
_chemical_formula_sum   'Ba9 Au6'
_cell_volume   582.07338281
_cell_formula_units_Z   3
loop_
 _symmetry_equiv_pos_site_id
 _symmetry_equiv_pos_as_xyz
  1  'x, y, z'
loop_
 _atom_site_type_symbol
 _atom_site_label
 _atom_site_symmetry_multiplicity
 _atom_site_fract_x
 _atom_site_fract_y
 _atom_site_fract_z
 _atom_site_occupancy
  Ba  Ba0  1  0.84707177  0.60085246  -0.67167671  1.0
  Ba  Ba1  1  0.39914754  0.67167671  -0.84707177  1.0
  Ba  Ba2  1  0.67167671  0.15292823  -0.60085246  1.0
  Ba  Ba3  1  0.15292823  0.39914754  -0.32832329  1.0
  Ba  Ba4  1  0.60085246  0.32832329  -0.15292823  1.0
  Ba  Ba5  1  0.32832329  0.84707177  -0.39914754  1.0
  Ba  Ba6  1  0.80096609  0.80096609  -0.19903391  1.0
  Ba  Ba7  1  1.19903391  1.19903391  0.19903391  1.0
  Ba  Ba8  1  0.00000000  0.00000000  0.00000000  1.0
  Au  Au9  1  0.59298673  -0.04482120  0.16444330  1.0
  Au  Au10  1  1.04482120  -0.16444330  -0.59298673  1.0
  Au  Au11  1  0.83555670  -0.59298673  0.04482120  1.0
  Au  Au12  1  0.40701327  0.04482120  -0.16444330  1.0
  Au  Au13  1  0.95517880  0.16444330  -0.40701327  1.0
  Au  Au14  1  1.16444330  -0.40701327  -0.04482120  1.0
