# generated using pymatgen
data_Gd(GeRh2)2
_symmetry_space_group_name_H-M   'P 1'
_cell_length_a   11.52335608
_cell_length_b   4.21049419
_cell_length_c   9.22885123
_cell_angle_alpha   90.00000000
_cell_angle_beta   90.00000000
_cell_angle_gamma   90.00000000
_symmetry_Int_Tables_number   1
_chemical_formula_structural   Gd(GeRh2)2
_chemical_formula_sum   'Gd4 Ge8 Rh16'
_cell_volume   447.77485241
_cell_formula_units_Z   4
loop_
 _symmetry_equiv_pos_site_id
 _symmetry_equiv_pos_as_xyz
  1  'x, y, z'
loop_
 _atom_site_type_symbol
 _atom_site_label
 _atom_site_symmetry_multiplicity
 _atom_site_fract_x
 _atom_site_fract_y
 _atom_site_fract_z
 _atom_site_occupancy
  Gd  Gd0  1  0.17390987  0.75000000  0.84893540  1.0
  Gd  Gd1  1  0.67390987  0.75000000  0.65106460  1.0
  Gd  Gd2  1  0.82609013  0.25000000  0.15106460  1.0
  Gd  Gd3  1  0.32609013  0.25000000  0.34893540  1.0
  Ge  Ge4  1  0.44133294  0.75000000  0.11718576  1.0
  Ge  Ge5  1  0.94133294  0.75000000  0.38281424  1.0
  Ge  Ge6  1  0.55866706  0.25000000  0.88281424  1.0
  Ge  Ge7  1  0.05866706  0.25000000  0.61718576  1.0
  Ge  Ge8  1  0.36222058  0.75000000  0.58554532  1.0
  Ge  Ge9  1  0.86222058  0.75000000  0.91445468  1.0
  Ge  Ge10  1  0.63777942  0.25000000  0.41445468  1.0
  Ge  Ge11  1  0.13777942  0.25000000  0.08554532  1.0
  Rh  Rh12  1  0.43927828  0.75000000  0.82824908  1.0
  Rh  Rh13  1  0.93927828  0.75000000  0.67175092  1.0
  Rh  Rh14  1  0.56072172  0.25000000  0.17175092  1.0
  Rh  Rh15  1  0.06072172  0.25000000  0.32824908  1.0
  Rh  Rh16  1  0.23047554  0.75000000  0.18681875  1.0
  Rh  Rh17  1  0.73047554  0.75000000  0.31318125  1.0
  Rh  Rh18  1  0.76952446  0.25000000  0.81318125  1.0
  Rh  Rh19  1  0.26952446  0.25000000  0.68681875  1.0
  Rh  Rh20  1  0.15439947  0.75000000  0.50333364  1.0
  Rh  Rh21  1  0.65439947  0.75000000  0.99666636  1.0
  Rh  Rh22  1  0.84560053  0.25000000  0.49666636  1.0
  Rh  Rh23  1  0.34560053  0.25000000  0.00333364  1.0
  Rh  Rh24  1  0.00222810  0.75000000  0.11559596  1.0
  Rh  Rh25  1  0.50222810  0.75000000  0.38440404  1.0
  Rh  Rh26  1  0.99777190  0.25000000  0.88440404  1.0
  Rh  Rh27  1  0.49777190  0.25000000  0.61559596  1.0
