# generated using pymatgen
data_FeAg3(CN)6
_symmetry_space_group_name_H-M   'P 1'
_cell_length_a   7.62487748
_cell_length_b   7.62487748
_cell_length_c   6.71299502
_cell_angle_alpha   90.00000000
_cell_angle_beta   90.00000000
_cell_angle_gamma   120.00000000
_symmetry_Int_Tables_number   1
_chemical_formula_structural   FeAg3(CN)6
_chemical_formula_sum   'Fe1 Ag3 C6 N6'
_cell_volume   337.99688374
_cell_formula_units_Z   1
loop_
 _symmetry_equiv_pos_site_id
 _symmetry_equiv_pos_as_xyz
  1  'x, y, z'
loop_
 _atom_site_type_symbol
 _atom_site_label
 _atom_site_symmetry_multiplicity
 _atom_site_fract_x
 _atom_site_fract_y
 _atom_site_fract_z
 _atom_site_occupancy
  Fe  Fe0  1  0.00000000  0.00000000  0.00000000  1.0
  Ag  Ag1  1  0.50000000  0.50000000  0.50000000  1.0
  Ag  Ag2  1  0.50000000  0.00000000  0.50000000  1.0
  Ag  Ag3  1  0.00000000  0.50000000  0.50000000  1.0
  C  C4  1  0.79971271  0.79971271  0.16850715  1.0
  C  C5  1  0.79971271  0.00000000  0.83149285  1.0
  C  C6  1  0.00000000  0.79971271  0.83149285  1.0
  C  C7  1  -0.00000000  0.20028729  0.16850715  1.0
  C  C8  1  0.20028729  0.20028729  0.83149285  1.0
  C  C9  1  0.20028729  0.00000000  0.16850715  1.0
  N  N10  1  0.68074455  0.68074455  0.27854499  1.0
  N  N11  1  0.68074455  0.00000000  0.72145501  1.0
  N  N12  1  0.00000000  0.68074455  0.72145501  1.0
  N  N13  1  -0.00000000  0.31925545  0.27854499  1.0
  N  N14  1  0.31925545  0.31925545  0.72145501  1.0
  N  N15  1  0.31925545  0.00000000  0.27854499  1.0
