# generated using pymatgen
data_GdGaPt
_symmetry_space_group_name_H-M   'P 1'
_cell_length_a   6.99712801
_cell_length_b   4.46562411
_cell_length_c   7.74460666
_cell_angle_alpha   90.00000000
_cell_angle_beta   90.00000000
_cell_angle_gamma   90.00000000
_symmetry_Int_Tables_number   1
_chemical_formula_structural   GdGaPt
_chemical_formula_sum   'Gd4 Ga4 Pt4'
_cell_volume   241.99218911
_cell_formula_units_Z   4
loop_
 _symmetry_equiv_pos_site_id
 _symmetry_equiv_pos_as_xyz
  1  'x, y, z'
loop_
 _atom_site_type_symbol
 _atom_site_label
 _atom_site_symmetry_multiplicity
 _atom_site_fract_x
 _atom_site_fract_y
 _atom_site_fract_z
 _atom_site_occupancy
  Gd  Gd0  1  1.01732179  0.75000000  0.69677869  1.0
  Gd  Gd1  1  0.51732179  0.75000000  0.80322131  1.0
  Gd  Gd2  1  -0.01732179  0.25000000  0.30322131  1.0
  Gd  Gd3  1  0.48267821  0.25000000  0.19677869  1.0
  Ga  Ga4  1  0.66914097  0.75000000  0.42515042  1.0
  Ga  Ga5  1  0.16914097  0.75000000  0.07484958  1.0
  Ga  Ga6  1  0.33085903  0.25000000  0.57484958  1.0
  Ga  Ga7  1  0.83085903  0.25000000  0.92515042  1.0
  Pt  Pt8  1  0.77792894  0.75000000  0.09951877  1.0
  Pt  Pt9  1  0.27792894  0.75000000  0.40048123  1.0
  Pt  Pt10  1  0.22207106  0.25000000  0.90048123  1.0
  Pt  Pt11  1  0.72207106  0.25000000  0.59951877  1.0
