# generated using pymatgen
data_BNCl
_symmetry_space_group_name_H-M   'P 1'
_cell_length_a   13.84895245
_cell_length_b   13.93152453
_cell_length_c   4.25607509
_cell_angle_alpha   90.00000000
_cell_angle_beta   90.00000000
_cell_angle_gamma   90.00000000
_symmetry_Int_Tables_number   1
_chemical_formula_structural   BNCl
_chemical_formula_sum   'B12 N12 Cl12'
_cell_volume   821.15444771
_cell_formula_units_Z   12
loop_
 _symmetry_equiv_pos_site_id
 _symmetry_equiv_pos_as_xyz
  1  'x, y, z'
loop_
 _atom_site_type_symbol
 _atom_site_label
 _atom_site_symmetry_multiplicity
 _atom_site_fract_x
 _atom_site_fract_y
 _atom_site_fract_z
 _atom_site_occupancy
  B  B0  1  0.58029146  0.34218746  0.27723789  1.0
  B  B1  1  0.58029146  0.15781254  0.27723789  1.0
  B  B2  1  0.08029146  0.34218746  0.22276211  1.0
  B  B3  1  0.08029146  0.15781254  0.22276211  1.0
  B  B4  1  0.41970854  0.84218746  0.72276211  1.0
  B  B5  1  0.41970854  0.65781254  0.72276211  1.0
  B  B6  1  0.91970854  0.84218746  0.77723789  1.0
  B  B7  1  0.91970854  0.65781254  0.77723789  1.0
  B  B8  1  0.45083241  0.25000000  0.59365176  1.0
  B  B9  1  0.95083241  0.25000000  0.90634824  1.0
  B  B10  1  0.54916759  0.75000000  0.40634824  1.0
  B  B11  1  0.04916759  0.75000000  0.09365176  1.0
  N  N12  1  0.99841155  0.33397763  0.01821777  1.0
  N  N13  1  0.99841155  0.16602237  0.01821777  1.0
  N  N14  1  0.49841155  0.33397763  0.48178223  1.0
  N  N15  1  0.49841155  0.16602237  0.48178223  1.0
  N  N16  1  0.00158845  0.83397763  0.98178223  1.0
  N  N17  1  0.00158845  0.66602237  0.98178223  1.0
  N  N18  1  0.50158845  0.83397763  0.51821777  1.0
  N  N19  1  0.50158845  0.66602237  0.51821777  1.0
  N  N20  1  0.61138737  0.25000000  0.17694432  1.0
  N  N21  1  0.11138737  0.25000000  0.32305568  1.0
  N  N22  1  0.38861263  0.75000000  0.82305568  1.0
  N  N23  1  0.88861263  0.75000000  0.67694432  1.0
  Cl  Cl24  1  0.63462730  0.45138015  0.17422194  1.0
  Cl  Cl25  1  0.63462730  0.04861985  0.17422194  1.0
  Cl  Cl26  1  0.13462730  0.45138015  0.32577806  1.0
  Cl  Cl27  1  0.13462730  0.04861985  0.32577806  1.0
  Cl  Cl28  1  0.36537270  0.95138015  0.82577806  1.0
  Cl  Cl29  1  0.36537270  0.54861985  0.82577806  1.0
  Cl  Cl30  1  0.86537270  0.95138015  0.67422194  1.0
  Cl  Cl31  1  0.86537270  0.54861985  0.67422194  1.0
  Cl  Cl32  1  0.84763769  0.25000000  0.66543165  1.0
  Cl  Cl33  1  0.34763769  0.25000000  0.83456835  1.0
  Cl  Cl34  1  0.15236231  0.75000000  0.33456835  1.0
  Cl  Cl35  1  0.65236231  0.75000000  0.16543165  1.0
