# generated using pymatgen
data_NaSiBO4
_symmetry_space_group_name_H-M   'P 1'
_cell_length_a   8.14233817
_cell_length_b   8.14233817
_cell_length_c   7.80437954
_cell_angle_alpha   90.00000000
_cell_angle_beta   90.00000000
_cell_angle_gamma   120.00000000
_symmetry_Int_Tables_number   1
_chemical_formula_structural   NaSiBO4
_chemical_formula_sum   'Na6 Si6 B6 O24'
_cell_volume   448.09209806
_cell_formula_units_Z   6
loop_
 _symmetry_equiv_pos_site_id
 _symmetry_equiv_pos_as_xyz
  1  'x, y, z'
loop_
 _atom_site_type_symbol
 _atom_site_label
 _atom_site_symmetry_multiplicity
 _atom_site_fract_x
 _atom_site_fract_y
 _atom_site_fract_z
 _atom_site_occupancy
  Na  Na0  1  0.33333333  0.66666667  0.02980106  1.0
  Na  Na1  1  0.66666667  0.33333333  0.52980106  1.0
  Na  Na2  1  0.33333333  0.66666667  0.46791093  1.0
  Na  Na3  1  0.66666667  0.33333333  0.96791093  1.0
  Na  Na4  1  0.00000000  0.00000000  0.00191633  1.0
  Na  Na5  1  0.00000000  0.00000000  0.50191633  1.0
  Si  Si6  1  0.33876542  0.02040115  0.21925558  1.0
  Si  Si7  1  0.02040115  0.68163573  0.71925558  1.0
  Si  Si8  1  0.68163573  0.66123458  0.21925558  1.0
  Si  Si9  1  0.97959885  0.31836427  0.21925558  1.0
  Si  Si10  1  0.66123458  0.97959885  0.71925558  1.0
  Si  Si11  1  0.31836427  0.33876542  0.71925558  1.0
  B  B12  1  0.01696579  0.67899675  0.33925448  1.0
  B  B13  1  0.67899675  0.66203095  0.83925448  1.0
  B  B14  1  0.66203095  0.98303421  0.33925448  1.0
  B  B15  1  0.32100325  0.33796905  0.33925448  1.0
  B  B16  1  0.98303421  0.32100325  0.83925448  1.0
  B  B17  1  0.33796905  0.01696579  0.83925448  1.0
  O  O18  1  0.36628660  0.08810304  0.01886058  1.0
  O  O19  1  0.08810304  0.72181644  0.51886058  1.0
  O  O20  1  0.72181644  0.63371340  0.01886058  1.0
  O  O21  1  0.91189696  0.27818356  0.01886058  1.0
  O  O22  1  0.63371340  0.91189696  0.51886058  1.0
  O  O23  1  0.27818356  0.36628660  0.51886058  1.0
  O  O24  1  0.47176979  0.92830528  0.26634607  1.0
  O  O25  1  0.92830528  0.45653549  0.76634607  1.0
  O  O26  1  0.45653549  0.52823021  0.26634607  1.0
  O  O27  1  0.07169472  0.54346451  0.26634607  1.0
  O  O28  1  0.52823021  0.07169472  0.76634607  1.0
  O  O29  1  0.54346451  0.47176979  0.76634607  1.0
  O  O30  1  0.11377988  0.85913707  0.24269429  1.0
  O  O31  1  0.85913707  0.74535719  0.74269429  1.0
  O  O32  1  0.74535719  0.88622012  0.24269429  1.0
  O  O33  1  0.14086293  0.25464281  0.24269429  1.0
  O  O34  1  0.88622012  0.14086293  0.74269429  1.0
  O  O35  1  0.25464281  0.11377988  0.74269429  1.0
  O  O36  1  0.81009973  0.60079701  0.33724622  1.0
  O  O37  1  0.60079701  0.79069728  0.83724622  1.0
  O  O38  1  0.79069728  0.18990027  0.33724622  1.0
  O  O39  1  0.39920299  0.20930272  0.33724622  1.0
  O  O40  1  0.18990027  0.39920299  0.83724622  1.0
  O  O41  1  0.20930272  0.81009973  0.83724622  1.0
