# generated using pymatgen
data_MgMn2O4
_symmetry_space_group_name_H-M   'P 1'
_cell_length_a   2.99281766
_cell_length_b   9.83625428
_cell_length_c   9.54580072
_cell_angle_alpha   90.00000000
_cell_angle_beta   90.00000000
_cell_angle_gamma   90.00000000
_symmetry_Int_Tables_number   1
_chemical_formula_structural   MgMn2O4
_chemical_formula_sum   'Mg4 Mn8 O16'
_cell_volume   281.01038375
_cell_formula_units_Z   4
loop_
 _symmetry_equiv_pos_site_id
 _symmetry_equiv_pos_as_xyz
  1  'x, y, z'
loop_
 _atom_site_type_symbol
 _atom_site_label
 _atom_site_symmetry_multiplicity
 _atom_site_fract_x
 _atom_site_fract_y
 _atom_site_fract_z
 _atom_site_occupancy
  Mg  Mg0  1  0.32758965  0.35438825  0.25000000  1.0
  Mg  Mg1  1  0.32758965  0.14561175  0.75000000  1.0
  Mg  Mg2  1  0.67241035  0.85438825  0.25000000  1.0
  Mg  Mg3  1  0.67241035  0.64561175  0.75000000  1.0
  Mn  Mn4  1  0.80086727  0.11536168  0.42896815  1.0
  Mn  Mn5  1  0.80086727  0.11536168  0.07103185  1.0
  Mn  Mn6  1  0.80086727  0.38463832  0.92896815  1.0
  Mn  Mn7  1  0.80086727  0.38463832  0.57103185  1.0
  Mn  Mn8  1  0.19913273  0.61536168  0.42896815  1.0
  Mn  Mn9  1  0.19913273  0.61536168  0.07103185  1.0
  Mn  Mn10  1  0.19913273  0.88463832  0.92896815  1.0
  Mn  Mn11  1  0.19913273  0.88463832  0.57103185  1.0
  O  O12  1  0.80150333  0.46675612  0.38542212  1.0
  O  O13  1  0.80150333  0.46675612  0.11457788  1.0
  O  O14  1  0.80150333  0.03324388  0.88542212  1.0
  O  O15  1  0.80150333  0.03324388  0.61457788  1.0
  O  O16  1  0.19849667  0.96675612  0.38542212  1.0
  O  O17  1  0.19849667  0.96675612  0.11457788  1.0
  O  O18  1  0.19849667  0.53324388  0.88542212  1.0
  O  O19  1  0.19849667  0.53324388  0.61457788  1.0
  O  O20  1  0.82282291  0.20531830  0.25000000  1.0
  O  O21  1  0.82282291  0.29468170  0.75000000  1.0
  O  O22  1  0.17717709  0.70531830  0.25000000  1.0
  O  O23  1  0.17717709  0.79468170  0.75000000  1.0
  O  O24  1  0.38494341  0.25000000  0.50000000  1.0
  O  O25  1  0.38494341  0.25000000  0.00000000  1.0
  O  O26  1  0.61505659  0.75000000  0.50000000  1.0
  O  O27  1  0.61505659  0.75000000  -0.00000000  1.0
