# generated using pymatgen
data_H10SO8
_symmetry_space_group_name_H-M   'P 1'
_cell_length_a   7.53191180
_cell_length_b   7.53191180
_cell_length_c   6.88203589
_cell_angle_alpha   90.00000000
_cell_angle_beta   90.00000000
_cell_angle_gamma   90.00000000
_symmetry_Int_Tables_number   1
_chemical_formula_structural   H10SO8
_chemical_formula_sum   'H20 S2 O16'
_cell_volume   390.41579967
_cell_formula_units_Z   2
loop_
 _symmetry_equiv_pos_site_id
 _symmetry_equiv_pos_as_xyz
  1  'x, y, z'
loop_
 _atom_site_type_symbol
 _atom_site_label
 _atom_site_symmetry_multiplicity
 _atom_site_fract_x
 _atom_site_fract_y
 _atom_site_fract_z
 _atom_site_occupancy
  H  H0  1  0.19276431  0.35269403  0.37947026  1.0
  H  H1  1  0.30723569  0.85269403  0.12052974  1.0
  H  H2  1  0.64730597  0.19276431  0.62052974  1.0
  H  H3  1  0.85269403  0.69276431  0.87947026  1.0
  H  H4  1  0.80723569  0.64730597  0.37947026  1.0
  H  H5  1  0.69276431  0.14730597  0.12052974  1.0
  H  H6  1  0.35269403  0.80723569  0.62052974  1.0
  H  H7  1  0.14730597  0.30723569  0.87947026  1.0
  H  H8  1  0.01161165  0.26917041  0.28669464  1.0
  H  H9  1  0.48838835  0.76917041  0.21330536  1.0
  H  H10  1  0.73082959  0.01161165  0.71330536  1.0
  H  H11  1  0.76917041  0.51161165  0.78669464  1.0
  H  H12  1  0.98838835  0.73082959  0.28669464  1.0
  H  H13  1  0.51161165  0.23082959  0.21330536  1.0
  H  H14  1  0.26917041  0.98838835  0.71330536  1.0
  H  H15  1  0.23082959  0.48838835  0.78669464  1.0
  H  H16  1  0.00000000  0.50000000  0.37988278  1.0
  H  H17  1  0.50000000  0.00000000  0.12011722  1.0
  H  H18  1  0.50000000  0.00000000  0.62011722  1.0
  H  H19  1  0.00000000  0.50000000  0.87988278  1.0
  S  S20  1  0.50000000  0.50000000  0.50000000  1.0
  S  S21  1  0.00000000  0.00000000  -0.00000000  1.0
  O  O22  1  0.41185959  0.36189791  0.37645820  1.0
  O  O23  1  0.08814041  0.86189791  0.12354180  1.0
  O  O24  1  0.63810209  0.41185959  0.62354180  1.0
  O  O25  1  0.86189791  0.91185959  0.87645820  1.0
  O  O26  1  0.58814041  0.63810209  0.37645820  1.0
  O  O27  1  0.91185959  0.13810209  0.12354180  1.0
  O  O28  1  0.36189791  0.58814041  0.62354180  1.0
  O  O29  1  0.13810209  0.08814041  0.87645820  1.0
  O  O30  1  0.05968503  0.35087895  0.38880362  1.0
  O  O31  1  0.44031497  0.85087895  0.11119638  1.0
  O  O32  1  0.64912105  0.05968503  0.61119638  1.0
  O  O33  1  0.85087895  0.55968503  0.88880362  1.0
  O  O34  1  0.94031497  0.64912105  0.38880362  1.0
  O  O35  1  0.55968503  0.14912105  0.11119638  1.0
  O  O36  1  0.35087895  0.94031497  0.61119638  1.0
  O  O37  1  0.14912105  0.44031497  0.88880362  1.0
