# generated using pymatgen
data_Ce2Ga2Fe15
_symmetry_space_group_name_H-M   'P 1'
_cell_length_a   6.43905678
_cell_length_b   6.43905678
_cell_length_c   6.43905678
_cell_angle_alpha   81.57994528
_cell_angle_beta   81.57994528
_cell_angle_gamma   81.57994528
_symmetry_Int_Tables_number   1
_chemical_formula_structural   Ce2Ga2Fe15
_chemical_formula_sum   'Ce2 Ga2 Fe15'
_cell_volume   259.10857181
_cell_formula_units_Z   1
loop_
 _symmetry_equiv_pos_site_id
 _symmetry_equiv_pos_as_xyz
  1  'x, y, z'
loop_
 _atom_site_type_symbol
 _atom_site_label
 _atom_site_symmetry_multiplicity
 _atom_site_fract_x
 _atom_site_fract_y
 _atom_site_fract_z
 _atom_site_occupancy
  Ce  Ce0  1  0.65211849  0.65211849  -0.34788151  1.0
  Ce  Ce1  1  0.34788151  0.34788151  -0.65211849  1.0
  Ga  Ga2  1  0.89853232  0.89853232  -0.10146768  1.0
  Ga  Ga3  1  1.10146768  1.10146768  0.10146768  1.0
  Fe  Fe4  1  1.00000000  -0.00000000  -0.50000000  1.0
  Fe  Fe5  1  1.00000000  -0.50000000  -0.00000000  1.0
  Fe  Fe6  1  1.50000000  1.00000000  -0.00000000  1.0
  Fe  Fe7  1  0.30396281  -0.30396281  0.00000000  1.0
  Fe  Fe8  1  0.69603719  0.00000000  -0.69603719  1.0
  Fe  Fe9  1  1.00000000  0.30396281  -0.30396281  1.0
  Fe  Fe10  1  0.30396281  0.00000000  -0.30396281  1.0
  Fe  Fe11  1  1.00000000  -0.30396281  0.30396281  1.0
  Fe  Fe12  1  0.69603719  -0.69603719  0.00000000  1.0
  Fe  Fe13  1  0.34118578  0.34118578  -0.15830168  1.0
  Fe  Fe14  1  0.34118578  0.84169832  -0.65881422  1.0
  Fe  Fe15  1  0.84169832  0.34118578  -0.65881422  1.0
  Fe  Fe16  1  0.65881422  -0.34118578  0.15830168  1.0
  Fe  Fe17  1  0.65881422  0.15830168  -0.34118578  1.0
  Fe  Fe18  1  1.15830168  -0.34118578  -0.34118578  1.0
