# generated using pymatgen
data_RuCl3
_symmetry_space_group_name_H-M   'P 1'
_cell_length_a   5.71160668
_cell_length_b   11.73221942
_cell_length_c   6.77418310
_cell_angle_alpha   90.00000000
_cell_angle_beta   90.00000000
_cell_angle_gamma   90.00000000
_symmetry_Int_Tables_number   1
_chemical_formula_structural   RuCl3
_chemical_formula_sum   'Ru4 Cl12'
_cell_volume   453.93680908
_cell_formula_units_Z   4
loop_
 _symmetry_equiv_pos_site_id
 _symmetry_equiv_pos_as_xyz
  1  'x, y, z'
loop_
 _atom_site_type_symbol
 _atom_site_label
 _atom_site_symmetry_multiplicity
 _atom_site_fract_x
 _atom_site_fract_y
 _atom_site_fract_z
 _atom_site_occupancy
  Ru  Ru0  1  0.25000884  0.50000000  0.25369246  1.0
  Ru  Ru1  1  0.74999116  0.50000000  0.25369246  1.0
  Ru  Ru2  1  0.24999116  0.00000000  0.74630754  1.0
  Ru  Ru3  1  0.75000884  0.00000000  0.74630754  1.0
  Cl  Cl4  1  0.50000000  0.63910508  0.11448579  1.0
  Cl  Cl5  1  0.50000000  0.36089492  0.11448579  1.0
  Cl  Cl6  1  0.00000000  0.86089492  0.88551421  1.0
  Cl  Cl7  1  0.00000000  0.13910508  0.88551421  1.0
  Cl  Cl8  1  0.50000000  0.86086680  0.60724099  1.0
  Cl  Cl9  1  0.50000000  0.13913320  0.60724099  1.0
  Cl  Cl10  1  0.00000000  0.63913320  0.39275901  1.0
  Cl  Cl11  1  0.00000000  0.36086680  0.39275901  1.0
  Cl  Cl12  1  0.50000000  0.50000000  0.53192181  1.0
  Cl  Cl13  1  0.00000000  0.00000000  0.46807819  1.0
  Cl  Cl14  1  0.00000000  0.50000000  0.97547780  1.0
  Cl  Cl15  1  0.50000000  0.00000000  0.02452220  1.0
