# generated using pymatgen
data_AgBiSe2
_symmetry_space_group_name_H-M   'P 1'
_cell_length_a   7.04685739
_cell_length_b   7.04685739
_cell_length_c   7.04685739
_cell_angle_alpha   34.64311285
_cell_angle_beta   34.64311285
_cell_angle_gamma   34.64311285
_symmetry_Int_Tables_number   1
_chemical_formula_structural   AgBiSe2
_chemical_formula_sum   'Ag1 Bi1 Se2'
_cell_volume   100.90684326
_cell_formula_units_Z   1
loop_
 _symmetry_equiv_pos_site_id
 _symmetry_equiv_pos_as_xyz
  1  'x, y, z'
loop_
 _atom_site_type_symbol
 _atom_site_label
 _atom_site_symmetry_multiplicity
 _atom_site_fract_x
 _atom_site_fract_y
 _atom_site_fract_z
 _atom_site_occupancy
  Ag  Ag0  1  0.00000000  0.00000000  0.00000000  1.0
  Bi  Bi1  1  1.50000000  0.50000000  0.50000000  1.0
  Se  Se2  1  0.74563578  0.74563578  0.74563578  1.0
  Se  Se3  1  1.25436422  1.25436422  0.25436422  1.0
