# generated using pymatgen
data_IrC4
_symmetry_space_group_name_H-M   'P 1'
_cell_length_a   4.13564467
_cell_length_b   3.78706785
_cell_length_c   5.58774398
_cell_angle_alpha   90.00000000
_cell_angle_beta   99.48743931
_cell_angle_gamma   90.00000000
_symmetry_Int_Tables_number   1
_chemical_formula_structural   IrC4
_chemical_formula_sum   'Ir2 C8'
_cell_volume   86.31800978
_cell_formula_units_Z   2
loop_
 _symmetry_equiv_pos_site_id
 _symmetry_equiv_pos_as_xyz
  1  'x, y, z'
loop_
 _atom_site_type_symbol
 _atom_site_label
 _atom_site_symmetry_multiplicity
 _atom_site_fract_x
 _atom_site_fract_y
 _atom_site_fract_z
 _atom_site_occupancy
  Ir  Ir0  1  -0.00000000  0.50000000  0.50000000  1.0
  Ir  Ir1  1  0.00000000  0.00000000  0.00000000  1.0
  C  C2  1  0.69312998  0.83002245  0.23622434  1.0
  C  C3  1  0.30687002  0.33002245  0.26377566  1.0
  C  C4  1  0.30687002  0.16997755  0.76377566  1.0
  C  C5  1  0.69312998  0.66997755  0.73622434  1.0
  C  C6  1  0.55097282  0.41713256  0.89295970  1.0
  C  C7  1  0.44902718  0.91713256  0.60704030  1.0
  C  C8  1  0.44902718  0.58286744  0.10704030  1.0
  C  C9  1  0.55097282  0.08286744  0.39295970  1.0
