# generated using pymatgen
data_TiSi
_symmetry_space_group_name_H-M   'P 1'
_cell_length_a   3.62890035
_cell_length_b   7.62911497
_cell_length_c   4.22121280
_cell_angle_alpha   90.00000000
_cell_angle_beta   90.00000000
_cell_angle_gamma   90.00000000
_symmetry_Int_Tables_number   1
_chemical_formula_structural   TiSi
_chemical_formula_sum   'Ti4 Si4'
_cell_volume   116.86553419
_cell_formula_units_Z   4
loop_
 _symmetry_equiv_pos_site_id
 _symmetry_equiv_pos_as_xyz
  1  'x, y, z'
loop_
 _atom_site_type_symbol
 _atom_site_label
 _atom_site_symmetry_multiplicity
 _atom_site_fract_x
 _atom_site_fract_y
 _atom_site_fract_z
 _atom_site_occupancy
  Ti  Ti0  1  0.00000000  0.00000000  0.05092910  1.0
  Ti  Ti1  1  0.00000000  0.50000000  0.05059984  1.0
  Ti  Ti2  1  0.50000000  0.00000000  0.55093618  1.0
  Ti  Ti3  1  0.50000000  0.50000000  0.55060733  1.0
  Si  Si4  1  0.00000000  0.75000048  0.55071356  1.0
  Si  Si5  1  0.00000000  0.24999952  0.55071356  1.0
  Si  Si6  1  0.50000000  0.25000064  0.05075022  1.0
  Si  Si7  1  0.50000000  0.74999936  0.05075022  1.0
