# generated using pymatgen
data_V2(CuO3)3
_symmetry_space_group_name_H-M   'P 1'
_cell_length_a   7.59917916
_cell_length_b   6.53452714
_cell_length_c   7.81229781
_cell_angle_alpha   90.00000000
_cell_angle_beta   92.87348550
_cell_angle_gamma   90.00000000
_symmetry_Int_Tables_number   1
_chemical_formula_structural   V2(CuO3)3
_chemical_formula_sum   'V4 Cu6 O18'
_cell_volume   387.44783837
_cell_formula_units_Z   2
loop_
 _symmetry_equiv_pos_site_id
 _symmetry_equiv_pos_as_xyz
  1  'x, y, z'
loop_
 _atom_site_type_symbol
 _atom_site_label
 _atom_site_symmetry_multiplicity
 _atom_site_fract_x
 _atom_site_fract_y
 _atom_site_fract_z
 _atom_site_occupancy
  O  O0  1  0.84748339  0.46334725  0.29951104  1.0
  O  O1  1  0.84748339  0.03665275  0.29951104  1.0
  O  O2  1  0.15251661  0.96334725  0.70048896  1.0
  O  O3  1  0.15251661  0.53665275  0.70048896  1.0
  O  O4  1  0.77112333  0.46826888  0.88524461  1.0
  O  O5  1  0.77112333  0.03173112  0.88524461  1.0
  O  O6  1  0.22887667  0.96826888  0.11475539  1.0
  O  O7  1  0.22887667  0.53173112  0.11475539  1.0
  O  O8  1  0.68701807  0.25000000  0.57085254  1.0
  O  O9  1  0.31298193  0.75000000  0.42914746  1.0
  O  O10  1  0.52982050  0.25000000  0.23842508  1.0
  O  O11  1  0.47017950  0.75000000  0.76157492  1.0
  O  O12  1  0.46148499  0.25000000  0.84766489  1.0
  O  O13  1  0.53851501  0.75000000  0.15233511  1.0
  O  O14  1  0.10189632  0.25000000  0.93419911  1.0
  O  O15  1  0.89810368  0.75000000  0.06580089  1.0
  O  O16  1  0.23762517  0.25000000  0.49050973  1.0
  O  O17  1  0.76237483  0.75000000  0.50949027  1.0
  Cu  Cu18  1  0.17322460  0.25000000  0.70318269  1.0
  Cu  Cu19  1  0.82677540  0.75000000  0.29681731  1.0
  Cu  Cu20  1  0.00000000  0.50000000  0.00000000  1.0
  Cu  Cu21  1  0.00000000  0.00000000  0.00000000  1.0
  Cu  Cu22  1  0.32534992  0.25000000  0.09047775  1.0
  Cu  Cu23  1  0.67465008  0.75000000  0.90952225  1.0
  V  V24  1  0.72442868  0.25000000  0.34785913  1.0
  V  V25  1  0.27557132  0.75000000  0.65214087  1.0
  V  V26  1  0.66885956  0.25000000  0.79611884  1.0
  V  V27  1  0.33114044  0.75000000  0.20388116  1.0
