# generated using pymatgen
data_NaVPH3CO7
_symmetry_space_group_name_H-M   'P 1'
_cell_length_a   6.36098761
_cell_length_b   8.12869764
_cell_length_c   6.86762748
_cell_angle_alpha   106.37819422
_cell_angle_beta   96.55474985
_cell_angle_gamma   100.83454776
_symmetry_Int_Tables_number   1
_chemical_formula_structural   NaVPH3CO7
_chemical_formula_sum   'Na2 V2 P2 H6 C2 O14'
_cell_volume   329.31186042
_cell_formula_units_Z   2
loop_
 _symmetry_equiv_pos_site_id
 _symmetry_equiv_pos_as_xyz
  1  'x, y, z'
loop_
 _atom_site_type_symbol
 _atom_site_label
 _atom_site_symmetry_multiplicity
 _atom_site_fract_x
 _atom_site_fract_y
 _atom_site_fract_z
 _atom_site_occupancy
  Na  Na0  1  -0.77603104  -0.65025088  -0.55847633  1.0
  Na  Na1  1  -0.22396896  -0.34974912  -0.44152367  1.0
  V  V2  1  -0.82424873  -0.15034438  -0.73235405  1.0
  V  V3  1  -0.17575127  -0.84965562  -0.26764595  1.0
  P  P4  1  -0.69804703  -0.91662873  -0.26121388  1.0
  P  P5  1  -0.30195297  -0.08337127  -0.73878612  1.0
  H  H6  1  -0.73756641  -0.95746294  -0.08063955  1.0
  H  H7  1  -0.26243359  -0.04253706  -0.91936045  1.0
  H  H8  1  -0.42828032  -0.65915802  -0.83398714  1.0
  H  H9  1  -0.57171968  -0.34084198  -0.16601286  1.0
  H  H10  1  -0.37004567  -0.72730141  -0.65028919  1.0
  H  H11  1  -0.62995433  -0.27269859  -0.34971081  1.0
  C  C12  1  -0.98591847  -0.54255689  -0.91492840  1.0
  C  C13  1  -0.01408153  -0.45744311  -0.08507160  1.0
  O  O14  1  -0.89637096  -0.44379684  -0.73605286  1.0
  O  O15  1  -0.10362904  -0.55620316  -0.26394714  1.0
  O  O16  1  -0.86087256  -0.80843998  -0.31184960  1.0
  O  O17  1  -0.13912744  -0.19156002  -0.68815040  1.0
  O  O18  1  -0.79932054  -0.95694412  -0.75540373  1.0
  O  O19  1  -0.20067946  -0.04305588  -0.24459627  1.0
  O  O20  1  -0.53539089  -0.19921934  -0.78430599  1.0
  O  O21  1  -0.46460911  -0.80078066  -0.21569401  1.0
  O  O22  1  -0.42345169  -0.63072106  -0.68565015  1.0
  O  O23  1  -0.57654831  -0.36927894  -0.31434985  1.0
  O  O24  1  -0.26996472  -0.90095343  -0.57095947  1.0
  O  O25  1  -0.73003528  -0.09904657  -0.42904053  1.0
  O  O26  1  -0.05566410  -0.70895318  -0.96656550  1.0
  O  O27  1  -0.94433590  -0.29104682  -0.03343450  1.0
