# generated using pymatgen
data_K2NbCuS2
_symmetry_space_group_name_H-M   'P 1'
_cell_length_a   18.33698863
_cell_length_b   17.54081673
_cell_length_c   6.70367018
_cell_angle_alpha   86.00750600
_cell_angle_beta   72.60370208
_cell_angle_gamma   21.38879192
_symmetry_Int_Tables_number   1
_chemical_formula_structural   K2NbCuS2
_chemical_formula_sum   'K8 Nb4 Cu4 S8'
_cell_volume   600.38587218
_cell_formula_units_Z   4
loop_
 _symmetry_equiv_pos_site_id
 _symmetry_equiv_pos_as_xyz
  1  'x, y, z'
loop_
 _atom_site_type_symbol
 _atom_site_label
 _atom_site_symmetry_multiplicity
 _atom_site_fract_x
 _atom_site_fract_y
 _atom_site_fract_z
 _atom_site_occupancy
  K  K0  1  1.11852951  0.45587561  0.62040924  1.0
  K  K1  1  0.80518564  0.62040924  0.45587561  1.0
  K  K2  1  0.79412439  1.13147049  0.44481436  1.0
  K  K3  1  0.62959076  0.44481436  1.13147049  1.0
  K  K4  1  1.62040924  -0.19481436  0.11852951  1.0
  K  K5  1  1.45587561  0.11852951  -0.19481436  1.0
  K  K6  1  0.44481436  0.62959076  0.79412439  1.0
  K  K7  1  1.13147049  0.79412439  0.62959076  1.0
  Nb  Nb8  1  1.12500000  0.12500000  0.62500000  1.0
  Nb  Nb9  1  1.12500000  0.62500000  0.12500000  1.0
  Nb  Nb10  1  1.12500000  0.12500000  0.12500000  1.0
  Nb  Nb11  1  1.62500000  0.12500000  0.12500000  1.0
  Cu  Cu12  1  0.62500000  0.62500000  1.12500000  1.0
  Cu  Cu13  1  0.62500000  1.12500000  0.62500000  1.0
  Cu  Cu14  1  0.62500000  0.62500000  0.62500000  1.0
  Cu  Cu15  1  1.12500000  0.62500000  0.62500000  1.0
  S  S16  1  1.14883715  -0.03096110  0.61857234  1.0
  S  S17  1  1.26355161  0.61857234  -0.03096110  1.0
  S  S18  1  0.28096110  1.10116285  0.98644839  1.0
  S  S19  1  0.63142766  0.98644839  1.10116285  1.0
  S  S20  1  1.61857234  0.26355161  0.14883715  1.0
  S  S21  1  0.96903890  0.14883715  0.26355161  1.0
  S  S22  1  0.98644839  0.63142766  0.28096110  1.0
  S  S23  1  1.10116285  0.28096110  0.63142766  1.0
