# generated using pymatgen
data_KSrScSi2O7
_symmetry_space_group_name_H-M   'P 1'
_cell_length_a   9.53151084
_cell_length_b   5.53671828
_cell_length_c   13.82480255
_cell_angle_alpha   90.00000000
_cell_angle_beta   117.33083372
_cell_angle_gamma   90.00000000
_symmetry_Int_Tables_number   1
_chemical_formula_structural   KSrScSi2O7
_chemical_formula_sum   'K4 Sr4 Sc4 Si8 O28'
_cell_volume   648.13747302
_cell_formula_units_Z   4
loop_
 _symmetry_equiv_pos_site_id
 _symmetry_equiv_pos_as_xyz
  1  'x, y, z'
loop_
 _atom_site_type_symbol
 _atom_site_label
 _atom_site_symmetry_multiplicity
 _atom_site_fract_x
 _atom_site_fract_y
 _atom_site_fract_z
 _atom_site_occupancy
  K  K0  1  0.00965915  0.73324104  0.14017023  1.0
  K  K1  1  0.00965915  0.76675896  0.64017023  1.0
  K  K2  1  0.99034085  0.23324104  0.35982977  1.0
  K  K3  1  0.99034085  0.26675896  0.85982977  1.0
  Sr  Sr4  1  0.52525711  0.23199141  0.17194536  1.0
  Sr  Sr5  1  0.52525711  0.26800859  0.67194536  1.0
  Sr  Sr6  1  0.47474289  0.73199141  0.32805464  1.0
  Sr  Sr7  1  0.47474289  0.76800859  0.82805464  1.0
  Sc  Sc8  1  0.26564014  0.76429477  0.02345464  1.0
  Sc  Sc9  1  0.26564014  0.73570523  0.52345464  1.0
  Sc  Sc10  1  0.73435986  0.26429477  0.47654536  1.0
  Sc  Sc11  1  0.73435986  0.23570523  0.97654536  1.0
  Si  Si12  1  0.66863213  0.72211082  0.11674807  1.0
  Si  Si13  1  0.66863213  0.77788918  0.61674807  1.0
  Si  Si14  1  0.33136787  0.22211082  0.38325193  1.0
  Si  Si15  1  0.33136787  0.27788918  0.88325193  1.0
  Si  Si16  1  0.16716767  0.24209335  0.14286555  1.0
  Si  Si17  1  0.16716767  0.25790665  0.64286555  1.0
  Si  Si18  1  0.83283233  0.74209335  0.35713445  1.0
  Si  Si19  1  0.83283233  0.75790665  0.85713445  1.0
  O  O20  1  0.67350594  0.91087298  0.02829657  1.0
  O  O21  1  0.67350594  0.58912702  0.52829657  1.0
  O  O22  1  0.32649406  0.41087298  0.47170343  1.0
  O  O23  1  0.32649406  0.08912702  0.97170343  1.0
  O  O24  1  0.68985058  0.44049759  0.08878792  1.0
  O  O25  1  0.68985058  0.05950241  0.58878792  1.0
  O  O26  1  0.31014942  0.94049759  0.41121208  1.0
  O  O27  1  0.31014942  0.55950241  0.91121208  1.0
  O  O28  1  0.51501701  0.75077510  0.13997630  1.0
  O  O29  1  0.51501701  0.74922490  0.63997630  1.0
  O  O30  1  0.48498299  0.25077510  0.36002370  1.0
  O  O31  1  0.48498299  0.24922490  0.86002370  1.0
  O  O32  1  0.82485606  0.79774757  0.23499777  1.0
  O  O33  1  0.82485606  0.70225243  0.73499777  1.0
  O  O34  1  0.17514394  0.29774757  0.26500223  1.0
  O  O35  1  0.17514394  0.20225243  0.76500223  1.0
  O  O36  1  0.97853268  0.23331892  0.06045775  1.0
  O  O37  1  0.97853268  0.26668108  0.56045775  1.0
  O  O38  1  0.02146732  0.73331892  0.43954225  1.0
  O  O39  1  0.02146732  0.76668108  0.93954225  1.0
  O  O40  1  0.26291761  0.46539410  0.12124112  1.0
  O  O41  1  0.26291761  0.03460590  0.62124112  1.0
  O  O42  1  0.73708239  0.96539410  0.37875888  1.0
  O  O43  1  0.73708239  0.53460590  0.87875888  1.0
  O  O44  1  0.26237552  0.98876045  0.15190633  1.0
  O  O45  1  0.26237552  0.51123955  0.65190633  1.0
  O  O46  1  0.73762448  0.48876045  0.34809367  1.0
  O  O47  1  0.73762448  0.01123955  0.84809367  1.0
