# generated using pymatgen
data_AgSbO3
_symmetry_space_group_name_H-M   'P 1'
_cell_length_a   7.38104550
_cell_length_b   7.38104550
_cell_length_c   7.38104550
_cell_angle_alpha   60.00000000
_cell_angle_beta   60.00000000
_cell_angle_gamma   60.00000000
_symmetry_Int_Tables_number   1
_chemical_formula_structural   AgSbO3
_chemical_formula_sum   'Ag4 Sb4 O12'
_cell_volume   284.34045190
_cell_formula_units_Z   4
loop_
 _symmetry_equiv_pos_site_id
 _symmetry_equiv_pos_as_xyz
  1  'x, y, z'
loop_
 _atom_site_type_symbol
 _atom_site_label
 _atom_site_symmetry_multiplicity
 _atom_site_fract_x
 _atom_site_fract_y
 _atom_site_fract_z
 _atom_site_occupancy
  Ag  Ag0  1  0.62500000  1.12500000  0.12500000  1.0
  Ag  Ag1  1  0.12500000  1.62500000  0.12500000  1.0
  Ag  Ag2  1  0.12500000  0.12500000  1.62500000  1.0
  Ag  Ag3  1  0.12500000  0.12500000  0.12500000  1.0
  Sb  Sb4  1  1.12500000  0.62500000  0.62500000  1.0
  Sb  Sb5  1  0.62500000  1.12500000  -0.37500000  1.0
  Sb  Sb6  1  -0.37500000  0.62500000  1.12500000  1.0
  Sb  Sb7  1  -0.37500000  0.62500000  0.62500000  1.0
  O  O8  1  0.70108265  0.70108265  -0.70108265  1.0
  O  O9  1  0.29891735  1.29891735  -0.29891735  1.0
  O  O10  1  0.70108265  -0.70108265  0.70108265  1.0
  O  O11  1  0.29891735  -0.29891735  0.29891735  1.0
  O  O12  1  -0.70108265  0.70108265  0.70108265  1.0
  O  O13  1  -0.29891735  0.29891735  0.29891735  1.0
  O  O14  1  -0.45108265  0.54891735  0.95108265  1.0
  O  O15  1  0.95108265  0.95108265  -0.45108265  1.0
  O  O16  1  0.54891735  0.95108265  0.54891735  1.0
  O  O17  1  0.95108265  0.54891735  0.95108265  1.0
  O  O18  1  0.95108265  0.54891735  -0.45108265  1.0
  O  O19  1  0.54891735  0.95108265  -0.04891735  1.0
