# generated using pymatgen
data_OsOF4
_symmetry_space_group_name_H-M   'P 1'
_cell_length_a   6.19371589
_cell_length_b   12.90893570
_cell_length_c   5.82567520
_cell_angle_alpha   90.00000000
_cell_angle_beta   114.08727969
_cell_angle_gamma   90.00000000
_symmetry_Int_Tables_number   1
_chemical_formula_structural   OsOF4
_chemical_formula_sum   'Os4 O4 F16'
_cell_volume   425.22911690
_cell_formula_units_Z   4
loop_
 _symmetry_equiv_pos_site_id
 _symmetry_equiv_pos_as_xyz
  1  'x, y, z'
loop_
 _atom_site_type_symbol
 _atom_site_label
 _atom_site_symmetry_multiplicity
 _atom_site_fract_x
 _atom_site_fract_y
 _atom_site_fract_z
 _atom_site_occupancy
  Os  Os0  1  0.64993333  0.35143389  0.33519477  1.0
  Os  Os1  1  0.64993333  0.14856611  0.83519477  1.0
  Os  Os2  1  0.35006667  0.85143389  0.16480523  1.0
  Os  Os3  1  0.35006667  0.64856611  0.66480523  1.0
  O  O4  1  0.64432921  0.85742711  0.28602122  1.0
  O  O5  1  0.64432921  0.64257289  0.78602122  1.0
  O  O6  1  0.35567079  0.35742711  0.21397878  1.0
  O  O7  1  0.35567079  0.14257289  0.71397878  1.0
  F  F8  1  0.95836423  0.30143877  0.43430836  1.0
  F  F9  1  0.95836423  0.19856123  0.93430836  1.0
  F  F10  1  0.04163577  0.80143877  0.06569164  1.0
  F  F11  1  0.04163577  0.69856123  0.56569164  1.0
  F  F12  1  0.73129434  0.47417446  0.21762272  1.0
  F  F13  1  0.73129434  0.02582554  0.71762272  1.0
  F  F14  1  0.26870566  0.97417446  0.28237728  1.0
  F  F15  1  0.26870566  0.52582554  0.78237728  1.0
  F  F16  1  0.73153646  0.08436824  0.14832733  1.0
  F  F17  1  0.73153646  0.41563176  0.64832733  1.0
  F  F18  1  0.26846354  0.58436824  0.35167267  1.0
  F  F19  1  0.26846354  0.91563176  0.85167267  1.0
  F  F20  1  0.61979425  0.21070378  0.49340918  1.0
  F  F21  1  0.61979425  0.28929622  0.99340918  1.0
  F  F22  1  0.38020575  0.71070378  0.00659082  1.0
  F  F23  1  0.38020575  0.78929622  0.50659082  1.0
