# generated using pymatgen
data_Hg2P3Cl
_symmetry_space_group_name_H-M   'P 1'
_cell_length_a   5.99632951
_cell_length_b   5.99632951
_cell_length_c   7.77895914
_cell_angle_alpha   84.91882695
_cell_angle_beta   95.08117305
_cell_angle_gamma   83.57590455
_symmetry_Int_Tables_number   1
_chemical_formula_structural   Hg2P3Cl
_chemical_formula_sum   'Hg4 P6 Cl2'
_cell_volume   275.47792308
_cell_formula_units_Z   2
loop_
 _symmetry_equiv_pos_site_id
 _symmetry_equiv_pos_as_xyz
  1  'x, y, z'
loop_
 _atom_site_type_symbol
 _atom_site_label
 _atom_site_symmetry_multiplicity
 _atom_site_fract_x
 _atom_site_fract_y
 _atom_site_fract_z
 _atom_site_occupancy
  Hg  Hg0  1  0.36032798  -0.08994196  0.16893839  1.0
  Hg  Hg1  1  1.08994196  0.63967202  0.66893839  1.0
  Hg  Hg2  1  0.91005804  -0.63967202  0.33106161  1.0
  Hg  Hg3  1  1.63967202  0.08994196  0.83106161  1.0
  P  P4  1  1.55869188  0.32593080  0.47357617  1.0
  P  P5  1  0.67406920  -0.55869188  0.97357617  1.0
  P  P6  1  1.32593080  0.55869188  0.02642383  1.0
  P  P7  1  0.44130812  -0.32593080  0.52642383  1.0
  P  P8  1  1.30628880  0.30628880  0.25000000  1.0
  P  P9  1  0.69371120  -0.30628880  0.75000000  1.0
  Cl  Cl10  1  0.87266088  -0.12733912  0.25000000  1.0
  Cl  Cl11  1  1.12733912  0.12733912  0.75000000  1.0
