# generated using pymatgen
data_Mg16Si8HO32
_symmetry_space_group_name_H-M   'P 1'
_cell_length_a   10.37033267
_cell_length_b   9.62912243
_cell_length_c   6.09468717
_cell_angle_alpha   90.65950648
_cell_angle_beta   90.94500709
_cell_angle_gamma   90.15888714
_symmetry_Int_Tables_number   1
_chemical_formula_structural   Mg16Si8HO32
_chemical_formula_sum   'Mg16 Si8 H1 O32'
_cell_volume   608.47265167
_cell_formula_units_Z   1
loop_
 _symmetry_equiv_pos_site_id
 _symmetry_equiv_pos_as_xyz
  1  'x, y, z'
loop_
 _atom_site_type_symbol
 _atom_site_label
 _atom_site_symmetry_multiplicity
 _atom_site_fract_x
 _atom_site_fract_y
 _atom_site_fract_z
 _atom_site_occupancy
  Mg  Mg0  1  -0.99617234  -0.99797804  -0.01096880  1.0
  Mg  Mg1  1  -0.50313951  -0.24689212  0.00373861  1.0
  Mg  Mg2  1  -0.99799194  -0.99855503  -0.50905053  1.0
  Mg  Mg3  1  -0.51207473  -0.24365937  -0.49719598  1.0
  Mg  Mg4  1  -0.27624885  -0.50925676  -0.21571154  1.0
  Mg  Mg5  1  -0.21074991  -0.23098934  -0.79546386  1.0
  Mg  Mg6  1  -0.72328143  -0.00205036  -0.74938036  1.0
  Mg  Mg7  1  -0.77932121  -0.25440651  -0.24798669  1.0
  Mg  Mg8  1  -0.99526862  -0.50079076  -1.00396362  1.0
  Mg  Mg9  1  -0.50387462  -0.75049292  -0.99217295  1.0
  Mg  Mg10  1  -1.00072063  -0.50022418  -0.50480496  1.0
  Mg  Mg11  1  -0.50020627  -0.75048982  -0.49172328  1.0
  Mg  Mg12  1  -0.28077770  -0.99206982  -0.24571402  1.0
  Mg  Mg13  1  -0.22041491  -0.74808345  -0.75124821  1.0
  Mg  Mg14  1  -0.72303620  -0.50482979  -0.74590665  1.0
  Mg  Mg15  1  -0.77782658  -0.75329806  -0.25001283  1.0
  Si  Si16  1  -0.09237553  -0.21438002  -0.26685913  1.0
  Si  Si17  1  -0.40688769  -0.46426108  -0.74292084  1.0
  Si  Si18  1  -0.90485586  -0.28605360  -0.75287442  1.0
  Si  Si19  1  -0.59658085  -0.03426987  -0.24551207  1.0
  Si  Si20  1  -0.09166159  -0.71476930  -0.25634393  1.0
  Si  Si21  1  -0.40695487  -0.96313419  -0.74409757  1.0
  Si  Si22  1  -0.90569781  -0.78588634  -0.75271485  1.0
  Si  Si23  1  -0.59478327  -0.53572328  -0.24339727  1.0
  H  H24  1  -0.27427557  -0.32425807  -0.48682787  1.0
  O  O25  1  -0.09276278  -0.38438767  -0.25235420  1.0
  O  O26  1  -0.40819688  -0.13409316  -0.74720061  1.0
  O  O27  1  -0.90860823  -0.11590395  -0.75680162  1.0
  O  O28  1  -0.59321216  -0.36538500  -0.24460290  1.0
  O  O29  1  -0.45017283  -0.10900173  -0.24544048  1.0
  O  O30  1  -0.05206088  -0.36015243  -0.75907617  1.0
  O  O31  1  -0.55008831  -0.38768787  -0.74375722  1.0
  O  O32  1  -0.94741326  -0.13849112  -0.26253698  1.0
  O  O33  1  -0.16184292  -0.13132523  -0.05879476  1.0
  O  O34  1  -0.32910852  -0.38709932  -0.94098614  1.0
  O  O35  1  -0.83679934  -0.36043888  -0.53556976  1.0
  O  O36  1  -0.66630565  -0.10890085  -0.46466145  1.0
  O  O37  1  -0.83570734  -0.36108171  -0.96727592  1.0
  O  O38  1  -0.66485374  -0.10950239  -0.03273315  1.0
  O  O39  1  -0.16640421  -0.15100159  -0.48718635  1.0
  O  O40  1  -0.34705537  -0.39283376  -0.49224132  1.0
  O  O41  1  -0.09043715  -0.88471370  -0.25952903  1.0
  O  O42  1  -0.40734639  -0.63260681  -0.73984963  1.0
  O  O43  1  -0.90756946  -0.61590212  -0.75104419  1.0
  O  O44  1  -0.59390287  -0.86454134  -0.24552572  1.0
  O  O45  1  -0.44819924  -0.61084156  -0.23598747  1.0
  O  O46  1  -0.05186666  -0.86143273  -0.75662270  1.0
  O  O47  1  -0.55320514  -0.88868692  -0.74612099  1.0
  O  O48  1  -0.94615417  -0.63874560  -0.25340583  1.0
  O  O49  1  -0.15989851  -0.64238359  -0.03651576  1.0
  O  O50  1  -0.33780878  -0.88840718  -0.95754446  1.0
  O  O51  1  -0.83642581  -0.85998238  -0.53653179  1.0
  O  O52  1  -0.66141222  -0.61063651  -0.46390170  1.0
  O  O53  1  -0.83704514  -0.86001783  -0.96848727  1.0
  O  O54  1  -0.66384930  -0.60964660  -0.03019476  1.0
  O  O55  1  -0.16318055  -0.63901379  -0.46868495  1.0
  O  O56  1  -0.33816771  -0.88840260  -0.52542111  1.0
