# generated using pymatgen
data_ZnS
_symmetry_space_group_name_H-M   'P 1'
_cell_length_a   3.84997987
_cell_length_b   3.84997987
_cell_length_c   88.07964481
_cell_angle_alpha   90.00000000
_cell_angle_beta   90.00000000
_cell_angle_gamma   120.00000000
_symmetry_Int_Tables_number   1
_chemical_formula_structural   ZnS
_chemical_formula_sum   'Zn28 S28'
_cell_volume   1130.63676394
_cell_formula_units_Z   28
loop_
 _symmetry_equiv_pos_site_id
 _symmetry_equiv_pos_as_xyz
  1  'x, y, z'
loop_
 _atom_site_type_symbol
 _atom_site_label
 _atom_site_symmetry_multiplicity
 _atom_site_fract_x
 _atom_site_fract_y
 _atom_site_fract_z
 _atom_site_occupancy
  Zn  Zn0  1  0.00000000  0.00000000  0.03569828  1.0
  Zn  Zn1  1  0.00000000  0.00000000  0.17858995  1.0
  Zn  Zn2  1  0.00000000  0.00000000  0.28572050  1.0
  Zn  Zn3  1  0.00000000  0.00000000  0.39285192  1.0
  Zn  Zn4  1  -0.00000000  -0.00000000  0.49999793  1.0
  Zn  Zn5  1  0.00000000  0.00000000  0.60713885  1.0
  Zn  Zn6  1  0.00000000  0.00000000  0.71428265  1.0
  Zn  Zn7  1  -0.00000000  -0.00000000  0.82142217  1.0
  Zn  Zn8  1  0.00000000  0.00000000  0.92855827  1.0
  Zn  Zn9  1  0.66666667  0.33333333  0.10714200  1.0
  Zn  Zn10  1  0.66666667  0.33333333  0.25002245  1.0
  Zn  Zn11  1  0.66666667  0.33333333  0.35713885  1.0
  Zn  Zn12  1  0.66666667  0.33333333  0.46428236  1.0
  Zn  Zn13  1  0.66666667  0.33333333  0.57142871  1.0
  Zn  Zn14  1  0.66666667  0.33333333  0.67856562  1.0
  Zn  Zn15  1  0.66666667  0.33333333  0.78571209  1.0
  Zn  Zn16  1  0.66666667  0.33333333  0.89280803  1.0
  Zn  Zn17  1  0.66666667  0.33333333  0.96429733  1.0
  Zn  Zn18  1  0.33333333  0.66666667  -0.00002786  1.0
  Zn  Zn19  1  0.33333333  0.66666667  0.07141834  1.0
  Zn  Zn20  1  0.33333333  0.66666667  0.14285483  1.0
  Zn  Zn21  1  0.33333333  0.66666667  0.21432711  1.0
  Zn  Zn22  1  0.33333333  0.66666667  0.32142954  1.0
  Zn  Zn23  1  0.33333333  0.66666667  0.42856555  1.0
  Zn  Zn24  1  0.33333333  0.66666667  0.53571331  1.0
  Zn  Zn25  1  0.33333333  0.66666667  0.64285189  1.0
  Zn  Zn26  1  0.33333333  0.66666667  0.74999785  1.0
  Zn  Zn27  1  0.33333333  0.66666667  0.85711767  1.0
  S  S28  1  0.00000000  0.00000000  0.00889066  1.0
  S  S29  1  0.00000000  0.00000000  0.15177765  1.0
  S  S30  1  0.00000000  0.00000000  0.25894739  1.0
  S  S31  1  0.00000000  0.00000000  0.36607265  1.0
  S  S32  1  0.00000000  0.00000000  0.47321811  1.0
  S  S33  1  0.00000000  0.00000000  0.58036101  1.0
  S  S34  1  -0.00000000  -0.00000000  0.68750230  1.0
  S  S35  1  0.00000000  0.00000000  0.79464555  1.0
  S  S36  1  -0.00000000  -0.00000000  0.90174118  1.0
  S  S37  1  0.66666667  0.33333333  0.08033521  1.0
  S  S38  1  0.66666667  0.33333333  0.22325038  1.0
  S  S39  1  0.66666667  0.33333333  0.33036135  1.0
  S  S40  1  0.66666667  0.33333333  0.43750216  1.0
  S  S41  1  0.66666667  0.33333333  0.54464896  1.0
  S  S42  1  0.66666667  0.33333333  0.65178633  1.0
  S  S43  1  0.66666667  0.33333333  0.75893316  1.0
  S  S44  1  0.66666667  0.33333333  0.86604218  1.0
  S  S45  1  0.66666667  0.33333333  0.93753044  1.0
  S  S46  1  0.33333333  0.66666667  0.04466307  1.0
  S  S47  1  0.33333333  0.66666667  0.11610134  1.0
  S  S48  1  0.33333333  0.66666667  0.18755999  1.0
  S  S49  1  0.33333333  0.66666667  0.29465197  1.0
  S  S50  1  0.33333333  0.66666667  0.40178645  1.0
  S  S51  1  0.33333333  0.66666667  0.50893360  1.0
  S  S52  1  0.33333333  0.66666667  0.61607245  1.0
  S  S53  1  0.33333333  0.66666667  0.72321824  1.0
  S  S54  1  0.33333333  0.66666667  0.83034639  1.0
  S  S55  1  0.33333333  0.66666667  0.97321363  1.0
