# generated using pymatgen
data_PbI2
_symmetry_space_group_name_H-M   'P 1'
_cell_length_a   4.66085810
_cell_length_b   4.66085810
_cell_length_c   75.10210359
_cell_angle_alpha   90.00000000
_cell_angle_beta   90.00000000
_cell_angle_gamma   120.00000000
_symmetry_Int_Tables_number   1
_chemical_formula_structural   PbI2
_chemical_formula_sum   'Pb10 I20'
_cell_volume   1412.90999104
_cell_formula_units_Z   10
loop_
 _symmetry_equiv_pos_site_id
 _symmetry_equiv_pos_as_xyz
  1  'x, y, z'
loop_
 _atom_site_type_symbol
 _atom_site_label
 _atom_site_symmetry_multiplicity
 _atom_site_fract_x
 _atom_site_fract_y
 _atom_site_fract_z
 _atom_site_occupancy
  Pb  Pb0  1  0.00000000  0.00000000  0.02454731  1.0
  Pb  Pb1  1  0.00000000  0.00000000  0.12450447  1.0
  Pb  Pb2  1  0.00000000  0.00000000  0.22449880  1.0
  Pb  Pb3  1  0.00000000  0.00000000  0.32450010  1.0
  Pb  Pb4  1  0.00000000  0.00000000  0.42449948  1.0
  Pb  Pb5  1  0.00000000  0.00000000  0.52450080  1.0
  Pb  Pb6  1  0.00000000  0.00000000  0.62449351  1.0
  Pb  Pb7  1  0.00000000  0.00000000  0.72445063  1.0
  Pb  Pb8  1  0.66666667  0.33333333  0.82454274  1.0
  Pb  Pb9  1  0.66666667  0.33333333  0.92445763  1.0
  I  I10  1  0.00000000  0.00000000  0.84933958  1.0
  I  I11  1  0.00000000  0.00000000  0.94924130  1.0
  I  I12  1  0.66666667  0.33333333  0.04934391  1.0
  I  I13  1  0.66666667  0.33333333  0.14930339  1.0
  I  I14  1  0.66666667  0.33333333  0.24929706  1.0
  I  I15  1  0.66666667  0.33333333  0.34930029  1.0
  I  I16  1  0.66666667  0.33333333  0.44930056  1.0
  I  I17  1  0.66666667  0.33333333  0.54930117  1.0
  I  I18  1  0.66666667  0.33333333  0.64929263  1.0
  I  I19  1  0.66666667  0.33333333  0.74923232  1.0
  I  I20  1  0.33333333  0.66666667  -0.00024002  1.0
  I  I21  1  0.33333333  0.66666667  0.09970698  1.0
  I  I22  1  0.33333333  0.66666667  0.19970081  1.0
  I  I23  1  0.33333333  0.66666667  0.29970113  1.0
  I  I24  1  0.33333333  0.66666667  0.39969949  1.0
  I  I25  1  0.33333333  0.66666667  0.49970235  1.0
  I  I26  1  0.33333333  0.66666667  0.59969624  1.0
  I  I27  1  0.33333333  0.66666667  0.69966289  1.0
  I  I28  1  0.33333333  0.66666667  0.79975471  1.0
  I  I29  1  0.33333333  0.66666667  0.89966773  1.0
