# generated using pymatgen
data_Tl3SnI5
_symmetry_space_group_name_H-M   'P 1'
_cell_length_a   9.00014174
_cell_length_b   9.99423580
_cell_length_c   16.46123273
_cell_angle_alpha   90.00000000
_cell_angle_beta   90.00000000
_cell_angle_gamma   90.00000000
_symmetry_Int_Tables_number   1
_chemical_formula_structural   Tl3SnI5
_chemical_formula_sum   'Tl12 Sn4 I20'
_cell_volume   1480.68029158
_cell_formula_units_Z   4
loop_
 _symmetry_equiv_pos_site_id
 _symmetry_equiv_pos_as_xyz
  1  'x, y, z'
loop_
 _atom_site_type_symbol
 _atom_site_label
 _atom_site_symmetry_multiplicity
 _atom_site_fract_x
 _atom_site_fract_y
 _atom_site_fract_z
 _atom_site_occupancy
  Tl  Tl0  1  0.42211380  0.32276907  0.52677970  1.0
  Tl  Tl1  1  0.92211380  0.17723093  0.47322030  1.0
  Tl  Tl2  1  0.57788620  0.82276907  0.97322030  1.0
  Tl  Tl3  1  0.07788620  0.67723093  0.02677970  1.0
  Tl  Tl4  1  0.05463357  0.58655338  0.72058254  1.0
  Tl  Tl5  1  0.55463357  0.91344662  0.27941746  1.0
  Tl  Tl6  1  0.94536643  0.08655338  0.77941746  1.0
  Tl  Tl7  1  0.44536643  0.41344662  0.22058254  1.0
  Tl  Tl8  1  0.77978240  0.70436859  0.55390293  1.0
  Tl  Tl9  1  0.27978240  0.79563141  0.44609707  1.0
  Tl  Tl10  1  0.22021760  0.20436859  0.94609707  1.0
  Tl  Tl11  1  0.72021760  0.29563141  0.05390293  1.0
  Sn  Sn12  1  0.42840314  0.93003065  0.70022082  1.0
  Sn  Sn13  1  0.92840314  0.56996935  0.29977918  1.0
  Sn  Sn14  1  0.57159686  0.43003065  0.79977918  1.0
  Sn  Sn15  1  0.07159686  0.06996935  0.20022082  1.0
  I  I16  1  0.41736461  0.50198277  0.97283070  1.0
  I  I17  1  0.91736461  0.99801723  0.02716930  1.0
  I  I18  1  0.58263539  0.00198277  0.52716930  1.0
  I  I19  1  0.08263539  0.49801723  0.47283070  1.0
  I  I20  1  0.41037074  0.65176347  0.63268568  1.0
  I  I21  1  0.91037074  0.84823653  0.36731432  1.0
  I  I22  1  0.58962926  0.15176347  0.86731432  1.0
  I  I23  1  0.08962926  0.34823653  0.13268568  1.0
  I  I24  1  0.27202318  0.30181877  0.72780001  1.0
  I  I25  1  0.77202318  0.19818123  0.27219999  1.0
  I  I26  1  0.72797682  0.80181877  0.77219999  1.0
  I  I27  1  0.22797682  0.69818123  0.22780001  1.0
  I  I28  1  0.23221885  0.85092298  0.85105142  1.0
  I  I29  1  0.73221885  0.64907702  0.14894858  1.0
  I  I30  1  0.76778115  0.35092298  0.64894858  1.0
  I  I31  1  0.26778115  0.14907702  0.35105142  1.0
  I  I32  1  0.10311872  0.95404046  0.60586816  1.0
  I  I33  1  0.60311872  0.54595954  0.39413184  1.0
  I  I34  1  0.89688128  0.45404046  0.89413184  1.0
  I  I35  1  0.39688128  0.04595954  0.10586816  1.0
