# generated using pymatgen
data_SmCoGe
_symmetry_space_group_name_H-M   'P 1'
_cell_length_a   7.32185378
_cell_length_b   4.39726547
_cell_length_c   6.77332005
_cell_angle_alpha   90.00000000
_cell_angle_beta   90.00000000
_cell_angle_gamma   90.00000000
_symmetry_Int_Tables_number   1
_chemical_formula_structural   SmCoGe
_chemical_formula_sum   'Sm4 Co4 Ge4'
_cell_volume   218.07472543
_cell_formula_units_Z   4
loop_
 _symmetry_equiv_pos_site_id
 _symmetry_equiv_pos_as_xyz
  1  'x, y, z'
loop_
 _atom_site_type_symbol
 _atom_site_label
 _atom_site_symmetry_multiplicity
 _atom_site_fract_x
 _atom_site_fract_y
 _atom_site_fract_z
 _atom_site_occupancy
  Sm  Sm0  1  0.52054807  0.75000000  0.17932958  1.0
  Sm  Sm1  1  0.02054807  0.75000000  0.32067042  1.0
  Sm  Sm2  1  0.47945193  0.25000000  0.82067042  1.0
  Sm  Sm3  1  0.97945193  0.25000000  0.67932958  1.0
  Co  Co4  1  0.35993290  0.75000000  0.57156408  1.0
  Co  Co5  1  0.85993290  0.75000000  0.92843592  1.0
  Co  Co6  1  0.64006710  0.25000000  0.42843592  1.0
  Co  Co7  1  0.14006710  0.25000000  0.07156408  1.0
  Ge  Ge8  1  0.19014531  0.75000000  0.89002282  1.0
  Ge  Ge9  1  0.69014531  0.75000000  0.60997718  1.0
  Ge  Ge10  1  0.80985469  0.25000000  0.10997718  1.0
  Ge  Ge11  1  0.30985469  0.25000000  0.39002282  1.0
