# generated using pymatgen
data_Na2ZnSiO4
_symmetry_space_group_name_H-M   'P 1'
_cell_length_a   11.03987193
_cell_length_b   5.33904408
_cell_length_c   7.12691759
_cell_angle_alpha   90.00000000
_cell_angle_beta   90.00000000
_cell_angle_gamma   90.00000000
_symmetry_Int_Tables_number   1
_chemical_formula_structural   Na2ZnSiO4
_chemical_formula_sum   'Na8 Zn4 Si4 O16'
_cell_volume   420.07736258
_cell_formula_units_Z   4
loop_
 _symmetry_equiv_pos_site_id
 _symmetry_equiv_pos_as_xyz
  1  'x, y, z'
loop_
 _atom_site_type_symbol
 _atom_site_label
 _atom_site_symmetry_multiplicity
 _atom_site_fract_x
 _atom_site_fract_y
 _atom_site_fract_z
 _atom_site_occupancy
  Na  Na0  1  0.34173735  0.78746001  0.24423769  1.0
  Na  Na1  1  0.84173735  0.71253999  0.24423769  1.0
  Na  Na2  1  0.65826265  0.21253999  0.74423769  1.0
  Na  Na3  1  0.15826265  0.28746001  0.74423769  1.0
  Na  Na4  1  0.08870269  0.74915471  0.49761302  1.0
  Na  Na5  1  0.58870269  0.75084529  0.49761302  1.0
  Na  Na6  1  0.91129731  0.25084529  -0.00238698  1.0
  Na  Na7  1  0.41129731  0.24915471  -0.00238698  1.0
  Zn  Zn8  1  0.34381200  0.79633260  0.74655637  1.0
  Zn  Zn9  1  0.84381200  0.70366740  0.74655637  1.0
  Zn  Zn10  1  0.65618800  0.20366740  0.24655637  1.0
  Zn  Zn11  1  0.15618800  0.29633260  0.24655637  1.0
  Si  Si12  1  0.09488966  0.79979580  -0.00477957  1.0
  Si  Si13  1  0.59488966  0.70020420  -0.00477957  1.0
  Si  Si14  1  0.90511034  0.20020420  0.49522043  1.0
  Si  Si15  1  0.40511034  0.29979580  0.49522043  1.0
  O  O16  1  0.44928700  0.76819498  0.96956012  1.0
  O  O17  1  0.94928700  0.73180502  0.96956012  1.0
  O  O18  1  0.55071300  0.23180502  0.46956012  1.0
  O  O19  1  0.05071300  0.26819498  0.46956012  1.0
  O  O20  1  0.39121577  0.60665710  0.52305314  1.0
  O  O21  1  0.89121577  0.89334290  0.52305314  1.0
  O  O22  1  0.60878423  0.39334290  0.02305314  1.0
  O  O23  1  0.10878423  0.10665710  0.02305314  1.0
  O  O24  1  0.35361594  0.16117623  0.68617766  1.0
  O  O25  1  0.85361594  0.33882377  0.68617766  1.0
  O  O26  1  0.64638406  0.83882377  0.18617766  1.0
  O  O27  1  0.14638406  0.66117623  0.18617766  1.0
  O  O28  1  0.17061849  0.71807134  0.80358155  1.0
  O  O29  1  0.67061849  0.78192866  0.80358155  1.0
  O  O30  1  0.82938151  0.28192866  0.30358155  1.0
  O  O31  1  0.32938151  0.21807134  0.30358155  1.0
