# generated using pymatgen
data_TeAsHO5
_symmetry_space_group_name_H-M   'P 1'
_cell_length_a   8.11192599
_cell_length_b   6.07905747
_cell_length_c   9.59686832
_cell_angle_alpha   90.00000000
_cell_angle_beta   102.16357785
_cell_angle_gamma   90.00000000
_symmetry_Int_Tables_number   1
_chemical_formula_structural   TeAsHO5
_chemical_formula_sum   'Te4 As4 H4 O20'
_cell_volume   462.62463940
_cell_formula_units_Z   4
loop_
 _symmetry_equiv_pos_site_id
 _symmetry_equiv_pos_as_xyz
  1  'x, y, z'
loop_
 _atom_site_type_symbol
 _atom_site_label
 _atom_site_symmetry_multiplicity
 _atom_site_fract_x
 _atom_site_fract_y
 _atom_site_fract_z
 _atom_site_occupancy
  Te  Te0  1  0.38648446  0.12606017  0.08867846  1.0
  Te  Te1  1  0.38648446  0.37393983  0.58867846  1.0
  Te  Te2  1  0.61351554  0.62606017  0.41132154  1.0
  Te  Te3  1  0.61351554  0.87393983  0.91132154  1.0
  As  As4  1  0.77569982  0.36779730  0.08165047  1.0
  As  As5  1  0.77569982  0.13220270  0.58165047  1.0
  As  As6  1  0.22430018  0.86779730  0.41834953  1.0
  As  As7  1  0.22430018  0.63220270  0.91834953  1.0
  H  H8  1  0.89580788  0.33430886  0.32006192  1.0
  H  H9  1  0.89580788  0.16569114  0.82006192  1.0
  H  H10  1  0.10419212  0.83430886  0.17993808  1.0
  H  H11  1  0.10419212  0.66569114  0.67993808  1.0
  O  O12  1  0.94020802  0.37476772  0.23407724  1.0
  O  O13  1  0.94020802  0.12523228  0.73407724  1.0
  O  O14  1  0.05979198  0.87476772  0.26592276  1.0
  O  O15  1  0.05979198  0.62523228  0.76592276  1.0
  O  O16  1  0.80289694  0.35723698  0.47606984  1.0
  O  O17  1  0.80289694  0.14276302  0.97606984  1.0
  O  O18  1  0.19710306  0.85723698  0.02393016  1.0
  O  O19  1  0.19710306  0.64276302  0.52393016  1.0
  O  O20  1  0.79226540  0.89649288  0.48532958  1.0
  O  O21  1  0.79226540  0.60350712  0.98532958  1.0
  O  O22  1  0.20773460  0.39649288  0.01467042  1.0
  O  O23  1  0.20773460  0.10350712  0.51467042  1.0
  O  O24  1  0.58808877  0.36081420  0.14574555  1.0
  O  O25  1  0.58808877  0.13918580  0.64574555  1.0
  O  O26  1  0.41191123  0.86081420  0.35425445  1.0
  O  O27  1  0.41191123  0.63918580  0.85425445  1.0
  O  O28  1  0.42611021  0.38101629  0.39135780  1.0
  O  O29  1  0.42611021  0.11898371  0.89135780  1.0
  O  O30  1  0.57388979  0.88101629  0.10864220  1.0
  O  O31  1  0.57388979  0.61898371  0.60864220  1.0
