# generated using pymatgen
data_KGd(PO3)4
_symmetry_space_group_name_H-M   'P 1'
_cell_length_a   7.37807772
_cell_length_b   8.51199456
_cell_length_c   8.01865643
_cell_angle_alpha   90.00000000
_cell_angle_beta   91.56558924
_cell_angle_gamma   90.00000000
_symmetry_Int_Tables_number   1
_chemical_formula_structural   KGd(PO3)4
_chemical_formula_sum   'K2 Gd2 P8 O24'
_cell_volume   503.40093523
_cell_formula_units_Z   2
loop_
 _symmetry_equiv_pos_site_id
 _symmetry_equiv_pos_as_xyz
  1  'x, y, z'
loop_
 _atom_site_type_symbol
 _atom_site_label
 _atom_site_symmetry_multiplicity
 _atom_site_fract_x
 _atom_site_fract_y
 _atom_site_fract_z
 _atom_site_occupancy
  O  O0  1  0.91279575  0.98963161  0.82607632  1.0
  O  O1  1  0.08720425  0.48963161  0.17392368  1.0
  O  O2  1  0.30867613  0.27750858  0.11369781  1.0
  O  O3  1  0.69132387  0.77750858  0.88630219  1.0
  O  O4  1  0.98795842  0.20667981  0.21805518  1.0
  O  O5  1  0.01204158  0.70667981  0.78194482  1.0
  O  O6  1  0.16193737  0.99389685  0.38450323  1.0
  O  O7  1  0.83806263  0.49389685  0.61549677  1.0
  O  O8  1  0.31960207  0.97727524  0.07224057  1.0
  O  O9  1  0.68039793  0.47727524  0.92775943  1.0
  O  O10  1  0.56691077  0.15327163  0.95906443  1.0
  O  O11  1  0.43308923  0.65327163  0.04093557  1.0
  O  O12  1  0.96532483  0.19449684  0.53503198  1.0
  O  O13  1  0.03467517  0.69449684  0.46496802  1.0
  O  O14  1  0.82248098  0.98528047  0.34131602  1.0
  O  O15  1  0.17751902  0.48528047  0.65868398  1.0
  O  O16  1  0.53681489  0.13584133  0.27497204  1.0
  O  O17  1  0.46318511  0.63584133  0.72502796  1.0
  O  O18  1  0.02456148  0.29698468  0.92624350  1.0
  O  O19  1  0.97543852  0.79698468  0.07375650  1.0
  O  O20  1  0.47375585  0.34416973  0.64688625  1.0
  O  O21  1  0.52624415  0.84416973  0.35311375  1.0
  O  O22  1  0.60735877  0.05706006  0.57462010  1.0
  O  O23  1  0.39264123  0.55706006  0.42537990  1.0
  P  P24  1  0.90213149  0.82765217  0.89928944  1.0
  P  P25  1  0.09786851  0.32765217  0.10071056  1.0
  P  P26  1  0.56641445  0.62269542  0.90550423  1.0
  P  P27  1  0.43358555  0.12269542  0.09449577  1.0
  P  P28  1  -0.00447312  0.09663790  0.38144399  1.0
  P  P29  1  1.00447312  0.59663790  0.61855601  1.0
  P  P30  1  0.38553877  0.49822132  0.60183677  1.0
  P  P31  1  0.61446123  0.99822132  0.39816323  1.0
  K  K32  1  0.26671547  0.06304320  0.71741513  1.0
  K  K33  1  0.73328453  0.56304320  0.28258487  1.0
  Gd  Gd34  1  0.76243563  0.24805316  0.75802659  1.0
  Gd  Gd35  1  0.23756437  0.74805316  0.24197341  1.0
