# generated using pymatgen
data_Sr4MgSi2(NO3)2
_symmetry_space_group_name_H-M   'P 1'
_cell_length_a   6.46868146
_cell_length_b   6.73695950
_cell_length_c   10.96066644
_cell_angle_alpha   90.00000000
_cell_angle_beta   108.37913978
_cell_angle_gamma   90.00000000
_symmetry_Int_Tables_number   1
_chemical_formula_structural   Sr4MgSi2(NO3)2
_chemical_formula_sum   'Sr8 Mg2 Si4 N4 O12'
_cell_volume   453.29267179
_cell_formula_units_Z   2
loop_
 _symmetry_equiv_pos_site_id
 _symmetry_equiv_pos_as_xyz
  1  'x, y, z'
loop_
 _atom_site_type_symbol
 _atom_site_label
 _atom_site_symmetry_multiplicity
 _atom_site_fract_x
 _atom_site_fract_y
 _atom_site_fract_z
 _atom_site_occupancy
  Sr  Sr0  1  0.49716732  0.17688380  0.15118543  1.0
  Sr  Sr1  1  0.49716732  0.32311620  0.65118543  1.0
  Sr  Sr2  1  0.50283268  0.82311620  0.84881457  1.0
  Sr  Sr3  1  0.50283268  0.67688380  0.34881457  1.0
  Sr  Sr4  1  0.07269687  0.43743402  0.82703241  1.0
  Sr  Sr5  1  0.07269687  0.06256598  0.32703241  1.0
  Sr  Sr6  1  0.92730313  0.56256598  0.17296759  1.0
  Sr  Sr7  1  0.92730313  0.93743402  0.67296759  1.0
  Mg  Mg8  1  0.00000000  0.00000000  0.00000000  1.0
  Mg  Mg9  1  -0.00000000  0.50000000  0.50000000  1.0
  Si  Si10  1  0.31041548  0.73111666  0.06239349  1.0
  Si  Si11  1  0.31041548  0.76888334  0.56239349  1.0
  Si  Si12  1  0.68958452  0.26888334  0.93760651  1.0
  Si  Si13  1  0.68958452  0.23111666  0.43760651  1.0
  N  N14  1  0.14984181  0.79403843  0.91137412  1.0
  N  N15  1  0.14984181  0.70596157  0.41137412  1.0
  N  N16  1  0.85015819  0.20596157  0.08862588  1.0
  N  N17  1  0.85015819  0.29403843  0.58862588  1.0
  O  O18  1  0.28003179  0.50749877  0.11714823  1.0
  O  O19  1  0.28003179  0.99250123  0.61714823  1.0
  O  O20  1  0.71996821  0.49250123  0.88285177  1.0
  O  O21  1  0.71996821  0.00749877  0.38285177  1.0
  O  O22  1  0.22702879  0.89076291  0.16161916  1.0
  O  O23  1  0.22702879  0.60923709  0.66161916  1.0
  O  O24  1  0.77297121  0.10923709  0.83838084  1.0
  O  O25  1  0.77297121  0.39076291  0.33838084  1.0
  O  O26  1  0.57572970  0.77437027  0.09422022  1.0
  O  O27  1  0.57572970  0.72562973  0.59422022  1.0
  O  O28  1  0.42427030  0.22562973  0.90577978  1.0
  O  O29  1  0.42427030  0.27437027  0.40577978  1.0
