# generated using pymatgen
data_HfTe3O8
_symmetry_space_group_name_H-M   'P 1'
_cell_length_a   9.98423083
_cell_length_b   9.98423083
_cell_length_c   9.98423083
_cell_angle_alpha   109.47122063
_cell_angle_beta   109.47122063
_cell_angle_gamma   109.47122063
_symmetry_Int_Tables_number   1
_chemical_formula_structural   HfTe3O8
_chemical_formula_sum   'Hf4 Te12 O32'
_cell_volume   766.16436395
_cell_formula_units_Z   4
loop_
 _symmetry_equiv_pos_site_id
 _symmetry_equiv_pos_as_xyz
  1  'x, y, z'
loop_
 _atom_site_type_symbol
 _atom_site_label
 _atom_site_symmetry_multiplicity
 _atom_site_fract_x
 _atom_site_fract_y
 _atom_site_fract_z
 _atom_site_occupancy
  Hf  Hf0  1  1.00000000  0.50000000  1.00000000  1.0
  Hf  Hf1  1  0.50000000  0.50000000  0.50000000  1.0
  Hf  Hf2  1  1.00000000  1.00000000  1.50000000  1.0
  Hf  Hf3  1  1.50000000  1.00000000  1.00000000  1.0
  Te  Te4  1  0.79564917  0.54564917  0.25000000  1.0
  Te  Te5  1  1.29564917  1.04564917  1.25000000  1.0
  Te  Te6  1  0.75000000  0.70435083  0.95435083  1.0
  Te  Te7  1  1.25000000  1.29564917  1.04564917  1.0
  Te  Te8  1  0.25000000  0.79564917  0.54564917  1.0
  Te  Te9  1  0.75000000  1.20435083  0.45435083  1.0
  Te  Te10  1  0.54564917  1.25000000  0.79564917  1.0
  Te  Te11  1  1.04564917  1.25000000  1.29564917  1.0
  Te  Te12  1  0.95435083  0.75000000  0.70435083  1.0
  Te  Te13  1  1.45435083  0.75000000  1.20435083  1.0
  Te  Te14  1  1.20435083  0.45435083  0.75000000  1.0
  Te  Te15  1  0.70435083  0.95435083  0.75000000  1.0
  O  O16  1  0.56878147  0.53364567  0.73495939  1.0
  O  O17  1  1.06878147  1.33382208  1.03513580  1.0
  O  O18  1  0.29868628  0.83382208  0.76504061  1.0
  O  O19  1  0.79868628  1.03364567  0.46486420  1.0
  O  O20  1  0.53513580  1.20131372  0.96635433  1.0
  O  O21  1  1.03513580  1.06878147  1.33382208  1.0
  O  O22  1  0.73495939  0.56878147  0.53364567  1.0
  O  O23  1  1.23495939  0.70131372  1.16617792  1.0
  O  O24  1  0.83382208  0.76504061  0.29868628  1.0
  O  O25  1  1.33382208  1.03513580  1.06878147  1.0
  O  O26  1  0.96635433  1.53513580  1.20131372  1.0
  O  O27  1  1.46635433  1.26504061  1.43121853  1.0
  O  O28  1  1.70131372  1.16617792  1.23495939  1.0
  O  O29  1  1.20131372  0.96635433  1.53513580  1.0
  O  O30  1  1.43121853  1.46635433  1.26504061  1.0
  O  O31  1  0.93121853  0.66617792  0.96486420  1.0
  O  O32  1  1.26504061  1.43121853  1.46635433  1.0
  O  O33  1  0.76504061  1.29868628  0.83382208  1.0
  O  O34  1  1.46486420  0.79868628  1.03364567  1.0
  O  O35  1  0.96486420  0.93121853  0.66617792  1.0
  O  O36  1  1.03364567  0.46486420  0.79868628  1.0
  O  O37  1  0.53364567  0.73495939  0.56878147  1.0
  O  O38  1  1.16617792  1.23495939  1.70131372  1.0
  O  O39  1  0.66617792  0.96486420  0.93121853  1.0
  O  O40  1  0.66190156  1.50000000  1.00000000  1.0
  O  O41  1  1.16190156  1.16190156  1.16190156  1.0
  O  O42  1  1.00000000  0.66190156  1.50000000  1.0
  O  O43  1  1.50000000  1.00000000  1.33809844  1.0
  O  O44  1  1.00000000  1.33809844  1.50000000  1.0
  O  O45  1  0.50000000  1.00000000  0.66190156  1.0
  O  O46  1  1.33809844  0.50000000  1.00000000  1.0
  O  O47  1  0.83809844  0.83809844  0.83809844  1.0
