# generated using pymatgen
data_K2TeH6SeO10
_symmetry_space_group_name_H-M   'P 1'
_cell_length_a   6.72464200
_cell_length_b   6.72464200
_cell_length_c   14.21544944
_cell_angle_alpha   75.62750629
_cell_angle_beta   104.37249371
_cell_angle_gamma   121.29997501
_symmetry_Int_Tables_number   1
_chemical_formula_structural   K2TeH6SeO10
_chemical_formula_sum   'K4 Te2 H12 Se2 O20'
_cell_volume   526.53178814
_cell_formula_units_Z   2
loop_
 _symmetry_equiv_pos_site_id
 _symmetry_equiv_pos_as_xyz
  1  'x, y, z'
loop_
 _atom_site_type_symbol
 _atom_site_label
 _atom_site_symmetry_multiplicity
 _atom_site_fract_x
 _atom_site_fract_y
 _atom_site_fract_z
 _atom_site_occupancy
  K  K0  1  0.44718340  0.14604473  0.63957919  1.0
  K  K1  1  0.85395527  -0.44718340  0.13957919  1.0
  K  K2  1  1.14604473  0.44718340  0.86042081  1.0
  K  K3  1  1.55281660  -0.14604473  0.36042081  1.0
  Te  Te4  1  1.50000000  -0.00000000  0.00000000  1.0
  Te  Te5  1  1.00000000  0.50000000  0.50000000  1.0
  H  H6  1  1.88605946  0.07597103  0.56941867  1.0
  H  H7  1  0.92402897  -0.88605946  0.06941867  1.0
  H  H8  1  1.07597103  0.88605946  0.93058133  1.0
  H  H9  1  0.11394054  -0.07597103  0.43058133  1.0
  H  H10  1  0.63729708  -0.05204724  0.86436498  1.0
  H  H11  1  1.05204724  -0.63729708  0.36436498  1.0
  H  H12  1  0.94795276  0.63729708  0.63563502  1.0
  H  H13  1  1.36270292  0.05204724  0.13563502  1.0
  H  H14  1  0.59078793  0.37641259  0.88754398  1.0
  H  H15  1  0.62358741  0.40921207  0.38754398  1.0
  H  H16  1  1.37641259  -0.40921207  0.61245602  1.0
  H  H17  1  1.40921207  -0.37641259  0.11245602  1.0
  Se  Se18  1  0.78398107  0.78398107  0.75000000  1.0
  Se  Se19  1  0.21601893  0.21601893  0.25000000  1.0
  O  O20  1  1.89611383  -0.03896615  0.83621025  1.0
  O  O21  1  1.03896615  -0.89611383  0.33621025  1.0
  O  O22  1  0.96103385  0.89611383  0.66378975  1.0
  O  O23  1  0.10388617  0.03896615  0.16378975  1.0
  O  O24  1  1.52025916  -0.24276951  0.70107081  1.0
  O  O25  1  1.24276951  -0.52025916  0.20107081  1.0
  O  O26  1  0.75723049  0.52025916  0.79892919  1.0
  O  O27  1  0.47974084  0.24276951  0.29892919  1.0
  O  O28  1  1.81328577  0.14961834  0.51192614  1.0
  O  O29  1  0.85038166  -0.81328577  0.01192614  1.0
  O  O30  1  1.14961834  0.81328577  0.98807386  1.0
  O  O31  1  0.18671423  -0.14961834  0.48807386  1.0
  O  O32  1  0.48463978  -0.06365102  0.86683196  1.0
  O  O33  1  1.06365102  -0.48463978  0.36683196  1.0
  O  O34  1  0.93634898  0.48463978  0.63316804  1.0
  O  O35  1  1.51536022  0.06365102  0.13316804  1.0
  O  O36  1  0.48440385  0.29412912  0.93984127  1.0
  O  O37  1  0.70587088  0.51559615  0.43984127  1.0
  O  O38  1  1.29412912  -0.51559615  0.56015873  1.0
  O  O39  1  1.51559615  -0.29412912  0.06015873  1.0
