# generated using pymatgen
data_V2Co2PbO8
_symmetry_space_group_name_H-M   'P 1'
_cell_length_a   9.77774885
_cell_length_b   9.77774885
_cell_length_c   9.77774885
_cell_angle_alpha   100.48569883
_cell_angle_beta   100.48569883
_cell_angle_gamma   129.49566267
_symmetry_Int_Tables_number   1
_chemical_formula_structural   V2Co2PbO8
_chemical_formula_sum   'V8 Co8 Pb4 O32'
_cell_volume   652.42270932
_cell_formula_units_Z   4
loop_
 _symmetry_equiv_pos_site_id
 _symmetry_equiv_pos_as_xyz
  1  'x, y, z'
loop_
 _atom_site_type_symbol
 _atom_site_label
 _atom_site_symmetry_multiplicity
 _atom_site_fract_x
 _atom_site_fract_y
 _atom_site_fract_z
 _atom_site_occupancy
  V  V0  1  0.54034518  0.37739395  0.31357518  1.0
  V  V1  1  1.04034518  1.72676999  1.16295123  1.0
  V  V2  1  0.62739395  0.29034518  0.81357518  1.0
  V  V3  1  1.12739395  1.31381877  1.33704877  1.0
  V  V4  1  1.56381877  0.87739395  0.83704877  1.0
  V  V5  1  1.06381877  1.22676999  1.68642482  1.0
  V  V6  1  0.97676999  0.79034518  0.66295123  1.0
  V  V7  1  0.47676999  0.81381877  1.18642482  1.0
  Pb  Pb8  1  0.01476563  0.01476563  -0.00000000  1.0
  Pb  Pb9  1  0.51476563  0.51476563  -0.00000000  1.0
  Pb  Pb10  1  1.26476563  0.76476563  0.50000000  1.0
  Pb  Pb11  1  0.76476563  0.26476563  0.50000000  1.0
  Co  Co12  1  0.50846796  0.50343479  0.64816029  1.0
  Co  Co13  1  1.00846796  1.36030767  1.00503317  1.0
  Co  Co14  1  0.75343479  1.25846796  1.14816029  1.0
  Co  Co15  1  1.25343479  1.10527449  0.49496683  1.0
  Co  Co16  1  1.35527449  1.00343479  0.99496683  1.0
  Co  Co17  1  0.85527449  0.86030767  1.35183971  1.0
  Co  Co18  1  1.61030767  1.75846796  1.50503317  1.0
  Co  Co19  1  1.11030767  0.60527449  0.85183971  1.0
  O  O20  1  1.55679688  0.69746953  0.84276129  1.0
  O  O21  1  1.05679688  1.21403558  1.85932735  1.0
  O  O22  1  0.94746953  1.30679688  1.34276129  1.0
  O  O23  1  1.44746953  1.10470823  0.64067265  1.0
  O  O24  1  0.35470823  0.19746953  0.14067265  1.0
  O  O25  1  0.85470823  1.71403558  1.15723871  1.0
  O  O26  1  1.46403558  1.80679688  1.35932735  1.0
  O  O27  1  0.96403558  0.60470823  0.65723871  1.0
  O  O28  1  0.76611643  0.73367956  0.65936943  1.0
  O  O29  1  1.26611643  1.60674700  1.03243687  1.0
  O  O30  1  0.98367956  1.51611643  1.15936943  1.0
  O  O31  1  0.48367956  0.32431013  0.46756313  1.0
  O  O32  1  1.57431013  1.23367956  0.96756313  1.0
  O  O33  1  1.07431013  1.10674700  1.34063057  1.0
  O  O34  1  0.85674700  1.01611643  1.53243687  1.0
  O  O35  1  1.35674700  0.82431013  0.84063057  1.0
  O  O36  1  1.57749836  0.89448540  0.66822167  1.0
  O  O37  1  1.07749836  1.40927668  1.68301296  1.0
  O  O38  1  1.14448540  1.32749836  1.16822167  1.0
  O  O39  1  0.64448540  0.47626373  0.81698704  1.0
  O  O40  1  0.72626373  0.39448540  0.31698704  1.0
  O  O41  1  1.22626373  1.90927668  1.33177833  1.0
  O  O42  1  0.65927668  0.82749836  1.18301296  1.0
  O  O43  1  1.15927668  0.97626373  0.83177833  1.0
  O  O44  1  1.34997598  1.51612680  1.48506855  1.0
  O  O45  1  0.84997598  0.36490742  0.83384918  1.0
  O  O46  1  1.76612680  1.09997598  0.98506855  1.0
  O  O47  1  1.26612680  1.28105825  1.66615082  1.0
  O  O48  1  0.53105825  1.01612680  1.16615082  1.0
  O  O49  1  1.03105825  0.86490742  0.51493145  1.0
  O  O50  1  0.61490742  0.59997598  0.33384918  1.0
  O  O51  1  1.11490742  1.78105825  1.01493145  1.0
