# generated using pymatgen
data_Li2C
_symmetry_space_group_name_H-M   'P 1'
_cell_length_a   5.13062955
_cell_length_b   5.13062955
_cell_length_c   6.60857792
_cell_angle_alpha   90.00000000
_cell_angle_beta   90.00000000
_cell_angle_gamma   138.08806031
_symmetry_Int_Tables_number   1
_chemical_formula_structural   Li2C
_chemical_formula_sum   'Li8 C4'
_cell_volume   116.20311304
_cell_formula_units_Z   4
loop_
 _symmetry_equiv_pos_site_id
 _symmetry_equiv_pos_as_xyz
  1  'x, y, z'
loop_
 _atom_site_type_symbol
 _atom_site_label
 _atom_site_symmetry_multiplicity
 _atom_site_fract_x
 _atom_site_fract_y
 _atom_site_fract_z
 _atom_site_occupancy
  Li  Li0  1  0.47348709  0.52651291  0.33518929  1.0
  Li  Li1  1  -0.47348709  0.47348709  0.66481071  1.0
  Li  Li2  1  0.02651291  0.97348709  0.83518929  1.0
  Li  Li3  1  -0.02651291  0.02651291  0.16481071  1.0
  Li  Li4  1  -0.27453959  0.27453959  0.39204392  1.0
  Li  Li5  1  0.27453959  0.72546041  0.60795608  1.0
  Li  Li6  1  -0.22546041  0.22546041  0.89204392  1.0
  Li  Li7  1  0.22546041  0.77453959  0.10795608  1.0
  C  C8  1  0.07132716  0.92867284  0.49224469  1.0
  C  C9  1  -0.07132716  0.07132716  0.50775531  1.0
  C  C10  1  0.42867284  0.57132716  0.99224469  1.0
  C  C11  1  -0.42867284  0.42867284  0.00775531  1.0
