# generated using pymatgen
data_EuZn2
_symmetry_space_group_name_H-M   'P 1'
_cell_length_a   5.80676296
_cell_length_b   5.80676296
_cell_length_c   5.80676296
_cell_angle_alpha   133.01948075
_cell_angle_beta   100.50843257
_cell_angle_gamma   97.78017658
_symmetry_Int_Tables_number   1
_chemical_formula_structural   EuZn2
_chemical_formula_sum   'Eu2 Zn4'
_cell_volume   131.23578523
_cell_formula_units_Z   2
loop_
 _symmetry_equiv_pos_site_id
 _symmetry_equiv_pos_as_xyz
  1  'x, y, z'
loop_
 _atom_site_type_symbol
 _atom_site_label
 _atom_site_symmetry_multiplicity
 _atom_site_fract_x
 _atom_site_fract_y
 _atom_site_fract_z
 _atom_site_occupancy
  Eu  Eu0  1  1.70152784  1.45152784  1.25000000  1.0
  Eu  Eu1  1  0.29847216  0.54847216  0.75000000  1.0
  Zn  Zn2  1  1.27525064  0.83570008  1.43955055  1.0
  Zn  Zn3  1  1.10385047  0.16429992  0.93955055  1.0
  Zn  Zn4  1  0.72474936  1.16429992  0.56044945  1.0
  Zn  Zn5  1  0.89614953  0.83570008  0.06044945  1.0
