# generated using pymatgen
data_CaBiAu
_symmetry_space_group_name_H-M   'P 1'
_cell_length_a   4.84385656
_cell_length_b   4.84385656
_cell_length_c   7.89012686
_cell_angle_alpha   90.00000000
_cell_angle_beta   90.00000000
_cell_angle_gamma   120.00000000
_symmetry_Int_Tables_number   1
_chemical_formula_structural   CaBiAu
_chemical_formula_sum   'Ca2 Bi2 Au2'
_cell_volume   160.32349252
_cell_formula_units_Z   2
loop_
 _symmetry_equiv_pos_site_id
 _symmetry_equiv_pos_as_xyz
  1  'x, y, z'
loop_
 _atom_site_type_symbol
 _atom_site_label
 _atom_site_symmetry_multiplicity
 _atom_site_fract_x
 _atom_site_fract_y
 _atom_site_fract_z
 _atom_site_occupancy
  Ca  Ca0  1  -0.00000000  -0.00000000  -0.01760963  1.0
  Ca  Ca1  1  0.00000000  0.00000000  0.48239037  1.0
  Bi  Bi2  1  0.33333333  0.66666667  0.70530213  1.0
  Bi  Bi3  1  0.66666667  0.33333333  0.20530213  1.0
  Au  Au4  1  0.33333333  0.66666667  0.31230750  1.0
  Au  Au5  1  0.66666667  0.33333333  0.81230750  1.0
