# generated using pymatgen
data_Na2GeS3
_symmetry_space_group_name_H-M   'P 1'
_cell_length_a   7.10175814
_cell_length_b   15.64665929
_cell_length_c   5.87562575
_cell_angle_alpha   90.00000000
_cell_angle_beta   115.75128875
_cell_angle_gamma   90.00000000
_symmetry_Int_Tables_number   1
_chemical_formula_structural   Na2GeS3
_chemical_formula_sum   'Na8 Ge4 S12'
_cell_volume   588.05267681
_cell_formula_units_Z   4
loop_
 _symmetry_equiv_pos_site_id
 _symmetry_equiv_pos_as_xyz
  1  'x, y, z'
loop_
 _atom_site_type_symbol
 _atom_site_label
 _atom_site_symmetry_multiplicity
 _atom_site_fract_x
 _atom_site_fract_y
 _atom_site_fract_z
 _atom_site_occupancy
  Na  Na0  1  0.95474871  0.83111621  0.96893731  1.0
  Na  Na1  1  0.95474871  0.66888379  0.46893731  1.0
  Na  Na2  1  0.04525129  0.33111621  0.53106269  1.0
  Na  Na3  1  0.04525129  0.16888379  0.03106269  1.0
  Na  Na4  1  0.71441836  0.46940919  0.87878278  1.0
  Na  Na5  1  0.71441836  0.03059081  0.37878278  1.0
  Na  Na6  1  0.28558164  0.96940919  0.62121722  1.0
  Na  Na7  1  0.28558164  0.53059081  0.12121722  1.0
  Ge  Ge8  1  0.55331904  0.67184907  0.70129430  1.0
  Ge  Ge9  1  0.55331904  0.82815093  0.20129430  1.0
  Ge  Ge10  1  0.44668096  0.17184907  0.79870570  1.0
  Ge  Ge11  1  0.44668096  0.32815093  0.29870570  1.0
  S  S12  1  0.88620002  0.64339552  0.93578085  1.0
  S  S13  1  0.88620002  0.85660448  0.43578085  1.0
  S  S14  1  0.11379998  0.14339552  0.56421915  1.0
  S  S15  1  0.11379998  0.35660448  0.06421915  1.0
  S  S16  1  0.48490743  0.80742358  0.78578303  1.0
  S  S17  1  0.48490743  0.69257642  0.28578303  1.0
  S  S18  1  0.51509257  0.30742358  0.71421697  1.0
  S  S19  1  0.51509257  0.19257642  0.21421697  1.0
  S  S20  1  0.32846589  0.56972539  0.65765615  1.0
  S  S21  1  0.32846589  0.93027461  0.15765615  1.0
  S  S22  1  0.67153411  0.06972539  0.84234385  1.0
  S  S23  1  0.67153411  0.43027461  0.34234385  1.0
