# generated using pymatgen
data_K4HgAs2
_symmetry_space_group_name_H-M   'P 1'
_cell_length_a   9.97445998
_cell_length_b   9.97445998
_cell_length_c   9.97445998
_cell_angle_alpha   33.84946733
_cell_angle_beta   33.84946733
_cell_angle_gamma   33.84946733
_symmetry_Int_Tables_number   1
_chemical_formula_structural   K4HgAs2
_chemical_formula_sum   'K4 Hg1 As2'
_cell_volume   274.37909997
_cell_formula_units_Z   1
loop_
 _symmetry_equiv_pos_site_id
 _symmetry_equiv_pos_as_xyz
  1  'x, y, z'
loop_
 _atom_site_type_symbol
 _atom_site_label
 _atom_site_symmetry_multiplicity
 _atom_site_fract_x
 _atom_site_fract_y
 _atom_site_fract_z
 _atom_site_occupancy
  K  K0  1  0.79228022  0.79228022  0.79228022  1.0
  K  K1  1  1.20771978  1.20771978  0.20771978  1.0
  K  K2  1  1.61008022  0.61008022  0.61008022  1.0
  K  K3  1  1.38991978  0.38991978  0.38991978  1.0
  Hg  Hg4  1  0.00000000  0.00000000  0.00000000  1.0
  As  As5  1  0.91051949  0.91051949  0.91051949  1.0
  As  As6  1  1.08948051  1.08948051  0.08948051  1.0
