# generated using pymatgen
data_Fe(BMo)2
_symmetry_space_group_name_H-M   'P 1'
_cell_length_a   5.76170002
_cell_length_b   5.76170002
_cell_length_c   3.15648751
_cell_angle_alpha   90.00000000
_cell_angle_beta   90.00000000
_cell_angle_gamma   90.00000000
_symmetry_Int_Tables_number   1
_chemical_formula_structural   Fe(BMo)2
_chemical_formula_sum   'Fe2 B4 Mo4'
_cell_volume   104.78650656
_cell_formula_units_Z   2
loop_
 _symmetry_equiv_pos_site_id
 _symmetry_equiv_pos_as_xyz
  1  'x, y, z'
loop_
 _atom_site_type_symbol
 _atom_site_label
 _atom_site_symmetry_multiplicity
 _atom_site_fract_x
 _atom_site_fract_y
 _atom_site_fract_z
 _atom_site_occupancy
  Fe  Fe0  1  0.50000000  0.50000000  0.00000000  1.0
  Fe  Fe1  1  0.00000000  0.00000000  0.00000000  1.0
  B  B2  1  0.88719121  0.61280879  0.00000000  1.0
  B  B3  1  0.38719121  0.88719121  0.00000000  1.0
  B  B4  1  0.11280879  0.38719121  0.00000000  1.0
  B  B5  1  0.61280879  0.11280879  0.00000000  1.0
  Mo  Mo6  1  0.32217233  0.17782767  0.50000000  1.0
  Mo  Mo7  1  0.82217233  0.32217233  0.50000000  1.0
  Mo  Mo8  1  0.67782767  0.82217233  0.50000000  1.0
  Mo  Mo9  1  0.17782767  0.67782767  0.50000000  1.0
