# generated using pymatgen
data_Ag(Bi2S3)3
_symmetry_space_group_name_H-M   'P 1'
_cell_length_a   7.19782161
_cell_length_b   7.19782161
_cell_length_c   15.05496626
_cell_angle_alpha   81.50510879
_cell_angle_beta   98.49489121
_cell_angle_gamma   146.91787858
_symmetry_Int_Tables_number   1
_chemical_formula_structural   Ag(Bi2S3)3
_chemical_formula_sum   'Ag1 Bi6 S9'
_cell_volume   420.65791592
_cell_formula_units_Z   1
loop_
 _symmetry_equiv_pos_site_id
 _symmetry_equiv_pos_as_xyz
  1  'x, y, z'
loop_
 _atom_site_type_symbol
 _atom_site_label
 _atom_site_symmetry_multiplicity
 _atom_site_fract_x
 _atom_site_fract_y
 _atom_site_fract_z
 _atom_site_occupancy
  Ag  Ag0  1  0.50000000  0.50000000  0.50000000  1.0
  Bi  Bi1  1  0.85397071  0.14602929  0.93563476  1.0
  Bi  Bi2  1  0.14602929  -0.14602929  0.06436524  1.0
  Bi  Bi3  1  0.56124640  0.43875360  0.81069099  1.0
  Bi  Bi4  1  0.43875360  -0.43875360  0.18930901  1.0
  Bi  Bi5  1  0.75007361  0.24992639  0.38282238  1.0
  Bi  Bi6  1  0.24992639  -0.24992639  0.61717762  1.0
  S  S7  1  0.50000000  0.50000000  0.00000000  1.0
  S  S8  1  0.92526244  0.07473756  0.77478766  1.0
  S  S9  1  0.07473756  -0.07473756  0.22521234  1.0
  S  S10  1  0.85681766  0.14318234  0.54130260  1.0
  S  S11  1  0.14318234  -0.14318234  0.45869740  1.0
  S  S12  1  0.78860581  0.21139419  0.11450213  1.0
  S  S13  1  0.21139419  -0.21139419  0.88549787  1.0
  S  S14  1  0.61518404  0.38481596  0.64714662  1.0
  S  S15  1  0.38481596  -0.38481596  0.35285338  1.0
