# generated using pymatgen
data_BaSnS3
_symmetry_space_group_name_H-M   'P 1'
_cell_length_a   8.59988274
_cell_length_b   3.99433603
_cell_length_c   14.76784627
_cell_angle_alpha   90.00000000
_cell_angle_beta   90.00000000
_cell_angle_gamma   90.00000000
_symmetry_Int_Tables_number   1
_chemical_formula_structural   BaSnS3
_chemical_formula_sum   'Ba4 Sn4 S12'
_cell_volume   507.28765077
_cell_formula_units_Z   4
loop_
 _symmetry_equiv_pos_site_id
 _symmetry_equiv_pos_as_xyz
  1  'x, y, z'
loop_
 _atom_site_type_symbol
 _atom_site_label
 _atom_site_symmetry_multiplicity
 _atom_site_fract_x
 _atom_site_fract_y
 _atom_site_fract_z
 _atom_site_occupancy
  Ba  Ba0  1  0.57592346  0.75000000  0.67470891  1.0
  Ba  Ba1  1  0.07592346  0.75000000  0.82529109  1.0
  Ba  Ba2  1  0.42407654  0.25000000  0.32529109  1.0
  Ba  Ba3  1  0.92407654  0.25000000  0.17470891  1.0
  Sn  Sn4  1  0.83091334  0.75000000  0.44321525  1.0
  Sn  Sn5  1  0.33091334  0.75000000  0.05678475  1.0
  Sn  Sn6  1  0.16908666  0.25000000  0.55678475  1.0
  Sn  Sn7  1  0.66908666  0.25000000  0.94321525  1.0
  S  S8  1  0.97288205  0.75000000  0.60021899  1.0
  S  S9  1  0.47288205  0.75000000  0.89978101  1.0
  S  S10  1  0.02711795  0.25000000  0.39978101  1.0
  S  S11  1  0.52711795  0.25000000  0.10021899  1.0
  S  S12  1  0.84143686  0.75000000  0.00236576  1.0
  S  S13  1  0.34143686  0.75000000  0.49763424  1.0
  S  S14  1  0.15856314  0.25000000  0.99763424  1.0
  S  S15  1  0.65856314  0.25000000  0.50236576  1.0
  S  S16  1  0.71097265  0.75000000  0.29031573  1.0
  S  S17  1  0.21097265  0.75000000  0.20968427  1.0
  S  S18  1  0.28902735  0.25000000  0.70968427  1.0
  S  S19  1  0.78902735  0.25000000  0.79031573  1.0
