# generated using pymatgen
data_Ca5Ni15B4
_symmetry_space_group_name_H-M   'P 1'
_cell_length_a   5.09621200
_cell_length_b   5.09621200
_cell_length_c   27.89048190
_cell_angle_alpha   90.00000000
_cell_angle_beta   90.00000000
_cell_angle_gamma   120.00000000
_symmetry_Int_Tables_number   1
_chemical_formula_structural   Ca5Ni15B4
_chemical_formula_sum   'Ca10 Ni30 B8'
_cell_volume   627.30915069
_cell_formula_units_Z   2
loop_
 _symmetry_equiv_pos_site_id
 _symmetry_equiv_pos_as_xyz
  1  'x, y, z'
loop_
 _atom_site_type_symbol
 _atom_site_label
 _atom_site_symmetry_multiplicity
 _atom_site_fract_x
 _atom_site_fract_y
 _atom_site_fract_z
 _atom_site_occupancy
  Ca  Ca0  1  0.33333333  0.66666667  0.98143223  1.0
  Ca  Ca1  1  0.33333333  0.66666667  0.51856777  1.0
  Ca  Ca2  1  0.66666667  0.33333333  0.48143223  1.0
  Ca  Ca3  1  0.66666667  0.33333333  0.01856777  1.0
  Ca  Ca4  1  0.33333333  0.66666667  0.86876308  1.0
  Ca  Ca5  1  0.33333333  0.66666667  0.63123692  1.0
  Ca  Ca6  1  0.66666667  0.33333333  0.36876308  1.0
  Ca  Ca7  1  0.66666667  0.33333333  0.13123692  1.0
  Ca  Ca8  1  0.33333333  0.66666667  0.75000000  1.0
  Ca  Ca9  1  0.66666667  0.33333333  0.25000000  1.0
  Ni  Ni10  1  0.16428642  0.83571358  0.42199739  1.0
  Ni  Ni11  1  0.16428642  0.83571358  0.07800261  1.0
  Ni  Ni12  1  0.16428642  0.32857285  0.42199739  1.0
  Ni  Ni13  1  0.16428642  0.32857285  0.07800261  1.0
  Ni  Ni14  1  0.83571358  0.16428642  0.92199739  1.0
  Ni  Ni15  1  0.83571358  0.16428642  0.57800261  1.0
  Ni  Ni16  1  0.83571358  0.67142715  0.92199739  1.0
  Ni  Ni17  1  0.83571358  0.67142715  0.57800261  1.0
  Ni  Ni18  1  0.67142715  0.83571358  0.42199739  1.0
  Ni  Ni19  1  0.67142715  0.83571358  0.07800261  1.0
  Ni  Ni20  1  0.32857285  0.16428642  0.92199739  1.0
  Ni  Ni21  1  0.32857285  0.16428642  0.57800261  1.0
  Ni  Ni22  1  0.16720995  0.83279005  0.32258026  1.0
  Ni  Ni23  1  0.16720995  0.83279005  0.17741974  1.0
  Ni  Ni24  1  0.16720995  0.33441990  0.32258026  1.0
  Ni  Ni25  1  0.16720995  0.33441990  0.17741974  1.0
  Ni  Ni26  1  0.83279005  0.16720995  0.82258026  1.0
  Ni  Ni27  1  0.83279005  0.16720995  0.67741974  1.0
  Ni  Ni28  1  0.83279005  0.66558010  0.82258026  1.0
  Ni  Ni29  1  0.83279005  0.66558010  0.67741974  1.0
  Ni  Ni30  1  0.66558010  0.83279005  0.32258026  1.0
  Ni  Ni31  1  0.66558010  0.83279005  0.17741974  1.0
  Ni  Ni32  1  0.33441990  0.16720995  0.82258026  1.0
  Ni  Ni33  1  0.33441990  0.16720995  0.67741974  1.0
  Ni  Ni34  1  0.33333333  0.66666667  0.25000000  1.0
  Ni  Ni35  1  0.66666667  0.33333333  0.75000000  1.0
  Ni  Ni36  1  0.00000000  0.00000000  0.25000000  1.0
  Ni  Ni37  1  0.00000000  0.00000000  0.75000000  1.0
  Ni  Ni38  1  0.00000000  0.00000000  0.50000000  1.0
  Ni  Ni39  1  0.00000000  0.00000000  0.00000000  1.0
  B  B40  1  0.33333333  0.66666667  0.37329776  1.0
  B  B41  1  0.33333333  0.66666667  0.12670224  1.0
  B  B42  1  0.66666667  0.33333333  0.87329776  1.0
  B  B43  1  0.66666667  0.33333333  0.62670224  1.0
  B  B44  1  0.00000000  0.00000000  0.37180395  1.0
  B  B45  1  0.00000000  0.00000000  0.12819605  1.0
  B  B46  1  0.00000000  0.00000000  0.87180395  1.0
  B  B47  1  0.00000000  0.00000000  0.62819605  1.0
