# generated using pymatgen
data_BiBr
_symmetry_space_group_name_H-M   'P 1'
_cell_length_a   7.68151322
_cell_length_b   7.68151322
_cell_length_c   21.48282472
_cell_angle_alpha   71.29489614
_cell_angle_beta   108.70510386
_cell_angle_gamma   147.85014494
_symmetry_Int_Tables_number   1
_chemical_formula_structural   BiBr
_chemical_formula_sum   'Bi8 Br8'
_cell_volume   635.86297039
_cell_formula_units_Z   8
loop_
 _symmetry_equiv_pos_site_id
 _symmetry_equiv_pos_as_xyz
  1  'x, y, z'
loop_
 _atom_site_type_symbol
 _atom_site_label
 _atom_site_symmetry_multiplicity
 _atom_site_fract_x
 _atom_site_fract_y
 _atom_site_fract_z
 _atom_site_occupancy
  Bi  Bi0  1  0.67933325  0.32066675  0.50519227  1.0
  Bi  Bi1  1  1.32066675  -0.32066675  0.49480773  1.0
  Bi  Bi2  1  0.67416869  0.32583131  0.99401120  1.0
  Bi  Bi3  1  1.32583131  -0.32583131  0.00598880  1.0
  Bi  Bi4  1  1.42797704  -0.42797704  0.64487335  1.0
  Bi  Bi5  1  0.57202296  0.42797704  0.35512665  1.0
  Bi  Bi6  1  0.29185947  -0.29185947  0.85661514  1.0
  Bi  Bi7  1  0.70814053  -0.70814053  0.14338486  1.0
  Br  Br8  1  0.93797894  -0.93797894  0.88927438  1.0
  Br  Br9  1  0.06202106  -0.06202106  0.11072562  1.0
  Br  Br10  1  0.95391471  -0.95391471  0.38342036  1.0
  Br  Br11  1  0.04608529  -0.04608529  0.61657964  1.0
  Br  Br12  1  0.81727608  0.18272392  0.68175828  1.0
  Br  Br13  1  1.18272392  -0.18272392  0.31824172  1.0
  Br  Br14  1  0.64551502  0.35448498  0.81772117  1.0
  Br  Br15  1  1.35448498  -0.35448498  0.18227883  1.0
