# generated using pymatgen
data_CaSiBHO5
_symmetry_space_group_name_H-M   'P 1'
_cell_length_a   4.90769485
_cell_length_b   7.69333800
_cell_length_c   9.69503266
_cell_angle_alpha   90.00000000
_cell_angle_beta   90.12018027
_cell_angle_gamma   90.00000000
_symmetry_Int_Tables_number   1
_chemical_formula_structural   CaSiBHO5
_chemical_formula_sum   'Ca4 Si4 B4 H4 O20'
_cell_volume   366.05023135
_cell_formula_units_Z   4
loop_
 _symmetry_equiv_pos_site_id
 _symmetry_equiv_pos_as_xyz
  1  'x, y, z'
loop_
 _atom_site_type_symbol
 _atom_site_label
 _atom_site_symmetry_multiplicity
 _atom_site_fract_x
 _atom_site_fract_y
 _atom_site_fract_z
 _atom_site_occupancy
  Ca  Ca0  1  0.98884554  0.60539676  0.83784958  1.0
  Ca  Ca1  1  0.98884554  0.89460324  0.33784958  1.0
  Ca  Ca2  1  0.01115446  0.10539676  0.66215042  1.0
  Ca  Ca3  1  0.01115446  0.39460324  0.16215042  1.0
  Si  Si4  1  0.46453431  0.76447840  0.58439484  1.0
  Si  Si5  1  0.46453431  0.73552160  0.08439484  1.0
  Si  Si6  1  0.53546569  0.26447840  0.91560516  1.0
  Si  Si7  1  0.53546569  0.23552160  0.41560516  1.0
  B  B8  1  0.56700799  0.91062625  0.83989600  1.0
  B  B9  1  0.56700799  0.58937375  0.33989600  1.0
  B  B10  1  0.43299201  0.41062625  0.66010400  1.0
  B  B11  1  0.43299201  0.08937375  0.16010400  1.0
  H  H12  1  0.80233563  0.46665785  0.57669381  1.0
  H  H13  1  0.80233563  0.03334215  0.07669381  1.0
  H  H14  1  0.19766437  0.96665785  0.92330619  1.0
  H  H15  1  0.19766437  0.53334215  0.42330619  1.0
  O  O16  1  0.76398151  0.39956581  0.96274963  1.0
  O  O17  1  0.76398151  0.10043419  0.46274963  1.0
  O  O18  1  0.23601849  0.89956581  0.53725037  1.0
  O  O19  1  0.23601849  0.60043419  0.03725037  1.0
  O  O20  1  0.73871024  0.41653434  0.66374428  1.0
  O  O21  1  0.73871024  0.08346566  0.16374428  1.0
  O  O22  1  0.26128976  0.91653434  0.83625572  1.0
  O  O23  1  0.26128976  0.58346566  0.33625572  1.0
  O  O24  1  0.67071478  0.83438846  0.71001237  1.0
  O  O25  1  0.67071478  0.66561154  0.21001237  1.0
  O  O26  1  0.32928522  0.33438846  0.78998763  1.0
  O  O27  1  0.32928522  0.16561154  0.28998763  1.0
  O  O28  1  0.66617943  0.80090576  0.95662231  1.0
  O  O29  1  0.66617943  0.69909424  0.45662231  1.0
  O  O30  1  0.33382057  0.30090576  0.54337769  1.0
  O  O31  1  0.33382057  0.19909424  0.04337769  1.0
  O  O32  1  0.31221327  0.58610220  0.64661352  1.0
  O  O33  1  0.31221327  0.91389780  0.14661352  1.0
  O  O34  1  0.68778673  0.08610220  0.85338648  1.0
  O  O35  1  0.68778673  0.41389780  0.35338648  1.0
