# generated using pymatgen
data_HfCoF6
_symmetry_space_group_name_H-M   'P 1'
_cell_length_a   5.72934833
_cell_length_b   5.72934833
_cell_length_c   5.72934833
_cell_angle_alpha   59.95245176
_cell_angle_beta   59.95245176
_cell_angle_gamma   59.95245176
_symmetry_Int_Tables_number   1
_chemical_formula_structural   HfCoF6
_chemical_formula_sum   'Hf1 Co1 F6'
_cell_volume   132.84099082
_cell_formula_units_Z   1
loop_
 _symmetry_equiv_pos_site_id
 _symmetry_equiv_pos_as_xyz
  1  'x, y, z'
loop_
 _atom_site_type_symbol
 _atom_site_label
 _atom_site_symmetry_multiplicity
 _atom_site_fract_x
 _atom_site_fract_y
 _atom_site_fract_z
 _atom_site_occupancy
  Hf  Hf0  1  0.50000000  0.50000000  -0.50000000  1.0
  Co  Co1  1  0.00000000  -0.00000000  -0.00000000  1.0
  F  F2  1  0.24962734  0.74820849  -0.74589048  1.0
  F  F3  1  0.74589048  -0.24962734  0.25179151  1.0
  F  F4  1  1.25179151  -0.25410952  -0.24962734  1.0
  F  F5  1  0.75037266  0.25179151  -0.25410952  1.0
  F  F6  1  0.25410952  0.24962734  -0.25179151  1.0
  F  F7  1  0.74820849  0.25410952  -0.75037266  1.0
