# generated using pymatgen
data_CsInP3O10
_symmetry_space_group_name_H-M   'P 1'
_cell_length_a   7.75772355
_cell_length_b   7.75772355
_cell_length_c   9.75448641
_cell_angle_alpha   74.25215530
_cell_angle_beta   105.74784470
_cell_angle_gamma   107.01721921
_symmetry_Int_Tables_number   1
_chemical_formula_structural   CsInP3O10
_chemical_formula_sum   'Cs2 In2 P6 O20'
_cell_volume   528.38969167
_cell_formula_units_Z   2
loop_
 _symmetry_equiv_pos_site_id
 _symmetry_equiv_pos_as_xyz
  1  'x, y, z'
loop_
 _atom_site_type_symbol
 _atom_site_label
 _atom_site_symmetry_multiplicity
 _atom_site_fract_x
 _atom_site_fract_y
 _atom_site_fract_z
 _atom_site_occupancy
  P  P0  1  1.35101805  -0.26190184  0.71748079  1.0
  P  P1  1  1.26190184  -0.35101805  0.21748079  1.0
  P  P2  1  0.73809816  0.35101805  0.78251921  1.0
  P  P3  1  0.64898195  0.26190184  0.28251921  1.0
  P  P4  1  0.34541715  0.34541715  0.75000000  1.0
  P  P5  1  0.65458285  0.65458285  0.25000000  1.0
  O  O6  1  0.71768552  0.15801124  0.88471127  1.0
  O  O7  1  0.84198876  0.28231448  0.38471127  1.0
  O  O8  1  1.15801124  -0.28231448  0.61528873  1.0
  O  O9  1  1.28231448  -0.15801124  0.11528873  1.0
  O  O10  1  1.35845207  -0.16486678  0.83660544  1.0
  O  O11  1  1.16486678  -0.35845207  0.33660544  1.0
  O  O12  1  0.83513322  0.35845207  0.66339456  1.0
  O  O13  1  0.64154793  0.16486678  0.16339456  1.0
  O  O14  1  0.52671355  0.36686389  0.69341043  1.0
  O  O15  1  0.63313611  0.47328645  0.19341043  1.0
  O  O16  1  1.36686389  -0.47328645  0.80658957  1.0
  O  O17  1  1.47328645  -0.36686389  0.30658957  1.0
  O  O18  1  0.32526349  0.18639094  0.88108618  1.0
  O  O19  1  0.81360906  0.67473651  0.38108618  1.0
  O  O20  1  1.18639094  -0.67473651  0.61891382  1.0
  O  O21  1  1.67473651  -0.18639094  0.11891382  1.0
  O  O22  1  1.50914490  -0.17702697  0.63859859  1.0
  O  O23  1  1.17702697  -0.50914490  0.13859859  1.0
  O  O24  1  0.82297303  0.50914490  0.86140141  1.0
  O  O25  1  0.49085510  0.17702697  0.36140141  1.0
  Cs  Cs26  1  0.91738033  0.91738033  0.75000000  1.0
  Cs  Cs27  1  0.08261967  0.08261967  0.25000000  1.0
  In  In28  1  1.50000000  -0.00000000  -0.00000000  1.0
  In  In29  1  1.00000000  0.50000000  0.50000000  1.0
