# generated using pymatgen
data_BeCu4
_symmetry_space_group_name_H-M   'P 1'
_cell_length_a   5.71942418
_cell_length_b   5.71942418
_cell_length_c   5.71942418
_cell_angle_alpha   60.00000000
_cell_angle_beta   60.00000000
_cell_angle_gamma   60.00000000
_symmetry_Int_Tables_number   1
_chemical_formula_structural   BeCu4
_chemical_formula_sum   'Be2 Cu8'
_cell_volume   132.29454104
_cell_formula_units_Z   2
loop_
 _symmetry_equiv_pos_site_id
 _symmetry_equiv_pos_as_xyz
  1  'x, y, z'
loop_
 _atom_site_type_symbol
 _atom_site_label
 _atom_site_symmetry_multiplicity
 _atom_site_fract_x
 _atom_site_fract_y
 _atom_site_fract_z
 _atom_site_occupancy
  Be  Be0  1  0.50000000  0.50000000  -0.50000000  1.0
  Be  Be1  1  0.75000000  -0.25000000  0.75000000  1.0
  Cu  Cu2  1  -0.10625126  0.89374874  0.31875378  1.0
  Cu  Cu3  1  0.89374874  -0.68124622  0.89374874  1.0
  Cu  Cu4  1  0.35625126  0.35625126  0.35625126  1.0
  Cu  Cu5  1  -0.06875378  0.35625126  0.35625126  1.0
  Cu  Cu6  1  -0.68124622  0.89374874  0.89374874  1.0
  Cu  Cu7  1  0.89374874  -0.10625126  0.89374874  1.0
  Cu  Cu8  1  0.35625126  -0.06875378  0.35625126  1.0
  Cu  Cu9  1  0.35625126  0.35625126  -0.06875378  1.0
