# generated using pymatgen
data_TeC6(NF2)2
_symmetry_space_group_name_H-M   'P 1'
_cell_length_a   5.24770259
_cell_length_b   10.38222853
_cell_length_c   8.03362177
_cell_angle_alpha   90.67386158
_cell_angle_beta   90.99350503
_cell_angle_gamma   89.31860194
_symmetry_Int_Tables_number   1
_chemical_formula_structural   TeC6(NF2)2
_chemical_formula_sum   'Te2 C12 N4 F8'
_cell_volume   437.56861675
_cell_formula_units_Z   2
loop_
 _symmetry_equiv_pos_site_id
 _symmetry_equiv_pos_as_xyz
  1  'x, y, z'
loop_
 _atom_site_type_symbol
 _atom_site_label
 _atom_site_symmetry_multiplicity
 _atom_site_fract_x
 _atom_site_fract_y
 _atom_site_fract_z
 _atom_site_occupancy
  Te  Te0  1  -0.46338880  -0.02295585  -0.74961561  1.0
  Te  Te1  1  -0.53661120  -0.97704415  -0.25038439  1.0
  C  C2  1  -0.80173216  -0.82584373  -0.65806963  1.0
  C  C3  1  -0.19826784  -0.17415627  -0.34193037  1.0
  C  C4  1  -0.80026846  -0.82515176  -0.84222939  1.0
  C  C5  1  -0.19973154  -0.17484824  -0.15777061  1.0
  C  C6  1  -0.95899207  -0.73298053  -0.92663135  1.0
  C  C7  1  -0.04100793  -0.26701947  -0.07336865  1.0
  C  C8  1  -0.10879157  -0.64805959  -0.83974896  1.0
  C  C9  1  -0.89120843  -0.35194041  -0.16025104  1.0
  C  C10  1  -0.11101336  -0.64905529  -0.66185100  1.0
  C  C11  1  -0.88898664  -0.35094471  -0.33814900  1.0
  C  C12  1  -0.96311101  -0.73481950  -0.57431825  1.0
  C  C13  1  -0.03688899  -0.26518050  -0.42568175  1.0
  N  N14  1  -0.65571928  -0.91039444  -0.57908908  1.0
  N  N15  1  -0.34428072  -0.08960556  -0.42091092  1.0
  N  N16  1  -0.65383051  -0.90956207  -0.92058353  1.0
  N  N17  1  -0.34616949  -0.09043793  -0.07941647  1.0
  F  F18  1  -0.96136425  -0.73087928  -0.09419427  1.0
  F  F19  1  -0.03863575  -0.26912072  -0.90580573  1.0
  F  F20  1  -0.26028279  -0.56199540  -0.91859362  1.0
  F  F21  1  -0.73971721  -0.43800460  -0.08140638  1.0
  F  F22  1  -0.26449599  -0.56384518  -0.58379638  1.0
  F  F23  1  -0.73550401  -0.43615482  -0.41620362  1.0
  F  F24  1  0.03059121  -0.73474912  -0.40685132  1.0
  F  F25  1  -1.03059121  -0.26525088  -0.59314868  1.0
