# generated using pymatgen
data_Cs3P7
_symmetry_space_group_name_H-M   'P 1'
_cell_length_a   9.28070515
_cell_length_b   9.28070515
_cell_length_c   16.91213346
_cell_angle_alpha   90.00000000
_cell_angle_beta   90.00000000
_cell_angle_gamma   90.00000000
_symmetry_Int_Tables_number   1
_chemical_formula_structural   Cs3P7
_chemical_formula_sum   'Cs12 P28'
_cell_volume   1456.66722094
_cell_formula_units_Z   4
loop_
 _symmetry_equiv_pos_site_id
 _symmetry_equiv_pos_as_xyz
  1  'x, y, z'
loop_
 _atom_site_type_symbol
 _atom_site_label
 _atom_site_symmetry_multiplicity
 _atom_site_fract_x
 _atom_site_fract_y
 _atom_site_fract_z
 _atom_site_occupancy
  Cs  Cs0  1  0.98489926  0.82594952  0.56029810  1.0
  Cs  Cs1  1  0.82594952  0.01510074  0.31029810  1.0
  Cs  Cs2  1  0.01510074  0.17405048  0.06029810  1.0
  Cs  Cs3  1  0.17405048  0.98489926  0.81029810  1.0
  Cs  Cs4  1  0.74404154  0.62663616  0.06082418  1.0
  Cs  Cs5  1  0.62663616  0.25595846  0.81082418  1.0
  Cs  Cs6  1  0.25595846  0.37336384  0.56082418  1.0
  Cs  Cs7  1  0.37336384  0.74404154  0.31082418  1.0
  Cs  Cs8  1  0.58622821  0.73636774  0.72293220  1.0
  Cs  Cs9  1  0.73636774  0.41377179  0.47293220  1.0
  Cs  Cs10  1  0.41377179  0.26363226  0.22293220  1.0
  Cs  Cs11  1  0.26363226  0.58622821  0.97293220  1.0
  P  P12  1  0.97724359  0.64861404  0.75249664  1.0
  P  P13  1  0.64861404  0.02275641  0.50249664  1.0
  P  P14  1  0.02275641  0.35138596  0.25249664  1.0
  P  P15  1  0.35138596  0.97724359  0.00249664  1.0
  P  P16  1  0.90908493  0.55989078  0.86702808  1.0
  P  P17  1  0.55989078  0.09091507  0.61702808  1.0
  P  P18  1  0.09091507  0.44010922  0.36702808  1.0
  P  P19  1  0.44010922  0.90908493  0.11702808  1.0
  P  P20  1  0.89630403  0.48308700  0.67021752  1.0
  P  P21  1  0.48308700  0.10369597  0.42021752  1.0
  P  P22  1  0.10369597  0.51691300  0.17021752  1.0
  P  P23  1  0.51691300  0.89630403  0.92021752  1.0
  P  P24  1  0.70234831  0.99566474  0.97248895  1.0
  P  P25  1  0.99566474  0.29765169  0.72248895  1.0
  P  P26  1  0.29765169  0.00433526  0.47248895  1.0
  P  P27  1  0.00433526  0.70234831  0.22248895  1.0
  P  P28  1  0.60696977  0.78904213  0.50018766  1.0
  P  P29  1  0.78904213  0.39303023  0.25018766  1.0
  P  P30  1  0.39303023  0.21095787  0.00018766  1.0
  P  P31  1  0.21095787  0.60696977  0.75018766  1.0
  P  P32  1  0.38237388  0.79307924  0.52871797  1.0
  P  P33  1  0.79307924  0.61762612  0.27871797  1.0
  P  P34  1  0.61762612  0.20692076  0.02871797  1.0
  P  P35  1  0.20692076  0.38237388  0.77871797  1.0
  P  P36  1  0.35088164  0.99425365  0.60610870  1.0
  P  P37  1  0.99425365  0.64911836  0.35610870  1.0
  P  P38  1  0.64911836  0.00574635  0.10610870  1.0
  P  P39  1  0.00574635  0.35088164  0.85610870  1.0
