# generated using pymatgen
data_Na2SiF6
_symmetry_space_group_name_H-M   'P 1'
_cell_length_a   9.38920881
_cell_length_b   9.38920881
_cell_length_c   4.59842530
_cell_angle_alpha   90.00000000
_cell_angle_beta   90.00000000
_cell_angle_gamma   120.00000000
_symmetry_Int_Tables_number   1
_chemical_formula_structural   Na2SiF6
_chemical_formula_sum   'Na6 Si3 F18'
_cell_volume   351.07326838
_cell_formula_units_Z   3
loop_
 _symmetry_equiv_pos_site_id
 _symmetry_equiv_pos_as_xyz
  1  'x, y, z'
loop_
 _atom_site_type_symbol
 _atom_site_label
 _atom_site_symmetry_multiplicity
 _atom_site_fract_x
 _atom_site_fract_y
 _atom_site_fract_z
 _atom_site_occupancy
  Na  Na0  1  0.65691840  0.65691840  -0.00000000  1.0
  Na  Na1  1  0.65691840  -0.00000000  0.00000000  1.0
  Na  Na2  1  -0.00000000  0.65691840  0.00000000  1.0
  Na  Na3  1  0.00000000  0.34308160  0.00000000  1.0
  Na  Na4  1  0.34308160  0.34308160  -0.00000000  1.0
  Na  Na5  1  0.34308160  0.00000000  0.00000000  1.0
  Si  Si6  1  0.33333333  0.66666667  0.50002782  1.0
  Si  Si7  1  0.66666667  0.33333333  0.49997218  1.0
  Si  Si8  1  0.00000000  0.00000000  -0.00000000  1.0
  F  F9  1  0.82426849  0.91213425  0.20859299  1.0
  F  F10  1  0.91213425  0.82426849  0.79140701  1.0
  F  F11  1  0.91213425  0.08786575  0.79140701  1.0
  F  F12  1  0.08786575  0.91213425  0.20859299  1.0
  F  F13  1  0.08786575  0.17573151  0.20859299  1.0
  F  F14  1  0.17573151  0.08786575  0.79140701  1.0
  F  F15  1  0.15912747  0.57956373  0.28446007  1.0
  F  F16  1  0.57956373  0.15912747  0.71553993  1.0
  F  F17  1  0.57956373  0.42043627  0.71553993  1.0
  F  F18  1  0.42043627  0.57956373  0.28446007  1.0
  F  F19  1  0.42043627  0.84087253  0.28446007  1.0
  F  F20  1  0.84087253  0.42043627  0.71553993  1.0
  F  F21  1  0.49255601  0.24627801  0.28623770  1.0
  F  F22  1  0.24627801  0.49255601  0.71376230  1.0
  F  F23  1  0.24627801  0.75372199  0.71376230  1.0
  F  F24  1  0.75372199  0.24627801  0.28623770  1.0
  F  F25  1  0.75372199  0.50744399  0.28623770  1.0
  F  F26  1  0.50744399  0.75372199  0.71376230  1.0
