# generated using pymatgen
data_YFeC6N6O5
_symmetry_space_group_name_H-M   'P 1'
_cell_length_a   7.43631828
_cell_length_b   7.43631828
_cell_length_c   13.61219570
_cell_angle_alpha   90.00000000
_cell_angle_beta   90.00000000
_cell_angle_gamma   120.00000000
_symmetry_Int_Tables_number   1
_chemical_formula_structural   YFeC6N6O5
_chemical_formula_sum   'Y2 Fe2 C12 N12 O10'
_cell_volume   651.89065508
_cell_formula_units_Z   2
loop_
 _symmetry_equiv_pos_site_id
 _symmetry_equiv_pos_as_xyz
  1  'x, y, z'
loop_
 _atom_site_type_symbol
 _atom_site_label
 _atom_site_symmetry_multiplicity
 _atom_site_fract_x
 _atom_site_fract_y
 _atom_site_fract_z
 _atom_site_occupancy
  Y  Y0  1  0.66666667  0.33333333  0.25000000  1.0
  Y  Y1  1  0.33333333  0.66666667  0.75000000  1.0
  Fe  Fe2  1  0.00000000  0.00000000  0.50000000  1.0
  Fe  Fe3  1  0.00000000  0.00000000  0.00000000  1.0
  C  C4  1  0.88052637  0.75996492  0.41835778  1.0
  C  C5  1  0.88052637  0.75996492  0.08164222  1.0
  C  C6  1  0.75996492  0.87943856  0.91835778  1.0
  C  C7  1  0.75996492  0.87943856  0.58164222  1.0
  C  C8  1  0.87943856  0.11947363  0.41835778  1.0
  C  C9  1  0.87943856  0.11947363  0.08164222  1.0
  C  C10  1  0.24003508  0.12056144  0.41835778  1.0
  C  C11  1  0.24003508  0.12056144  0.08164222  1.0
  C  C12  1  0.11947363  0.24003508  0.91835778  1.0
  C  C13  1  0.11947363  0.24003508  0.58164222  1.0
  C  C14  1  0.12056144  0.88052637  0.91835778  1.0
  C  C15  1  0.12056144  0.88052637  0.58164222  1.0
  N  N16  1  0.80836939  0.61525350  0.36639987  1.0
  N  N17  1  0.80836939  0.61525350  0.13360013  1.0
  N  N18  1  0.61525350  0.80688410  0.86639987  1.0
  N  N19  1  0.61525350  0.80688410  0.63360013  1.0
  N  N20  1  0.80688410  0.19163061  0.36639987  1.0
  N  N21  1  0.80688410  0.19163061  0.13360013  1.0
  N  N22  1  0.38474650  0.19311590  0.36639987  1.0
  N  N23  1  0.38474650  0.19311590  0.13360013  1.0
  N  N24  1  0.19163061  0.38474650  0.86639987  1.0
  N  N25  1  0.19163061  0.38474650  0.63360013  1.0
  N  N26  1  0.19311590  0.80836939  0.86639987  1.0
  N  N27  1  0.19311590  0.80836939  0.63360013  1.0
  O  O28  1  0.46766090  0.93648631  0.25000000  1.0
  O  O29  1  0.93648631  0.46882541  0.75000000  1.0
  O  O30  1  0.46882541  0.53233910  0.25000000  1.0
  O  O31  1  0.06351369  0.53117459  0.25000000  1.0
  O  O32  1  0.53233910  0.06351369  0.75000000  1.0
  O  O33  1  0.53117459  0.46766090  0.75000000  1.0
  O  O34  1  0.33333333  0.66666667  0.33793335  1.0
  O  O35  1  0.33333333  0.66666667  0.16206665  1.0
  O  O36  1  0.66666667  0.33333333  0.83793335  1.0
  O  O37  1  0.66666667  0.33333333  0.66206665  1.0
