# generated using pymatgen
data_CsLiCrO4
_symmetry_space_group_name_H-M   'P 1'
_cell_length_a   5.68365197
_cell_length_b   9.20715234
_cell_length_c   11.31058231
_cell_angle_alpha   90.00000000
_cell_angle_beta   119.82453491
_cell_angle_gamma   90.00000000
_symmetry_Int_Tables_number   1
_chemical_formula_structural   CsLiCrO4
_chemical_formula_sum   'Cs4 Li4 Cr4 O16'
_cell_volume   513.49186363
_cell_formula_units_Z   4
loop_
 _symmetry_equiv_pos_site_id
 _symmetry_equiv_pos_as_xyz
  1  'x, y, z'
loop_
 _atom_site_type_symbol
 _atom_site_label
 _atom_site_symmetry_multiplicity
 _atom_site_fract_x
 _atom_site_fract_y
 _atom_site_fract_z
 _atom_site_occupancy
  Cs  Cs0  1  0.55226924  0.99951580  0.28074944  1.0
  Cs  Cs1  1  0.55226924  0.50048420  0.78074944  1.0
  Cs  Cs2  1  0.44773076  0.49951580  0.21925056  1.0
  Cs  Cs3  1  0.44773076  0.00048420  0.71925056  1.0
  Li  Li4  1  0.14799309  0.31503962  0.40932868  1.0
  Li  Li5  1  0.14799309  0.18496038  0.90932868  1.0
  Li  Li6  1  0.85200691  0.81503962  0.09067132  1.0
  Li  Li7  1  0.85200691  0.68496038  0.59067132  1.0
  Cr  Cr8  1  0.81378517  0.20604239  0.07332393  1.0
  Cr  Cr9  1  0.81378517  0.29395761  0.57332393  1.0
  Cr  Cr10  1  0.18621483  0.70604239  0.42667607  1.0
  Cr  Cr11  1  0.18621483  0.79395761  0.92667607  1.0
  O  O12  1  0.04120177  0.27046443  0.03559536  1.0
  O  O13  1  0.04120177  0.22953557  0.53559536  1.0
  O  O14  1  0.95879823  0.77046443  0.46440464  1.0
  O  O15  1  0.95879823  0.72953557  0.96440464  1.0
  O  O16  1  0.83251462  0.02765468  0.08159434  1.0
  O  O17  1  0.83251462  0.47234532  0.58159434  1.0
  O  O18  1  0.16748538  0.52765468  0.41840566  1.0
  O  O19  1  0.16748538  0.97234532  0.91840566  1.0
  O  O20  1  0.50653104  0.24439338  0.45221899  1.0
  O  O21  1  0.50653104  0.25560662  0.95221899  1.0
  O  O22  1  0.49346896  0.74439338  0.04778101  1.0
  O  O23  1  0.49346896  0.75560662  0.54778101  1.0
  O  O24  1  0.87034344  0.27118790  0.22166075  1.0
  O  O25  1  0.87034344  0.22881210  0.72166075  1.0
  O  O26  1  0.12965656  0.77118790  0.27833925  1.0
  O  O27  1  0.12965656  0.72881210  0.77833925  1.0
