# generated using pymatgen
data_Ba(NaSi2)2
_symmetry_space_group_name_H-M   'P 1'
_cell_length_a   11.08871267
_cell_length_b   11.08871267
_cell_length_c   11.08871267
_cell_angle_alpha   128.91604438
_cell_angle_beta   70.71334882
_cell_angle_gamma   134.59682003
_symmetry_Int_Tables_number   1
_chemical_formula_structural   Ba(NaSi2)2
_chemical_formula_sum   'Ba4 Na8 Si16'
_cell_volume   740.15637255
_cell_formula_units_Z   4
loop_
 _symmetry_equiv_pos_site_id
 _symmetry_equiv_pos_as_xyz
  1  'x, y, z'
loop_
 _atom_site_type_symbol
 _atom_site_label
 _atom_site_symmetry_multiplicity
 _atom_site_fract_x
 _atom_site_fract_y
 _atom_site_fract_z
 _atom_site_occupancy
  Ba  Ba0  1  0.83593553  0.91865374  0.41728178  1.0
  Ba  Ba1  1  0.50137196  0.41865374  0.58271822  1.0
  Ba  Ba2  1  -0.00036197  -0.00036197  0.00000000  1.0
  Ba  Ba3  1  -0.00036197  0.49963803  0.50000000  1.0
  Na  Na4  1  0.77196026  1.03166291  0.80843517  1.0
  Na  Na5  1  1.22322774  1.53166291  0.75970265  1.0
  Na  Na6  1  0.77196026  1.46352509  1.24029735  1.0
  Na  Na7  1  1.22322774  1.96352509  1.19156483  1.0
  Na  Na8  1  0.45740564  1.08314562  0.87426002  1.0
  Na  Na9  1  1.20888560  1.58314562  1.12573998  1.0
  Na  Na10  1  0.49858323  0.49858323  -0.00000000  1.0
  Na  Na11  1  0.49858323  0.99858323  0.50000000  1.0
  Si  Si12  1  1.13650819  0.91696810  0.46089616  1.0
  Si  Si13  1  0.45607194  0.41696810  0.28045991  1.0
  Si  Si14  1  1.13650819  1.17561203  0.71954009  1.0
  Si  Si15  1  0.45607194  0.67561203  0.53910384  1.0
  Si  Si16  1  0.54784891  0.80970724  0.98137735  1.0
  Si  Si17  1  0.82832989  1.30970724  0.76185833  1.0
  Si  Si18  1  0.54784891  1.06647156  1.23814167  1.0
  Si  Si19  1  0.82832989  1.56647156  1.01862265  1.0
  Si  Si20  1  0.69459649  0.97062947  1.22396702  1.0
  Si  Si21  1  0.74666246  1.47062947  0.77603298  1.0
  Si  Si22  1  0.80767183  1.17569953  1.13197231  1.0
  Si  Si23  1  1.04372722  1.67569953  0.86802769  1.0
  Si  Si24  1  1.22942101  1.02559206  0.70382894  1.0
  Si  Si25  1  0.32176312  0.52559206  0.29617106  1.0
  Si  Si26  1  0.92505539  0.81041137  0.61464402  1.0
  Si  Si27  1  0.19576735  0.31041137  0.38535598  1.0
