# generated using pymatgen
data_ZnSeO3
_symmetry_space_group_name_H-M   'P 1'
_cell_length_a   6.37056079
_cell_length_b   12.01527122
_cell_length_c   7.50825767
_cell_angle_alpha   90.00000000
_cell_angle_beta   90.00000000
_cell_angle_gamma   90.00000000
_symmetry_Int_Tables_number   1
_chemical_formula_structural   ZnSeO3
_chemical_formula_sum   'Zn8 Se8 O24'
_cell_volume   574.71219284
_cell_formula_units_Z   8
loop_
 _symmetry_equiv_pos_site_id
 _symmetry_equiv_pos_as_xyz
  1  'x, y, z'
loop_
 _atom_site_type_symbol
 _atom_site_label
 _atom_site_symmetry_multiplicity
 _atom_site_fract_x
 _atom_site_fract_y
 _atom_site_fract_z
 _atom_site_occupancy
  Zn  Zn0  1  0.36678865  0.09516698  0.10879941  1.0
  Zn  Zn1  1  0.36678865  0.40483302  0.60879941  1.0
  Zn  Zn2  1  0.86678865  0.09516698  0.39120059  1.0
  Zn  Zn3  1  0.86678865  0.40483302  0.89120059  1.0
  Zn  Zn4  1  0.63321135  0.59516698  0.39120059  1.0
  Zn  Zn5  1  0.63321135  0.90483302  0.89120059  1.0
  Zn  Zn6  1  0.13321135  0.59516698  0.10879941  1.0
  Zn  Zn7  1  0.13321135  0.90483302  0.60879941  1.0
  Se  Se8  1  0.38907002  0.35735256  0.03702206  1.0
  Se  Se9  1  0.38907002  0.14264744  0.53702206  1.0
  Se  Se10  1  0.88907002  0.35735256  0.46297794  1.0
  Se  Se11  1  0.88907002  0.14264744  0.96297794  1.0
  Se  Se12  1  0.61092998  0.85735256  0.46297794  1.0
  Se  Se13  1  0.61092998  0.64264744  0.96297794  1.0
  Se  Se14  1  0.11092998  0.85735256  0.03702206  1.0
  Se  Se15  1  0.11092998  0.64264744  0.53702206  1.0
  O  O16  1  0.15875799  0.43490399  0.02675525  1.0
  O  O17  1  0.15875799  0.06509601  0.52675525  1.0
  O  O18  1  0.65875799  0.43490399  0.47324475  1.0
  O  O19  1  0.65875799  0.06509601  0.97324475  1.0
  O  O20  1  0.84124201  0.93490399  0.47324475  1.0
  O  O21  1  0.84124201  0.56509601  0.97324475  1.0
  O  O22  1  0.34124201  0.93490399  0.02675525  1.0
  O  O23  1  0.34124201  0.56509601  0.52675525  1.0
  O  O24  1  0.01359630  0.09360925  0.15667669  1.0
  O  O25  1  0.01359630  0.40639075  0.65667669  1.0
  O  O26  1  0.51359630  0.09360925  0.34332331  1.0
  O  O27  1  0.51359630  0.40639075  0.84332331  1.0
  O  O28  1  0.98640370  0.59360925  0.34332331  1.0
  O  O29  1  0.98640370  0.90639075  0.84332331  1.0
  O  O30  1  0.48640370  0.59360925  0.15667669  1.0
  O  O31  1  0.48640370  0.90639075  0.65667669  1.0
  O  O32  1  0.29704102  0.26917376  0.46607059  1.0
  O  O33  1  0.29704102  0.23082624  0.96607059  1.0
  O  O34  1  0.79704102  0.26917376  0.03392941  1.0
  O  O35  1  0.79704102  0.23082624  0.53392941  1.0
  O  O36  1  0.70295898  0.76917376  0.03392941  1.0
  O  O37  1  0.70295898  0.73082624  0.53392941  1.0
  O  O38  1  0.20295898  0.76917376  0.46607059  1.0
  O  O39  1  0.20295898  0.73082624  0.96607059  1.0
