# generated using pymatgen
data_K2TaAgS4
_symmetry_space_group_name_H-M   'P 1'
_cell_length_a   13.38450461
_cell_length_b   11.93238193
_cell_length_c   7.38995001
_cell_angle_alpha   84.19153998
_cell_angle_beta   62.48996914
_cell_angle_gamma   33.31849088
_symmetry_Int_Tables_number   1
_chemical_formula_structural   K2TaAgS4
_chemical_formula_sum   'K4 Ta2 Ag2 S8'
_cell_volume   466.53143918
_cell_formula_units_Z   2
loop_
 _symmetry_equiv_pos_site_id
 _symmetry_equiv_pos_as_xyz
  1  'x, y, z'
loop_
 _atom_site_type_symbol
 _atom_site_label
 _atom_site_symmetry_multiplicity
 _atom_site_fract_x
 _atom_site_fract_y
 _atom_site_fract_z
 _atom_site_occupancy
  K  K0  1  0.07002454  0.07002454  1.42997546  1.0
  K  K1  1  1.42997546  0.42997546  0.07002454  1.0
  K  K2  1  0.17997546  1.17997546  -0.17997546  1.0
  K  K3  1  0.82002454  0.82002454  -0.82002454  1.0
  Ta  Ta4  1  1.25000000  0.25000000  0.25000000  1.0
  Ta  Ta5  1  0.00000000  0.00000000  0.00000000  1.0
  Ag  Ag6  1  0.75000000  0.75000000  0.75000000  1.0
  Ag  Ag7  1  -0.50000000  0.50000000  0.50000000  1.0
  S  S8  1  0.74299578  -0.62752118  1.05339681  1.0
  S  S9  1  0.83112859  1.05339681  -0.62752118  1.0
  S  S10  1  1.05339681  0.83112859  0.74299578  1.0
  S  S11  1  -0.62752118  0.74299578  0.83112859  1.0
  S  S12  1  1.50700422  -0.12247882  0.19660319  1.0
  S  S13  1  1.41887141  0.19660319  -0.12247882  1.0
  S  S14  1  1.19660319  0.41887141  0.50700422  1.0
  S  S15  1  0.87752118  0.50700422  0.41887141  1.0
