# generated using pymatgen
data_Sc2Si2O7
_symmetry_space_group_name_H-M   'P 1'
_cell_length_a   5.40268087
_cell_length_b   5.40268087
_cell_length_c   4.73755557
_cell_angle_alpha   82.21301965
_cell_angle_beta   97.78698035
_cell_angle_gamma   74.72498684
_symmetry_Int_Tables_number   1
_chemical_formula_structural   Sc2Si2O7
_chemical_formula_sum   'Sc2 Si2 O7'
_cell_volume   130.03174173
_cell_formula_units_Z   1
loop_
 _symmetry_equiv_pos_site_id
 _symmetry_equiv_pos_as_xyz
  1  'x, y, z'
loop_
 _atom_site_type_symbol
 _atom_site_label
 _atom_site_symmetry_multiplicity
 _atom_site_fract_x
 _atom_site_fract_y
 _atom_site_fract_z
 _atom_site_occupancy
  Sc  Sc0  1  0.68972567  -0.31027433  0.00000000  1.0
  Sc  Sc1  1  1.31027433  0.31027433  0.00000000  1.0
  Si  Si2  1  0.77612265  -0.77612265  0.59335555  1.0
  Si  Si3  1  0.22387735  -0.22387735  0.40664445  1.0
  O  O4  1  1.60749454  0.07733988  0.78846533  1.0
  O  O5  1  0.92266012  -0.60749454  0.78846533  1.0
  O  O6  1  1.07733988  0.60749454  0.21153467  1.0
  O  O7  1  0.39250546  -0.07733988  0.21153467  1.0
  O  O8  1  0.39474318  -0.39474318  0.71993978  1.0
  O  O9  1  0.60525682  -0.60525682  0.28006022  1.0
  O  O10  1  0.00000000  -0.00000000  0.50000000  1.0
