# generated using pymatgen
data_TiBr3
_symmetry_space_group_name_H-M   'P 1'
_cell_length_a   7.39484101
_cell_length_b   7.39484101
_cell_length_c   5.99263916
_cell_angle_alpha   90.00000000
_cell_angle_beta   90.00000000
_cell_angle_gamma   120.00000000
_symmetry_Int_Tables_number   1
_chemical_formula_structural   TiBr3
_chemical_formula_sum   'Ti2 Br6'
_cell_volume   283.79611250
_cell_formula_units_Z   2
loop_
 _symmetry_equiv_pos_site_id
 _symmetry_equiv_pos_as_xyz
  1  'x, y, z'
loop_
 _atom_site_type_symbol
 _atom_site_label
 _atom_site_symmetry_multiplicity
 _atom_site_fract_x
 _atom_site_fract_y
 _atom_site_fract_z
 _atom_site_occupancy
  Ti  Ti0  1  0.00000000  0.00000000  0.50000000  1.0
  Ti  Ti1  1  0.00000000  0.00000000  0.00000000  1.0
  Br  Br2  1  0.71708433  0.71708433  0.25000000  1.0
  Br  Br3  1  0.71708433  0.00000000  0.75000000  1.0
  Br  Br4  1  -0.00000000  0.71708433  0.75000000  1.0
  Br  Br5  1  0.00000000  0.28291567  0.25000000  1.0
  Br  Br6  1  0.28291567  0.28291567  0.75000000  1.0
  Br  Br7  1  0.28291567  0.00000000  0.25000000  1.0
