# generated using pymatgen
data_RbTaO3
_symmetry_space_group_name_H-M   'P 1'
_cell_length_a   6.47709138
_cell_length_b   6.47709138
_cell_length_c   8.26859385
_cell_angle_alpha   86.45691679
_cell_angle_beta   93.54308321
_cell_angle_gamma   97.05626393
_symmetry_Int_Tables_number   1
_chemical_formula_structural   RbTaO3
_chemical_formula_sum   'Rb4 Ta4 O12'
_cell_volume   343.08966092
_cell_formula_units_Z   4
loop_
 _symmetry_equiv_pos_site_id
 _symmetry_equiv_pos_as_xyz
  1  'x, y, z'
loop_
 _atom_site_type_symbol
 _atom_site_label
 _atom_site_symmetry_multiplicity
 _atom_site_fract_x
 _atom_site_fract_y
 _atom_site_fract_z
 _atom_site_occupancy
  Rb  Rb0  1  0.83615549  -0.83615549  0.26156953  1.0
  Rb  Rb1  1  0.16384451  -0.16384451  0.73843047  1.0
  Rb  Rb2  1  0.73541424  -0.26458576  0.00000000  1.0
  Rb  Rb3  1  1.26458576  0.26458576  0.00000000  1.0
  Ta  Ta4  1  0.75936723  -0.75936723  0.69506610  1.0
  Ta  Ta5  1  0.24063277  -0.24063277  0.30493390  1.0
  Ta  Ta6  1  0.68924954  -0.31075046  0.50000000  1.0
  Ta  Ta7  1  1.31075046  0.31075046  0.50000000  1.0
  O  O8  1  0.72628893  -0.04594066  0.60187054  1.0
  O  O9  1  1.04594066  0.27371107  0.60187054  1.0
  O  O10  1  0.95405934  -0.27371107  0.39812946  1.0
  O  O11  1  1.27371107  0.04594066  0.39812946  1.0
  O  O12  1  1.45160230  0.21384778  0.71016654  1.0
  O  O13  1  0.78615222  -0.45160230  0.71016654  1.0
  O  O14  1  1.21384778  0.45160230  0.28983346  1.0
  O  O15  1  0.54839770  -0.21384778  0.28983346  1.0
  O  O16  1  0.82922131  -0.82922131  0.90770529  1.0
  O  O17  1  0.17077869  -0.17077869  0.09229471  1.0
  O  O18  1  0.62235695  -0.62235695  0.44776637  1.0
  O  O19  1  0.37764305  -0.37764305  0.55223363  1.0
