# generated using pymatgen
data_Rb4CO4
_symmetry_space_group_name_H-M   'P 1'
_cell_length_a   6.69801063
_cell_length_b   6.69801063
_cell_length_c   6.69801063
_cell_angle_alpha   126.58597641
_cell_angle_beta   126.58597641
_cell_angle_gamma   78.92716344
_symmetry_Int_Tables_number   1
_chemical_formula_structural   Rb4CO4
_chemical_formula_sum   'Rb4 C1 O4'
_cell_volume   187.43549297
_cell_formula_units_Z   1
loop_
 _symmetry_equiv_pos_site_id
 _symmetry_equiv_pos_as_xyz
  1  'x, y, z'
loop_
 _atom_site_type_symbol
 _atom_site_label
 _atom_site_symmetry_multiplicity
 _atom_site_fract_x
 _atom_site_fract_y
 _atom_site_fract_z
 _atom_site_occupancy
  Rb  Rb0  1  0.93224407  0.35543147  1.00000000  1.0
  Rb  Rb1  1  0.35543147  0.93224407  1.00000000  1.0
  Rb  Rb2  1  1.06775593  1.06775593  1.42318739  1.0
  Rb  Rb3  1  0.64456853  0.64456853  0.57681261  1.0
  C  C4  1  0.50000000  0.50000000  1.00000000  1.0
  O  O5  1  1.28057500  0.55336796  1.00000000  1.0
  O  O6  1  0.55336796  1.28057500  1.00000000  1.0
  O  O7  1  0.71942500  0.71942500  1.27279296  1.0
  O  O8  1  0.44663204  0.44663204  0.72720704  1.0
