# generated using pymatgen
data_LaSnPd4
_symmetry_space_group_name_H-M   'P 1'
_cell_length_a   12.87461871
_cell_length_b   12.87461871
_cell_length_c   8.44439188
_cell_angle_alpha   90.00000000
_cell_angle_beta   90.00000000
_cell_angle_gamma   138.39045709
_symmetry_Int_Tables_number   1
_chemical_formula_structural   LaSnPd4
_chemical_formula_sum   'La8 Sn8 Pd32'
_cell_volume   929.47647995
_cell_formula_units_Z   8
loop_
 _symmetry_equiv_pos_site_id
 _symmetry_equiv_pos_as_xyz
  1  'x, y, z'
loop_
 _atom_site_type_symbol
 _atom_site_label
 _atom_site_symmetry_multiplicity
 _atom_site_fract_x
 _atom_site_fract_y
 _atom_site_fract_z
 _atom_site_occupancy
  La  La0  1  0.46246646  0.53753354  0.77221278  1.0
  La  La1  1  -0.03753354  0.03753354  0.72778722  1.0
  La  La2  1  -0.46246646  0.46246646  0.22778722  1.0
  La  La3  1  0.03753354  0.96246646  0.27221278  1.0
  La  La4  1  0.19283406  0.80716594  0.92607881  1.0
  La  La5  1  -0.30716594  0.30716594  0.57392119  1.0
  La  La6  1  -0.19283406  0.19283406  0.07392119  1.0
  La  La7  1  0.30716594  0.69283406  0.42607881  1.0
  Sn  Sn8  1  0.03811404  0.46188596  0.75000000  1.0
  Sn  Sn9  1  0.53811404  0.96188596  0.75000000  1.0
  Sn  Sn10  1  0.46188596  1.03811404  0.25000000  1.0
  Sn  Sn11  1  -0.03811404  0.53811404  0.25000000  1.0
  Sn  Sn12  1  -0.16144072  0.66144072  0.75000000  1.0
  Sn  Sn13  1  0.33855928  1.16144072  0.75000000  1.0
  Sn  Sn14  1  0.66144072  0.83855928  0.25000000  1.0
  Sn  Sn15  1  0.16144072  0.33855928  0.25000000  1.0
  Pd  Pd16  1  0.11703514  0.33911740  0.91201768  1.0
  Pd  Pd17  1  0.61703514  0.83911740  0.58798232  1.0
  Pd  Pd18  1  0.33911740  1.11703514  0.08798232  1.0
  Pd  Pd19  1  -0.16088260  0.61703514  0.41201768  1.0
  Pd  Pd20  1  0.66088260  0.88296486  0.91201768  1.0
  Pd  Pd21  1  0.16088260  0.38296486  0.58798232  1.0
  Pd  Pd22  1  -0.11703514  0.66088260  0.08798232  1.0
  Pd  Pd23  1  0.38296486  1.16088260  0.41201768  1.0
  Pd  Pd24  1  0.09272516  0.90727484  0.58454544  1.0
  Pd  Pd25  1  -0.40727484  0.40727484  0.91545456  1.0
  Pd  Pd26  1  -0.09272516  0.09272516  0.41545456  1.0
  Pd  Pd27  1  0.40727484  0.59272516  0.08454544  1.0
  Pd  Pd28  1  0.06328683  0.93671317  0.91956640  1.0
  Pd  Pd29  1  -0.43671317  0.43671317  0.58043360  1.0
  Pd  Pd30  1  -0.06328683  0.06328683  0.08043360  1.0
  Pd  Pd31  1  0.43671317  0.56328683  0.41956640  1.0
  Pd  Pd32  1  -0.14359092  0.46025982  0.90516800  1.0
  Pd  Pd33  1  0.35640908  0.96025982  0.59483200  1.0
  Pd  Pd34  1  0.46025982  0.85640908  0.09483200  1.0
  Pd  Pd35  1  -0.03974018  0.35640908  0.40516800  1.0
  Pd  Pd36  1  0.53974018  1.14359092  0.90516800  1.0
  Pd  Pd37  1  0.03974018  0.64359092  0.59483200  1.0
  Pd  Pd38  1  0.14359092  0.53974018  0.09483200  1.0
  Pd  Pd39  1  0.64359092  1.03974018  0.40516800  1.0
  Pd  Pd40  1  0.74495065  0.74495065  -0.00000000  1.0
  Pd  Pd41  1  0.24495065  0.24495065  0.50000000  1.0
  Pd  Pd42  1  0.25504935  0.25504935  0.00000000  1.0
  Pd  Pd43  1  0.75504935  0.75504935  0.50000000  1.0
  Pd  Pd44  1  0.33821772  0.66178228  0.81225305  1.0
  Pd  Pd45  1  -0.16178228  0.16178228  0.68774695  1.0
  Pd  Pd46  1  -0.33821772  0.33821772  0.18774695  1.0
  Pd  Pd47  1  0.16178228  0.83821772  0.31225305  1.0
