# generated using pymatgen
data_As2Pb3O8
_symmetry_space_group_name_H-M   'P 1'
_cell_length_a   7.61257513
_cell_length_b   7.61257513
_cell_length_c   10.62398690
_cell_angle_alpha   90.70117309
_cell_angle_beta   89.29882691
_cell_angle_gamma   132.26027655
_symmetry_Int_Tables_number   1
_chemical_formula_structural   As2Pb3O8
_chemical_formula_sum   'As4 Pb6 O16'
_cell_volume   455.61789032
_cell_formula_units_Z   2
loop_
 _symmetry_equiv_pos_site_id
 _symmetry_equiv_pos_as_xyz
  1  'x, y, z'
loop_
 _atom_site_type_symbol
 _atom_site_label
 _atom_site_symmetry_multiplicity
 _atom_site_fract_x
 _atom_site_fract_y
 _atom_site_fract_z
 _atom_site_occupancy
  As  As0  1  0.35841696  0.17245214  0.91148713  1.0
  As  As1  1  0.82754786  0.64158304  0.41148713  1.0
  As  As2  1  1.17245214  0.35841696  0.58851287  1.0
  As  As3  1  0.64158304  -0.17245214  0.08851287  1.0
  Pb  Pb4  1  0.85021051  0.85021051  0.75000000  1.0
  Pb  Pb5  1  0.14978949  0.14978949  0.25000000  1.0
  Pb  Pb6  1  0.54651004  0.17888176  0.63442475  1.0
  Pb  Pb7  1  0.82111824  0.45348996  0.13442475  1.0
  Pb  Pb8  1  1.17888176  0.54651004  0.86557525  1.0
  Pb  Pb9  1  0.45348996  -0.17888176  0.36557525  1.0
  O  O10  1  0.21350445  -0.09767380  0.83329652  1.0
  O  O11  1  1.09767380  0.78649555  0.33329652  1.0
  O  O12  1  0.90232620  0.21350445  0.66670348  1.0
  O  O13  1  0.78649555  0.09767380  0.16670348  1.0
  O  O14  1  1.16555208  0.21899595  0.89772511  1.0
  O  O15  1  0.78100405  -0.16555208  0.39772511  1.0
  O  O16  1  0.21899595  0.16555208  0.60227489  1.0
  O  O17  1  0.83444792  0.78100405  0.10227489  1.0
  O  O18  1  0.62776031  0.37809028  0.82910800  1.0
  O  O19  1  0.62190972  0.37223969  0.32910800  1.0
  O  O20  1  1.37809028  0.62776031  0.67089200  1.0
  O  O21  1  0.37223969  -0.37809028  0.17089200  1.0
  O  O22  1  0.58137912  -0.17584060  0.93060509  1.0
  O  O23  1  1.17584060  0.41862088  0.43060509  1.0
  O  O24  1  0.82415940  0.58137912  0.56939491  1.0
  O  O25  1  0.41862088  0.17584060  0.06939491  1.0
