# generated using pymatgen
data_SiO2
_symmetry_space_group_name_H-M   'P 1'
_cell_length_a   12.64879624
_cell_length_b   12.64879624
_cell_length_c   5.18971452
_cell_angle_alpha   90.00000000
_cell_angle_beta   90.00000000
_cell_angle_gamma   117.02317929
_symmetry_Int_Tables_number   1
_chemical_formula_structural   SiO2
_chemical_formula_sum   'Si12 O24'
_cell_volume   739.66178141
_cell_formula_units_Z   12
loop_
 _symmetry_equiv_pos_site_id
 _symmetry_equiv_pos_as_xyz
  1  'x, y, z'
loop_
 _atom_site_type_symbol
 _atom_site_label
 _atom_site_symmetry_multiplicity
 _atom_site_fract_x
 _atom_site_fract_y
 _atom_site_fract_z
 _atom_site_occupancy
  Si  Si0  1  0.12625498  0.64138524  0.45667695  1.0
  Si  Si1  1  -0.35861476  1.12625498  0.95667695  1.0
  Si  Si2  1  0.35861476  0.87374502  0.45667695  1.0
  Si  Si3  1  -0.12625498  1.35861476  0.95667695  1.0
  Si  Si4  1  -0.07890912  1.84087749  0.04429232  1.0
  Si  Si5  1  0.84087749  0.92109088  0.54429232  1.0
  Si  Si6  1  -0.84087749  1.07890912  0.04429232  1.0
  Si  Si7  1  0.07890912  0.15912251  0.54429232  1.0
  Si  Si8  1  0.01821122  0.36849744  0.45668954  1.0
  Si  Si9  1  -0.63150256  1.01821122  0.95668954  1.0
  Si  Si10  1  0.63150256  0.98178878  0.45668954  1.0
  Si  Si11  1  -0.01821122  1.63150256  0.95668954  1.0
  O  O12  1  0.08505272  0.66334271  0.17305781  1.0
  O  O13  1  -0.33665729  1.08505272  0.67305781  1.0
  O  O14  1  0.33665729  0.91494728  0.17305781  1.0
  O  O15  1  -0.08505272  1.33665729  0.67305781  1.0
  O  O16  1  -0.13243972  1.84328190  0.32775833  1.0
  O  O17  1  0.84328190  0.86756028  0.82775833  1.0
  O  O18  1  -0.84328190  1.13243972  0.32775833  1.0
  O  O19  1  0.13243972  0.15671810  0.82775833  1.0
  O  O20  1  -0.08870771  1.70983446  -0.00057251  1.0
  O  O21  1  0.70983446  0.91129229  0.49942749  1.0
  O  O22  1  -0.70983446  1.08870771  -0.00057251  1.0
  O  O23  1  0.08870771  0.29016554  0.49942749  1.0
  O  O24  1  0.11486560  0.50804564  0.47805633  1.0
  O  O25  1  -0.49195436  1.11486560  0.97805633  1.0
  O  O26  1  0.49195436  0.88513440  0.47805633  1.0
  O  O27  1  -0.11486560  1.49195436  0.97805633  1.0
  O  O28  1  -0.04317291  1.33911909  0.17271245  1.0
  O  O29  1  0.33911909  0.95682709  0.67271245  1.0
  O  O30  1  -0.33911909  1.04317291  0.17271245  1.0
  O  O31  1  0.04317291  0.66088091  0.67271245  1.0
  O  O32  1  0.06040102  0.93959898  0.02585001  1.0
  O  O33  1  -0.06040102  1.06040102  0.52585001  1.0
  O  O34  1  0.26480134  0.73519866  0.50000753  1.0
  O  O35  1  -0.26480134  1.26480134  1.00000753  1.0
