# generated using pymatgen
data_Ba2S3
_symmetry_space_group_name_H-M   'P 1'
_cell_length_a   9.12051364
_cell_length_b   9.12051364
_cell_length_c   9.12051364
_cell_angle_alpha   141.06303842
_cell_angle_beta   141.06303842
_cell_angle_gamma   56.24272698
_symmetry_Int_Tables_number   1
_chemical_formula_structural   Ba2S3
_chemical_formula_sum   'Ba4 S6'
_cell_volume   297.30514930
_cell_formula_units_Z   2
loop_
 _symmetry_equiv_pos_site_id
 _symmetry_equiv_pos_as_xyz
  1  'x, y, z'
loop_
 _atom_site_type_symbol
 _atom_site_label
 _atom_site_symmetry_multiplicity
 _atom_site_fract_x
 _atom_site_fract_y
 _atom_site_fract_z
 _atom_site_occupancy
  Ba  Ba0  1  0.00070252  0.00070252  0.00000000  1.0
  Ba  Ba1  1  0.75070252  0.25070252  0.50000000  1.0
  Ba  Ba2  1  0.40554842  0.40554842  0.00000000  1.0
  Ba  Ba3  1  0.15554842  0.65554842  0.50000000  1.0
  S  S4  1  0.63884446  0.81289860  0.82594586  1.0
  S  S5  1  0.98695274  0.81289860  1.17405414  1.0
  S  S6  1  0.56289860  0.88884446  1.32594586  1.0
  S  S7  1  0.56289860  0.23695274  0.67405414  1.0
  S  S8  1  0.20625186  0.20625186  0.00000000  1.0
  S  S9  1  0.95625186  0.45625186  0.50000000  1.0
