# generated using pymatgen
data_Ca(AlS2)2
_symmetry_space_group_name_H-M   'P 1'
_cell_length_a   14.32128202
_cell_length_b   11.85202883
_cell_length_c   11.76101885
_cell_angle_alpha   74.67240884
_cell_angle_beta   52.95329526
_cell_angle_gamma   52.37429589
_symmetry_Int_Tables_number   1
_chemical_formula_structural   Ca(AlS2)2
_chemical_formula_sum   'Ca8 Al16 S32'
_cell_volume   1244.91061850
_cell_formula_units_Z   8
loop_
 _symmetry_equiv_pos_site_id
 _symmetry_equiv_pos_as_xyz
  1  'x, y, z'
loop_
 _atom_site_type_symbol
 _atom_site_label
 _atom_site_symmetry_multiplicity
 _atom_site_fract_x
 _atom_site_fract_y
 _atom_site_fract_z
 _atom_site_occupancy
  Ca  Ca0  1  0.75000000  0.75000000  0.75000000  1.0
  Ca  Ca1  1  0.50000000  0.50000000  -0.50000000  1.0
  Ca  Ca2  1  0.25000000  1.25000000  0.25000000  1.0
  Ca  Ca3  1  1.00000000  -0.00000000  0.00000000  1.0
  Ca  Ca4  1  0.49817642  0.49817642  0.00182358  1.0
  Ca  Ca5  1  0.00182358  1.00182358  0.49817642  1.0
  Ca  Ca6  1  0.75182358  0.75182358  0.24817642  1.0
  Ca  Ca7  1  1.24817642  0.24817642  -0.24817642  1.0
  Al  Al8  1  0.26317549  0.98717167  0.59400781  1.0
  Al  Al9  1  -0.01282833  1.26317549  0.15564503  1.0
  Al  Al10  1  0.59400781  1.15564503  0.26317549  1.0
  Al  Al11  1  0.15564503  1.59400781  -0.01282833  1.0
  Al  Al12  1  -0.01317549  1.26282833  0.65599219  1.0
  Al  Al13  1  1.26282833  -0.01317549  0.09435497  1.0
  Al  Al14  1  0.65599219  0.09435497  -0.01317549  1.0
  Al  Al15  1  0.09435497  0.65599219  1.26282833  1.0
  Al  Al16  1  0.49106605  0.76003845  0.23531162  1.0
  Al  Al17  1  0.76003845  0.49106605  -0.48641612  1.0
  Al  Al18  1  1.23531162  0.51358388  -0.50893395  1.0
  Al  Al19  1  0.51358388  1.23531162  -0.23996155  1.0
  Al  Al20  1  0.75893395  0.48996155  0.01468838  1.0
  Al  Al21  1  0.48996155  0.75893395  0.73641612  1.0
  Al  Al22  1  0.01468838  0.73641612  0.75893395  1.0
  Al  Al23  1  0.73641612  0.01468838  0.48996155  1.0
  S  S24  1  1.03991228  0.54188007  -0.28950661  1.0
  S  S25  1  0.54188007  1.03991228  0.70771426  1.0
  S  S26  1  0.71049339  0.70771426  0.03991228  1.0
  S  S27  1  0.70771426  0.71049339  0.54188007  1.0
  S  S28  1  0.21008772  0.70811993  0.53950661  1.0
  S  S29  1  -0.29188007  1.21008772  0.54228574  1.0
  S  S30  1  0.53950661  0.54228574  0.21008772  1.0
  S  S31  1  0.54228574  0.53950661  -0.29188007  1.0
  S  S32  1  0.03910467  1.54149863  0.21065874  1.0
  S  S33  1  0.54149863  1.03910467  0.20873796  1.0
  S  S34  1  0.21065874  1.20873796  0.03910467  1.0
  S  S35  1  0.20873796  1.21065874  0.54149863  1.0
  S  S36  1  0.21089533  0.70850137  1.03934126  1.0
  S  S37  1  0.70850137  0.21089533  0.04126204  1.0
  S  S38  1  1.03934126  0.04126204  0.21089533  1.0
  S  S39  1  0.04126204  1.03934126  0.70850137  1.0
  S  S40  1  0.96553361  0.28247155  -0.02626877  1.0
  S  S41  1  0.28247155  0.96553361  0.77826361  1.0
  S  S42  1  -0.02626877  0.77826361  0.96553361  1.0
  S  S43  1  0.77826361  -0.02626877  0.28247155  1.0
  S  S44  1  0.28446639  0.96752845  0.27626877  1.0
  S  S45  1  -0.03247155  1.28446639  0.47173639  1.0
  S  S46  1  0.27626877  1.47173639  0.28446639  1.0
  S  S47  1  0.47173639  1.27626877  -0.03247155  1.0
  S  S48  1  -0.21853600  1.47045673  0.30984473  1.0
  S  S49  1  0.47045673  0.78146400  0.43823454  1.0
  S  S50  1  0.30984473  0.43823454  -0.21853600  1.0
  S  S51  1  0.43823454  0.30984473  0.47045673  1.0
  S  S52  1  0.46853600  0.77954327  0.94015527  1.0
  S  S53  1  0.77954327  0.46853600  -0.18823454  1.0
  S  S54  1  0.94015527  0.81176546  0.46853600  1.0
  S  S55  1  0.81176546  0.94015527  -0.22045673  1.0
