# generated using pymatgen
data_Ga4Bi3As
_symmetry_space_group_name_H-M   'P 1'
_cell_length_a   6.27278284
_cell_length_b   6.27278284
_cell_length_c   6.27278284
_cell_angle_alpha   90.00000000
_cell_angle_beta   90.00000000
_cell_angle_gamma   90.00000000
_symmetry_Int_Tables_number   1
_chemical_formula_structural   Ga4Bi3As
_chemical_formula_sum   'Ga4 Bi3 As1'
_cell_volume   246.82023281
_cell_formula_units_Z   1
loop_
 _symmetry_equiv_pos_site_id
 _symmetry_equiv_pos_as_xyz
  1  'x, y, z'
loop_
 _atom_site_type_symbol
 _atom_site_label
 _atom_site_symmetry_multiplicity
 _atom_site_fract_x
 _atom_site_fract_y
 _atom_site_fract_z
 _atom_site_occupancy
  Ga  Ga0  1  0.23675191  0.23675191  0.23675191  1.0
  Ga  Ga1  1  0.23675191  0.76324809  0.76324809  1.0
  Ga  Ga2  1  0.76324809  0.23675191  0.76324809  1.0
  Ga  Ga3  1  0.76324809  0.76324809  0.23675191  1.0
  Bi  Bi4  1  0.50000000  0.50000000  0.00000000  1.0
  Bi  Bi5  1  0.50000000  0.00000000  0.50000000  1.0
  Bi  Bi6  1  0.00000000  0.50000000  0.50000000  1.0
  As  As7  1  0.00000000  0.00000000  0.00000000  1.0
