# generated using pymatgen
data_Tl2CN2
_symmetry_space_group_name_H-M   'P 1'
_cell_length_a   5.35352337
_cell_length_b   10.10380578
_cell_length_c   7.22566002
_cell_angle_alpha   76.54027194
_cell_angle_beta   67.98178246
_cell_angle_gamma   82.12191397
_symmetry_Int_Tables_number   1
_chemical_formula_structural   Tl2CN2
_chemical_formula_sum   'Tl6 C3 N6'
_cell_volume   351.84660104
_cell_formula_units_Z   3
loop_
 _symmetry_equiv_pos_site_id
 _symmetry_equiv_pos_as_xyz
  1  'x, y, z'
loop_
 _atom_site_type_symbol
 _atom_site_label
 _atom_site_symmetry_multiplicity
 _atom_site_fract_x
 _atom_site_fract_y
 _atom_site_fract_z
 _atom_site_occupancy
  Tl  Tl0  1  -0.39897531  -0.31667497  1.00570882  1.0
  Tl  Tl1  1  0.39897531  -0.68332503  -0.00570882  1.0
  Tl  Tl2  1  0.29641733  -0.33362850  0.59453918  1.0
  Tl  Tl3  1  -0.29641733  -0.66637150  0.40546082  1.0
  Tl  Tl4  1  0.12512029  -0.96679244  0.70568742  1.0
  Tl  Tl5  1  -0.12512029  -0.03320756  0.29431258  1.0
  C  C6  1  0.50000000  0.00000000  0.00000000  1.0
  C  C7  1  0.05597446  -0.65360695  0.69762076  1.0
  C  C8  1  -0.05597446  -0.34639305  0.30237924  1.0
  N  N9  1  0.25480314  -0.59515942  0.68019766  1.0
  N  N10  1  -0.25480314  -0.40484058  0.31980234  1.0
  N  N11  1  -0.13517143  -0.71802942  0.71509997  1.0
  N  N12  1  0.13517143  -0.28197058  0.28490003  1.0
  N  N13  1  -0.70761641  -0.93232161  0.98983644  1.0
  N  N14  1  0.70761641  -0.06767839  0.01016356  1.0
