# generated using pymatgen
data_Sr3CaIrO6
_symmetry_space_group_name_H-M   'P 1'
_cell_length_a   6.84491869
_cell_length_b   6.84491869
_cell_length_c   6.84491869
_cell_angle_alpha   91.52981127
_cell_angle_beta   91.52981127
_cell_angle_gamma   91.52981127
_symmetry_Int_Tables_number   1
_chemical_formula_structural   Sr3CaIrO6
_chemical_formula_sum   'Sr6 Ca2 Ir2 O12'
_cell_volume   320.35521390
_cell_formula_units_Z   2
loop_
 _symmetry_equiv_pos_site_id
 _symmetry_equiv_pos_as_xyz
  1  'x, y, z'
loop_
 _atom_site_type_symbol
 _atom_site_label
 _atom_site_symmetry_multiplicity
 _atom_site_fract_x
 _atom_site_fract_y
 _atom_site_fract_z
 _atom_site_occupancy
  Sr  Sr0  1  0.88679975  1.25000000  -0.38679975  1.0
  Sr  Sr1  1  1.38679975  0.11320025  -0.25000000  1.0
  Sr  Sr2  1  0.75000000  0.38679975  0.11320025  1.0
  Sr  Sr3  1  1.25000000  0.61320025  -0.11320025  1.0
  Sr  Sr4  1  1.11320025  -0.25000000  0.38679975  1.0
  Sr  Sr5  1  0.61320025  0.88679975  0.25000000  1.0
  Ca  Ca6  1  0.25000000  0.25000000  0.25000000  1.0
  Ca  Ca7  1  0.75000000  0.75000000  0.75000000  1.0
  Ir  Ir8  1  0.50000000  0.50000000  0.50000000  1.0
  Ir  Ir9  1  0.00000000  0.00000000  0.00000000  1.0
  O  O10  1  1.21445304  0.41849762  -0.44955842  1.0
  O  O11  1  0.71445304  1.05044158  -0.08150238  1.0
  O  O12  1  0.94955842  0.08150238  0.28554696  1.0
  O  O13  1  1.44955842  -0.21445304  0.58150238  1.0
  O  O14  1  1.58150238  0.44955842  -0.21445304  1.0
  O  O15  1  1.08150238  0.28554696  -0.05044158  1.0
  O  O16  1  0.78554696  0.58150238  0.44955842  1.0
  O  O17  1  1.28554696  -0.05044158  0.08150238  1.0
  O  O18  1  0.55044158  1.21445304  -0.58150238  1.0
  O  O19  1  1.05044158  0.91849762  -0.28554696  1.0
  O  O20  1  0.91849762  0.71445304  0.05044158  1.0
  O  O21  1  0.41849762  0.55044158  0.21445304  1.0
