# generated using pymatgen
data_RbCuSe4
_symmetry_space_group_name_H-M   'P 1'
_cell_length_a   5.57099430
_cell_length_b   9.04181705
_cell_length_c   13.84773012
_cell_angle_alpha   90.00000000
_cell_angle_beta   90.00000000
_cell_angle_gamma   90.00000000
_symmetry_Int_Tables_number   1
_chemical_formula_structural   RbCuSe4
_chemical_formula_sum   'Rb4 Cu4 Se16'
_cell_volume   697.53663296
_cell_formula_units_Z   4
loop_
 _symmetry_equiv_pos_site_id
 _symmetry_equiv_pos_as_xyz
  1  'x, y, z'
loop_
 _atom_site_type_symbol
 _atom_site_label
 _atom_site_symmetry_multiplicity
 _atom_site_fract_x
 _atom_site_fract_y
 _atom_site_fract_z
 _atom_site_occupancy
  Rb  Rb0  1  0.31133928  0.93961105  0.83391964  1.0
  Rb  Rb1  1  0.81133928  0.56038895  0.16608036  1.0
  Rb  Rb2  1  0.68866072  0.43961105  0.66608036  1.0
  Rb  Rb3  1  0.18866072  0.06038895  0.33391964  1.0
  Cu  Cu4  1  0.46858757  0.86318932  0.56402980  1.0
  Cu  Cu5  1  0.96858757  0.63681068  0.43597020  1.0
  Cu  Cu6  1  0.53141243  0.36318932  0.93597020  1.0
  Cu  Cu7  1  0.03141243  0.13681068  0.06402980  1.0
  Se  Se8  1  0.15814161  0.88404942  0.09693618  1.0
  Se  Se9  1  0.65814161  0.61595058  0.90306382  1.0
  Se  Se10  1  0.84185839  0.38404942  0.40306382  1.0
  Se  Se11  1  0.34185839  0.11595058  0.59693618  1.0
  Se  Se12  1  0.13723831  0.69729325  0.59510140  1.0
  Se  Se13  1  0.63723831  0.80270675  0.40489860  1.0
  Se  Se14  1  0.86276169  0.19729325  0.90489860  1.0
  Se  Se15  1  0.36276169  0.30270675  0.09510140  1.0
  Se  Se16  1  0.07926232  0.58768851  0.93443444  1.0
  Se  Se17  1  0.57926232  0.91231149  0.06556556  1.0
  Se  Se18  1  0.92073768  0.08768851  0.56556556  1.0
  Se  Se19  1  0.42073768  0.41231149  0.43443444  1.0
  Se  Se20  1  0.84114997  0.86647243  0.66101340  1.0
  Se  Se21  1  0.34114997  0.63352757  0.33898660  1.0
  Se  Se22  1  0.15885003  0.36647243  0.83898660  1.0
  Se  Se23  1  0.65885003  0.13352757  0.16101340  1.0
