# generated using pymatgen
data_C2NF2
_symmetry_space_group_name_H-M   'P 1'
_cell_length_a   6.34304589
_cell_length_b   16.74955324
_cell_length_c   5.74253402
_cell_angle_alpha   90.00000000
_cell_angle_beta   90.00000000
_cell_angle_gamma   90.00000000
_symmetry_Int_Tables_number   1
_chemical_formula_structural   C2NF2
_chemical_formula_sum   'C16 N8 F16'
_cell_volume   610.10510281
_cell_formula_units_Z   8
loop_
 _symmetry_equiv_pos_site_id
 _symmetry_equiv_pos_as_xyz
  1  'x, y, z'
loop_
 _atom_site_type_symbol
 _atom_site_label
 _atom_site_symmetry_multiplicity
 _atom_site_fract_x
 _atom_site_fract_y
 _atom_site_fract_z
 _atom_site_occupancy
  C  C0  1  0.47985758  0.66977442  0.96141346  1.0
  C  C1  1  0.97985758  0.83022558  0.96141346  1.0
  C  C2  1  0.52014242  0.33022558  0.46141346  1.0
  C  C3  1  0.02014242  0.16977442  0.46141346  1.0
  C  C4  1  0.35680453  0.57088528  0.70458438  1.0
  C  C5  1  0.85680453  0.92911472  0.70458438  1.0
  C  C6  1  0.64319547  0.42911472  0.20458438  1.0
  C  C7  1  0.14319547  0.07088528  0.20458438  1.0
  C  C8  1  0.32323424  0.61420369  0.90857203  1.0
  C  C9  1  0.82323424  0.88579631  0.90857203  1.0
  C  C10  1  0.67676576  0.38579631  0.40857203  1.0
  C  C11  1  0.17676576  0.11420369  0.40857203  1.0
  C  C12  1  0.15865580  0.86464155  0.64323474  1.0
  C  C13  1  0.65865580  0.63535845  0.64323474  1.0
  C  C14  1  0.84134420  0.13535845  0.14323474  1.0
  C  C15  1  0.34134420  0.36464155  0.14323474  1.0
  N  N16  1  0.14787139  0.81873304  0.82989155  1.0
  N  N17  1  0.64787139  0.68126696  0.82989155  1.0
  N  N18  1  0.85212861  0.18126696  0.32989155  1.0
  N  N19  1  0.35212861  0.31873304  0.32989155  1.0
  N  N20  1  0.02395792  0.91948177  0.57042209  1.0
  N  N21  1  0.52395792  0.58051823  0.57042209  1.0
  N  N22  1  0.97604208  0.08051823  0.07042209  1.0
  N  N23  1  0.47604208  0.41948177  0.07042209  1.0
  F  F24  1  0.46260523  0.71366445  0.15450649  1.0
  F  F25  1  0.96260523  0.78633555  0.15450649  1.0
  F  F26  1  0.53739477  0.28633555  0.65450649  1.0
  F  F27  1  0.03739477  0.21366445  0.65450649  1.0
  F  F28  1  0.34626860  0.10303350  0.54407632  1.0
  F  F29  1  0.84626860  0.39696650  0.54407632  1.0
  F  F30  1  0.65373140  0.89696650  0.04407632  1.0
  F  F31  1  0.15373140  0.60303350  0.04407632  1.0
  F  F32  1  0.32974271  0.85416342  0.50917397  1.0
  F  F33  1  0.82974271  0.64583658  0.50917397  1.0
  F  F34  1  0.67025729  0.14583658  0.00917397  1.0
  F  F35  1  0.17025729  0.35416342  0.00917397  1.0
  F  F36  1  0.21457528  0.51661515  0.63812497  1.0
  F  F37  1  0.71457528  0.98338485  0.63812497  1.0
  F  F38  1  0.78542472  0.48338485  0.13812497  1.0
  F  F39  1  0.28542472  0.01661515  0.13812497  1.0
