# generated using pymatgen
data_CsNa2BO3
_symmetry_space_group_name_H-M   'P 1'
_cell_length_a   5.85363077
_cell_length_b   6.33124801
_cell_length_c   5.68314154
_cell_angle_alpha   90.00000000
_cell_angle_beta   90.00000000
_cell_angle_gamma   90.00000000
_symmetry_Int_Tables_number   1
_chemical_formula_structural   CsNa2BO3
_chemical_formula_sum   'Cs2 Na4 B2 O6'
_cell_volume   210.62170473
_cell_formula_units_Z   2
loop_
 _symmetry_equiv_pos_site_id
 _symmetry_equiv_pos_as_xyz
  1  'x, y, z'
loop_
 _atom_site_type_symbol
 _atom_site_label
 _atom_site_symmetry_multiplicity
 _atom_site_fract_x
 _atom_site_fract_y
 _atom_site_fract_z
 _atom_site_occupancy
  Cs  Cs0  1  0.50000000  0.50000000  0.87590549  1.0
  Cs  Cs1  1  0.00000000  0.00000000  0.12409451  1.0
  Na  Na2  1  0.50000000  0.76865858  0.36129167  1.0
  Na  Na3  1  0.50000000  0.23134142  0.36129167  1.0
  Na  Na4  1  0.00000000  0.73134142  0.63870833  1.0
  Na  Na5  1  0.00000000  0.26865858  0.63870833  1.0
  B  B6  1  0.50000000  0.00000000  0.78214625  1.0
  B  B7  1  0.00000000  0.50000000  0.21785375  1.0
  O  O8  1  0.50000000  0.00000000  0.02676843  1.0
  O  O9  1  0.00000000  0.50000000  0.97323157  1.0
  O  O10  1  0.29466649  0.00000000  0.65264177  1.0
  O  O11  1  0.70533351  0.00000000  0.65264177  1.0
  O  O12  1  0.20533351  0.50000000  0.34735823  1.0
  O  O13  1  0.79466649  0.50000000  0.34735823  1.0
