# generated using pymatgen
data_Y2TiO5
_symmetry_space_group_name_H-M   'P 1'
_cell_length_a   10.40726166
_cell_length_b   3.70474992
_cell_length_c   11.30685908
_cell_angle_alpha   90.00000000
_cell_angle_beta   90.00000000
_cell_angle_gamma   90.00000000
_symmetry_Int_Tables_number   1
_chemical_formula_structural   Y2TiO5
_chemical_formula_sum   'Y8 Ti4 O20'
_cell_volume   435.95067092
_cell_formula_units_Z   4
loop_
 _symmetry_equiv_pos_site_id
 _symmetry_equiv_pos_as_xyz
  1  'x, y, z'
loop_
 _atom_site_type_symbol
 _atom_site_label
 _atom_site_symmetry_multiplicity
 _atom_site_fract_x
 _atom_site_fract_y
 _atom_site_fract_z
 _atom_site_occupancy
  Y  Y0  1  0.88430789  0.75000000  0.72342370  1.0
  Y  Y1  1  0.38430789  0.75000000  0.77657630  1.0
  Y  Y2  1  0.11569211  0.25000000  0.27657630  1.0
  Y  Y3  1  0.61569211  0.25000000  0.22342370  1.0
  Y  Y4  1  0.86382659  0.75000000  0.05587770  1.0
  Y  Y5  1  0.36382659  0.75000000  0.44412230  1.0
  Y  Y6  1  0.13617341  0.25000000  0.94412230  1.0
  Y  Y7  1  0.63617341  0.25000000  0.55587770  1.0
  Ti  Ti8  1  0.82578626  0.75000000  0.38043825  1.0
  Ti  Ti9  1  0.32578626  0.75000000  0.11956175  1.0
  Ti  Ti10  1  0.17421374  0.25000000  0.61956175  1.0
  Ti  Ti11  1  0.67421374  0.25000000  0.88043825  1.0
  O  O12  1  0.99252408  0.75000000  0.34540877  1.0
  O  O13  1  0.49252408  0.75000000  0.15459123  1.0
  O  O14  1  0.00747592  0.25000000  0.65459123  1.0
  O  O15  1  0.50747592  0.25000000  0.84540877  1.0
  O  O16  1  0.77554166  0.75000000  0.54269900  1.0
  O  O17  1  0.27554166  0.75000000  0.95730100  1.0
  O  O18  1  0.22445834  0.25000000  0.45730100  1.0
  O  O19  1  0.72445834  0.25000000  0.04269900  1.0
  O  O20  1  0.73620408  0.75000000  0.88326403  1.0
  O  O21  1  0.23620408  0.75000000  0.61673597  1.0
  O  O22  1  0.26379592  0.25000000  0.11673597  1.0
  O  O23  1  0.76379592  0.25000000  0.38326403  1.0
  O  O24  1  0.74298185  0.75000000  0.22928369  1.0
  O  O25  1  0.24298185  0.75000000  0.27071631  1.0
  O  O26  1  0.25701815  0.25000000  0.77071631  1.0
  O  O27  1  0.75701815  0.25000000  0.72928369  1.0
  O  O28  1  0.50597629  0.75000000  0.60495753  1.0
  O  O29  1  0.00597629  0.75000000  0.89504247  1.0
  O  O30  1  0.49402371  0.25000000  0.39504247  1.0
  O  O31  1  0.99402371  0.25000000  0.10495753  1.0
