# generated using pymatgen
data_H4N2O3
_symmetry_space_group_name_H-M   'P 1'
_cell_length_a   5.38085730
_cell_length_b   5.76788546
_cell_length_c   5.07074161
_cell_angle_alpha   90.00000000
_cell_angle_beta   90.00000000
_cell_angle_gamma   90.00000000
_symmetry_Int_Tables_number   1
_chemical_formula_structural   H4N2O3
_chemical_formula_sum   'H8 N4 O6'
_cell_volume   157.37639162
_cell_formula_units_Z   2
loop_
 _symmetry_equiv_pos_site_id
 _symmetry_equiv_pos_as_xyz
  1  'x, y, z'
loop_
 _atom_site_type_symbol
 _atom_site_label
 _atom_site_symmetry_multiplicity
 _atom_site_fract_x
 _atom_site_fract_y
 _atom_site_fract_z
 _atom_site_occupancy
  H  H0  1  0.00000000  0.64877322  0.82103964  1.0
  H  H1  1  0.00000000  0.35122678  0.82103964  1.0
  H  H2  1  0.50000000  0.85122678  0.17896036  1.0
  H  H3  1  0.50000000  0.14877322  0.17896036  1.0
  H  H4  1  0.15633793  0.50000000  0.05445568  1.0
  H  H5  1  0.84366207  0.50000000  0.05445568  1.0
  H  H6  1  0.34366207  0.00000000  0.94554432  1.0
  H  H7  1  0.65633793  0.00000000  0.94554432  1.0
  N  N8  1  0.00000000  0.50000000  0.93600302  1.0
  N  N9  1  0.50000000  0.00000000  0.06399698  1.0
  N  N10  1  0.00000000  0.00000000  0.51204431  1.0
  N  N11  1  0.50000000  0.50000000  0.48795569  1.0
  O  O12  1  0.00000000  0.00000000  0.76835490  1.0
  O  O13  1  0.50000000  0.50000000  0.23164510  1.0
  O  O14  1  0.00000000  0.81034250  0.39358156  1.0
  O  O15  1  0.00000000  0.18965750  0.39358156  1.0
  O  O16  1  0.50000000  0.68965750  0.60641844  1.0
  O  O17  1  0.50000000  0.31034250  0.60641844  1.0
