# generated using pymatgen
data_Zn3CoTe4
_symmetry_space_group_name_H-M   'P 1'
_cell_length_a   6.12684086
_cell_length_b   6.12684086
_cell_length_c   6.12684086
_cell_angle_alpha   90.00000000
_cell_angle_beta   90.00000000
_cell_angle_gamma   90.00000000
_symmetry_Int_Tables_number   1
_chemical_formula_structural   Zn3CoTe4
_chemical_formula_sum   'Zn3 Co1 Te4'
_cell_volume   229.99044795
_cell_formula_units_Z   1
loop_
 _symmetry_equiv_pos_site_id
 _symmetry_equiv_pos_as_xyz
  1  'x, y, z'
loop_
 _atom_site_type_symbol
 _atom_site_label
 _atom_site_symmetry_multiplicity
 _atom_site_fract_x
 _atom_site_fract_y
 _atom_site_fract_z
 _atom_site_occupancy
  Zn  Zn0  1  0.50000000  0.50000000  0.00000000  1.0
  Zn  Zn1  1  0.50000000  0.00000000  0.50000000  1.0
  Zn  Zn2  1  0.00000000  0.50000000  0.50000000  1.0
  Co  Co3  1  0.00000000  0.00000000  0.00000000  1.0
  Te  Te4  1  0.75535599  0.75535599  0.24464401  1.0
  Te  Te5  1  0.75535599  0.24464401  0.75535599  1.0
  Te  Te6  1  0.24464401  0.75535599  0.75535599  1.0
  Te  Te7  1  0.24464401  0.24464401  0.24464401  1.0
