# generated using pymatgen
data_EuYSi4N7
_symmetry_space_group_name_H-M   'P 1'
_cell_length_a   6.03982504
_cell_length_b   6.03982504
_cell_length_c   9.87638940
_cell_angle_alpha   90.00000000
_cell_angle_beta   90.00000000
_cell_angle_gamma   120.00000000
_symmetry_Int_Tables_number   1
_chemical_formula_structural   EuYSi4N7
_chemical_formula_sum   'Eu2 Y2 Si8 N14'
_cell_volume   312.01649428
_cell_formula_units_Z   2
loop_
 _symmetry_equiv_pos_site_id
 _symmetry_equiv_pos_as_xyz
  1  'x, y, z'
loop_
 _atom_site_type_symbol
 _atom_site_label
 _atom_site_symmetry_multiplicity
 _atom_site_fract_x
 _atom_site_fract_y
 _atom_site_fract_z
 _atom_site_occupancy
  Eu  Eu0  1  0.33333333  0.66666667  0.43112726  1.0
  Eu  Eu1  1  0.66666667  0.33333333  0.93112726  1.0
  Y  Y2  1  0.33333333  0.66666667  0.06633620  1.0
  Y  Y3  1  0.66666667  0.33333333  0.56633620  1.0
  Si  Si4  1  0.34692037  0.17346019  0.25740758  1.0
  Si  Si5  1  0.17346019  0.34692037  0.75740758  1.0
  Si  Si6  1  0.17346019  0.82653981  0.75740758  1.0
  Si  Si7  1  0.82653981  0.17346019  0.25740758  1.0
  Si  Si8  1  0.82653981  0.65307963  0.25740758  1.0
  Si  Si9  1  0.65307963  0.82653981  0.75740758  1.0
  Si  Si10  1  0.00000000  0.00000000  -0.00921392  1.0
  Si  Si11  1  0.00000000  0.00000000  0.49078608  1.0
  N  N12  1  0.00000000  0.00000000  0.18128833  1.0
  N  N13  1  0.00000000  0.00000000  0.68128833  1.0
  N  N14  1  0.97893109  0.48946555  0.20632362  1.0
  N  N15  1  0.48946555  0.97893109  0.70632362  1.0
  N  N16  1  0.48946555  0.51053445  0.70632362  1.0
  N  N17  1  0.51053445  0.48946555  0.20632362  1.0
  N  N18  1  0.51053445  0.02106891  0.20632362  1.0
  N  N19  1  0.02106891  0.51053445  0.70632362  1.0
  N  N20  1  0.30657298  0.15328649  0.43045618  1.0
  N  N21  1  0.15328649  0.30657298  0.93045618  1.0
  N  N22  1  0.15328649  0.84671351  0.93045618  1.0
  N  N23  1  0.84671351  0.15328649  0.43045618  1.0
  N  N24  1  0.84671351  0.69342702  0.43045618  1.0
  N  N25  1  0.69342702  0.84671351  0.93045618  1.0
