# generated using pymatgen
data_Li16Ta2N8O
_symmetry_space_group_name_H-M   'P 1'
_cell_length_a   9.15357689
_cell_length_b   9.15357689
_cell_length_c   9.15357689
_cell_angle_alpha   38.11297593
_cell_angle_beta   38.11297593
_cell_angle_gamma   38.11297594
_symmetry_Int_Tables_number   1
_chemical_formula_structural   Li16Ta2N8O
_chemical_formula_sum   'Li16 Ta2 N8 O1'
_cell_volume   262.32463765
_cell_formula_units_Z   1
loop_
 _symmetry_equiv_pos_site_id
 _symmetry_equiv_pos_as_xyz
  1  'x, y, z'
loop_
 _atom_site_type_symbol
 _atom_site_label
 _atom_site_symmetry_multiplicity
 _atom_site_fract_x
 _atom_site_fract_y
 _atom_site_fract_z
 _atom_site_occupancy
  Li  Li0  1  0.41746305  0.41746305  -0.58253695  1.0
  Li  Li1  1  0.58253695  0.58253695  -0.41746305  1.0
  Li  Li2  1  0.05786405  0.68184783  -0.66895033  1.0
  Li  Li3  1  0.66895033  0.94213595  -0.68184783  1.0
  Li  Li4  1  0.31815217  0.66895033  -0.05786405  1.0
  Li  Li5  1  0.94213595  0.31815217  -0.33104967  1.0
  Li  Li6  1  0.33104967  0.05786405  -0.31815217  1.0
  Li  Li7  1  0.68184783  0.33104967  -0.94213595  1.0
  Li  Li8  1  0.58305746  0.16593807  -0.17480358  1.0
  Li  Li9  1  0.17480358  0.41694254  -0.16593807  1.0
  Li  Li10  1  0.83406193  0.17480358  -0.58305746  1.0
  Li  Li11  1  0.41694254  0.83406193  -0.82519642  1.0
  Li  Li12  1  0.82519642  -0.41694254  0.16593807  1.0
  Li  Li13  1  1.16593807  -0.17480358  -0.41694254  1.0
  Li  Li14  1  0.07707948  0.07707948  0.07707948  1.0
  Li  Li15  1  0.92292052  -0.07707948  -0.07707948  1.0
  Ta  Ta16  1  0.24939336  0.24939336  0.24939336  1.0
  Ta  Ta17  1  0.75060664  -0.24939336  -0.24939336  1.0
  N  N18  1  0.46433796  0.08746555  -0.22553776  1.0
  N  N19  1  0.22553776  0.53566204  -0.08746555  1.0
  N  N20  1  0.91253445  0.22553776  -0.46433796  1.0
  N  N21  1  0.53566204  0.91253445  -0.77446224  1.0
  N  N22  1  0.77446224  -0.53566204  0.08746555  1.0
  N  N23  1  1.08746555  -0.22553776  -0.53566204  1.0
  N  N24  1  0.32654694  0.32654694  0.32654694  1.0
  N  N25  1  0.67345306  -0.32654694  -0.32654694  1.0
  O  O26  1  0.00000000  0.00000000  0.00000000  1.0
