# generated using pymatgen
data_CaTa2O6
_symmetry_space_group_name_H-M   'P 1'
_cell_length_a   11.20343332
_cell_length_b   7.56458167
_cell_length_c   5.41275818
_cell_angle_alpha   90.00000000
_cell_angle_beta   90.00000000
_cell_angle_gamma   90.00000000
_symmetry_Int_Tables_number   1
_chemical_formula_structural   CaTa2O6
_chemical_formula_sum   'Ca4 Ta8 O24'
_cell_volume   458.72739292
_cell_formula_units_Z   4
loop_
 _symmetry_equiv_pos_site_id
 _symmetry_equiv_pos_as_xyz
  1  'x, y, z'
loop_
 _atom_site_type_symbol
 _atom_site_label
 _atom_site_symmetry_multiplicity
 _atom_site_fract_x
 _atom_site_fract_y
 _atom_site_fract_z
 _atom_site_occupancy
  Ca  Ca0  1  0.95884506  0.25000000  0.04277663  1.0
  Ca  Ca1  1  0.45884506  0.25000000  0.45722337  1.0
  Ca  Ca2  1  0.04115494  0.75000000  0.95722337  1.0
  Ca  Ca3  1  0.54115494  0.75000000  0.54277663  1.0
  Ta  Ta4  1  0.64080403  0.49486340  0.03712361  1.0
  Ta  Ta5  1  0.64080403  0.00513660  0.03712361  1.0
  Ta  Ta6  1  0.14080403  0.49486340  0.46287639  1.0
  Ta  Ta7  1  0.14080403  0.00513660  0.46287639  1.0
  Ta  Ta8  1  0.35919597  0.99486340  0.96287639  1.0
  Ta  Ta9  1  0.35919597  0.50513660  0.96287639  1.0
  Ta  Ta10  1  0.85919597  0.99486340  0.53712361  1.0
  Ta  Ta11  1  0.85919597  0.50513660  0.53712361  1.0
  O  O12  1  0.97664859  0.95969758  0.27066233  1.0
  O  O13  1  0.97664859  0.54030242  0.27066233  1.0
  O  O14  1  0.47664859  0.95969758  0.22933767  1.0
  O  O15  1  0.47664859  0.54030242  0.22933767  1.0
  O  O16  1  0.02335141  0.45969758  0.72933767  1.0
  O  O17  1  0.02335141  0.04030242  0.72933767  1.0
  O  O18  1  0.52335141  0.45969758  0.77066233  1.0
  O  O19  1  0.52335141  0.04030242  0.77066233  1.0
  O  O20  1  0.71337669  0.94013160  0.36721343  1.0
  O  O21  1  0.71337669  0.55986840  0.36721343  1.0
  O  O22  1  0.21337669  0.94013160  0.13278657  1.0
  O  O23  1  0.21337669  0.55986840  0.13278657  1.0
  O  O24  1  0.28662331  0.44013160  0.63278657  1.0
  O  O25  1  0.28662331  0.05986840  0.63278657  1.0
  O  O26  1  0.78662331  0.44013160  0.86721343  1.0
  O  O27  1  0.78662331  0.05986840  0.86721343  1.0
  O  O28  1  0.85559161  0.25000000  0.44763970  1.0
  O  O29  1  0.35559161  0.25000000  0.05236030  1.0
  O  O30  1  0.14440839  0.75000000  0.55236030  1.0
  O  O31  1  0.64440839  0.75000000  0.94763970  1.0
  O  O32  1  0.62217772  0.25000000  0.15991054  1.0
  O  O33  1  0.12217772  0.25000000  0.34008946  1.0
  O  O34  1  0.37782228  0.75000000  0.84008946  1.0
  O  O35  1  0.87782228  0.75000000  0.65991054  1.0
