# generated using pymatgen
data_Mg2V2O7
_symmetry_space_group_name_H-M   'P 1'
_cell_length_a   6.68525102
_cell_length_b   8.47633651
_cell_length_c   9.57667162
_cell_angle_alpha   90.00000000
_cell_angle_beta   101.01498031
_cell_angle_gamma   90.00000000
_symmetry_Int_Tables_number   1
_chemical_formula_structural   Mg2V2O7
_chemical_formula_sum   'Mg8 V8 O28'
_cell_volume   532.67828677
_cell_formula_units_Z   4
loop_
 _symmetry_equiv_pos_site_id
 _symmetry_equiv_pos_as_xyz
  1  'x, y, z'
loop_
 _atom_site_type_symbol
 _atom_site_label
 _atom_site_symmetry_multiplicity
 _atom_site_fract_x
 _atom_site_fract_y
 _atom_site_fract_z
 _atom_site_occupancy
  Mg  Mg0  1  0.80891600  0.88880993  0.68174664  1.0
  Mg  Mg1  1  0.80891600  0.61119007  0.18174664  1.0
  Mg  Mg2  1  0.19108400  0.38880993  0.81825336  1.0
  Mg  Mg3  1  0.19108400  0.11119007  0.31825336  1.0
  Mg  Mg4  1  0.64713080  0.87932892  0.96371286  1.0
  Mg  Mg5  1  0.64713080  0.62067108  0.46371286  1.0
  Mg  Mg6  1  0.35286920  0.37932892  0.53628714  1.0
  Mg  Mg7  1  0.35286920  0.12067108  0.03628714  1.0
  V  V8  1  0.85936217  0.25732429  0.53036018  1.0
  V  V9  1  0.85936217  0.24267571  0.03036018  1.0
  V  V10  1  0.14063783  0.75732429  0.96963982  1.0
  V  V11  1  0.14063783  0.74267571  0.46963982  1.0
  V  V12  1  0.69212351  0.52068305  0.81429803  1.0
  V  V13  1  0.69212351  0.97931695  0.31429803  1.0
  V  V14  1  0.30787649  0.02068305  0.68570197  1.0
  V  V15  1  0.30787649  0.47931695  0.18570197  1.0
  O  O16  1  0.92986330  0.86786930  0.89979326  1.0
  O  O17  1  0.92986330  0.63213070  0.39979326  1.0
  O  O18  1  0.07013670  0.36786930  0.60020674  1.0
  O  O19  1  0.07013670  0.13213070  0.10020674  1.0
  O  O20  1  0.88804824  0.36932093  0.87554362  1.0
  O  O21  1  0.88804824  0.13067907  0.37554362  1.0
  O  O22  1  0.11195176  0.86932093  0.62445638  1.0
  O  O23  1  0.11195176  0.63067907  0.12445638  1.0
  O  O24  1  0.74956068  0.64092969  0.68480471  1.0
  O  O25  1  0.74956068  0.85907031  0.18480471  1.0
  O  O26  1  0.25043932  0.14092969  0.81519529  1.0
  O  O27  1  0.25043932  0.35907031  0.31519529  1.0
  O  O28  1  0.67378367  0.63136655  0.95935780  1.0
  O  O29  1  0.67378367  0.86863345  0.45935780  1.0
  O  O30  1  0.32621633  0.13136655  0.54064220  1.0
  O  O31  1  0.32621633  0.36863345  0.04064220  1.0
  O  O32  1  0.64959627  0.37760605  0.49796999  1.0
  O  O33  1  0.64959627  0.12239395  0.99796999  1.0
  O  O34  1  0.35040373  0.87760605  0.00203001  1.0
  O  O35  1  0.35040373  0.62239395  0.50203001  1.0
  O  O36  1  0.53097163  0.92527834  0.74713268  1.0
  O  O37  1  0.53097163  0.57472166  0.24713268  1.0
  O  O38  1  0.46902837  0.42527834  0.75286732  1.0
  O  O39  1  0.46902837  0.07472166  0.25286732  1.0
  O  O40  1  0.17440153  0.62569053  0.84989198  1.0
  O  O41  1  0.17440153  0.87430947  0.34989198  1.0
  O  O42  1  0.82559847  0.12569053  0.65010802  1.0
  O  O43  1  0.82559847  0.37430947  0.15010802  1.0
