# generated using pymatgen
data_CsIn3O5
_symmetry_space_group_name_H-M   'P 1'
_cell_length_a   10.30443962
_cell_length_b   3.40077089
_cell_length_c   16.80058741
_cell_angle_alpha   90.00000000
_cell_angle_beta   90.00000000
_cell_angle_gamma   90.00000000
_symmetry_Int_Tables_number   1
_chemical_formula_structural   CsIn3O5
_chemical_formula_sum   'Cs4 In12 O20'
_cell_volume   588.74362827
_cell_formula_units_Z   4
loop_
 _symmetry_equiv_pos_site_id
 _symmetry_equiv_pos_as_xyz
  1  'x, y, z'
loop_
 _atom_site_type_symbol
 _atom_site_label
 _atom_site_symmetry_multiplicity
 _atom_site_fract_x
 _atom_site_fract_y
 _atom_site_fract_z
 _atom_site_occupancy
  Cs  Cs0  1  0.46612778  0.75000000  0.62345900  1.0
  Cs  Cs1  1  0.96612778  0.75000000  0.87654100  1.0
  Cs  Cs2  1  0.53387222  0.25000000  0.37654100  1.0
  Cs  Cs3  1  0.03387222  0.25000000  0.12345900  1.0
  In  In4  1  0.89256282  0.75000000  0.33442749  1.0
  In  In5  1  0.39256282  0.75000000  0.16557251  1.0
  In  In6  1  0.10743718  0.25000000  0.66557251  1.0
  In  In7  1  0.60743718  0.25000000  0.83442749  1.0
  In  In8  1  0.81614410  0.75000000  0.67837956  1.0
  In  In9  1  0.31614410  0.75000000  0.82162044  1.0
  In  In10  1  0.18385590  0.25000000  0.32162044  1.0
  In  In11  1  0.68385590  0.25000000  0.17837956  1.0
  In  In12  1  0.64415902  0.75000000  0.00954919  1.0
  In  In13  1  0.14415902  0.75000000  0.49045081  1.0
  In  In14  1  0.35584098  0.25000000  0.99045081  1.0
  In  In15  1  0.85584098  0.25000000  0.50954919  1.0
  O  O16  1  0.97416414  0.75000000  0.57536012  1.0
  O  O17  1  0.47416414  0.75000000  0.92463988  1.0
  O  O18  1  0.02583586  0.25000000  0.42463988  1.0
  O  O19  1  0.52583586  0.25000000  0.07536012  1.0
  O  O20  1  0.77144720  0.75000000  0.11019447  1.0
  O  O21  1  0.27144720  0.75000000  0.38980553  1.0
  O  O22  1  0.22855280  0.25000000  0.88980553  1.0
  O  O23  1  0.72855280  0.25000000  0.61019447  1.0
  O  O24  1  0.69011195  0.75000000  0.77974733  1.0
  O  O25  1  0.19011195  0.75000000  0.72025267  1.0
  O  O26  1  0.30988805  0.25000000  0.22025267  1.0
  O  O27  1  0.80988805  0.25000000  0.27974733  1.0
  O  O28  1  0.78070128  0.75000000  0.44186342  1.0
  O  O29  1  0.28070128  0.75000000  0.05813658  1.0
  O  O30  1  0.21929872  0.25000000  0.55813658  1.0
  O  O31  1  0.71929872  0.25000000  0.94186342  1.0
  O  O32  1  0.57055478  0.75000000  0.22706632  1.0
  O  O33  1  0.07055478  0.75000000  0.27293368  1.0
  O  O34  1  0.42944522  0.25000000  0.77293368  1.0
  O  O35  1  0.92944522  0.25000000  0.72706632  1.0
