# generated using pymatgen
data_VIO7
_symmetry_space_group_name_H-M   'P 1'
_cell_length_a   9.92904381
_cell_length_b   8.61886649
_cell_length_c   7.27445463
_cell_angle_alpha   90.00000000
_cell_angle_beta   96.47749877
_cell_angle_gamma   90.00000000
_symmetry_Int_Tables_number   1
_chemical_formula_structural   VIO7
_chemical_formula_sum   'V4 I4 O28'
_cell_volume   618.55268901
_cell_formula_units_Z   4
loop_
 _symmetry_equiv_pos_site_id
 _symmetry_equiv_pos_as_xyz
  1  'x, y, z'
loop_
 _atom_site_type_symbol
 _atom_site_label
 _atom_site_symmetry_multiplicity
 _atom_site_fract_x
 _atom_site_fract_y
 _atom_site_fract_z
 _atom_site_occupancy
  I  I0  1  0.23288442  0.92182284  0.26139694  1.0
  I  I1  1  0.76711558  0.42182284  0.23860306  1.0
  I  I2  1  0.76711558  0.07817716  0.73860306  1.0
  I  I3  1  0.23288442  0.57817716  0.76139694  1.0
  O  O4  1  0.69740802  0.79236436  0.19113668  1.0
  O  O5  1  0.30259198  0.29236436  0.30886332  1.0
  O  O6  1  0.30259198  0.20763564  0.80886332  1.0
  O  O7  1  0.69740802  0.70763564  0.69113668  1.0
  O  O8  1  0.84566571  0.55714223  0.43088942  1.0
  O  O9  1  0.15433429  0.05714223  0.06911058  1.0
  O  O10  1  0.15433429  0.44285777  0.56911058  1.0
  O  O11  1  0.84566571  0.94285777  0.93088942  1.0
  O  O12  1  0.24595524  0.73089371  0.12923225  1.0
  O  O13  1  0.75404476  0.23089371  0.37076775  1.0
  O  O14  1  0.75404476  0.26910629  0.87076775  1.0
  O  O15  1  0.24595524  0.76910629  0.62923225  1.0
  O  O16  1  0.06569788  0.82451999  0.30918218  1.0
  O  O17  1  0.93430212  0.32451999  0.19081782  1.0
  O  O18  1  0.93430212  0.17548001  0.69081782  1.0
  O  O19  1  0.06569788  0.67548001  0.80918218  1.0
  O  O20  1  0.79538680  0.61270135  0.04185711  1.0
  O  O21  1  0.20461320  0.11270135  0.45814289  1.0
  O  O22  1  0.20461320  0.38729865  0.95814289  1.0
  O  O23  1  0.79538680  0.88729865  0.54185711  1.0
  O  O24  1  0.61831042  0.54278137  0.38265504  1.0
  O  O25  1  0.38168958  0.04278137  0.11734496  1.0
  O  O26  1  0.38168958  0.45721863  0.61734496  1.0
  O  O27  1  0.61831042  0.95721863  0.88265504  1.0
  O  O28  1  0.51715128  0.83434781  0.42202501  1.0
  O  O29  1  0.48284872  0.33434781  0.07797499  1.0
  O  O30  1  0.48284872  0.16565219  0.57797499  1.0
  O  O31  1  0.51715128  0.66565219  0.92202501  1.0
  V  V32  1  0.66171619  0.75076415  0.42323512  1.0
  V  V33  1  0.33828381  0.25076415  0.07676488  1.0
  V  V34  1  0.33828381  0.24923585  0.57676488  1.0
  V  V35  1  0.66171619  0.74923585  0.92323512  1.0
