# generated using pymatgen
data_CuAgS
_symmetry_space_group_name_H-M   'P 1'
_cell_length_a   4.01534169
_cell_length_b   6.63917534
_cell_length_c   8.32084541
_cell_angle_alpha   90.00000000
_cell_angle_beta   90.00000000
_cell_angle_gamma   90.00000000
_symmetry_Int_Tables_number   1
_chemical_formula_structural   CuAgS
_chemical_formula_sum   'Cu4 Ag4 S4'
_cell_volume   221.82173624
_cell_formula_units_Z   4
loop_
 _symmetry_equiv_pos_site_id
 _symmetry_equiv_pos_as_xyz
  1  'x, y, z'
loop_
 _atom_site_type_symbol
 _atom_site_label
 _atom_site_symmetry_multiplicity
 _atom_site_fract_x
 _atom_site_fract_y
 _atom_site_fract_z
 _atom_site_occupancy
  Cu  Cu0  1  0.50000000  0.95841093  0.52568474  1.0
  Cu  Cu1  1  0.50000000  0.04158907  0.02568474  1.0
  Cu  Cu2  1  0.00000000  0.45841529  0.50151403  1.0
  Cu  Cu3  1  -0.00000000  0.54158471  0.00151403  1.0
  Ag  Ag4  1  0.50000000  0.57239348  0.74923634  1.0
  Ag  Ag5  1  0.50000000  0.42760652  0.24923634  1.0
  Ag  Ag6  1  0.00000000  0.92767107  0.77795145  1.0
  Ag  Ag7  1  -0.00000000  0.07232893  0.27795145  1.0
  S  S8  1  0.50000000  0.69070858  0.03314146  1.0
  S  S9  1  0.50000000  0.30929142  0.53314146  1.0
  S  S10  1  -0.00000000  0.80928800  0.49407197  1.0
  S  S11  1  0.00000000  0.19071200  0.99407197  1.0
