# generated using pymatgen
data_RbAuO
_symmetry_space_group_name_H-M   'P 1'
_cell_length_a   7.74213298
_cell_length_b   7.74213298
_cell_length_c   7.74213298
_cell_angle_alpha   98.47973777
_cell_angle_beta   98.47973777
_cell_angle_gamma   134.83606507
_symmetry_Int_Tables_number   1
_chemical_formula_structural   RbAuO
_chemical_formula_sum   'Rb4 Au4 O4'
_cell_volume   303.85291819
_cell_formula_units_Z   4
loop_
 _symmetry_equiv_pos_site_id
 _symmetry_equiv_pos_as_xyz
  1  'x, y, z'
loop_
 _atom_site_type_symbol
 _atom_site_label
 _atom_site_symmetry_multiplicity
 _atom_site_fract_x
 _atom_site_fract_y
 _atom_site_fract_z
 _atom_site_occupancy
  Rb  Rb0  1  0.50000000  0.80613879  0.30613879  1.0
  Rb  Rb1  1  0.80613879  0.50000000  1.30613879  1.0
  Rb  Rb2  1  0.19386121  0.50000000  0.69386121  1.0
  Rb  Rb3  1  0.50000000  1.19386121  0.69386121  1.0
  Au  Au4  1  0.85195078  0.85195078  0.70390156  1.0
  Au  Au5  1  1.14804922  0.85195078  1.00000000  1.0
  Au  Au6  1  0.85195078  0.14804922  1.00000000  1.0
  Au  Au7  1  0.14804922  0.14804922  0.29609844  1.0
  O  O8  1  0.00000000  0.71372393  0.71372393  1.0
  O  O9  1  0.71372393  1.00000000  0.71372393  1.0
  O  O10  1  1.28627607  1.00000000  1.28627607  1.0
  O  O11  1  0.00000000  0.28627607  0.28627607  1.0
