# generated using pymatgen
data_V2CuS4
_symmetry_space_group_name_H-M   'P 1'
_cell_length_a   6.96992897
_cell_length_b   6.96992897
_cell_length_c   6.96992897
_cell_angle_alpha   119.99121663
_cell_angle_beta   119.99222073
_cell_angle_gamma   90.01434427
_symmetry_Int_Tables_number   1
_chemical_formula_structural   V2CuS4
_chemical_formula_sum   'V4 Cu2 S8'
_cell_volume   239.45527153
_cell_formula_units_Z   2
loop_
 _symmetry_equiv_pos_site_id
 _symmetry_equiv_pos_as_xyz
  1  'x, y, z'
loop_
 _atom_site_type_symbol
 _atom_site_label
 _atom_site_symmetry_multiplicity
 _atom_site_fract_x
 _atom_site_fract_y
 _atom_site_fract_z
 _atom_site_occupancy
  V  V0  1  0.38133842  0.61296565  0.76837277  1.0
  V  V1  1  0.84459288  0.61296565  0.23162723  1.0
  V  V2  1  1.38129781  1.14961481  0.76831700  1.0
  V  V3  1  0.38129781  0.61298081  0.23168300  1.0
  Cu  Cu4  1  0.74715277  1.24715277  0.50000000  1.0
  Cu  Cu5  1  -0.00279297  -0.00279297  0.00000000  1.0
  S  S6  1  1.13145925  1.37520682  0.75625244  1.0
  S  S7  1  0.61895438  0.37520682  0.24374756  1.0
  S  S8  1  1.59318014  0.86252421  0.73065593  1.0
  S  S9  1  1.13186827  0.86252421  0.26934407  1.0
  S  S10  1  0.61906251  0.37530002  0.75623751  1.0
  S  S11  1  0.61906251  0.86282499  0.24376249  1.0
  S  S12  1  1.13176311  0.86237678  0.73061367  1.0
  S  S13  1  1.13176311  1.40114944  1.26938633  1.0
