# generated using pymatgen
data_RbCrF5
_symmetry_space_group_name_H-M   'P 1'
_cell_length_a   5.68701573
_cell_length_b   7.84748125
_cell_length_c   10.57161082
_cell_angle_alpha   90.00000000
_cell_angle_beta   90.00000000
_cell_angle_gamma   90.00000000
_symmetry_Int_Tables_number   1
_chemical_formula_structural   RbCrF5
_chemical_formula_sum   'Rb4 Cr4 F20'
_cell_volume   471.79776879
_cell_formula_units_Z   4
loop_
 _symmetry_equiv_pos_site_id
 _symmetry_equiv_pos_as_xyz
  1  'x, y, z'
loop_
 _atom_site_type_symbol
 _atom_site_label
 _atom_site_symmetry_multiplicity
 _atom_site_fract_x
 _atom_site_fract_y
 _atom_site_fract_z
 _atom_site_occupancy
  Rb  Rb0  1  0.50000000  0.37730812  0.82614202  1.0
  Rb  Rb1  1  0.50000000  0.62269188  0.32614202  1.0
  Rb  Rb2  1  0.00000000  0.87452250  0.97000704  1.0
  Rb  Rb3  1  0.00000000  0.12547750  0.47000704  1.0
  Cr  Cr4  1  0.50000000  0.88482349  0.70756879  1.0
  Cr  Cr5  1  0.50000000  0.11517651  0.20756879  1.0
  Cr  Cr6  1  0.00000000  0.58490635  0.61793884  1.0
  Cr  Cr7  1  0.00000000  0.41509365  0.11793884  1.0
  F  F8  1  0.77579989  0.46482560  0.53741131  1.0
  F  F9  1  0.77579989  0.53517440  0.03741131  1.0
  F  F10  1  0.22420011  0.46482560  0.53741131  1.0
  F  F11  1  0.22420011  0.53517440  0.03741131  1.0
  F  F12  1  0.75186868  0.70726228  0.71444719  1.0
  F  F13  1  0.75186868  0.29273772  0.21444719  1.0
  F  F14  1  0.24813132  0.70726228  0.71444719  1.0
  F  F15  1  0.24813132  0.29273772  0.21444719  1.0
  F  F16  1  0.72302621  0.95258327  0.21000144  1.0
  F  F17  1  0.72302621  0.04741673  0.71000144  1.0
  F  F18  1  0.27697379  0.95258327  0.21000144  1.0
  F  F19  1  0.27697379  0.04741673  0.71000144  1.0
  F  F20  1  0.50000000  0.85085184  0.54131554  1.0
  F  F21  1  0.50000000  0.14914816  0.04131554  1.0
  F  F22  1  0.50000000  0.85283131  0.87601098  1.0
  F  F23  1  0.50000000  0.14716869  0.37601098  1.0
  F  F24  1  0.00000000  0.76117921  0.51176179  1.0
  F  F25  1  0.00000000  0.23882079  0.01176179  1.0
  F  F26  1  0.00000000  0.44548069  0.75323512  1.0
  F  F27  1  0.00000000  0.55451931  0.25323512  1.0
