# generated using pymatgen
data_NaN3
_symmetry_space_group_name_H-M   'P 1'
_cell_length_a   3.70306991
_cell_length_b   3.70306991
_cell_length_c   5.51308635
_cell_angle_alpha   71.08459921
_cell_angle_beta   108.91540079
_cell_angle_gamma   119.87536039
_symmetry_Int_Tables_number   1
_chemical_formula_structural   NaN3
_chemical_formula_sum   'Na1 N3'
_cell_volume   60.78111161
_cell_formula_units_Z   1
loop_
 _symmetry_equiv_pos_site_id
 _symmetry_equiv_pos_as_xyz
  1  'x, y, z'
loop_
 _atom_site_type_symbol
 _atom_site_label
 _atom_site_symmetry_multiplicity
 _atom_site_fract_x
 _atom_site_fract_y
 _atom_site_fract_z
 _atom_site_occupancy
  Na  Na0  1  0.50000000  -0.50000000  0.50000000  1.0
  N  N1  1  0.91940725  -0.91940725  0.76901833  1.0
  N  N2  1  0.08059275  -0.08059275  0.23098167  1.0
  N  N3  1  0.00000000  0.00000000  0.00000000  1.0
