# generated using pymatgen
data_Al2SiO5
_symmetry_space_group_name_H-M   'P 1'
_cell_length_a   5.30666962
_cell_length_b   5.30666962
_cell_length_c   6.70614524
_cell_angle_alpha   70.32408005
_cell_angle_beta   109.67591995
_cell_angle_gamma   127.17843063
_symmetry_Int_Tables_number   1
_chemical_formula_structural   Al2SiO5
_chemical_formula_sum   'Al4 Si2 O10'
_cell_volume   139.43016047
_cell_formula_units_Z   2
loop_
 _symmetry_equiv_pos_site_id
 _symmetry_equiv_pos_as_xyz
  1  'x, y, z'
loop_
 _atom_site_type_symbol
 _atom_site_label
 _atom_site_symmetry_multiplicity
 _atom_site_fract_x
 _atom_site_fract_y
 _atom_site_fract_z
 _atom_site_occupancy
  Al  Al0  1  1.14331129  0.87713273  0.22691116  1.0
  Al  Al1  1  1.87713273  0.14331129  0.27308884  1.0
  Al  Al2  1  0.85668871  -0.87713273  0.77308884  1.0
  Al  Al3  1  0.12286727  -0.14331129  0.72691116  1.0
  Si  Si4  1  0.50000000  0.50000000  -0.00000000  1.0
  Si  Si5  1  0.50000000  0.50000000  0.50000000  1.0
  O  O6  1  1.17697558  -0.46238027  0.35414553  1.0
  O  O7  1  0.53761973  0.17697558  0.14585447  1.0
  O  O8  1  0.82302442  0.46238027  0.64585447  1.0
  O  O9  1  1.46238027  -0.17697558  0.85414553  1.0
  O  O10  1  1.09321911  -0.74432224  1.04780047  1.0
  O  O11  1  0.25567776  0.09321911  0.45219953  1.0
  O  O12  1  0.90678089  0.74432224  -0.04780047  1.0
  O  O13  1  1.74432224  -0.09321911  0.54780047  1.0
  O  O14  1  0.68845815  0.68845815  0.25000000  1.0
  O  O15  1  0.31154185  0.31154185  0.75000000  1.0
