# generated using pymatgen
data_Ba4W(N2Cl)2
_symmetry_space_group_name_H-M   'P 1'
_cell_length_a   8.52553981
_cell_length_b   6.22394289
_cell_length_c   10.93903104
_cell_angle_alpha   90.00000000
_cell_angle_beta   98.20282495
_cell_angle_gamma   90.00000000
_symmetry_Int_Tables_number   1
_chemical_formula_structural   Ba4W(N2Cl)2
_chemical_formula_sum   'Ba8 W2 N8 Cl4'
_cell_volume   574.51354788
_cell_formula_units_Z   2
loop_
 _symmetry_equiv_pos_site_id
 _symmetry_equiv_pos_as_xyz
  1  'x, y, z'
loop_
 _atom_site_type_symbol
 _atom_site_label
 _atom_site_symmetry_multiplicity
 _atom_site_fract_x
 _atom_site_fract_y
 _atom_site_fract_z
 _atom_site_occupancy
  Ba  Ba0  1  0.81476398  0.25000000  0.90734834  1.0
  Ba  Ba1  1  0.18523602  0.75000000  0.09265166  1.0
  Ba  Ba2  1  0.44720115  0.25000000  0.37648863  1.0
  Ba  Ba3  1  0.55279885  0.75000000  0.62351137  1.0
  Ba  Ba4  1  0.28469974  0.25000000  0.70263206  1.0
  Ba  Ba5  1  0.71530026  0.75000000  0.29736794  1.0
  Ba  Ba6  1  0.00595566  0.25000000  0.37412648  1.0
  Ba  Ba7  1  0.99404434  0.75000000  0.62587352  1.0
  W  W8  1  0.76879843  0.25000000  0.60086495  1.0
  W  W9  1  0.23120157  0.75000000  0.39913505  1.0
  N  N10  1  0.75155792  0.49737285  0.49943315  1.0
  N  N11  1  0.75155792  0.00262715  0.49943315  1.0
  N  N12  1  0.24844208  0.99737285  0.50056685  1.0
  N  N13  1  0.24844208  0.50262715  0.50056685  1.0
  N  N14  1  0.96199048  0.25000000  0.70696269  1.0
  N  N15  1  0.03800952  0.75000000  0.29303731  1.0
  N  N16  1  0.60976979  0.25000000  0.70380413  1.0
  N  N17  1  0.39023021  0.75000000  0.29619587  1.0
  Cl  Cl18  1  0.68216219  0.25000000  0.16805856  1.0
  Cl  Cl19  1  0.31783781  0.75000000  0.83194144  1.0
  Cl  Cl20  1  0.15627444  0.25000000  0.10056978  1.0
  Cl  Cl21  1  0.84372556  0.75000000  0.89943022  1.0
