# generated using pymatgen
data_K2CoBr4
_symmetry_space_group_name_H-M   'P 1'
_cell_length_a   7.42201432
_cell_length_b   7.56924671
_cell_length_c   9.23075266
_cell_angle_alpha   90.00000000
_cell_angle_beta   108.19173335
_cell_angle_gamma   90.00000000
_symmetry_Int_Tables_number   1
_chemical_formula_structural   K2CoBr4
_chemical_formula_sum   'K4 Co2 Br8'
_cell_volume   492.65510515
_cell_formula_units_Z   2
loop_
 _symmetry_equiv_pos_site_id
 _symmetry_equiv_pos_as_xyz
  1  'x, y, z'
loop_
 _atom_site_type_symbol
 _atom_site_label
 _atom_site_symmetry_multiplicity
 _atom_site_fract_x
 _atom_site_fract_y
 _atom_site_fract_z
 _atom_site_occupancy
  K  K0  1  0.78317454  0.75000000  0.45019924  1.0
  K  K1  1  0.21682546  0.25000000  0.54980076  1.0
  K  K2  1  0.73127376  0.75000000  0.93042507  1.0
  K  K3  1  0.26872624  0.25000000  0.06957493  1.0
  Co  Co4  1  0.22342802  0.75000000  0.29862617  1.0
  Co  Co5  1  0.77657198  0.25000000  0.70137383  1.0
  Br  Br6  1  0.99074158  1.00239194  0.75985001  1.0
  Br  Br7  1  0.99074158  0.49760806  0.75985001  1.0
  Br  Br8  1  0.00925842  0.50239194  0.24014999  1.0
  Br  Br9  1  0.00925842  -0.00239194  0.24014999  1.0
  Br  Br10  1  0.41911077  0.75000000  0.13452050  1.0
  Br  Br11  1  0.58088923  0.25000000  0.86547950  1.0
  Br  Br12  1  0.39604625  0.75000000  0.56583902  1.0
  Br  Br13  1  0.60395375  0.25000000  0.43416098  1.0
