# generated using pymatgen
data_Hg3AsBrO4
_symmetry_space_group_name_H-M   'P 1'
_cell_length_a   8.69742287
_cell_length_b   8.69742287
_cell_length_c   8.69742287
_cell_angle_alpha   90.00000000
_cell_angle_beta   90.00000000
_cell_angle_gamma   90.00000000
_symmetry_Int_Tables_number   1
_chemical_formula_structural   Hg3AsBrO4
_chemical_formula_sum   'Hg12 As4 Br4 O16'
_cell_volume   657.91798337
_cell_formula_units_Z   4
loop_
 _symmetry_equiv_pos_site_id
 _symmetry_equiv_pos_as_xyz
  1  'x, y, z'
loop_
 _atom_site_type_symbol
 _atom_site_label
 _atom_site_symmetry_multiplicity
 _atom_site_fract_x
 _atom_site_fract_y
 _atom_site_fract_z
 _atom_site_occupancy
  Hg  Hg0  1  0.39260318  0.35333036  0.69575790  1.0
  Hg  Hg1  1  0.89260318  0.14666964  0.30424210  1.0
  Hg  Hg2  1  0.85333036  0.80424210  0.60739682  1.0
  Hg  Hg3  1  0.35333036  0.69575790  0.39260318  1.0
  Hg  Hg4  1  0.30424210  0.89260318  0.14666964  1.0
  Hg  Hg5  1  0.80424210  0.60739682  0.85333036  1.0
  Hg  Hg6  1  0.60739682  0.85333036  0.80424210  1.0
  Hg  Hg7  1  0.10739682  0.64666964  0.19575790  1.0
  Hg  Hg8  1  0.14666964  0.30424210  0.89260318  1.0
  Hg  Hg9  1  0.64666964  0.19575790  0.10739682  1.0
  Hg  Hg10  1  0.69575790  0.39260318  0.35333036  1.0
  Hg  Hg11  1  0.19575790  0.10739682  0.64666964  1.0
  As  As12  1  0.23173988  0.73173988  0.76826012  1.0
  As  As13  1  0.73173988  0.76826012  0.23173988  1.0
  As  As14  1  0.76826012  0.23173988  0.73173988  1.0
  As  As15  1  0.26826012  0.26826012  0.26826012  1.0
  Br  Br16  1  0.48314941  0.98314941  0.51685059  1.0
  Br  Br17  1  0.98314941  0.51685059  0.48314941  1.0
  Br  Br18  1  0.51685059  0.48314941  0.98314941  1.0
  Br  Br19  1  0.01685059  0.01685059  0.01685059  1.0
  O  O20  1  0.11730867  0.61730867  0.88269133  1.0
  O  O21  1  0.61730867  0.88269133  0.11730867  1.0
  O  O22  1  0.88269133  0.11730867  0.61730867  1.0
  O  O23  1  0.38269133  0.38269133  0.38269133  1.0
  O  O24  1  0.34845076  0.62249619  0.64330474  1.0
  O  O25  1  0.84845076  0.87750381  0.35669526  1.0
  O  O26  1  0.12249619  0.85669526  0.65154924  1.0
  O  O27  1  0.62249619  0.64330474  0.34845076  1.0
  O  O28  1  0.35669526  0.84845076  0.87750381  1.0
  O  O29  1  0.85669526  0.65154924  0.12249619  1.0
  O  O30  1  0.65154924  0.12249619  0.85669526  1.0
  O  O31  1  0.15154924  0.37750381  0.14330474  1.0
  O  O32  1  0.87750381  0.35669526  0.84845076  1.0
  O  O33  1  0.37750381  0.14330474  0.15154924  1.0
  O  O34  1  0.64330474  0.34845076  0.62249619  1.0
  O  O35  1  0.14330474  0.15154924  0.37750381  1.0
