# generated using pymatgen
data_GeINO6
_symmetry_space_group_name_H-M   'P 1'
_cell_length_a   5.15423589
_cell_length_b   5.15423589
_cell_length_c   5.11031713
_cell_angle_alpha   90.00000000
_cell_angle_beta   90.00000000
_cell_angle_gamma   120.00000000
_symmetry_Int_Tables_number   1
_chemical_formula_structural   GeINO6
_chemical_formula_sum   'Ge1 I1 N1 O6'
_cell_volume   117.57285511
_cell_formula_units_Z   1
loop_
 _symmetry_equiv_pos_site_id
 _symmetry_equiv_pos_as_xyz
  1  'x, y, z'
loop_
 _atom_site_type_symbol
 _atom_site_label
 _atom_site_symmetry_multiplicity
 _atom_site_fract_x
 _atom_site_fract_y
 _atom_site_fract_z
 _atom_site_occupancy
  Ge  Ge0  1  -0.00000000  -0.00000000  0.00000000  1.0
  I  I1  1  0.33333333  0.66666667  -0.00000000  1.0
  N  N2  1  0.66666667  0.33333333  0.50000000  1.0
  O  O3  1  0.67205960  0.71074320  0.21195563  1.0
  O  O4  1  0.67205960  0.96131640  0.78804437  1.0
  O  O5  1  0.03868360  0.71074320  0.78804437  1.0
  O  O6  1  0.03868360  0.32794040  0.21195563  1.0
  O  O7  1  0.28925680  0.32794040  0.78804437  1.0
  O  O8  1  0.28925680  0.96131640  0.21195563  1.0
