# generated using pymatgen
data_VFe2BO5
_symmetry_space_group_name_H-M   'P 1'
_cell_length_a   9.66988940
_cell_length_b   12.41971251
_cell_length_c   2.95763852
_cell_angle_alpha   90.00000000
_cell_angle_beta   90.00000000
_cell_angle_gamma   90.00000000
_symmetry_Int_Tables_number   1
_chemical_formula_structural   VFe2BO5
_chemical_formula_sum   'V4 Fe8 B4 O20'
_cell_volume   355.20424169
_cell_formula_units_Z   4
loop_
 _symmetry_equiv_pos_site_id
 _symmetry_equiv_pos_as_xyz
  1  'x, y, z'
loop_
 _atom_site_type_symbol
 _atom_site_label
 _atom_site_symmetry_multiplicity
 _atom_site_fract_x
 _atom_site_fract_y
 _atom_site_fract_z
 _atom_site_occupancy
  Fe  Fe0  1  0.50000000  0.00000000  0.50000000  1.0
  Fe  Fe1  1  0.00000000  0.50000000  0.50000000  1.0
  Fe  Fe2  1  0.49974883  0.71949944  0.50000000  1.0
  Fe  Fe3  1  0.99974883  0.78050056  0.50000000  1.0
  Fe  Fe4  1  0.50025117  0.28050056  0.50000000  1.0
  Fe  Fe5  1  0.00025117  0.21949944  0.50000000  1.0
  Fe  Fe6  1  0.50000000  0.50000000  -0.00000000  1.0
  Fe  Fe7  1  0.00000000  0.00000000  0.00000000  1.0
  O  O8  1  0.39265083  0.85657975  0.50000000  1.0
  O  O9  1  0.89265083  0.64342025  0.50000000  1.0
  O  O10  1  0.60734917  0.14342025  0.50000000  1.0
  O  O11  1  0.10734917  0.35657975  0.50000000  1.0
  O  O12  1  0.16037806  0.73551363  -0.00000000  1.0
  O  O13  1  0.66037806  0.76448637  -0.00000000  1.0
  O  O14  1  0.83962194  0.26448637  -0.00000000  1.0
  O  O15  1  0.33962194  0.23551363  -0.00000000  1.0
  O  O16  1  0.15718070  0.54222207  0.00000000  1.0
  O  O17  1  0.65718070  0.95777793  0.00000000  1.0
  O  O18  1  0.84281930  0.45777793  0.00000000  1.0
  O  O19  1  0.34281930  0.04222207  0.00000000  1.0
  O  O20  1  0.12169460  0.91960339  0.50000000  1.0
  O  O21  1  0.62169460  0.58039661  0.50000000  1.0
  O  O22  1  0.87830540  0.08039661  0.50000000  1.0
  O  O23  1  0.37830540  0.41960339  0.50000000  1.0
  O  O24  1  0.37342378  0.63803350  0.00000000  1.0
  O  O25  1  0.87342378  0.86196650  -0.00000000  1.0
  O  O26  1  0.62657622  0.36196650  -0.00000000  1.0
  O  O27  1  0.12657622  0.13803350  -0.00000000  1.0
  B  B28  1  0.23045716  0.63828660  -0.00000000  1.0
  B  B29  1  0.73045716  0.86171340  0.00000000  1.0
  B  B30  1  0.76954284  0.36171340  -0.00000000  1.0
  B  B31  1  0.26954284  0.13828660  0.00000000  1.0
  V  V32  1  0.25870530  0.88589421  0.00000000  1.0
  V  V33  1  0.75870530  0.61410579  -0.00000000  1.0
  V  V34  1  0.74129470  0.11410579  0.00000000  1.0
  V  V35  1  0.24129470  0.38589421  -0.00000000  1.0
