# generated using pymatgen
data_Sn14Sb11Pt8
_symmetry_space_group_name_H-M   'P 1'
_cell_length_a   9.54060652
_cell_length_b   9.57852540
_cell_length_c   9.49888856
_cell_angle_alpha   90.37963280
_cell_angle_beta   90.24680630
_cell_angle_gamma   90.35477655
_symmetry_Int_Tables_number   1
_chemical_formula_structural   Sn14Sb11Pt8
_chemical_formula_sum   'Sn14 Sb11 Pt8'
_cell_volume   868.01147569
_cell_formula_units_Z   1
loop_
 _symmetry_equiv_pos_site_id
 _symmetry_equiv_pos_as_xyz
  1  'x, y, z'
loop_
 _atom_site_type_symbol
 _atom_site_label
 _atom_site_symmetry_multiplicity
 _atom_site_fract_x
 _atom_site_fract_y
 _atom_site_fract_z
 _atom_site_occupancy
  Sn  Sn0  1  0.49141753  0.65975463  0.85070954  1.0
  Sn  Sn1  1  0.83964463  0.49866913  0.33771778  1.0
  Sn  Sn2  1  0.66248403  0.86122625  0.49303295  1.0
  Sn  Sn3  1  0.86298038  0.49075288  0.66781338  1.0
  Sn  Sn4  1  0.15407221  0.33851104  -0.00427344  1.0
  Sn  Sn5  1  0.33195796  -0.00169488  0.15242724  1.0
  Sn  Sn6  1  0.65031494  0.16992191  0.49825280  1.0
  Sn  Sn7  1  0.84725233  0.33917556  -0.00111511  1.0
  Sn  Sn8  1  0.17079499  0.49688898  0.64893123  1.0
  Sn  Sn9  1  0.33769509  -0.00054594  0.84425278  1.0
  Sn  Sn10  1  -0.00427377  0.84756372  0.34000310  1.0
  Sn  Sn11  1  -0.00330310  0.15451183  0.65816450  1.0
  Sn  Sn12  1  0.49456009  0.65354142  0.16393605  1.0
  Sn  Sn13  1  0.57963667  0.55504957  0.54479953  1.0
  Sb  Sb14  1  -0.00545297  0.84572311  0.65289273  1.0
  Sb  Sb15  1  0.64940040  -0.00487916  0.84050267  1.0
  Sb  Sb16  1  0.64623821  -0.00377106  0.15056888  1.0
  Sb  Sb17  1  0.84286559  0.65073664  -0.00414241  1.0
  Sb  Sb18  1  0.15131342  0.49968525  0.34309455  1.0
  Sb  Sb19  1  0.34443476  0.15197967  0.49775443  1.0
  Sb  Sb20  1  0.49577789  0.34660383  0.16054610  1.0
  Sb  Sb21  1  -0.00582698  0.15446503  0.34163808  1.0
  Sb  Sb22  1  0.49782707  0.34741359  0.84654931  1.0
  Sb  Sb23  1  0.15303078  0.65303832  -0.00382513  1.0
  Sb  Sb24  1  0.34666616  0.84066681  0.49785530  1.0
  Pt  Pt25  1  0.24611059  0.24941434  0.24980150  1.0
  Pt  Pt26  1  0.25200014  0.24737355  0.74610878  1.0
  Pt  Pt27  1  0.24372027  0.75162312  0.74615272  1.0
  Pt  Pt28  1  0.24380367  0.74939535  0.24964927  1.0
  Pt  Pt29  1  0.74834748  0.75026741  0.24373719  1.0
  Pt  Pt30  1  0.74461699  0.74404319  0.74461090  1.0
  Pt  Pt31  1  0.74509730  0.24595593  0.75298188  1.0
  Pt  Pt32  1  0.74539525  0.24673901  0.24407092  1.0
