# generated using pymatgen
data_SiO2
_symmetry_space_group_name_H-M   'P 1'
_cell_length_a   7.43874619
_cell_length_b   7.43874619
_cell_length_c   7.43874619
_cell_angle_alpha   109.47122063
_cell_angle_beta   109.47122063
_cell_angle_gamma   109.47122063
_symmetry_Int_Tables_number   1
_chemical_formula_structural   SiO2
_chemical_formula_sum   'Si8 O16'
_cell_volume   316.86723330
_cell_formula_units_Z   8
loop_
 _symmetry_equiv_pos_site_id
 _symmetry_equiv_pos_as_xyz
  1  'x, y, z'
loop_
 _atom_site_type_symbol
 _atom_site_label
 _atom_site_symmetry_multiplicity
 _atom_site_fract_x
 _atom_site_fract_y
 _atom_site_fract_z
 _atom_site_occupancy
  Si  Si0  1  1.00000000  0.71542419  1.50000000  1.0
  Si  Si1  1  0.78457581  0.78457581  0.78457581  1.0
  Si  Si2  1  0.50000000  1.00000000  0.71542419  1.0
  Si  Si3  1  0.71542419  1.50000000  1.00000000  1.0
  Si  Si4  1  1.00000000  1.28457581  1.50000000  1.0
  Si  Si5  1  1.21542419  1.21542419  1.21542419  1.0
  Si  Si6  1  1.50000000  1.00000000  1.28457581  1.0
  Si  Si7  1  1.28457581  0.50000000  1.00000000  1.0
  O  O8  1  -0.00000000  0.50000000  0.50000000  1.0
  O  O9  1  1.00000000  1.00000000  1.00000000  1.0
  O  O10  1  0.50000000  1.00000000  0.50000000  1.0
  O  O11  1  0.50000000  0.50000000  0.00000000  1.0
  O  O12  1  0.92542851  0.67542851  0.25000000  1.0
  O  O13  1  0.57457149  0.82457149  0.75000000  1.0
  O  O14  1  0.67542851  1.25000000  0.92542851  1.0
  O  O15  1  0.82457149  0.75000000  0.57457149  1.0
  O  O16  1  0.75000000  0.57457149  0.82457149  1.0
  O  O17  1  0.25000000  0.92542851  0.67542851  1.0
  O  O18  1  1.07457149  0.32457149  0.75000000  1.0
  O  O19  1  1.42542851  1.17542851  1.25000000  1.0
  O  O20  1  1.32457149  0.75000000  1.07457149  1.0
  O  O21  1  1.17542851  1.25000000  1.42542851  1.0
  O  O22  1  1.25000000  1.42542851  1.17542851  1.0
  O  O23  1  0.75000000  1.07457149  0.32457149  1.0
