# generated using pymatgen
data_LuCl3
_symmetry_space_group_name_H-M   'P 1'
_cell_length_a   7.10080992
_cell_length_b   7.10080992
_cell_length_c   7.10080992
_cell_angle_alpha   55.53243201
_cell_angle_beta   55.53243201
_cell_angle_gamma   55.53243201
_symmetry_Int_Tables_number   1
_chemical_formula_structural   LuCl3
_chemical_formula_sum   'Lu2 Cl6'
_cell_volume   226.91075537
_cell_formula_units_Z   2
loop_
 _symmetry_equiv_pos_site_id
 _symmetry_equiv_pos_as_xyz
  1  'x, y, z'
loop_
 _atom_site_type_symbol
 _atom_site_label
 _atom_site_symmetry_multiplicity
 _atom_site_fract_x
 _atom_site_fract_y
 _atom_site_fract_z
 _atom_site_occupancy
  Lu  Lu0  1  1.00000000  0.00000000  -0.00000000  1.0
  Lu  Lu1  1  0.50000000  0.50000000  0.50000000  1.0
  Cl  Cl2  1  1.39507461  -0.25000000  0.10492539  1.0
  Cl  Cl3  1  0.89507461  -0.39507461  0.25000000  1.0
  Cl  Cl4  1  0.25000000  0.89507461  -0.39507461  1.0
  Cl  Cl5  1  0.75000000  0.10492539  0.39507461  1.0
  Cl  Cl6  1  0.60492539  0.25000000  -0.10492539  1.0
  Cl  Cl7  1  1.10492539  0.39507461  -0.25000000  1.0
