# generated using pymatgen
data_In3SnI5
_symmetry_space_group_name_H-M   'P 1'
_cell_length_a   9.04466761
_cell_length_b   9.24990227
_cell_length_c   18.95186509
_cell_angle_alpha   90.00000000
_cell_angle_beta   112.67919561
_cell_angle_gamma   90.00000000
_symmetry_Int_Tables_number   1
_chemical_formula_structural   In3SnI5
_chemical_formula_sum   'In12 Sn4 I20'
_cell_volume   1462.95830551
_cell_formula_units_Z   4
loop_
 _symmetry_equiv_pos_site_id
 _symmetry_equiv_pos_as_xyz
  1  'x, y, z'
loop_
 _atom_site_type_symbol
 _atom_site_label
 _atom_site_symmetry_multiplicity
 _atom_site_fract_x
 _atom_site_fract_y
 _atom_site_fract_z
 _atom_site_occupancy
  In  In0  1  0.89025461  0.97994754  0.24917528  1.0
  In  In1  1  0.89025461  0.52005246  0.74917528  1.0
  In  In2  1  0.10974539  0.47994754  0.25082472  1.0
  In  In3  1  0.10974539  0.02005246  0.75082472  1.0
  In  In4  1  0.56221554  0.27604325  0.02214288  1.0
  In  In5  1  0.56221554  0.22395675  0.52214288  1.0
  In  In6  1  0.43778446  0.77604325  0.47785712  1.0
  In  In7  1  0.43778446  0.72395675  0.97785712  1.0
  In  In8  1  0.39266883  0.19386596  0.25396197  1.0
  In  In9  1  0.39266883  0.30613404  0.75396197  1.0
  In  In10  1  0.60733117  0.69386596  0.24603803  1.0
  In  In11  1  0.60733117  0.80613404  0.74603803  1.0
  Sn  Sn12  1  0.88489898  0.33049211  0.41059470  1.0
  Sn  Sn13  1  0.88489898  0.16950789  0.91059470  1.0
  Sn  Sn14  1  0.11510102  0.83049211  0.08940530  1.0
  Sn  Sn15  1  0.11510102  0.66950789  0.58940530  1.0
  I  I16  1  0.96654333  0.14839514  0.10171236  1.0
  I  I17  1  0.96654333  0.35160486  0.60171236  1.0
  I  I18  1  0.03345667  0.64839514  0.39828764  1.0
  I  I19  1  0.03345667  0.85160486  0.89828764  1.0
  I  I20  1  0.73820533  0.33986612  0.23493022  1.0
  I  I21  1  0.73820533  0.16013388  0.73493022  1.0
  I  I22  1  0.26179467  0.83986612  0.26506978  1.0
  I  I23  1  0.26179467  0.66013388  0.76506978  1.0
  I  I24  1  0.69886853  0.03870349  0.39377382  1.0
  I  I25  1  0.69886853  0.46129651  0.89377382  1.0
  I  I26  1  0.30113147  0.53870349  0.10622618  1.0
  I  I27  1  0.30113147  0.96129651  0.60622618  1.0
  I  I28  1  0.55211135  0.48734650  0.39322349  1.0
  I  I29  1  0.55211135  0.01265350  0.89322349  1.0
  I  I30  1  0.44788865  0.98734650  0.10677651  1.0
  I  I31  1  0.44788865  0.51265350  0.60677652  1.0
  I  I32  1  0.17711080  0.17842233  0.38654266  1.0
  I  I33  1  0.17711080  0.32157767  0.88654266  1.0
  I  I34  1  0.82288920  0.67842233  0.11345734  1.0
  I  I35  1  0.82288920  0.82157767  0.61345734  1.0
