# generated using pymatgen
data_CsSbC6Cl5
_symmetry_space_group_name_H-M   'P 1'
_cell_length_a   7.83558377
_cell_length_b   12.67774676
_cell_length_c   8.00520968
_cell_angle_alpha   90.00000000
_cell_angle_beta   90.00000000
_cell_angle_gamma   90.00000000
_symmetry_Int_Tables_number   1
_chemical_formula_structural   CsSbC6Cl5
_chemical_formula_sum   'Cs2 Sb2 C12 Cl10'
_cell_volume   795.21789106
_cell_formula_units_Z   2
loop_
 _symmetry_equiv_pos_site_id
 _symmetry_equiv_pos_as_xyz
  1  'x, y, z'
loop_
 _atom_site_type_symbol
 _atom_site_label
 _atom_site_symmetry_multiplicity
 _atom_site_fract_x
 _atom_site_fract_y
 _atom_site_fract_z
 _atom_site_occupancy
  C  C0  1  0.50000000  0.63285911  0.50708396  1.0
  C  C1  1  0.00000000  0.36714089  1.00708396  1.0
  C  C2  1  0.33330292  0.45977239  0.51005413  1.0
  C  C3  1  0.66669708  0.45977239  0.51005413  1.0
  C  C4  1  0.16669708  0.54022761  0.01005413  1.0
  C  C5  1  0.83330292  0.54022761  0.01005413  1.0
  C  C6  1  0.36622986  0.56280798  0.50827457  1.0
  C  C7  1  0.63377014  0.56280798  0.50827457  1.0
  C  C8  1  0.13377014  0.43719202  0.00827457  1.0
  C  C9  1  0.86622986  0.43719202  0.00827457  1.0
  C  C10  1  0.50000000  0.43647510  0.51041935  1.0
  C  C11  1  -0.00000000  0.56352490  0.01041935  1.0
  Sb  Sb12  1  0.50000000  0.80366148  0.50566021  1.0
  Sb  Sb13  1  0.00000000  0.19633852  0.00566021  1.0
  Cs  Cs14  1  0.50000000  0.99514310  0.00544191  1.0
  Cs  Cs15  1  0.00000000  0.00485690  0.50544191  1.0
  Cl  Cl16  1  0.50000000  0.99838512  0.50480599  1.0
  Cl  Cl17  1  0.00000000  0.00161488  0.00480599  1.0
  Cl  Cl18  1  0.27849220  0.80996805  0.72075481  1.0
  Cl  Cl19  1  0.72150780  0.80996805  0.72075481  1.0
  Cl  Cl20  1  0.22150780  0.19003195  0.22075481  1.0
  Cl  Cl21  1  0.77849220  0.19003195  0.22075481  1.0
  Cl  Cl22  1  0.27848722  0.80915147  0.29066078  1.0
  Cl  Cl23  1  0.72151278  0.80915147  0.29066078  1.0
  Cl  Cl24  1  0.22151278  0.19084853  0.79066078  1.0
  Cl  Cl25  1  0.77848722  0.19084853  0.79066078  1.0
