# generated using pymatgen
data_MoSI
_symmetry_space_group_name_H-M   'P 1'
_cell_length_a   7.41148046
_cell_length_b   7.41148046
_cell_length_c   7.41148046
_cell_angle_alpha   60.00000000
_cell_angle_beta   60.00000000
_cell_angle_gamma   60.00000000
_symmetry_Int_Tables_number   1
_chemical_formula_structural   MoSI
_chemical_formula_sum   'Mo4 S4 I4'
_cell_volume   287.87231904
_cell_formula_units_Z   4
loop_
 _symmetry_equiv_pos_site_id
 _symmetry_equiv_pos_as_xyz
  1  'x, y, z'
loop_
 _atom_site_type_symbol
 _atom_site_label
 _atom_site_symmetry_multiplicity
 _atom_site_fract_x
 _atom_site_fract_y
 _atom_site_fract_z
 _atom_site_occupancy
  Mo  Mo0  1  -0.34436283  0.65563717  0.65563717  1.0
  Mo  Mo1  1  1.03308849  0.65563717  -0.34436283  1.0
  Mo  Mo2  1  -0.34436283  0.65563717  1.03308849  1.0
  Mo  Mo3  1  0.65563717  1.03308849  -0.34436283  1.0
  S  S4  1  0.87642895  0.87642895  -0.12357105  1.0
  S  S5  1  0.37071316  0.87642895  -0.12357105  1.0
  S  S6  1  0.87642895  0.87642895  -0.62928684  1.0
  S  S7  1  0.87642895  0.37071316  -0.12357105  1.0
  I  I8  1  0.37664211  1.37664211  0.37664211  1.0
  I  I9  1  -0.12992633  0.37664211  0.37664211  1.0
  I  I10  1  0.37664211  1.37664211  -0.12992633  1.0
  I  I11  1  0.37664211  -0.12992633  0.37664211  1.0
