# generated using pymatgen
data_CrCuO4
_symmetry_space_group_name_H-M   'P 1'
_cell_length_a   5.30829441
_cell_length_b   5.30829441
_cell_length_c   5.95001365
_cell_angle_alpha   90.00000000
_cell_angle_beta   90.00000000
_cell_angle_gamma   118.15084313
_symmetry_Int_Tables_number   1
_chemical_formula_structural   CrCuO4
_chemical_formula_sum   'Cr2 Cu2 O8'
_cell_volume   147.82674677
_cell_formula_units_Z   2
loop_
 _symmetry_equiv_pos_site_id
 _symmetry_equiv_pos_as_xyz
  1  'x, y, z'
loop_
 _atom_site_type_symbol
 _atom_site_label
 _atom_site_symmetry_multiplicity
 _atom_site_fract_x
 _atom_site_fract_y
 _atom_site_fract_z
 _atom_site_occupancy
  O  O0  1  0.26539235  0.73460765  0.46819847  1.0
  O  O1  1  0.26539235  0.73460765  0.03180153  1.0
  O  O2  1  -0.26539235  1.26539235  0.96819847  1.0
  O  O3  1  -0.26539235  1.26539235  0.53180153  1.0
  O  O4  1  0.21381609  0.26005255  0.25000000  1.0
  O  O5  1  -0.73994745  1.21381609  0.75000000  1.0
  O  O6  1  0.73994745  0.78618391  0.25000000  1.0
  O  O7  1  -0.21381609  1.73994745  0.75000000  1.0
  Cu  Cu8  1  0.00000000  0.00000000  0.50000000  1.0
  Cu  Cu9  1  0.00000000  0.00000000  0.00000000  1.0
  Cr  Cr10  1  0.36776636  0.63223364  0.25000000  1.0
  Cr  Cr11  1  -0.36776636  1.36776636  0.75000000  1.0
