# generated using pymatgen
data_Na2LiB5(PO7)2
_symmetry_space_group_name_H-M   'P 1'
_cell_length_a   8.33663938
_cell_length_b   9.32183594
_cell_length_c   8.46691333
_cell_angle_alpha   90.00000000
_cell_angle_beta   115.83919477
_cell_angle_gamma   90.00000000
_symmetry_Int_Tables_number   1
_chemical_formula_structural   Na2LiB5(PO7)2
_chemical_formula_sum   'Na4 Li2 B10 P4 O28'
_cell_volume   592.20237528
_cell_formula_units_Z   2
loop_
 _symmetry_equiv_pos_site_id
 _symmetry_equiv_pos_as_xyz
  1  'x, y, z'
loop_
 _atom_site_type_symbol
 _atom_site_label
 _atom_site_symmetry_multiplicity
 _atom_site_fract_x
 _atom_site_fract_y
 _atom_site_fract_z
 _atom_site_occupancy
  Na  Na0  1  0.39748205  0.25000000  0.46538117  1.0
  Na  Na1  1  0.60251795  0.75000000  0.53461883  1.0
  Na  Na2  1  0.16486547  0.25000000  0.04104049  1.0
  Na  Na3  1  0.83513453  0.75000000  0.95895951  1.0
  Li  Li4  1  0.98508974  0.25000000  0.28487045  1.0
  Li  Li5  1  0.01491026  0.75000000  0.71512955  1.0
  B  B6  1  0.73834573  0.25000000  0.45509700  1.0
  B  B7  1  0.26165427  0.75000000  0.54490300  1.0
  B  B8  1  0.71833509  0.25000000  0.90070191  1.0
  B  B9  1  0.28166491  0.75000000  0.09929809  1.0
  B  B10  1  0.58903725  0.25000000  0.11663982  1.0
  B  B11  1  0.41096275  0.75000000  0.88336018  1.0
  B  B12  1  0.39098869  0.25000000  0.80459477  1.0
  B  B13  1  0.60901131  0.75000000  0.19540523  1.0
  B  B14  1  0.05299149  0.25000000  0.65383252  1.0
  B  B15  1  0.94700851  0.75000000  0.34616748  1.0
  P  P16  1  0.84619123  0.44142289  0.72586374  1.0
  P  P17  1  0.84619123  0.05857711  0.72586374  1.0
  P  P18  1  0.15380877  0.94142289  0.27413626  1.0
  P  P19  1  0.15380877  0.55857711  0.27413626  1.0
  O  O20  1  0.96676220  0.88101587  0.24687314  1.0
  O  O21  1  0.96676220  0.61898413  0.24687314  1.0
  O  O22  1  0.03323780  0.38101587  0.75312686  1.0
  O  O23  1  0.03323780  0.11898413  0.75312686  1.0
  O  O24  1  0.84428018  0.89642697  0.73097762  1.0
  O  O25  1  0.84428018  0.60357303  0.73097762  1.0
  O  O26  1  0.15571982  0.39642697  0.26902238  1.0
  O  O27  1  0.15571982  0.10357303  0.26902238  1.0
  O  O28  1  0.81146264  0.38178462  0.88243054  1.0
  O  O29  1  0.81146264  0.11821538  0.88243054  1.0
  O  O30  1  0.18853736  0.88178462  0.11756946  1.0
  O  O31  1  0.18853736  0.61821538  0.11756946  1.0
  O  O32  1  0.70297336  0.38098960  0.54599362  1.0
  O  O33  1  0.70297336  0.11901040  0.54599362  1.0
  O  O34  1  0.29702664  0.88098960  0.45400638  1.0
  O  O35  1  0.29702664  0.61901040  0.45400638  1.0
  O  O36  1  0.91766391  0.25000000  0.47514523  1.0
  O  O37  1  0.08233609  0.75000000  0.52485477  1.0
  O  O38  1  0.73520275  0.25000000  0.08163683  1.0
  O  O39  1  0.26479725  0.75000000  0.91836317  1.0
  O  O40  1  0.59648396  0.25000000  0.27998152  1.0
  O  O41  1  0.40351604  0.75000000  0.72001848  1.0
  O  O42  1  0.53540518  0.25000000  0.76889004  1.0
  O  O43  1  0.46459482  0.75000000  0.23110996  1.0
  O  O44  1  0.41550131  0.25000000  0.97867006  1.0
  O  O45  1  0.58449869  0.75000000  0.02132994  1.0
  O  O46  1  0.22875589  0.25000000  0.66370306  1.0
  O  O47  1  0.77124411  0.75000000  0.33629694  1.0
