# generated using pymatgen
data_Gd(HO)3
_symmetry_space_group_name_H-M   'P 1'
_cell_length_a   6.42415261
_cell_length_b   6.42415261
_cell_length_c   3.62737762
_cell_angle_alpha   90.00000000
_cell_angle_beta   90.00000000
_cell_angle_gamma   120.00000000
_symmetry_Int_Tables_number   1
_chemical_formula_structural   Gd(HO)3
_chemical_formula_sum   'Gd2 H6 O6'
_cell_volume   129.64479904
_cell_formula_units_Z   2
loop_
 _symmetry_equiv_pos_site_id
 _symmetry_equiv_pos_as_xyz
  1  'x, y, z'
loop_
 _atom_site_type_symbol
 _atom_site_label
 _atom_site_symmetry_multiplicity
 _atom_site_fract_x
 _atom_site_fract_y
 _atom_site_fract_z
 _atom_site_occupancy
  Gd  Gd0  1  0.33333333  0.66666667  0.25000000  1.0
  Gd  Gd1  1  0.66666667  0.33333333  0.75000000  1.0
  H  H2  1  0.85903806  0.72148109  0.25000000  1.0
  H  H3  1  0.72148109  0.86244303  0.75000000  1.0
  H  H4  1  0.86244303  0.14096194  0.25000000  1.0
  H  H5  1  0.27851891  0.13755697  0.25000000  1.0
  H  H6  1  0.14096194  0.27851891  0.75000000  1.0
  H  H7  1  0.13755697  0.85903806  0.75000000  1.0
  O  O8  1  0.68833519  0.60406574  0.25000000  1.0
  O  O9  1  0.60406574  0.91573055  0.75000000  1.0
  O  O10  1  0.91573055  0.31166481  0.25000000  1.0
  O  O11  1  0.39593426  0.08426945  0.25000000  1.0
  O  O12  1  0.31166481  0.39593426  0.75000000  1.0
  O  O13  1  0.08426945  0.68833519  0.75000000  1.0
