# generated using pymatgen
data_Zn3(PO4)2
_symmetry_space_group_name_H-M   'P 1'
_cell_length_a   5.06468720
_cell_length_b   8.67385350
_cell_length_c   8.74464838
_cell_angle_alpha   90.00000000
_cell_angle_beta   118.99365487
_cell_angle_gamma   90.00000000
_symmetry_Int_Tables_number   1
_chemical_formula_structural   Zn3(PO4)2
_chemical_formula_sum   'Zn6 P4 O16'
_cell_volume   336.01059935
_cell_formula_units_Z   2
loop_
 _symmetry_equiv_pos_site_id
 _symmetry_equiv_pos_as_xyz
  1  'x, y, z'
loop_
 _atom_site_type_symbol
 _atom_site_label
 _atom_site_symmetry_multiplicity
 _atom_site_fract_x
 _atom_site_fract_y
 _atom_site_fract_z
 _atom_site_occupancy
  Zn  Zn0  1  0.00000000  0.00000000  0.00000000  1.0
  Zn  Zn1  1  -0.00000000  0.50000000  0.50000000  1.0
  Zn  Zn2  1  0.05530234  0.63794923  0.11932252  1.0
  Zn  Zn3  1  0.94469766  0.13794923  0.38067748  1.0
  Zn  Zn4  1  0.94469766  0.36205077  0.88067748  1.0
  Zn  Zn5  1  0.05530234  0.86205077  0.61932252  1.0
  P  P6  1  0.32875788  0.31142668  0.30275994  1.0
  P  P7  1  0.67124212  0.81142668  0.19724006  1.0
  P  P8  1  0.67124212  0.68857332  0.69724006  1.0
  P  P9  1  0.32875788  0.18857332  0.80275994  1.0
  O  O10  1  0.27188868  0.37396883  0.44943924  1.0
  O  O11  1  0.72811132  0.87396883  0.05056076  1.0
  O  O12  1  0.72811132  0.62603117  0.55056076  1.0
  O  O13  1  0.27188868  0.12603117  0.94943924  1.0
  O  O14  1  0.67508462  0.30342838  0.36914292  1.0
  O  O15  1  0.32491538  0.80342838  0.13085708  1.0
  O  O16  1  0.32491538  0.69657162  0.63085708  1.0
  O  O17  1  0.67508462  0.19657162  0.86914292  1.0
  O  O18  1  0.18675611  0.41984715  0.13878589  1.0
  O  O19  1  0.81324389  0.91984715  0.36121411  1.0
  O  O20  1  0.81324389  0.58015285  0.86121411  1.0
  O  O21  1  0.18675611  0.08015285  0.63878589  1.0
  O  O22  1  0.17545537  0.14840568  0.24984638  1.0
  O  O23  1  0.82454463  0.64840568  0.25015362  1.0
  O  O24  1  0.82454463  0.85159432  0.75015362  1.0
  O  O25  1  0.17545537  0.35159432  0.74984638  1.0
