# generated using pymatgen
data_Tl4AuSe3
_symmetry_space_group_name_H-M   'P 1'
_cell_length_a   9.89309809
_cell_length_b   9.89309809
_cell_length_c   9.89309809
_cell_angle_alpha   136.03684443
_cell_angle_beta   136.03684443
_cell_angle_gamma   63.92337830
_symmetry_Int_Tables_number   1
_chemical_formula_structural   Tl4AuSe3
_chemical_formula_sum   'Tl8 Au2 Se6'
_cell_volume   460.38166952
_cell_formula_units_Z   2
loop_
 _symmetry_equiv_pos_site_id
 _symmetry_equiv_pos_as_xyz
  1  'x, y, z'
loop_
 _atom_site_type_symbol
 _atom_site_label
 _atom_site_symmetry_multiplicity
 _atom_site_fract_x
 _atom_site_fract_y
 _atom_site_fract_z
 _atom_site_occupancy
  Tl  Tl0  1  0.50985491  1.00985491  0.81685779  1.0
  Tl  Tl1  1  1.19299712  0.69299712  1.18314221  1.0
  Tl  Tl2  1  1.00985491  1.19299712  1.50000000  1.0
  Tl  Tl3  1  0.69299712  0.50985491  0.50000000  1.0
  Tl  Tl4  1  0.49014509  0.99014509  1.18314221  1.0
  Tl  Tl5  1  0.80700288  0.30700288  0.81685779  1.0
  Tl  Tl6  1  0.99014509  0.80700288  1.50000000  1.0
  Tl  Tl7  1  0.30700288  0.49014509  0.50000000  1.0
  Au  Au8  1  0.50000000  0.50000000  1.00000000  1.0
  Au  Au9  1  0.00000000  0.00000000  0.00000000  1.0
  Se  Se10  1  0.25000000  0.25000000  0.00000000  1.0
  Se  Se11  1  0.75000000  0.75000000  1.00000000  1.0
  Se  Se12  1  0.82265512  0.32265512  1.14531024  1.0
  Se  Se13  1  0.17734488  0.67734488  0.85468976  1.0
  Se  Se14  1  0.32265512  0.17734488  0.50000000  1.0
  Se  Se15  1  0.67734488  0.82265512  1.50000000  1.0
