# generated using pymatgen
data_BaMn2O4
_symmetry_space_group_name_H-M   'P 1'
_cell_length_a   9.62829153
_cell_length_b   8.79677878
_cell_length_c   8.29383052
_cell_angle_alpha   68.50513868
_cell_angle_beta   58.22205051
_cell_angle_gamma   53.27281081
_symmetry_Int_Tables_number   1
_chemical_formula_structural   BaMn2O4
_chemical_formula_sum   'Ba4 Mn8 O16'
_cell_volume   477.25576415
_cell_formula_units_Z   4
loop_
 _symmetry_equiv_pos_site_id
 _symmetry_equiv_pos_as_xyz
  1  'x, y, z'
loop_
 _atom_site_type_symbol
 _atom_site_label
 _atom_site_symmetry_multiplicity
 _atom_site_fract_x
 _atom_site_fract_y
 _atom_site_fract_z
 _atom_site_occupancy
  Ba  Ba0  1  0.12500000  0.12500000  1.62500000  1.0
  Ba  Ba1  1  0.12500000  0.62500000  1.12500000  1.0
  Ba  Ba2  1  0.12500000  0.12500000  1.12500000  1.0
  Ba  Ba3  1  0.62500000  0.12500000  1.12500000  1.0
  Mn  Mn4  1  -0.24818780  0.50172775  0.46855469  1.0
  Mn  Mn5  1  0.27790536  0.46855469  1.50172775  1.0
  Mn  Mn6  1  -0.25172775  0.49818780  0.97209464  1.0
  Mn  Mn7  1  -0.21855469  0.97209464  0.49818780  1.0
  Mn  Mn8  1  0.46855469  0.27790536  -0.24818780  1.0
  Mn  Mn9  1  0.50172775  -0.24818780  1.27790536  1.0
  Mn  Mn10  1  -0.02790536  0.78144531  0.74827225  1.0
  Mn  Mn11  1  -0.50181220  0.74827225  0.78144531  1.0
  O  O12  1  -0.47508042  1.21882211  0.51780956  1.0
  O  O13  1  0.73844875  -0.48219044  1.21882211  1.0
  O  O14  1  1.03117789  -0.27491958  0.51155125  1.0
  O  O15  1  -0.26780956  0.51155125  0.72508042  1.0
  O  O16  1  -0.48219044  0.73844875  0.52491958  1.0
  O  O17  1  1.21882211  -0.47508042  0.73844875  1.0
  O  O18  1  0.51155125  -0.26780956  1.03117789  1.0
  O  O19  1  -0.27491958  1.03117789  0.73219044  1.0
  O  O20  1  -0.00714815  1.34749562  0.37013652  1.0
  O  O21  1  0.28951601  -0.62986348  1.34749562  1.0
  O  O22  1  0.90250438  -0.74285185  0.96048399  1.0
  O  O23  1  -0.12013652  0.96048399  0.25714815  1.0
  O  O24  1  -0.62986348  0.28951601  0.99285185  1.0
  O  O25  1  1.34749562  -0.00714815  0.28951601  1.0
  O  O26  1  0.96048399  -0.12013652  0.90250438  1.0
  O  O27  1  -0.74285185  0.90250438  0.87986348  1.0
