# generated using pymatgen
data_MnPH2CO6
_symmetry_space_group_name_H-M   'P 1'
_cell_length_a   8.15553054
_cell_length_b   8.15553054
_cell_length_c   5.53841928
_cell_angle_alpha   82.16822988
_cell_angle_beta   97.83177012
_cell_angle_gamma   44.11357548
_symmetry_Int_Tables_number   1
_chemical_formula_structural   MnPH2CO6
_chemical_formula_sum   'Mn2 P2 H4 C2 O12'
_cell_volume   238.94252455
_cell_formula_units_Z   2
loop_
 _symmetry_equiv_pos_site_id
 _symmetry_equiv_pos_as_xyz
  1  'x, y, z'
loop_
 _atom_site_type_symbol
 _atom_site_label
 _atom_site_symmetry_multiplicity
 _atom_site_fract_x
 _atom_site_fract_y
 _atom_site_fract_z
 _atom_site_occupancy
  Mn  Mn0  1  0.80696691  -0.19303309  0.50000000  1.0
  Mn  Mn1  1  0.19303309  0.19303309  0.50000000  1.0
  P  P2  1  0.67081678  -0.32918322  -0.00000000  1.0
  P  P3  1  0.32918322  0.32918322  -0.00000000  1.0
  H  H4  1  0.62829059  0.18081112  0.82232013  1.0
  H  H5  1  0.81918888  -0.62829059  0.82232013  1.0
  H  H6  1  1.18081112  -0.37170941  0.17767987  1.0
  H  H7  1  0.37170941  -0.18081112  0.17767987  1.0
  C  C8  1  0.90172739  -0.90172739  0.55659840  1.0
  C  C9  1  0.09827261  -0.09827261  0.44340160  1.0
  O  O10  1  0.61464379  -0.16612067  0.74780976  1.0
  O  O11  1  1.16612067  -0.61464379  0.74780976  1.0
  O  O12  1  0.83387933  -0.38535621  0.25219024  1.0
  O  O13  1  0.38535621  0.16612067  0.25219024  1.0
  O  O14  1  0.75439032  0.09611842  0.59734993  1.0
  O  O15  1  0.90388158  -0.75439032  0.59734993  1.0
  O  O16  1  1.09611842  -0.24560968  0.40265007  1.0
  O  O17  1  0.24560968  -0.09611842  0.40265007  1.0
  O  O18  1  0.59635254  0.18480397  0.99185434  1.0
  O  O19  1  0.81519603  -0.59635254  0.99185434  1.0
  O  O20  1  1.18480397  -0.40364746  0.00814566  1.0
  O  O21  1  0.40364746  -0.18480397  0.00814566  1.0
