# generated using pymatgen
data_Ba2GdB2ClO6
_symmetry_space_group_name_H-M   'P 1'
_cell_length_a   6.50948465
_cell_length_b   5.37178504
_cell_length_c   11.57835194
_cell_angle_alpha   90.00000000
_cell_angle_beta   95.47775149
_cell_angle_gamma   90.00000000
_symmetry_Int_Tables_number   1
_chemical_formula_structural   Ba2GdB2ClO6
_chemical_formula_sum   'Ba4 Gd2 B4 Cl2 O12'
_cell_volume   403.01773878
_cell_formula_units_Z   2
loop_
 _symmetry_equiv_pos_site_id
 _symmetry_equiv_pos_as_xyz
  1  'x, y, z'
loop_
 _atom_site_type_symbol
 _atom_site_label
 _atom_site_symmetry_multiplicity
 _atom_site_fract_x
 _atom_site_fract_y
 _atom_site_fract_z
 _atom_site_occupancy
  Ba  Ba0  1  0.34043451  0.25000000  0.57486026  1.0
  Ba  Ba1  1  0.65956549  0.75000000  0.42513974  1.0
  Ba  Ba2  1  0.09553298  0.25000000  0.20975397  1.0
  Ba  Ba3  1  0.90446702  0.75000000  0.79024603  1.0
  Gd  Gd4  1  0.34604649  0.25000000  0.91087898  1.0
  Gd  Gd5  1  0.65395351  0.75000000  0.08912102  1.0
  B  B6  1  0.79078180  0.25000000  0.92455023  1.0
  B  B7  1  0.20921820  0.75000000  0.07544977  1.0
  B  B8  1  0.62271414  0.25000000  0.27793371  1.0
  B  B9  1  0.37728586  0.75000000  0.72206629  1.0
  Cl  Cl10  1  0.84959978  0.25000000  0.58184674  1.0
  Cl  Cl11  1  0.15040022  0.75000000  0.41815326  1.0
  O  O12  1  0.70784072  0.47087040  0.24132813  1.0
  O  O13  1  0.70784072  0.02912960  0.24132813  1.0
  O  O14  1  0.29215928  0.97087040  0.75867187  1.0
  O  O15  1  0.29215928  0.52912960  0.75867187  1.0
  O  O16  1  0.67943657  0.46958242  0.93417873  1.0
  O  O17  1  0.67943657  0.03041758  0.93417873  1.0
  O  O18  1  0.32056343  0.96958242  0.06582127  1.0
  O  O19  1  0.32056343  0.53041758  0.06582127  1.0
  O  O20  1  0.98991677  0.25000000  0.89822650  1.0
  O  O21  1  0.01008323  0.75000000  0.10177350  1.0
  O  O22  1  0.47337654  0.25000000  0.35508479  1.0
  O  O23  1  0.52662346  0.75000000  0.64491521  1.0
