# generated using pymatgen
data_K4Mn3F12
_symmetry_space_group_name_H-M   'P 1'
_cell_length_a   10.25401172
_cell_length_b   10.25401172
_cell_length_c   10.25401172
_cell_angle_alpha   131.04475003
_cell_angle_beta   131.04475003
_cell_angle_gamma   71.74199029
_symmetry_Int_Tables_number   1
_chemical_formula_structural   K4Mn3F12
_chemical_formula_sum   'K8 Mn6 F24'
_cell_volume   599.95275660
_cell_formula_units_Z   2
loop_
 _symmetry_equiv_pos_site_id
 _symmetry_equiv_pos_as_xyz
  1  'x, y, z'
loop_
 _atom_site_type_symbol
 _atom_site_label
 _atom_site_symmetry_multiplicity
 _atom_site_fract_x
 _atom_site_fract_y
 _atom_site_fract_z
 _atom_site_occupancy
  K  K0  1  1.65349852  1.12500000  1.02849852  1.0
  K  K1  1  1.09650148  1.12500000  0.47150148  1.0
  K  K2  1  0.87500000  0.90349852  0.52849852  1.0
  K  K3  1  1.37500000  0.90349852  1.02849852  1.0
  K  K4  1  1.65349852  1.62500000  1.52849852  1.0
  K  K5  1  1.09650148  1.62500000  0.97150148  1.0
  K  K6  1  0.87500000  1.34650148  0.97150148  1.0
  K  K7  1  1.37500000  1.34650148  1.47150148  1.0
  Mn  Mn8  1  1.25000000  0.75000000  0.50000000  1.0
  Mn  Mn9  1  0.50000000  0.50000000  1.00000000  1.0
  Mn  Mn10  1  1.25748170  1.25748170  1.00000000  1.0
  Mn  Mn11  1  0.00748170  0.50748170  0.50000000  1.0
  Mn  Mn12  1  1.49251830  0.99251830  0.50000000  1.0
  Mn  Mn13  1  0.74251830  0.74251830  0.00000000  1.0
  F  F14  1  1.25460259  0.99791074  0.74330815  1.0
  F  F15  1  0.74791074  0.50460259  1.24330815  1.0
  F  F16  1  0.26129444  0.50460259  0.75669185  1.0
  F  F17  1  1.25460259  1.51129444  1.25669185  1.0
  F  F18  1  1.49539741  1.25208926  0.75669185  1.0
  F  F19  1  1.00208926  0.74539741  0.25669185  1.0
  F  F20  1  1.48870556  0.74539741  0.74330815  1.0
  F  F21  1  1.49539741  1.73870556  1.24330815  1.0
  F  F22  1  0.74122275  0.95983261  0.21860987  1.0
  F  F23  1  1.70983261  0.99122275  0.71860987  1.0
  F  F24  1  1.27261288  0.99122275  0.28139013  1.0
  F  F25  1  0.74122275  1.52261288  0.78139013  1.0
  F  F26  1  0.00877725  0.29016739  0.28139013  1.0
  F  F27  1  1.04016739  1.25877725  0.78139013  1.0
  F  F28  1  1.47738712  1.25877725  1.21860987  1.0
  F  F29  1  0.00877725  0.72738712  0.71860987  1.0
  F  F30  1  1.37450050  1.37450050  1.00000000  1.0
  F  F31  1  0.12450050  0.62450050  0.50000000  1.0
  F  F32  1  1.37549950  0.87549950  0.50000000  1.0
  F  F33  1  0.62549950  0.62549950  -0.00000000  1.0
  F  F34  1  1.14418014  1.14418014  1.00000000  1.0
  F  F35  1  0.89418014  1.39418014  0.50000000  1.0
  F  F36  1  0.60581986  0.10581986  0.50000000  1.0
  F  F37  1  0.85581986  0.85581986  -0.00000000  1.0
