# generated using pymatgen
data_LuCo(CN)6
_symmetry_space_group_name_H-M   'P 1'
_cell_length_a   7.35115889
_cell_length_b   7.35115889
_cell_length_c   12.93551155
_cell_angle_alpha   90.00000000
_cell_angle_beta   90.00000000
_cell_angle_gamma   120.00000000
_symmetry_Int_Tables_number   1
_chemical_formula_structural   LuCo(CN)6
_chemical_formula_sum   'Lu2 Co2 C12 N12'
_cell_volume   605.37692003
_cell_formula_units_Z   2
loop_
 _symmetry_equiv_pos_site_id
 _symmetry_equiv_pos_as_xyz
  1  'x, y, z'
loop_
 _atom_site_type_symbol
 _atom_site_label
 _atom_site_symmetry_multiplicity
 _atom_site_fract_x
 _atom_site_fract_y
 _atom_site_fract_z
 _atom_site_occupancy
  Lu  Lu0  1  0.33333333  0.66666667  0.25000000  1.0
  Lu  Lu1  1  0.66666667  0.33333333  0.75000000  1.0
  Co  Co2  1  0.00000000  0.00000000  0.50000000  1.0
  Co  Co3  1  0.00000000  0.00000000  0.00000000  1.0
  C  C4  1  0.11930575  0.88069425  0.41595111  1.0
  C  C5  1  0.11930575  0.88069425  0.08404889  1.0
  C  C6  1  0.11930575  0.23861149  0.41595111  1.0
  C  C7  1  0.11930575  0.23861149  0.08404889  1.0
  C  C8  1  0.88069425  0.11930575  0.91595111  1.0
  C  C9  1  0.88069425  0.11930575  0.58404889  1.0
  C  C10  1  0.88069425  0.76138851  0.91595111  1.0
  C  C11  1  0.88069425  0.76138851  0.58404889  1.0
  C  C12  1  0.76138851  0.88069425  0.41595111  1.0
  C  C13  1  0.76138851  0.88069425  0.08404889  1.0
  C  C14  1  0.23861149  0.11930575  0.91595111  1.0
  C  C15  1  0.23861149  0.11930575  0.58404889  1.0
  N  N16  1  0.19290348  0.80709652  0.36215315  1.0
  N  N17  1  0.19290348  0.80709652  0.13784685  1.0
  N  N18  1  0.19290348  0.38580696  0.36215315  1.0
  N  N19  1  0.19290348  0.38580696  0.13784685  1.0
  N  N20  1  0.80709652  0.19290348  0.86215315  1.0
  N  N21  1  0.80709652  0.19290348  0.63784685  1.0
  N  N22  1  0.80709652  0.61419304  0.86215315  1.0
  N  N23  1  0.80709652  0.61419304  0.63784685  1.0
  N  N24  1  0.61419304  0.80709652  0.36215315  1.0
  N  N25  1  0.61419304  0.80709652  0.13784685  1.0
  N  N26  1  0.38580696  0.19290348  0.86215315  1.0
  N  N27  1  0.38580696  0.19290348  0.63784685  1.0
