# generated using pymatgen
data_ZnS
_symmetry_space_group_name_H-M   'P 1'
_cell_length_a   3.84988931
_cell_length_b   3.84988931
_cell_length_c   62.92315217
_cell_angle_alpha   90.00000000
_cell_angle_beta   90.00000000
_cell_angle_gamma   120.00000000
_symmetry_Int_Tables_number   1
_chemical_formula_structural   ZnS
_chemical_formula_sum   'Zn20 S20'
_cell_volume   807.67676507
_cell_formula_units_Z   20
loop_
 _symmetry_equiv_pos_site_id
 _symmetry_equiv_pos_as_xyz
  1  'x, y, z'
loop_
 _atom_site_type_symbol
 _atom_site_label
 _atom_site_symmetry_multiplicity
 _atom_site_fract_x
 _atom_site_fract_y
 _atom_site_fract_z
 _atom_site_occupancy
  Zn  Zn0  1  -0.00000000  -0.00000000  0.15000093  1.0
  Zn  Zn1  1  0.00000000  0.00000000  0.29999266  1.0
  Zn  Zn2  1  -0.00000000  -0.00000000  0.50000145  1.0
  Zn  Zn3  1  -0.00000000  -0.00000000  0.64999158  1.0
  Zn  Zn4  1  0.00000000  0.00000000  0.84996401  1.0
  Zn  Zn5  1  -0.00000000  -0.00000000  0.95002457  1.0
  Zn  Zn6  1  0.66666667  0.33333333  0.04999686  1.0
  Zn  Zn7  1  0.66666667  0.33333333  0.19999519  1.0
  Zn  Zn8  1  0.66666667  0.33333333  0.34995928  1.0
  Zn  Zn9  1  0.66666667  0.33333333  0.45002767  1.0
  Zn  Zn10  1  0.66666667  0.33333333  0.59999459  1.0
  Zn  Zn11  1  0.66666667  0.33333333  0.74999541  1.0
  Zn  Zn12  1  0.66666667  0.33333333  0.89999655  1.0
  Zn  Zn13  1  0.33333333  0.66666667  -0.00003566  1.0
  Zn  Zn14  1  0.33333333  0.66666667  0.10002906  1.0
  Zn  Zn15  1  0.33333333  0.66666667  0.24999518  1.0
  Zn  Zn16  1  0.33333333  0.66666667  0.39999502  1.0
  Zn  Zn17  1  0.33333333  0.66666667  0.54999615  1.0
  Zn  Zn18  1  0.33333333  0.66666667  0.69995939  1.0
  Zn  Zn19  1  0.33333333  0.66666667  0.80002330  1.0
  S  S20  1  -0.00000000  -0.00000000  0.11251820  1.0
  S  S21  1  -0.00000000  -0.00000000  0.26250385  1.0
  S  S22  1  0.00000000  0.00000000  0.46251864  1.0
  S  S23  1  -0.00000000  -0.00000000  0.61250332  1.0
  S  S24  1  -0.00000000  -0.00000000  0.81250308  1.0
  S  S25  1  -0.00000000  -0.00000000  0.91255436  1.0
  S  S26  1  0.66666667  0.33333333  0.01245829  1.0
  S  S27  1  0.66666667  0.33333333  0.16250554  1.0
  S  S28  1  0.66666667  0.33333333  0.31248957  1.0
  S  S29  1  0.66666667  0.33333333  0.41255467  1.0
  S  S30  1  0.66666667  0.33333333  0.56250386  1.0
  S  S31  1  0.66666667  0.33333333  0.71245624  1.0
  S  S32  1  0.66666667  0.33333333  0.86245871  1.0
  S  S33  1  0.33333333  0.66666667  0.06255611  1.0
  S  S34  1  0.33333333  0.66666667  0.21250428  1.0
  S  S35  1  0.33333333  0.66666667  0.36245535  1.0
  S  S36  1  0.33333333  0.66666667  0.51250642  1.0
  S  S37  1  0.33333333  0.66666667  0.66249037  1.0
  S  S38  1  0.33333333  0.66666667  0.76255316  1.0
  S  S39  1  0.33333333  0.66666667  0.96250280  1.0
