# generated using pymatgen
data_Cs2Hg3Se4
_symmetry_space_group_name_H-M   'P 1'
_cell_length_a   10.29654134
_cell_length_b   10.29654134
_cell_length_c   10.29654134
_cell_angle_alpha   142.03565584
_cell_angle_beta   106.34616432
_cell_angle_gamma   85.99556526
_symmetry_Int_Tables_number   1
_chemical_formula_structural   Cs2Hg3Se4
_chemical_formula_sum   'Cs4 Hg6 Se8'
_cell_volume   622.64861970
_cell_formula_units_Z   2
loop_
 _symmetry_equiv_pos_site_id
 _symmetry_equiv_pos_as_xyz
  1  'x, y, z'
loop_
 _atom_site_type_symbol
 _atom_site_label
 _atom_site_symmetry_multiplicity
 _atom_site_fract_x
 _atom_site_fract_y
 _atom_site_fract_z
 _atom_site_occupancy
  Cs  Cs0  1  1.11956055  0.73149508  0.85105564  1.0
  Cs  Cs1  1  0.88043945  1.26850492  1.14894436  1.0
  Cs  Cs2  1  0.61956055  0.76850492  0.38806547  1.0
  Cs  Cs3  1  1.38043945  1.23149508  1.61193453  1.0
  Hg  Hg4  1  1.25000000  1.25000000  1.00000000  1.0
  Hg  Hg5  1  0.75000000  0.75000000  1.00000000  1.0
  Hg  Hg6  1  0.58403972  0.25000000  0.33403972  1.0
  Hg  Hg7  1  0.91596028  0.25000000  0.66596028  1.0
  Hg  Hg8  1  1.41596028  0.75000000  0.66596028  1.0
  Hg  Hg9  1  1.08403972  0.75000000  0.33403972  1.0
  Se  Se10  1  1.49116091  1.13815537  0.91288551  1.0
  Se  Se11  1  1.22526986  1.57827541  1.08711449  1.0
  Se  Se12  1  1.27473014  1.36184463  1.35300555  1.0
  Se  Se13  1  1.00883909  0.92172459  0.64699445  1.0
  Se  Se14  1  0.50883909  0.86184463  1.08711449  1.0
  Se  Se15  1  0.77473014  0.42172459  0.91288551  1.0
  Se  Se16  1  0.72526986  0.63815537  0.64699445  1.0
  Se  Se17  1  0.99116091  1.07827541  1.35300555  1.0
