# generated using pymatgen
data_Ca(CuP)2
_symmetry_space_group_name_H-M   'P 1'
_cell_length_a   5.68371664
_cell_length_b   5.68371664
_cell_length_c   5.68371664
_cell_angle_alpha   138.63122581
_cell_angle_beta   138.63122581
_cell_angle_gamma   59.93760937
_symmetry_Int_Tables_number   1
_chemical_formula_structural   Ca(CuP)2
_chemical_formula_sum   'Ca1 Cu2 P2'
_cell_volume   79.38065889
_cell_formula_units_Z   1
loop_
 _symmetry_equiv_pos_site_id
 _symmetry_equiv_pos_as_xyz
  1  'x, y, z'
loop_
 _atom_site_type_symbol
 _atom_site_label
 _atom_site_symmetry_multiplicity
 _atom_site_fract_x
 _atom_site_fract_y
 _atom_site_fract_z
 _atom_site_occupancy
  Ca  Ca0  1  0.00000000  0.00000000  0.00000000  1.0
  Cu  Cu1  1  0.25000000  0.75000000  0.50000000  1.0
  Cu  Cu2  1  0.75000000  0.25000000  0.50000000  1.0
  P  P3  1  0.61863346  0.61863346  1.00000000  1.0
  P  P4  1  0.38136654  0.38136654  -0.00000000  1.0
