# generated using pymatgen
data_NaV6O14
_symmetry_space_group_name_H-M   'P 1'
_cell_length_a   5.96097051
_cell_length_b   5.96097045
_cell_length_c   13.37255682
_cell_angle_alpha   90.00000000
_cell_angle_beta   90.00000000
_cell_angle_gamma   120.00000036
_symmetry_Int_Tables_number   1
_chemical_formula_structural   NaV6O14
_chemical_formula_sum   'Na2 V12 O28'
_cell_volume   411.50870289
_cell_formula_units_Z   2
loop_
 _symmetry_equiv_pos_site_id
 _symmetry_equiv_pos_as_xyz
  1  'x, y, z'
loop_
 _atom_site_type_symbol
 _atom_site_label
 _atom_site_symmetry_multiplicity
 _atom_site_fract_x
 _atom_site_fract_y
 _atom_site_fract_z
 _atom_site_occupancy
  Na  Na0  1  0.33333333  0.66666667  0.25000000  1.0
  Na  Na1  1  0.66666667  0.33333333  0.75000000  1.0
  V  V2  1  0.50000000  0.50000000  0.50000000  1.0
  V  V3  1  0.50000000  -0.00000000  0.50000000  1.0
  V  V4  1  -0.00000000  0.50000000  0.50000000  1.0
  V  V5  1  0.50000000  0.50000000  0.00000000  1.0
  V  V6  1  0.50000000  -0.00000000  0.00000000  1.0
  V  V7  1  -0.00000000  0.50000000  0.00000000  1.0
  V  V8  1  0.00000000  0.00000000  0.35698867  1.0
  V  V9  1  0.00000000  0.00000000  0.64301133  1.0
  V  V10  1  0.00000000  0.00000000  0.85698867  1.0
  V  V11  1  0.00000000  0.00000000  0.14301133  1.0
  V  V12  1  0.33333333  0.66666667  0.75000000  1.0
  V  V13  1  0.66666667  0.33333333  0.25000000  1.0
  O  O14  1  0.16475583  0.83524417  0.42674271  1.0
  O  O15  1  0.16475583  0.32951167  0.42674271  1.0
  O  O16  1  0.67048833  0.83524417  0.42674271  1.0
  O  O17  1  0.83524417  0.16475583  0.57325729  1.0
  O  O18  1  0.83524417  0.67048833  0.57325729  1.0
  O  O19  1  0.32951167  0.16475583  0.57325729  1.0
  O  O20  1  0.83524417  0.16475583  0.92674271  1.0
  O  O21  1  0.83524417  0.67048833  0.92674271  1.0
  O  O22  1  0.32951167  0.16475583  0.92674271  1.0
  O  O23  1  0.16475583  0.83524417  0.07325729  1.0
  O  O24  1  0.16475583  0.32951167  0.07325729  1.0
  O  O25  1  0.67048833  0.83524417  0.07325729  1.0
  O  O26  1  0.28053660  0.95645778  0.75000000  1.0
  O  O27  1  0.04354222  0.32407881  0.75000000  1.0
  O  O28  1  0.67592119  0.71946340  0.75000000  1.0
  O  O29  1  0.04354222  0.71946340  0.75000000  1.0
  O  O30  1  0.67592119  0.95645778  0.75000000  1.0
  O  O31  1  0.28053660  0.32407881  0.75000000  1.0
  O  O32  1  0.71946340  0.04354222  0.25000000  1.0
  O  O33  1  0.95645778  0.67592119  0.25000000  1.0
  O  O34  1  0.32407881  0.28053660  0.25000000  1.0
  O  O35  1  0.95645778  0.28053660  0.25000000  1.0
  O  O36  1  0.32407881  0.04354222  0.25000000  1.0
  O  O37  1  0.71946340  0.67592119  0.25000000  1.0
  O  O38  1  0.33333333  0.66666667  0.90994916  1.0
  O  O39  1  0.66666667  0.33333333  0.09005084  1.0
  O  O40  1  0.66666667  0.33333333  0.40994916  1.0
  O  O41  1  0.33333333  0.66666667  0.59005084  1.0
