# generated using pymatgen
data_ScAgSe2
_symmetry_space_group_name_H-M   'P 1'
_cell_length_a   4.02976359
_cell_length_b   6.76126255
_cell_length_c   13.28222428
_cell_angle_alpha   90.00000000
_cell_angle_beta   90.00000000
_cell_angle_gamma   90.00000000
_symmetry_Int_Tables_number   1
_chemical_formula_structural   ScAgSe2
_chemical_formula_sum   'Sc4 Ag4 Se8'
_cell_volume   361.89132958
_cell_formula_units_Z   4
loop_
 _symmetry_equiv_pos_site_id
 _symmetry_equiv_pos_as_xyz
  1  'x, y, z'
loop_
 _atom_site_type_symbol
 _atom_site_label
 _atom_site_symmetry_multiplicity
 _atom_site_fract_x
 _atom_site_fract_y
 _atom_site_fract_z
 _atom_site_occupancy
  Sc  Sc0  1  0.28469085  0.78203577  0.87044105  1.0
  Sc  Sc1  1  0.78469085  0.71796423  0.12955895  1.0
  Sc  Sc2  1  0.71530915  0.28203577  0.62955895  1.0
  Sc  Sc3  1  0.21530915  0.21796423  0.37044105  1.0
  Ag  Ag4  1  0.52256296  0.78632053  0.62214194  1.0
  Ag  Ag5  1  1.02256296  0.71367947  0.37785806  1.0
  Ag  Ag6  1  0.47743704  0.28632053  0.87785806  1.0
  Ag  Ag7  1  -0.02256296  0.21367947  0.12214194  1.0
  Se  Se8  1  0.28397216  0.92317823  0.22481822  1.0
  Se  Se9  1  0.78397216  0.57682177  0.77518178  1.0
  Se  Se10  1  0.71602784  0.42317823  0.27518178  1.0
  Se  Se11  1  0.21602784  0.07682177  0.72481822  1.0
  Se  Se12  1  0.22258761  0.47271229  0.53090121  1.0
  Se  Se13  1  0.72258761  0.02728771  0.46909879  1.0
  Se  Se14  1  0.77741239  0.97271229  0.96909879  1.0
  Se  Se15  1  0.27741239  0.52728771  0.03090121  1.0
