# generated using pymatgen
data_GeP2PbO8
_symmetry_space_group_name_H-M   'P 1'
_cell_length_a   8.80968436
_cell_length_b   8.80968436
_cell_length_c   8.12605400
_cell_angle_alpha   65.52552839
_cell_angle_beta   114.47447161
_cell_angle_gamma   146.22043107
_symmetry_Int_Tables_number   1
_chemical_formula_structural   GeP2PbO8
_chemical_formula_sum   'Ge2 P4 Pb2 O16'
_cell_volume   316.08049204
_cell_formula_units_Z   2
loop_
 _symmetry_equiv_pos_site_id
 _symmetry_equiv_pos_as_xyz
  1  'x, y, z'
loop_
 _atom_site_type_symbol
 _atom_site_label
 _atom_site_symmetry_multiplicity
 _atom_site_fract_x
 _atom_site_fract_y
 _atom_site_fract_z
 _atom_site_occupancy
  Ge  Ge0  1  1.50000000  0.00000000  0.00000000  1.0
  Ge  Ge1  1  1.00000000  -0.50000000  0.50000000  1.0
  P  P2  1  1.58931849  -0.11172664  0.73792091  1.0
  P  P3  1  1.11172664  -0.58931849  0.23792091  1.0
  P  P4  1  0.88827336  -0.41068151  0.76207909  1.0
  P  P5  1  1.41068151  0.11172664  0.26207909  1.0
  Pb  Pb6  1  0.16538933  0.16538933  0.75000000  1.0
  Pb  Pb7  1  0.83461067  0.83461067  0.25000000  1.0
  O  O8  1  1.50737678  -0.04764529  0.80300976  1.0
  O  O9  1  1.04764529  -0.50737678  0.30300976  1.0
  O  O10  1  0.95235471  -0.49262322  0.69699024  1.0
  O  O11  1  1.49262322  0.04764529  0.19699024  1.0
  O  O12  1  1.62123943  0.31939108  0.85898342  1.0
  O  O13  1  0.68060892  -0.62123943  0.35898342  1.0
  O  O14  1  1.31939108  -0.37876057  0.64101658  1.0
  O  O15  1  1.37876057  -0.31939108  0.14101658  1.0
  O  O16  1  1.73111821  -0.15791025  0.88484480  1.0
  O  O17  1  1.15791025  -0.73111821  0.38484480  1.0
  O  O18  1  0.84208975  -0.26888179  0.61515520  1.0
  O  O19  1  1.26888179  0.15791025  0.11515520  1.0
  O  O20  1  1.79170513  0.13175454  0.59076718  1.0
  O  O21  1  0.86824546  -0.79170513  0.09076718  1.0
  O  O22  1  1.13175454  -0.20829487  0.90923282  1.0
  O  O23  1  1.20829487  -0.13175454  0.40923282  1.0
