# generated using pymatgen
data_CrH12Pd(NO)4
_symmetry_space_group_name_H-M   'P 1'
_cell_length_a   9.37985962
_cell_length_b   9.37985962
_cell_length_c   9.37985962
_cell_angle_alpha   133.77007583
_cell_angle_beta   133.77007583
_cell_angle_gamma   67.44734964
_symmetry_Int_Tables_number   1
_chemical_formula_structural   CrH12Pd(NO)4
_chemical_formula_sum   'Cr2 H24 Pd2 N8 O8'
_cell_volume   423.13507523
_cell_formula_units_Z   2
loop_
 _symmetry_equiv_pos_site_id
 _symmetry_equiv_pos_as_xyz
  1  'x, y, z'
loop_
 _atom_site_type_symbol
 _atom_site_label
 _atom_site_symmetry_multiplicity
 _atom_site_fract_x
 _atom_site_fract_y
 _atom_site_fract_z
 _atom_site_occupancy
  Cr  Cr0  1  1.25000000  0.75000000  0.50000000  1.0
  Cr  Cr1  1  0.50000000  0.50000000  1.00000000  1.0
  H  H2  1  0.68001520  0.86998632  0.18997111  1.0
  H  H3  1  1.61998632  0.93001520  0.68997111  1.0
  H  H4  1  1.24004409  0.93001520  0.31002889  1.0
  H  H5  1  0.68001520  1.49004409  0.81002889  1.0
  H  H6  1  0.06998480  0.38001368  0.31002889  1.0
  H  H7  1  1.13001368  1.31998480  0.81002889  1.0
  H  H8  1  1.50995591  1.31998480  1.18997111  1.0
  H  H9  1  0.06998480  0.75995591  0.68997111  1.0
  H  H10  1  0.88543235  0.93405336  0.27494554  1.0
  H  H11  1  1.65910782  0.93405336  1.04862100  1.0
  H  H12  1  0.68405336  0.13543235  0.77494554  1.0
  H  H13  1  0.36048681  0.13543235  0.45137900  1.0
  H  H14  1  0.88543235  1.61048681  0.95137900  1.0
  H  H15  1  1.65910782  1.61048681  1.72505446  1.0
  H  H16  1  0.68405336  0.90910782  1.54862100  1.0
  H  H17  1  0.36048681  0.90910782  1.22505446  1.0
  H  H18  1  1.86456765  1.31594664  1.22505446  1.0
  H  H19  1  1.09089218  1.31594664  0.45137900  1.0
  H  H20  1  1.06594664  1.11456765  0.72505446  1.0
  H  H21  1  1.38951319  1.11456765  1.04862100  1.0
  H  H22  1  1.86456765  1.63951319  1.54862100  1.0
  H  H23  1  1.09089218  1.63951319  0.77494554  1.0
  H  H24  1  1.06594664  1.34089218  0.95137900  1.0
  H  H25  1  1.38951319  1.34089218  1.27494554  1.0
  Pd  Pd26  1  0.00000000  0.00000000  0.00000000  1.0
  Pd  Pd27  1  0.75000000  1.25000000  0.50000000  1.0
  N  N28  1  0.74495991  0.96611237  0.22115246  1.0
  N  N29  1  1.71611237  0.99495991  0.72115246  1.0
  N  N30  1  1.27380744  0.99495991  0.27884754  1.0
  N  N31  1  0.74495991  1.52380744  0.77884754  1.0
  N  N32  1  0.00504009  0.28388763  0.27884754  1.0
  N  N33  1  1.03388763  1.25504009  0.77884754  1.0
  N  N34  1  1.47619256  1.25504009  1.22115246  1.0
  N  N35  1  0.00504009  0.72619256  0.72115246  1.0
  O  O36  1  0.56065458  0.74564744  1.18499285  1.0
  O  O37  1  1.49564744  0.81065458  0.68499285  1.0
  O  O38  1  1.12566173  0.81065458  0.31500715  1.0
  O  O39  1  0.56065458  0.37566173  0.81500715  1.0
  O  O40  1  1.18934542  1.50435256  1.31500715  1.0
  O  O41  1  1.25435256  1.43934542  0.81500715  1.0
  O  O42  1  1.62433827  1.43934542  1.18499285  1.0
  O  O43  1  1.18934542  0.87433827  0.68499285  1.0
