# generated using pymatgen
data_Te4Rh3
_symmetry_space_group_name_H-M   'P 1'
_cell_length_a   6.79362305
_cell_length_b   6.79362305
_cell_length_c   6.94692867
_cell_angle_alpha   61.83082812
_cell_angle_beta   118.16917188
_cell_angle_gamma   145.27729332
_symmetry_Int_Tables_number   1
_chemical_formula_structural   Te4Rh3
_chemical_formula_sum   'Te4 Rh3'
_cell_volume   158.72561000
_cell_formula_units_Z   1
loop_
 _symmetry_equiv_pos_site_id
 _symmetry_equiv_pos_as_xyz
  1  'x, y, z'
loop_
 _atom_site_type_symbol
 _atom_site_label
 _atom_site_symmetry_multiplicity
 _atom_site_fract_x
 _atom_site_fract_y
 _atom_site_fract_z
 _atom_site_occupancy
  Te  Te0  1  0.87966259  0.12033741  0.54388051  1.0
  Te  Te1  1  0.12033741  -0.12033741  0.45611949  1.0
  Te  Te2  1  0.63462037  0.36537963  0.97962760  1.0
  Te  Te3  1  0.36537963  -0.36537963  0.02037240  1.0
  Rh  Rh4  1  0.73707488  0.26292512  0.72086395  1.0
  Rh  Rh5  1  0.26292512  -0.26292512  0.27913605  1.0
  Rh  Rh6  1  0.00000000  0.00000000  0.00000000  1.0
