# generated using pymatgen
data_H2O
_symmetry_space_group_name_H-M   'P 1'
_cell_length_a   6.42329366
_cell_length_b   6.42329366
_cell_length_c   6.42329366
_cell_angle_alpha   104.75237120
_cell_angle_beta   105.00162918
_cell_angle_gamma   119.11155063
_symmetry_Int_Tables_number   1
_chemical_formula_structural   H2O
_chemical_formula_sum   'H16 O8'
_cell_volume   199.61364649
_cell_formula_units_Z   8
loop_
 _symmetry_equiv_pos_site_id
 _symmetry_equiv_pos_as_xyz
  1  'x, y, z'
loop_
 _atom_site_type_symbol
 _atom_site_label
 _atom_site_symmetry_multiplicity
 _atom_site_fract_x
 _atom_site_fract_y
 _atom_site_fract_z
 _atom_site_occupancy
  H  H0  1  0.35268190  0.35313805  0.70581994  1.0
  H  H1  1  0.14731810  0.85313805  1.00045615  1.0
  H  H2  1  0.85268190  0.14686195  0.99954385  1.0
  H  H3  1  0.64731810  0.64686195  1.29418006  1.0
  H  H4  1  1.08513121  0.25000000  0.83513121  1.0
  H  H5  1  1.58513121  0.75000000  0.83513121  1.0
  H  H6  1  0.91486879  0.75000000  0.16486879  1.0
  H  H7  1  0.41486879  0.25000000  0.16486879  1.0
  H  H8  1  0.25000000  1.08578809  0.83578809  1.0
  H  H9  1  0.75000000  1.58578809  0.83578809  1.0
  H  H10  1  0.75000000  0.91421191  0.16421191  1.0
  H  H11  1  0.25000000  0.41421191  0.16421191  1.0
  H  H12  1  1.00000000  1.00000000  1.50000000  1.0
  H  H13  1  0.50000000  0.50000000  0.50000000  1.0
  H  H14  1  1.00000000  0.50000000  1.00000000  1.0
  H  H15  1  0.50000000  1.00000000  1.00000000  1.0
  O  O16  1  1.16572564  1.16615920  1.70685007  1.0
  O  O17  1  1.54069088  1.54112443  1.70685007  1.0
  O  O18  1  0.95930912  1.66615920  1.00043355  1.0
  O  O19  1  0.33427436  1.04112443  1.00043355  1.0
  O  O20  1  1.66572564  0.95887557  0.99956645  1.0
  O  O21  1  1.04069088  0.33384080  0.99956645  1.0
  O  O22  1  0.45930912  0.45887557  0.29314993  1.0
  O  O23  1  0.83427436  0.83384080  0.29314993  1.0
