# generated using pymatgen
data_EuZnPt
_symmetry_space_group_name_H-M   'P 1'
_cell_length_a   7.18804544
_cell_length_b   4.39977871
_cell_length_c   7.93465928
_cell_angle_alpha   90.00000000
_cell_angle_beta   90.00000000
_cell_angle_gamma   90.00000000
_symmetry_Int_Tables_number   1
_chemical_formula_structural   EuZnPt
_chemical_formula_sum   'Eu4 Zn4 Pt4'
_cell_volume   250.94002093
_cell_formula_units_Z   4
loop_
 _symmetry_equiv_pos_site_id
 _symmetry_equiv_pos_as_xyz
  1  'x, y, z'
loop_
 _atom_site_type_symbol
 _atom_site_label
 _atom_site_symmetry_multiplicity
 _atom_site_fract_x
 _atom_site_fract_y
 _atom_site_fract_z
 _atom_site_occupancy
  Eu  Eu0  1  0.98368927  0.75000000  0.69222074  1.0
  Eu  Eu1  1  0.48368927  0.75000000  0.80777926  1.0
  Eu  Eu2  1  0.01631073  0.25000000  0.30777926  1.0
  Eu  Eu3  1  0.51631073  0.25000000  0.19222074  1.0
  Zn  Zn4  1  0.83913130  0.75000000  0.07446389  1.0
  Zn  Zn5  1  0.33913130  0.75000000  0.42553611  1.0
  Zn  Zn6  1  0.16086870  0.25000000  0.92553611  1.0
  Zn  Zn7  1  0.66086870  0.25000000  0.57446389  1.0
  Pt  Pt8  1  0.71753179  0.75000000  0.39425058  1.0
  Pt  Pt9  1  0.21753179  0.75000000  0.10574942  1.0
  Pt  Pt10  1  0.28246821  0.25000000  0.60574942  1.0
  Pt  Pt11  1  0.78246821  0.25000000  0.89425058  1.0
