# generated using pymatgen
data_RbCr5S8
_symmetry_space_group_name_H-M   'P 1'
_cell_length_a   9.20230396
_cell_length_b   9.20230396
_cell_length_c   8.78639782
_cell_angle_alpha   74.76437864
_cell_angle_beta   105.23562136
_cell_angle_gamma   158.01815154
_symmetry_Int_Tables_number   1
_chemical_formula_structural   RbCr5S8
_chemical_formula_sum   'Rb1 Cr5 S8'
_cell_volume   268.34380524
_cell_formula_units_Z   1
loop_
 _symmetry_equiv_pos_site_id
 _symmetry_equiv_pos_as_xyz
  1  'x, y, z'
loop_
 _atom_site_type_symbol
 _atom_site_label
 _atom_site_symmetry_multiplicity
 _atom_site_fract_x
 _atom_site_fract_y
 _atom_site_fract_z
 _atom_site_occupancy
  Rb  Rb0  1  0.50000000  0.50000000  -0.00000000  1.0
  Cr  Cr1  1  0.70454661  -0.70454661  0.83399254  1.0
  Cr  Cr2  1  1.29545339  -0.29545339  0.16600746  1.0
  Cr  Cr3  1  0.65879374  -0.65879374  0.47415390  1.0
  Cr  Cr4  1  1.34120626  -0.34120626  0.52584610  1.0
  Cr  Cr5  1  0.00000000  -0.00000000  0.50000000  1.0
  S  S6  1  0.91434899  -0.91434899  0.66845951  1.0
  S  S7  1  1.08565101  -0.08565101  0.33154049  1.0
  S  S8  1  0.82756217  -0.82756217  0.01572687  1.0
  S  S9  1  1.17243783  -0.17243783  0.98427313  1.0
  S  S10  1  0.76164965  -0.76164965  0.34428537  1.0
  S  S11  1  1.23835035  -0.23835035  0.65571463  1.0
  S  S12  1  0.57735455  -0.57735455  0.64644006  1.0
  S  S13  1  1.42264545  -0.42264545  0.35355994  1.0
