# generated using pymatgen
data_Ce(BOs)4
_symmetry_space_group_name_H-M   'P 1'
_cell_length_a   7.57648659
_cell_length_b   7.57648659
_cell_length_c   4.01338364
_cell_angle_alpha   90.00000000
_cell_angle_beta   90.00000000
_cell_angle_gamma   90.00000000
_symmetry_Int_Tables_number   1
_chemical_formula_structural   Ce(BOs)4
_chemical_formula_sum   'Ce2 B8 Os8'
_cell_volume   230.38085935
_cell_formula_units_Z   2
loop_
 _symmetry_equiv_pos_site_id
 _symmetry_equiv_pos_as_xyz
  1  'x, y, z'
loop_
 _atom_site_type_symbol
 _atom_site_label
 _atom_site_symmetry_multiplicity
 _atom_site_fract_x
 _atom_site_fract_y
 _atom_site_fract_z
 _atom_site_occupancy
  Ce  Ce0  1  0.00000000  0.00000000  0.00000000  1.0
  Ce  Ce1  1  0.50000000  0.50000000  0.50000000  1.0
  B  B2  1  0.66329344  0.78120466  0.11186155  1.0
  B  B3  1  0.33670656  0.21879534  0.11186155  1.0
  B  B4  1  0.28120466  0.83670656  0.61186155  1.0
  B  B5  1  0.71879534  0.16329344  0.61186155  1.0
  B  B6  1  0.83670656  0.71879534  0.38813845  1.0
  B  B7  1  0.16329344  0.28120466  0.38813845  1.0
  B  B8  1  0.21879534  0.66329344  0.88813845  1.0
  B  B9  1  0.78120466  0.33670656  0.88813845  1.0
  Os  Os10  1  0.14421373  0.39143393  0.88891108  1.0
  Os  Os11  1  0.85578627  0.60856607  0.88891108  1.0
  Os  Os12  1  0.89143393  0.35578627  0.38891108  1.0
  Os  Os13  1  0.10856607  0.64421373  0.38891108  1.0
  Os  Os14  1  0.35578627  0.10856607  0.61108892  1.0
  Os  Os15  1  0.64421373  0.89143393  0.61108892  1.0
  Os  Os16  1  0.60856607  0.14421373  0.11108892  1.0
  Os  Os17  1  0.39143393  0.85578627  0.11108892  1.0
