# generated using pymatgen
data_Cr21(FeC3)2
_symmetry_space_group_name_H-M   'P 1'
_cell_length_a   7.44856950
_cell_length_b   7.44856950
_cell_length_c   7.44856950
_cell_angle_alpha   60.00000000
_cell_angle_beta   60.00000000
_cell_angle_gamma   60.00000000
_symmetry_Int_Tables_number   1
_chemical_formula_structural   Cr21(FeC3)2
_chemical_formula_sum   'Cr21 Fe2 C6'
_cell_volume   292.21575298
_cell_formula_units_Z   1
loop_
 _symmetry_equiv_pos_site_id
 _symmetry_equiv_pos_as_xyz
  1  'x, y, z'
loop_
 _atom_site_type_symbol
 _atom_site_label
 _atom_site_symmetry_multiplicity
 _atom_site_fract_x
 _atom_site_fract_y
 _atom_site_fract_z
 _atom_site_occupancy
  Cr  Cr0  1  1.66029022  -0.00000000  0.00000000  1.0
  Cr  Cr1  1  1.00000000  0.33970978  -0.33970978  1.0
  Cr  Cr2  1  1.00000000  0.66029022  -0.66029022  1.0
  Cr  Cr3  1  1.33970978  0.00000000  -0.00000000  1.0
  Cr  Cr4  1  -0.00000000  1.66029022  0.00000000  1.0
  Cr  Cr5  1  0.33970978  1.00000000  -0.33970978  1.0
  Cr  Cr6  1  -0.00000000  0.00000000  0.66029022  1.0
  Cr  Cr7  1  0.33970978  -0.33970978  1.00000000  1.0
  Cr  Cr8  1  0.66029022  1.00000000  -0.66029022  1.0
  Cr  Cr9  1  0.00000000  1.33970978  -0.00000000  1.0
  Cr  Cr10  1  0.66029022  -0.66029022  1.00000000  1.0
  Cr  Cr11  1  -0.00000000  -0.00000000  0.33970978  1.0
  Cr  Cr12  1  0.00000000  -0.00000000  0.00000000  1.0
  Cr  Cr13  1  0.61821363  0.61821363  -0.38178637  1.0
  Cr  Cr14  1  0.38178637  1.38178637  -0.14535912  1.0
  Cr  Cr15  1  1.38178637  -0.14535912  0.38178637  1.0
  Cr  Cr16  1  1.14535912  0.61821363  0.61821363  1.0
  Cr  Cr17  1  -0.14535912  1.38178637  0.38178637  1.0
  Cr  Cr18  1  0.61821363  1.14535912  -0.38178637  1.0
  Cr  Cr19  1  0.61821363  0.61821363  1.14535912  1.0
  Cr  Cr20  1  1.38178637  0.38178637  0.38178637  1.0
  Fe  Fe21  1  0.75000000  0.75000000  -0.25000000  1.0
  Fe  Fe22  1  1.25000000  0.25000000  0.25000000  1.0
  C  C23  1  -0.72249823  0.72249823  0.72249823  1.0
  C  C24  1  -0.27750177  0.27750177  0.72249823  1.0
  C  C25  1  0.72249823  0.72249823  -0.72249823  1.0
  C  C26  1  0.27750177  1.27750177  -0.27750177  1.0
  C  C27  1  0.27750177  -0.27750177  1.27750177  1.0
  C  C28  1  -0.27750177  0.27750177  0.27750177  1.0
