# generated using pymatgen
data_CuH6SO7
_symmetry_space_group_name_H-M   'P 1'
_cell_length_a   7.30046396
_cell_length_b   7.30046396
_cell_length_c   7.40009032
_cell_angle_alpha   87.86867424
_cell_angle_beta   92.13132576
_cell_angle_gamma   45.06925198
_symmetry_Int_Tables_number   1
_chemical_formula_structural   CuH6SO7
_chemical_formula_sum   'Cu2 H12 S2 O14'
_cell_volume   277.90264924
_cell_formula_units_Z   2
loop_
 _symmetry_equiv_pos_site_id
 _symmetry_equiv_pos_as_xyz
  1  'x, y, z'
loop_
 _atom_site_type_symbol
 _atom_site_label
 _atom_site_symmetry_multiplicity
 _atom_site_fract_x
 _atom_site_fract_y
 _atom_site_fract_z
 _atom_site_occupancy
  Cu  Cu0  1  1.13421802  -0.86676098  0.00684827  1.0
  Cu  Cu1  1  0.86676098  -0.13421802  0.50684827  1.0
  H  H2  1  1.03016362  -0.82065807  0.65456686  1.0
  H  H3  1  0.82065807  -0.03016362  0.15456686  1.0
  H  H4  1  0.96940636  -0.57533640  0.71900736  1.0
  H  H5  1  0.57533640  0.03059364  0.21900736  1.0
  H  H6  1  0.55996483  0.27708110  0.70933112  1.0
  H  H7  1  0.72291890  -0.55996483  0.20933112  1.0
  H  H8  1  0.59284493  0.35202592  0.51556761  1.0
  H  H9  1  0.64797408  -0.59284493  0.01556761  1.0
  H  H10  1  0.60106807  -0.28060252  0.97640530  1.0
  H  H11  1  1.28060252  -0.60106807  0.47640530  1.0
  H  H12  1  0.49000861  -0.11555615  0.78210238  1.0
  H  H13  1  1.11555615  -0.49000861  0.28210238  1.0
  S  S14  1  1.14832696  -0.37761245  0.92448917  1.0
  S  S15  1  0.37761245  -0.14832696  0.42448917  1.0
  O  O16  1  0.99550691  -0.32850768  0.75124551  1.0
  O  O17  1  0.32850768  0.00449309  0.25124551  1.0
  O  O18  1  0.52132759  -0.13093217  0.55827158  1.0
  O  O19  1  1.13093217  -0.52132759  0.05827158  1.0
  O  O20  1  1.42353628  -0.53764561  0.88530667  1.0
  O  O21  1  0.53764561  -0.42353628  0.38530667  1.0
  O  O22  1  0.12803597  -0.03334152  0.49335760  1.0
  O  O23  1  1.03334152  -0.12803597  0.99335760  1.0
  O  O24  1  0.96406870  -0.70301490  0.75407856  1.0
  O  O25  1  0.70301490  0.03593130  0.25407856  1.0
  O  O26  1  0.59276953  0.22866271  0.58122325  1.0
  O  O27  1  0.77133729  -0.59276953  0.08122325  1.0
  O  O28  1  0.48144539  -0.10110951  0.91619877  1.0
  O  O29  1  1.10110951  -0.48144539  0.41619877  1.0
