# generated using pymatgen
data_KCo(CO)4
_symmetry_space_group_name_H-M   'P 1'
_cell_length_a   11.39292524
_cell_length_b   11.39292524
_cell_length_c   14.67575408
_cell_angle_alpha   55.11039157
_cell_angle_beta   124.88960843
_cell_angle_gamma   150.34155058
_symmetry_Int_Tables_number   1
_chemical_formula_structural   KCo(CO)4
_chemical_formula_sum   'K4 Co4 C16 O16'
_cell_volume   759.87826612
_cell_formula_units_Z   4
loop_
 _symmetry_equiv_pos_site_id
 _symmetry_equiv_pos_as_xyz
  1  'x, y, z'
loop_
 _atom_site_type_symbol
 _atom_site_label
 _atom_site_symmetry_multiplicity
 _atom_site_fract_x
 _atom_site_fract_y
 _atom_site_fract_z
 _atom_site_occupancy
  K  K0  1  0.76064101  0.10256436  0.43977963  1.0
  K  K1  1  0.89743564  -0.76064101  0.93977963  1.0
  K  K2  1  1.10256436  0.76064101  0.06022037  1.0
  K  K3  1  1.23935899  -0.10256436  0.56022037  1.0
  Co  Co4  1  1.56668086  -0.18670888  0.24801489  1.0
  Co  Co5  1  1.18670888  -0.56668086  0.74801489  1.0
  Co  Co6  1  0.81329112  0.56668086  0.25198511  1.0
  Co  Co7  1  0.43331914  0.18670888  0.75198511  1.0
  C  C8  1  1.78906473  -0.13686220  0.34875058  1.0
  C  C9  1  1.13686220  -0.78906473  0.84875058  1.0
  C  C10  1  0.86313780  0.78906473  0.15124942  1.0
  C  C11  1  0.21093527  0.13686220  0.65124942  1.0
  C  C12  1  1.40944012  -0.37483129  0.16571151  1.0
  C  C13  1  1.37483129  -0.40944012  0.66571151  1.0
  C  C14  1  0.62516871  0.40944012  0.33428849  1.0
  C  C15  1  0.59055988  0.37483129  0.83428849  1.0
  C  C16  1  0.71997482  0.09464064  0.16349012  1.0
  C  C17  1  0.90535936  -0.71997482  0.66349012  1.0
  C  C18  1  1.09464064  0.71997482  0.33650988  1.0
  C  C19  1  1.28002518  -0.09464064  0.83650988  1.0
  C  C20  1  0.63552527  0.34486186  0.18656329  1.0
  C  C21  1  0.65513814  -0.63552527  0.68656329  1.0
  C  C22  1  1.34486186  0.63552527  0.31343671  1.0
  C  C23  1  1.36447473  -0.34486186  0.81343671  1.0
  O  O24  1  1.89345479  -0.06460614  0.08710157  1.0
  O  O25  1  1.06460614  -0.89345479  0.58710157  1.0
  O  O26  1  0.93539386  0.89345479  0.41289843  1.0
  O  O27  1  0.10654521  0.06460614  0.91289843  1.0
  O  O28  1  0.28434758  -0.16925837  0.39575225  1.0
  O  O29  1  1.16925837  -0.28434758  0.89575225  1.0
  O  O30  1  0.83074163  0.28434758  0.10424775  1.0
  O  O31  1  1.71565242  0.16925837  0.60424775  1.0
  O  O32  1  0.50230853  0.18640521  0.14472497  1.0
  O  O33  1  0.81359479  -0.50230853  0.64472497  1.0
  O  O34  1  1.18640521  0.50230853  0.35527503  1.0
  O  O35  1  1.49769147  -0.18640521  0.85527503  1.0
  O  O36  1  0.49540075  0.30074131  0.38759613  1.0
  O  O37  1  0.69925869  0.50459925  0.88759613  1.0
  O  O38  1  1.30074131  -0.50459925  0.11240387  1.0
  O  O39  1  1.50459925  -0.30074131  0.61240387  1.0
