# generated using pymatgen
data_TiCoO3
_symmetry_space_group_name_H-M   'P 1'
_cell_length_a   5.51135402
_cell_length_b   5.51135402
_cell_length_c   5.51135402
_cell_angle_alpha   54.47432593
_cell_angle_beta   54.47432593
_cell_angle_gamma   54.47432593
_symmetry_Int_Tables_number   1
_chemical_formula_structural   TiCoO3
_chemical_formula_sum   'Ti2 Co2 O6'
_cell_volume   103.12411065
_cell_formula_units_Z   2
loop_
 _symmetry_equiv_pos_site_id
 _symmetry_equiv_pos_as_xyz
  1  'x, y, z'
loop_
 _atom_site_type_symbol
 _atom_site_label
 _atom_site_symmetry_multiplicity
 _atom_site_fract_x
 _atom_site_fract_y
 _atom_site_fract_z
 _atom_site_occupancy
  Ti  Ti0  1  0.14520891  0.14520891  0.14520891  1.0
  Ti  Ti1  1  0.85479109  -0.14520891  -0.14520891  1.0
  Co  Co2  1  0.34959257  0.34959257  -0.65040743  1.0
  Co  Co3  1  0.65040743  0.65040743  -0.34959257  1.0
  O  O4  1  0.43694320  0.05594156  -0.23243899  1.0
  O  O5  1  1.23243899  -0.43694320  -0.05594156  1.0
  O  O6  1  0.94405844  0.23243899  -0.43694320  1.0
  O  O7  1  0.56305680  -0.05594156  0.23243899  1.0
  O  O8  1  0.76756101  -0.56305680  0.05594156  1.0
  O  O9  1  1.05594156  -0.23243899  -0.56305680  1.0
