# generated using pymatgen
data_BS2
_symmetry_space_group_name_H-M   'P 1'
_cell_length_a   12.60074663
_cell_length_b   4.76393942
_cell_length_c   22.88568560
_cell_angle_alpha   90.00000000
_cell_angle_beta   108.04063020
_cell_angle_gamma   90.00000000
_symmetry_Int_Tables_number   1
_chemical_formula_structural   BS2
_chemical_formula_sum   'B16 S32'
_cell_volume   1306.26886287
_cell_formula_units_Z   16
loop_
 _symmetry_equiv_pos_site_id
 _symmetry_equiv_pos_as_xyz
  1  'x, y, z'
loop_
 _atom_site_type_symbol
 _atom_site_label
 _atom_site_symmetry_multiplicity
 _atom_site_fract_x
 _atom_site_fract_y
 _atom_site_fract_z
 _atom_site_occupancy
  B  B0  1  0.91674849  0.81746743  0.13067114  1.0
  B  B1  1  0.91674849  0.68253257  0.63067114  1.0
  B  B2  1  0.08325151  0.31746743  0.36932886  1.0
  B  B3  1  0.08325151  0.18253257  0.86932886  1.0
  B  B4  1  0.83333478  0.27265392  0.34350953  1.0
  B  B5  1  0.83333478  0.22734608  0.84350953  1.0
  B  B6  1  0.16666522  0.77265392  0.15649047  1.0
  B  B7  1  0.16666522  0.72734608  0.65649047  1.0
  B  B8  1  0.69577170  0.07332441  0.40725053  1.0
  B  B9  1  0.69577170  0.42667559  0.90725053  1.0
  B  B10  1  0.30422830  0.57332441  0.09274947  1.0
  B  B11  1  0.30422830  0.92667559  0.59274947  1.0
  B  B12  1  0.26773102  0.18263417  0.46697797  1.0
  B  B13  1  0.26773102  0.31736583  0.96697797  1.0
  B  B14  1  0.73226898  0.68263417  0.03302203  1.0
  B  B15  1  0.73226898  0.81736583  0.53302203  1.0
  S  S16  1  0.94595647  0.38266200  0.31436388  1.0
  S  S17  1  0.94595647  0.11733800  0.81436388  1.0
  S  S18  1  0.05404353  0.88266200  0.18563612  1.0
  S  S19  1  0.05404353  0.61733800  0.68563612  1.0
  S  S20  1  0.88312725  0.66857030  0.05427705  1.0
  S  S21  1  0.88312725  0.83142970  0.55427705  1.0
  S  S22  1  0.11687275  0.16857030  0.44572295  1.0
  S  S23  1  0.11687275  0.33142970  0.94572295  1.0
  S  S24  1  0.84316847  0.11440955  0.41697739  1.0
  S  S25  1  0.84316847  0.38559045  0.91697739  1.0
  S  S26  1  0.15683153  0.61440955  0.08302261  1.0
  S  S27  1  0.15683153  0.88559045  0.58302261  1.0
  S  S28  1  0.80578205  0.92304153  0.16028718  1.0
  S  S29  1  0.80578205  0.57695847  0.66028718  1.0
  S  S30  1  0.19421795  0.42304153  0.33971282  1.0
  S  S31  1  0.19421795  0.07695847  0.83971282  1.0
  S  S32  1  0.69782928  0.33791277  0.28875156  1.0
  S  S33  1  0.69782928  0.16208723  0.78875156  1.0
  S  S34  1  0.30217072  0.83791277  0.21124844  1.0
  S  S35  1  0.30217072  0.66208723  0.71124844  1.0
  S  S36  1  0.63020473  0.92459991  0.46089568  1.0
  S  S37  1  0.63020473  0.57540009  0.96089568  1.0
  S  S38  1  0.36979527  0.42459991  0.03910432  1.0
  S  S39  1  0.36979527  0.07540009  0.53910432  1.0
  S  S40  1  0.59411841  0.18756589  0.33676382  1.0
  S  S41  1  0.59411841  0.31243411  0.83676382  1.0
  S  S42  1  0.40588159  0.68756589  0.16323618  1.0
  S  S43  1  0.40588159  0.81243411  0.66323618  1.0
  S  S44  1  0.33333154  0.32053715  0.41328286  1.0
  S  S45  1  0.33333154  0.17946285  0.91328286  1.0
  S  S46  1  0.66666846  0.82053715  0.08671714  1.0
  S  S47  1  0.66666846  0.67946285  0.58671714  1.0
