# generated using pymatgen
data_CdI2
_symmetry_space_group_name_H-M   'P 1'
_cell_length_a   4.32696003
_cell_length_b   4.32696003
_cell_length_c   76.53740193
_cell_angle_alpha   90.00000000
_cell_angle_beta   90.00000000
_cell_angle_gamma   120.00000000
_symmetry_Int_Tables_number   1
_chemical_formula_structural   CdI2
_chemical_formula_sum   'Cd10 I20'
_cell_volume   1240.99523430
_cell_formula_units_Z   10
loop_
 _symmetry_equiv_pos_site_id
 _symmetry_equiv_pos_as_xyz
  1  'x, y, z'
loop_
 _atom_site_type_symbol
 _atom_site_label
 _atom_site_symmetry_multiplicity
 _atom_site_fract_x
 _atom_site_fract_y
 _atom_site_fract_z
 _atom_site_occupancy
  Cd  Cd0  1  0.00000000  0.00000000  0.02498998  1.0
  Cd  Cd1  1  0.00000000  0.00000000  0.22500177  1.0
  Cd  Cd2  1  0.00000000  0.00000000  0.42499290  1.0
  Cd  Cd3  1  -0.00000000  -0.00000000  0.62500889  1.0
  Cd  Cd4  1  -0.00000000  -0.00000000  0.82499994  1.0
  Cd  Cd5  1  0.66666667  0.33333333  0.12499931  1.0
  Cd  Cd6  1  0.66666667  0.33333333  0.32501088  1.0
  Cd  Cd7  1  0.66666667  0.33333333  0.52499357  1.0
  Cd  Cd8  1  0.66666667  0.33333333  0.72500406  1.0
  Cd  Cd9  1  0.33333333  0.66666667  0.92499682  1.0
  I  I10  1  0.00000000  0.00000000  0.14747097  1.0
  I  I11  1  0.00000000  0.00000000  0.34748316  1.0
  I  I12  1  0.00000000  0.00000000  0.54746633  1.0
  I  I13  1  -0.00000000  -0.00000000  0.74747669  1.0
  I  I14  1  -0.00000000  -0.00000000  0.90252471  1.0
  I  I15  1  0.66666667  0.33333333  0.04745660  1.0
  I  I16  1  0.66666667  0.33333333  0.24747427  1.0
  I  I17  1  0.66666667  0.33333333  0.44746527  1.0
  I  I18  1  0.66666667  0.33333333  0.64748173  1.0
  I  I19  1  0.66666667  0.33333333  0.84747475  1.0
  I  I20  1  0.66666667  0.33333333  0.94746641  1.0
  I  I21  1  0.33333333  0.66666667  0.00252323  1.0
  I  I22  1  0.33333333  0.66666667  0.10252860  1.0
  I  I23  1  0.33333333  0.66666667  0.20253047  1.0
  I  I24  1  0.33333333  0.66666667  0.30253972  1.0
  I  I25  1  0.33333333  0.66666667  0.40252185  1.0
  I  I26  1  0.33333333  0.66666667  0.50252229  1.0
  I  I27  1  0.33333333  0.66666667  0.60253737  1.0
  I  I28  1  0.33333333  0.66666667  0.70253295  1.0
  I  I29  1  0.33333333  0.66666667  0.80252452  1.0
