# generated using pymatgen
data_SrMnBi2
_symmetry_space_group_name_H-M   'P 1'
_cell_length_a   11.82354825
_cell_length_b   11.82354825
_cell_length_c   11.82354825
_cell_angle_alpha   157.46602563
_cell_angle_beta   157.46602563
_cell_angle_gamma   32.08026518
_symmetry_Int_Tables_number   1
_chemical_formula_structural   SrMnBi2
_chemical_formula_sum   'Sr2 Mn2 Bi4'
_cell_volume   242.56205596
_cell_formula_units_Z   2
loop_
 _symmetry_equiv_pos_site_id
 _symmetry_equiv_pos_as_xyz
  1  'x, y, z'
loop_
 _atom_site_type_symbol
 _atom_site_label
 _atom_site_symmetry_multiplicity
 _atom_site_fract_x
 _atom_site_fract_y
 _atom_site_fract_z
 _atom_site_occupancy
  Sr  Sr0  1  0.88038087  0.88038087  1.00000000  1.0
  Sr  Sr1  1  0.11961913  0.11961913  -0.00000000  1.0
  Mn  Mn2  1  0.25000000  0.75000000  0.50000000  1.0
  Mn  Mn3  1  0.75000000  0.25000000  0.50000000  1.0
  Bi  Bi4  1  0.67623422  0.67623422  1.00000000  1.0
  Bi  Bi5  1  0.32376578  0.32376578  0.00000000  1.0
  Bi  Bi6  1  0.50000000  -0.00000000  0.50000000  1.0
  Bi  Bi7  1  -0.00000000  0.50000000  0.50000000  1.0
