# generated using pymatgen
data_K2Hf3OF12
_symmetry_space_group_name_H-M   'P 1'
_cell_length_a   10.74385025
_cell_length_b   10.74385025
_cell_length_c   10.74385025
_cell_angle_alpha   42.18026346
_cell_angle_beta   42.18026346
_cell_angle_gamma   42.18026346
_symmetry_Int_Tables_number   1
_chemical_formula_structural   K2Hf3OF12
_chemical_formula_sum   'K4 Hf6 O2 F24'
_cell_volume   505.97203487
_cell_formula_units_Z   2
loop_
 _symmetry_equiv_pos_site_id
 _symmetry_equiv_pos_as_xyz
  1  'x, y, z'
loop_
 _atom_site_type_symbol
 _atom_site_label
 _atom_site_symmetry_multiplicity
 _atom_site_fract_x
 _atom_site_fract_y
 _atom_site_fract_z
 _atom_site_occupancy
  K  K0  1  0.86100270  0.86100270  0.86100270  1.0
  K  K1  1  1.13899730  1.13899730  0.13899730  1.0
  K  K2  1  1.50000000  0.50000000  0.50000000  1.0
  K  K3  1  0.00000000  0.00000000  0.00000000  1.0
  Hf  Hf4  1  1.42284295  1.42284295  -0.03056564  1.0
  Hf  Hf5  1  1.42284295  0.96943436  0.42284295  1.0
  Hf  Hf6  1  1.03056564  0.57715705  0.57715705  1.0
  Hf  Hf7  1  1.57715705  0.03056564  0.57715705  1.0
  Hf  Hf8  1  1.57715705  0.57715705  0.03056564  1.0
  Hf  Hf9  1  0.96943436  1.42284295  0.42284295  1.0
  O  O10  1  0.71466996  0.71466996  0.71466996  1.0
  O  O11  1  1.28533004  1.28533004  0.28533004  1.0
  F  F12  1  1.29502588  0.29502588  0.62988111  1.0
  F  F13  1  1.29502588  0.62988111  0.29502588  1.0
  F  F14  1  1.37011889  0.70497412  0.70497412  1.0
  F  F15  1  1.70497412  0.37011889  0.70497412  1.0
  F  F16  1  1.70497412  0.70497412  0.37011889  1.0
  F  F17  1  1.62988111  0.29502588  0.29502588  1.0
  F  F18  1  1.08608795  1.08608795  0.59934640  1.0
  F  F19  1  1.08608795  1.59934640  0.08608795  1.0
  F  F20  1  1.40065360  0.91391205  -0.08608795  1.0
  F  F21  1  0.91391205  1.40065360  -0.08608795  1.0
  F  F22  1  0.91391205  0.91391205  0.40065360  1.0
  F  F23  1  1.59934640  1.08608795  0.08608795  1.0
  F  F24  1  1.34973895  1.34973895  -0.08773762  1.0
  F  F25  1  1.34973895  0.91226238  0.34973895  1.0
  F  F26  1  1.08773762  0.65026105  0.65026105  1.0
  F  F27  1  1.65026105  0.08773762  0.65026105  1.0
  F  F28  1  1.65026105  0.65026105  0.08773762  1.0
  F  F29  1  0.91226238  1.34973895  0.34973895  1.0
  F  F30  1  0.64936837  -0.00000000  -0.64936837  1.0
  F  F31  1  0.64936837  -0.64936837  0.00000000  1.0
  F  F32  1  -0.00000000  0.64936837  -0.64936837  1.0
  F  F33  1  -0.00000000  0.35063163  -0.35063163  1.0
  F  F34  1  0.35063163  -0.00000000  -0.35063163  1.0
  F  F35  1  0.35063163  -0.35063163  0.00000000  1.0
