# generated using pymatgen
data_Sc6Al16Ir7
_symmetry_space_group_name_H-M   'P 1'
_cell_length_a   8.74808043
_cell_length_b   8.74808043
_cell_length_c   8.74808043
_cell_angle_alpha   60.00000000
_cell_angle_beta   60.00000000
_cell_angle_gamma   60.00000000
_symmetry_Int_Tables_number   1
_chemical_formula_structural   Sc6Al16Ir7
_chemical_formula_sum   'Sc6 Al16 Ir7'
_cell_volume   473.39460432
_cell_formula_units_Z   1
loop_
 _symmetry_equiv_pos_site_id
 _symmetry_equiv_pos_as_xyz
  1  'x, y, z'
loop_
 _atom_site_type_symbol
 _atom_site_label
 _atom_site_symmetry_multiplicity
 _atom_site_fract_x
 _atom_site_fract_y
 _atom_site_fract_z
 _atom_site_occupancy
  Sc  Sc0  1  -0.70669731  0.70669731  0.70669731  1.0
  Sc  Sc1  1  -0.29330269  0.29330269  0.70669731  1.0
  Sc  Sc2  1  0.70669731  0.70669731  -0.70669731  1.0
  Sc  Sc3  1  0.29330269  1.29330269  -0.29330269  1.0
  Sc  Sc4  1  0.29330269  -0.29330269  1.29330269  1.0
  Sc  Sc5  1  -0.29330269  0.29330269  0.29330269  1.0
  Al  Al6  1  0.88004510  0.88004510  -0.11995490  1.0
  Al  Al7  1  1.11995490  0.11995490  0.64013530  1.0
  Al  Al8  1  1.11995490  0.64013530  0.11995490  1.0
  Al  Al9  1  0.35986470  0.88004510  -0.11995490  1.0
  Al  Al10  1  1.64013530  0.11995490  0.11995490  1.0
  Al  Al11  1  0.88004510  0.35986470  -0.11995490  1.0
  Al  Al12  1  0.88004510  0.88004510  -0.64013530  1.0
  Al  Al13  1  1.11995490  0.11995490  0.11995490  1.0
  Al  Al14  1  0.66522701  0.66522701  -0.33477299  1.0
  Al  Al15  1  1.33477299  0.33477299  -0.00431896  1.0
  Al  Al16  1  1.33477299  -0.00431896  0.33477299  1.0
  Al  Al17  1  1.00431896  0.66522701  -0.33477299  1.0
  Al  Al18  1  0.99568104  0.33477299  0.33477299  1.0
  Al  Al19  1  0.66522701  1.00431896  -0.33477299  1.0
  Al  Al20  1  0.66522701  0.66522701  0.00431896  1.0
  Al  Al21  1  1.33477299  0.33477299  0.33477299  1.0
  Ir  Ir22  1  1.50000000  -0.00000000  0.00000000  1.0
  Ir  Ir23  1  1.00000000  0.50000000  -0.50000000  1.0
  Ir  Ir24  1  -0.00000000  1.50000000  0.00000000  1.0
  Ir  Ir25  1  0.50000000  1.00000000  -0.50000000  1.0
  Ir  Ir26  1  -0.00000000  -0.00000000  0.50000000  1.0
  Ir  Ir27  1  0.50000000  -0.50000000  1.00000000  1.0
  Ir  Ir28  1  0.00000000  0.00000000  0.00000000  1.0
