# generated using pymatgen
data_NaYb3GeS7
_symmetry_space_group_name_H-M   'P 1'
_cell_length_a   9.81149663
_cell_length_b   9.81149663
_cell_length_c   6.05911582
_cell_angle_alpha   90.00000000
_cell_angle_beta   90.00000000
_cell_angle_gamma   120.00000000
_symmetry_Int_Tables_number   1
_chemical_formula_structural   NaYb3GeS7
_chemical_formula_sum   'Na2 Yb6 Ge2 S14'
_cell_volume   505.13842278
_cell_formula_units_Z   2
loop_
 _symmetry_equiv_pos_site_id
 _symmetry_equiv_pos_as_xyz
  1  'x, y, z'
loop_
 _atom_site_type_symbol
 _atom_site_label
 _atom_site_symmetry_multiplicity
 _atom_site_fract_x
 _atom_site_fract_y
 _atom_site_fract_z
 _atom_site_occupancy
  Ge  Ge0  1  0.33333333  0.66666667  0.10833010  1.0
  Ge  Ge1  1  0.66666667  0.33333333  0.60833010  1.0
  Yb  Yb2  1  0.77010309  0.63325121  0.17546437  1.0
  Yb  Yb3  1  0.63325121  0.86314812  0.67546437  1.0
  Yb  Yb4  1  0.86314812  0.22989691  0.17546437  1.0
  Yb  Yb5  1  0.36674879  0.13685188  0.17546437  1.0
  Yb  Yb6  1  0.22989691  0.36674879  0.67546437  1.0
  Yb  Yb7  1  0.13685188  0.77010309  0.67546437  1.0
  Na  Na8  1  0.00000000  0.00000000  -0.01204037  1.0
  Na  Na9  1  -0.00000000  -0.00000000  0.48795963  1.0
  S  S10  1  0.33333333  0.66666667  0.47728106  1.0
  S  S11  1  0.66666667  0.33333333  0.97728106  1.0
  S  S12  1  0.10432170  0.84121423  0.24364969  1.0
  S  S13  1  0.84121423  0.73689254  0.74364969  1.0
  S  S14  1  0.73689254  0.89567830  0.24364969  1.0
  S  S15  1  0.15878577  0.26310746  0.24364969  1.0
  S  S16  1  0.89567830  0.15878577  0.74364969  1.0
  S  S17  1  0.26310746  0.10432170  0.74364969  1.0
  S  S18  1  0.42422334  0.90252034  0.94712901  1.0
  S  S19  1  0.90252034  0.47829700  0.44712901  1.0
  S  S20  1  0.47829700  0.57577666  0.94712901  1.0
  S  S21  1  0.09747966  0.52170300  0.94712901  1.0
  S  S22  1  0.57577666  0.09747966  0.44712901  1.0
  S  S23  1  0.52170300  0.42422334  0.44712901  1.0
