# generated using pymatgen
data_Sr6CaZr(BO3)6
_symmetry_space_group_name_H-M   'P 1'
_cell_length_a   7.89590657
_cell_length_b   7.89590657
_cell_length_c   7.89590657
_cell_angle_alpha   104.96439916
_cell_angle_beta   104.96439916
_cell_angle_gamma   104.96439916
_symmetry_Int_Tables_number   1
_chemical_formula_structural   Sr6CaZr(BO3)6
_chemical_formula_sum   'Sr6 Ca1 Zr1 B6 O18'
_cell_volume   430.71344171
_cell_formula_units_Z   1
loop_
 _symmetry_equiv_pos_site_id
 _symmetry_equiv_pos_as_xyz
  1  'x, y, z'
loop_
 _atom_site_type_symbol
 _atom_site_label
 _atom_site_symmetry_multiplicity
 _atom_site_fract_x
 _atom_site_fract_y
 _atom_site_fract_z
 _atom_site_occupancy
  Sr  Sr0  1  0.75983602  0.63741256  0.13832372  1.0
  Sr  Sr1  1  1.36258744  -0.13832372  0.24016398  1.0
  Sr  Sr2  1  0.86167628  0.24016398  0.36258744  1.0
  Sr  Sr3  1  1.24016398  0.36258744  -0.13832372  1.0
  Sr  Sr4  1  0.63741256  1.13832372  -0.24016398  1.0
  Sr  Sr5  1  1.13832372  0.75983602  -0.36258744  1.0
  Ca  Ca6  1  0.50000000  0.50000000  0.50000000  1.0
  Zr  Zr7  1  0.00000000  -0.00000000  -0.00000000  1.0
  B  B8  1  1.54319496  0.79295816  -0.11615353  1.0
  B  B9  1  1.20704184  0.11615353  -0.54319496  1.0
  B  B10  1  1.11615353  -0.54319496  0.20704184  1.0
  B  B11  1  0.45680504  0.20704184  0.11615353  1.0
  B  B12  1  0.79295816  0.88384647  0.54319496  1.0
  B  B13  1  0.88384647  1.54319496  -0.20704184  1.0
  O  O14  1  0.72315979  0.93025956  -0.00881045  1.0
  O  O15  1  1.06974044  0.00881045  -0.72315979  1.0
  O  O16  1  1.00881045  -0.72315979  0.06974044  1.0
  O  O17  1  0.27684021  0.06974044  0.00881045  1.0
  O  O18  1  0.93025956  0.99118955  -0.27684021  1.0
  O  O19  1  0.99118955  0.72315979  -0.06974044  1.0
  O  O20  1  1.46991594  0.77188222  -0.30068464  1.0
  O  O21  1  1.22811778  0.30068464  -0.46991594  1.0
  O  O22  1  1.30068464  -0.46991594  0.22811778  1.0
  O  O23  1  0.53008406  0.22811778  0.30068464  1.0
  O  O24  1  0.77188222  0.69931536  0.46991594  1.0
  O  O25  1  0.69931536  1.46991594  -0.22811778  1.0
  O  O26  1  0.54672593  0.30552673  0.02567103  1.0
  O  O27  1  0.69447327  0.97432897  0.45327407  1.0
  O  O28  1  0.97432897  1.45327407  -0.30552673  1.0
  O  O29  1  1.45327407  0.69447327  -0.02567103  1.0
  O  O30  1  1.30552673  0.02567103  -0.45327407  1.0
  O  O31  1  1.02567103  -0.45327407  0.30552673  1.0
