# generated using pymatgen
data_RbSn2(AsO4)3
_symmetry_space_group_name_H-M   'P 1'
_cell_length_a   9.87676668
_cell_length_b   9.87676668
_cell_length_c   9.87676668
_cell_angle_alpha   53.89757537
_cell_angle_beta   53.89757537
_cell_angle_gamma   53.89757536
_symmetry_Int_Tables_number   1
_chemical_formula_structural   RbSn2(AsO4)3
_chemical_formula_sum   'Rb2 Sn4 As6 O24'
_cell_volume   584.14064415
_cell_formula_units_Z   2
loop_
 _symmetry_equiv_pos_site_id
 _symmetry_equiv_pos_as_xyz
  1  'x, y, z'
loop_
 _atom_site_type_symbol
 _atom_site_label
 _atom_site_symmetry_multiplicity
 _atom_site_fract_x
 _atom_site_fract_y
 _atom_site_fract_z
 _atom_site_occupancy
  Rb  Rb0  1  1.00000000  -0.00000000  0.00000000  1.0
  Rb  Rb1  1  0.50000000  0.50000000  0.50000000  1.0
  Sn  Sn2  1  0.84864528  -0.15135472  -0.15135472  1.0
  Sn  Sn3  1  0.34864528  0.34864528  0.34864528  1.0
  Sn  Sn4  1  0.65135472  0.65135472  -0.34864528  1.0
  Sn  Sn5  1  1.15135472  0.15135472  0.15135472  1.0
  As  As6  1  0.47025212  0.75000000  0.02974788  1.0
  As  As7  1  0.97025212  -0.47025212  0.25000000  1.0
  As  As8  1  0.25000000  0.97025212  -0.47025212  1.0
  As  As9  1  0.75000000  1.02974788  -0.52974788  1.0
  As  As10  1  0.52974788  0.25000000  -0.02974788  1.0
  As  As11  1  1.02974788  0.47025212  -0.25000000  1.0
  O  O12  1  0.72577545  1.02454597  -0.33777809  1.0
  O  O13  1  1.22577545  0.16222191  -0.47545403  1.0
  O  O14  1  0.83777809  0.47545403  -0.22577545  1.0
  O  O15  1  0.33777809  0.27422455  -0.02454597  1.0
  O  O16  1  0.97545403  0.33777809  -0.72577545  1.0
  O  O17  1  0.47545403  0.77422455  -0.16222191  1.0
  O  O18  1  0.27422455  0.97545403  -0.66222191  1.0
  O  O19  1  0.77422455  0.83777809  -0.52454597  1.0
  O  O20  1  0.66222191  0.72577545  0.02454597  1.0
  O  O21  1  1.16222191  -0.47545403  0.22577545  1.0
  O  O22  1  0.52454597  0.22577545  0.16222191  1.0
  O  O23  1  1.02454597  0.66222191  -0.27422455  1.0
  O  O24  1  0.71170254  0.05661381  -0.06090940  1.0
  O  O25  1  1.21170254  0.43909060  -0.44338619  1.0
  O  O26  1  0.56090940  0.44338619  -0.21170254  1.0
  O  O27  1  1.06090940  0.28829746  -0.05661381  1.0
  O  O28  1  0.94338619  0.06090940  0.28829746  1.0
  O  O29  1  0.44338619  0.78829746  -0.43909060  1.0
  O  O30  1  1.28829746  -0.05661381  0.06090940  1.0
  O  O31  1  0.78829746  0.56090940  -0.55661381  1.0
  O  O32  1  0.93909060  -0.28829746  0.05661381  1.0
  O  O33  1  0.43909060  0.55661381  0.21170254  1.0
  O  O34  1  0.55661381  1.21170254  -0.56090940  1.0
  O  O35  1  1.05661381  -0.06090940  -0.28829746  1.0
