# generated using pymatgen
data_CoReB
_symmetry_space_group_name_H-M   'P 1'
_cell_length_a   5.60657014
_cell_length_b   3.29588074
_cell_length_c   6.47583290
_cell_angle_alpha   90.00000000
_cell_angle_beta   90.00000000
_cell_angle_gamma   90.00000000
_symmetry_Int_Tables_number   1
_chemical_formula_structural   CoReB
_chemical_formula_sum   'Co4 Re4 B4'
_cell_volume   119.66423880
_cell_formula_units_Z   4
loop_
 _symmetry_equiv_pos_site_id
 _symmetry_equiv_pos_as_xyz
  1  'x, y, z'
loop_
 _atom_site_type_symbol
 _atom_site_label
 _atom_site_symmetry_multiplicity
 _atom_site_fract_x
 _atom_site_fract_y
 _atom_site_fract_z
 _atom_site_occupancy
  Co  Co0  1  0.85490387  0.75000000  0.05613855  1.0
  Co  Co1  1  0.35490387  0.75000000  0.44386145  1.0
  Co  Co2  1  0.14509613  0.25000000  0.94386145  1.0
  Co  Co3  1  0.64509613  0.25000000  0.55613855  1.0
  Re  Re4  1  0.97078128  0.75000000  0.67133262  1.0
  Re  Re5  1  0.47078128  0.75000000  0.82866738  1.0
  Re  Re6  1  0.02921872  0.25000000  0.32866738  1.0
  Re  Re7  1  0.52921872  0.25000000  0.17133262  1.0
  B  B8  1  0.73141995  0.75000000  0.37537956  1.0
  B  B9  1  0.23141995  0.75000000  0.12462044  1.0
  B  B10  1  0.26858005  0.25000000  0.62462044  1.0
  B  B11  1  0.76858005  0.25000000  0.87537956  1.0
