# generated using pymatgen
data_NiPH6NO5
_symmetry_space_group_name_H-M   'P 1'
_cell_length_a   5.59642704
_cell_length_b   8.95807540
_cell_length_c   4.76307443
_cell_angle_alpha   90.00000000
_cell_angle_beta   90.00000000
_cell_angle_gamma   90.00000000
_symmetry_Int_Tables_number   1
_chemical_formula_structural   NiPH6NO5
_chemical_formula_sum   'Ni2 P2 H12 N2 O10'
_cell_volume   238.78823651
_cell_formula_units_Z   2
loop_
 _symmetry_equiv_pos_site_id
 _symmetry_equiv_pos_as_xyz
  1  'x, y, z'
loop_
 _atom_site_type_symbol
 _atom_site_label
 _atom_site_symmetry_multiplicity
 _atom_site_fract_x
 _atom_site_fract_y
 _atom_site_fract_z
 _atom_site_occupancy
  N  N0  1  0.50000000  0.02118911  0.05956151  1.0
  N  N1  1  0.00000000  0.97881089  0.55956151  1.0
  Ni  Ni2  1  0.50000000  0.48174179  0.92739340  1.0
  Ni  Ni3  1  0.00000000  0.51825821  0.42739340  1.0
  P  P4  1  0.50000000  0.68875018  0.50169435  1.0
  P  P5  1  0.00000000  0.31124982  0.00169435  1.0
  O  O6  1  0.50000000  0.86044146  0.55953104  1.0
  O  O7  1  0.00000000  0.13955854  0.05953104  1.0
  O  O8  1  0.50000000  0.66448407  0.18260491  1.0
  O  O9  1  0.00000000  0.33551593  0.68260491  1.0
  O  O10  1  0.50000000  0.30203347  0.63657908  1.0
  O  O11  1  0.00000000  0.69796653  0.13657908  1.0
  O  O12  1  0.27787984  0.61329161  0.65153481  1.0
  O  O13  1  0.77787984  0.38670839  0.15153481  1.0
  O  O14  1  0.72212016  0.61329161  0.65153481  1.0
  O  O15  1  0.22212016  0.38670839  0.15153481  1.0
  H  H16  1  0.36025321  0.31809690  0.51387120  1.0
  H  H17  1  0.86025321  0.68190310  0.01387120  1.0
  H  H18  1  0.63974679  0.31809690  0.51387120  1.0
  H  H19  1  0.13974679  0.68190310  0.01387120  1.0
  H  H20  1  0.15223919  0.91303686  0.55524896  1.0
  H  H21  1  0.65223919  0.08696314  0.05524896  1.0
  H  H22  1  0.84776081  0.91303686  0.55524896  1.0
  H  H23  1  0.34776081  0.08696314  0.05524896  1.0
  H  H24  1  0.50000000  0.95602028  0.24394148  1.0
  H  H25  1  0.00000000  0.04397972  0.74394148  1.0
  H  H26  1  0.50000000  0.95077718  0.88238430  1.0
  H  H27  1  0.00000000  0.04922282  0.38238430  1.0
