# generated using pymatgen
data_CaIn4Pd
_symmetry_space_group_name_H-M   'P 1'
_cell_length_a   8.74332176
_cell_length_b   8.74332176
_cell_length_c   7.67783926
_cell_angle_alpha   90.00000000
_cell_angle_beta   90.00000000
_cell_angle_gamma   150.05235672
_symmetry_Int_Tables_number   1
_chemical_formula_structural   CaIn4Pd
_chemical_formula_sum   'Ca2 In8 Pd2'
_cell_volume   293.00419577
_cell_formula_units_Z   2
loop_
 _symmetry_equiv_pos_site_id
 _symmetry_equiv_pos_as_xyz
  1  'x, y, z'
loop_
 _atom_site_type_symbol
 _atom_site_label
 _atom_site_symmetry_multiplicity
 _atom_site_fract_x
 _atom_site_fract_y
 _atom_site_fract_z
 _atom_site_occupancy
  Ca  Ca0  1  -0.62828210  0.62828210  0.25000000  1.0
  Ca  Ca1  1  -0.37171790  1.37171790  0.75000000  1.0
  In  In2  1  -0.81735754  0.81735754  0.45092040  1.0
  In  In3  1  -0.81735754  0.81735754  0.04907960  1.0
  In  In4  1  -0.18264246  1.18264246  0.95092040  1.0
  In  In5  1  -0.18264246  1.18264246  0.54907960  1.0
  In  In6  1  -0.43461327  1.43461327  0.25000000  1.0
  In  In7  1  -0.56538673  0.56538673  0.75000000  1.0
  In  In8  1  0.00000000  0.00000000  0.50000000  1.0
  In  In9  1  0.00000000  0.00000000  0.00000000  1.0
  Pd  Pd10  1  -0.27291543  1.27291543  0.25000000  1.0
  Pd  Pd11  1  -0.72708457  0.72708457  0.75000000  1.0
