# generated using pymatgen
data_CeNbO2
_symmetry_space_group_name_H-M   'P 1'
_cell_length_a   7.37781649
_cell_length_b   7.37781649
_cell_length_c   7.37781649
_cell_angle_alpha   129.53850175
_cell_angle_beta   129.53850175
_cell_angle_gamma   74.14563105
_symmetry_Int_Tables_number   1
_chemical_formula_structural   CeNbO2
_chemical_formula_sum   'Ce4 Nb4 O8'
_cell_volume   232.88133911
_cell_formula_units_Z   4
loop_
 _symmetry_equiv_pos_site_id
 _symmetry_equiv_pos_as_xyz
  1  'x, y, z'
loop_
 _atom_site_type_symbol
 _atom_site_label
 _atom_site_symmetry_multiplicity
 _atom_site_fract_x
 _atom_site_fract_y
 _atom_site_fract_z
 _atom_site_occupancy
  Ce  Ce0  1  0.37500000  0.62500000  0.75000000  1.0
  Ce  Ce1  1  0.87500000  0.62500000  1.25000000  1.0
  Ce  Ce2  1  0.37500000  1.12500000  0.75000000  1.0
  Ce  Ce3  1  0.37500000  0.62500000  0.25000000  1.0
  Nb  Nb4  1  0.87500000  0.12500000  0.75000000  1.0
  Nb  Nb5  1  0.37500000  0.12500000  0.25000000  1.0
  Nb  Nb6  1  0.87500000  0.62500000  0.75000000  1.0
  Nb  Nb7  1  0.87500000  1.12500000  1.25000000  1.0
  O  O8  1  1.17328864  0.95296799  1.77967803  1.0
  O  O9  1  0.57671004  0.85638939  1.27967803  1.0
  O  O10  1  1.04703201  0.82671004  1.22032065  1.0
  O  O11  1  1.14361061  1.42328864  1.72032065  1.0
  O  O12  1  0.17328996  0.39361061  0.22032197  1.0
  O  O13  1  0.57671136  0.29703201  0.72032197  1.0
  O  O14  1  0.60638939  0.82671136  0.77967935  1.0
  O  O15  1  0.70296799  0.42328996  0.27967935  1.0
