# generated using pymatgen
data_Na2Sm2Ti3O10
_symmetry_space_group_name_H-M   'P 1'
_cell_length_a   14.57565143
_cell_length_b   14.57565143
_cell_length_c   14.57565143
_cell_angle_alpha   164.84979985
_cell_angle_beta   164.84979985
_cell_angle_gamma   21.48898116
_symmetry_Int_Tables_number   1
_chemical_formula_structural   Na2Sm2Ti3O10
_chemical_formula_sum   'Na2 Sm2 Ti3 O10'
_cell_volume   211.47646860
_cell_formula_units_Z   1
loop_
 _symmetry_equiv_pos_site_id
 _symmetry_equiv_pos_as_xyz
  1  'x, y, z'
loop_
 _atom_site_type_symbol
 _atom_site_label
 _atom_site_symmetry_multiplicity
 _atom_site_fract_x
 _atom_site_fract_y
 _atom_site_fract_z
 _atom_site_occupancy
  Na  Na0  1  0.71177079  0.71177079  1.00000000  1.0
  Na  Na1  1  0.28822921  0.28822921  0.00000000  1.0
  Sm  Sm2  1  0.57482889  0.57482889  1.00000000  1.0
  Sm  Sm3  1  0.42517111  0.42517111  -0.00000000  1.0
  Ti  Ti4  1  0.85386582  0.85386582  1.00000000  1.0
  Ti  Ti5  1  0.14613418  0.14613418  0.00000000  1.0
  Ti  Ti6  1  0.00000000  0.00000000  0.00000000  1.0
  O  O7  1  0.36860427  0.86860427  0.50000000  1.0
  O  O8  1  0.63139573  0.13139573  0.50000000  1.0
  O  O9  1  0.86860427  0.36860427  0.50000000  1.0
  O  O10  1  0.13139573  0.63139573  0.50000000  1.0
  O  O11  1  0.93277126  0.93277126  1.00000000  1.0
  O  O12  1  0.06722874  0.06722874  0.00000000  1.0
  O  O13  1  0.79255798  0.79255798  1.00000000  1.0
  O  O14  1  0.20744202  0.20744202  0.00000000  1.0
  O  O15  1  0.50000000  0.00000000  0.50000000  1.0
  O  O16  1  0.00000000  0.50000000  0.50000000  1.0
