# generated using pymatgen
data_K3ScV2O8
_symmetry_space_group_name_H-M   'P 1'
_cell_length_a   5.81591805
_cell_length_b   5.81591805
_cell_length_c   7.55773688
_cell_angle_alpha   90.00000000
_cell_angle_beta   90.00000000
_cell_angle_gamma   120.00000000
_symmetry_Int_Tables_number   1
_chemical_formula_structural   K3ScV2O8
_chemical_formula_sum   'K3 Sc1 V2 O8'
_cell_volume   221.39048779
_cell_formula_units_Z   1
loop_
 _symmetry_equiv_pos_site_id
 _symmetry_equiv_pos_as_xyz
  1  'x, y, z'
loop_
 _atom_site_type_symbol
 _atom_site_label
 _atom_site_symmetry_multiplicity
 _atom_site_fract_x
 _atom_site_fract_y
 _atom_site_fract_z
 _atom_site_occupancy
  K  K0  1  0.33333333  0.66666667  0.69106297  1.0
  K  K1  1  0.66666667  0.33333333  0.30893703  1.0
  K  K2  1  0.00000000  0.00000000  0.00000000  1.0
  Sc  Sc3  1  0.00000000  0.00000000  0.50000000  1.0
  V  V4  1  0.33333333  0.66666667  0.25488476  1.0
  V  V5  1  0.66666667  0.33333333  0.74511524  1.0
  O  O6  1  0.65890921  0.82945461  0.33440232  1.0
  O  O7  1  0.82945461  0.65890921  0.66559768  1.0
  O  O8  1  0.82945461  0.17054539  0.66559768  1.0
  O  O9  1  0.17054539  0.82945461  0.33440232  1.0
  O  O10  1  0.17054539  0.34109079  0.33440232  1.0
  O  O11  1  0.34109079  0.17054539  0.66559768  1.0
  O  O12  1  0.33333333  0.66666667  0.03536733  1.0
  O  O13  1  0.66666667  0.33333333  0.96463267  1.0
