# generated using pymatgen
data_ScSe
_symmetry_space_group_name_H-M   'P 1'
_cell_length_a   16.39449193
_cell_length_b   16.39436875
_cell_length_c   7.40935775
_cell_angle_alpha   76.94089802
_cell_angle_beta   76.93904228
_cell_angle_gamma   26.12005969
_symmetry_Int_Tables_number   1
_chemical_formula_structural   ScSe
_chemical_formula_sum   'Sc16 Se16'
_cell_volume   852.83503652
_cell_formula_units_Z   16
loop_
 _symmetry_equiv_pos_site_id
 _symmetry_equiv_pos_as_xyz
  1  'x, y, z'
loop_
 _atom_site_type_symbol
 _atom_site_label
 _atom_site_symmetry_multiplicity
 _atom_site_fract_x
 _atom_site_fract_y
 _atom_site_fract_z
 _atom_site_occupancy
  Sc  Sc0  1  0.03316925  0.53304422  1.71691420  1.0
  Sc  Sc1  1  -0.28312768  0.71691420  0.53304422  1.0
  Sc  Sc2  1  -0.28304422  1.21683075  0.53312768  1.0
  Sc  Sc3  1  -0.46691420  0.53312768  1.21683075  1.0
  Sc  Sc4  1  0.71691420  -0.28312768  1.03316925  1.0
  Sc  Sc5  1  0.53304422  0.03316925  -0.28312768  1.0
  Sc  Sc6  1  -0.46687232  0.53308580  0.71695578  1.0
  Sc  Sc7  1  0.21683075  0.71695578  0.53308580  1.0
  Sc  Sc8  1  0.03308129  0.03308264  1.71692221  1.0
  Sc  Sc9  1  0.21691386  0.71692221  1.03308264  1.0
  Sc  Sc10  1  0.21691736  0.21691871  1.03308614  1.0
  Sc  Sc11  1  0.53307779  0.03308614  1.21691871  1.0
  Sc  Sc12  1  0.71692221  0.21691386  1.03308129  1.0
  Sc  Sc13  1  0.03308264  0.03308129  1.21691386  1.0
  Sc  Sc14  1  0.03308614  0.53307779  1.21691736  1.0
  Sc  Sc15  1  0.21691871  0.21691736  1.53307779  1.0
  Se  Se16  1  -0.19459711  0.30540953  0.44457659  1.0
  Se  Se17  1  0.44461098  0.44457659  1.30540953  1.0
  Se  Se18  1  -0.05540953  0.44459711  0.80538902  1.0
  Se  Se19  1  -0.19457659  0.80538902  0.44459711  1.0
  Se  Se20  1  0.44457659  0.44461098  -0.19459711  1.0
  Se  Se21  1  0.30540953  -0.19459711  1.44461098  1.0
  Se  Se22  1  -0.19461098  0.80542341  0.94459047  1.0
  Se  Se23  1  -0.55540289  0.94459047  0.80542341  1.0
  Se  Se24  1  0.44450468  -0.05538917  1.30543760  1.0
  Se  Se25  1  0.30544689  0.30543760  -0.05538917  1.0
  Se  Se26  1  -0.69461083  0.80549532  0.94455311  1.0
  Se  Se27  1  -0.05543760  0.94455311  0.80549533  1.0
  Se  Se28  1  0.30543760  0.30544689  1.44450468  1.0
  Se  Se29  1  -0.05538917  0.44450468  0.30544689  1.0
  Se  Se30  1  -0.05544689  0.94456240  0.30538917  1.0
  Se  Se31  1  -0.19450468  0.30538917  0.94456240  1.0
