# generated using pymatgen
data_CsFeF4
_symmetry_space_group_name_H-M   'P 1'
_cell_length_a   6.62160140
_cell_length_b   7.96292260
_cell_length_c   8.02227231
_cell_angle_alpha   90.00000000
_cell_angle_beta   90.00000000
_cell_angle_gamma   90.00000000
_symmetry_Int_Tables_number   1
_chemical_formula_structural   CsFeF4
_chemical_formula_sum   'Cs4 Fe4 F16'
_cell_volume   422.99275439
_cell_formula_units_Z   4
loop_
 _symmetry_equiv_pos_site_id
 _symmetry_equiv_pos_as_xyz
  1  'x, y, z'
loop_
 _atom_site_type_symbol
 _atom_site_label
 _atom_site_symmetry_multiplicity
 _atom_site_fract_x
 _atom_site_fract_y
 _atom_site_fract_z
 _atom_site_occupancy
  Cs  Cs0  1  0.53520412  0.75900338  0.75000000  1.0
  Cs  Cs1  1  0.53520412  0.74099662  0.25000000  1.0
  Cs  Cs2  1  0.46479588  0.25900338  0.75000000  1.0
  Cs  Cs3  1  0.46479588  0.24099662  0.25000000  1.0
  Fe  Fe4  1  0.00000000  0.00000000  0.00000000  1.0
  Fe  Fe5  1  0.00000000  0.00000000  0.50000000  1.0
  Fe  Fe6  1  0.00000000  0.50000000  0.50000000  1.0
  Fe  Fe7  1  0.00000000  0.50000000  0.00000000  1.0
  F  F8  1  0.28174373  0.53830112  0.98186513  1.0
  F  F9  1  0.28174373  0.53830112  0.51813487  1.0
  F  F10  1  0.28174373  0.96169888  0.48186513  1.0
  F  F11  1  0.28174373  0.96169888  0.01813487  1.0
  F  F12  1  0.71825627  0.03830112  0.98186513  1.0
  F  F13  1  0.71825627  0.03830112  0.51813487  1.0
  F  F14  1  0.71825627  0.46169888  0.48186513  1.0
  F  F15  1  0.71825627  0.46169888  0.01813487  1.0
  F  F16  1  0.97120276  0.49611876  0.75000000  1.0
  F  F17  1  0.97120276  0.00388124  0.25000000  1.0
  F  F18  1  0.02879724  0.99611876  0.75000000  1.0
  F  F19  1  0.02879724  0.50388124  0.25000000  1.0
  F  F20  1  0.93756040  0.75000000  0.00000000  1.0
  F  F21  1  0.93756040  0.75000000  0.50000000  1.0
  F  F22  1  0.06243960  0.25000000  0.00000000  1.0
  F  F23  1  0.06243960  0.25000000  0.50000000  1.0
