# generated using pymatgen
data_Zn2InGaO5
_symmetry_space_group_name_H-M   'P 1'
_cell_length_a   3.33531220
_cell_length_b   3.33531220
_cell_length_c   22.76920906
_cell_angle_alpha   90.00000000
_cell_angle_beta   90.00000000
_cell_angle_gamma   120.00000000
_symmetry_Int_Tables_number   1
_chemical_formula_structural   Zn2InGaO5
_chemical_formula_sum   'Zn4 In2 Ga2 O10'
_cell_volume   219.35703192
_cell_formula_units_Z   2
loop_
 _symmetry_equiv_pos_site_id
 _symmetry_equiv_pos_as_xyz
  1  'x, y, z'
loop_
 _atom_site_type_symbol
 _atom_site_label
 _atom_site_symmetry_multiplicity
 _atom_site_fract_x
 _atom_site_fract_y
 _atom_site_fract_z
 _atom_site_occupancy
  Zn  Zn0  1  0.33333333  0.66666667  0.36498474  1.0
  Zn  Zn1  1  0.33333333  0.66666667  0.13501526  1.0
  Zn  Zn2  1  0.66666667  0.33333333  0.86498474  1.0
  Zn  Zn3  1  0.66666667  0.33333333  0.63501526  1.0
  In  In4  1  0.00000000  0.00000000  0.50000000  1.0
  In  In5  1  0.00000000  0.00000000  0.00000000  1.0
  Ga  Ga6  1  -0.00000000  -0.00000000  0.25000000  1.0
  Ga  Ga7  1  -0.00000000  -0.00000000  0.75000000  1.0
  O  O8  1  0.33333333  0.66666667  0.25000000  1.0
  O  O9  1  0.66666667  0.33333333  0.75000000  1.0
  O  O10  1  0.33333333  0.66666667  0.45178497  1.0
  O  O11  1  0.33333333  0.66666667  0.04821503  1.0
  O  O12  1  0.66666667  0.33333333  0.95178497  1.0
  O  O13  1  0.66666667  0.33333333  0.54821503  1.0
  O  O14  1  -0.00000000  -0.00000000  0.33784263  1.0
  O  O15  1  0.00000000  0.00000000  0.16215737  1.0
  O  O16  1  -0.00000000  0.00000000  0.83784263  1.0
  O  O17  1  0.00000000  0.00000000  0.66215737  1.0
