# generated using pymatgen
data_K2Ge(IO3)6
_symmetry_space_group_name_H-M   'P 1'
_cell_length_a   7.58621544
_cell_length_b   7.58621544
_cell_length_c   7.58621544
_cell_angle_alpha   96.63384094
_cell_angle_beta   96.63384094
_cell_angle_gamma   96.63384094
_symmetry_Int_Tables_number   1
_chemical_formula_structural   K2Ge(IO3)6
_chemical_formula_sum   'K2 Ge1 I6 O18'
_cell_volume   427.07492727
_cell_formula_units_Z   1
loop_
 _symmetry_equiv_pos_site_id
 _symmetry_equiv_pos_as_xyz
  1  'x, y, z'
loop_
 _atom_site_type_symbol
 _atom_site_label
 _atom_site_symmetry_multiplicity
 _atom_site_fract_x
 _atom_site_fract_y
 _atom_site_fract_z
 _atom_site_occupancy
  K  K0  1  0.67837894  0.67837894  0.67837894  1.0
  K  K1  1  0.32162106  0.32162106  0.32162106  1.0
  Ge  Ge2  1  -0.00000000  -0.00000000  -0.00000000  1.0
  I  I3  1  0.83499364  0.63487877  0.20506526  1.0
  I  I4  1  1.36512123  -0.20506526  0.16500636  1.0
  I  I5  1  0.79493474  0.16500636  0.36512123  1.0
  I  I6  1  1.16500636  0.36512123  -0.20506526  1.0
  I  I7  1  0.63487877  1.20506526  -0.16500636  1.0
  I  I8  1  1.20506526  0.83499364  -0.36512123  1.0
  O  O9  1  0.81478788  0.82460529  0.05039269  1.0
  O  O10  1  1.17539471  -0.05039269  0.18521212  1.0
  O  O11  1  0.94960731  0.18521212  0.17539471  1.0
  O  O12  1  1.18521212  0.17539471  -0.05039269  1.0
  O  O13  1  0.82460529  1.05039269  -0.18521212  1.0
  O  O14  1  1.05039269  0.81478788  -0.17539471  1.0
  O  O15  1  0.58308820  0.58741477  0.18656370  1.0
  O  O16  1  1.41258523  -0.18656370  0.41691180  1.0
  O  O17  1  0.81343630  0.41691180  0.41258523  1.0
  O  O18  1  1.41691180  0.41258523  -0.18656370  1.0
  O  O19  1  0.58741477  1.18656370  -0.41691180  1.0
  O  O20  1  1.18656370  0.58308820  -0.41258523  1.0
  O  O21  1  1.41940542  0.88958876  -0.20504087  1.0
  O  O22  1  1.11041124  0.20504087  -0.41940542  1.0
  O  O23  1  1.20504087  -0.41940542  0.11041124  1.0
  O  O24  1  0.58059458  0.11041124  0.20504087  1.0
  O  O25  1  0.88958876  0.79495913  0.41940542  1.0
  O  O26  1  0.79495913  1.41940542  -0.11041124  1.0
