# generated using pymatgen
data_La8GaPd24
_symmetry_space_group_name_H-M   'P 1'
_cell_length_a   8.55837917
_cell_length_b   8.55837917
_cell_length_c   8.55837917
_cell_angle_alpha   90.00000000
_cell_angle_beta   90.00000000
_cell_angle_gamma   90.00000000
_symmetry_Int_Tables_number   1
_chemical_formula_structural   La8GaPd24
_chemical_formula_sum   'La8 Ga1 Pd24'
_cell_volume   626.86579186
_cell_formula_units_Z   1
loop_
 _symmetry_equiv_pos_site_id
 _symmetry_equiv_pos_as_xyz
  1  'x, y, z'
loop_
 _atom_site_type_symbol
 _atom_site_label
 _atom_site_symmetry_multiplicity
 _atom_site_fract_x
 _atom_site_fract_y
 _atom_site_fract_z
 _atom_site_occupancy
  La  La0  1  0.74840175  0.74840175  0.74840175  1.0
  La  La1  1  0.74840175  0.74840175  0.25159825  1.0
  La  La2  1  0.74840175  0.25159825  0.74840175  1.0
  La  La3  1  0.74840175  0.25159825  0.25159825  1.0
  La  La4  1  0.25159825  0.74840175  0.74840175  1.0
  La  La5  1  0.25159825  0.74840175  0.25159825  1.0
  La  La6  1  0.25159825  0.25159825  0.74840175  1.0
  La  La7  1  0.25159825  0.25159825  0.25159825  1.0
  Ga  Ga8  1  0.00000000  0.00000000  0.00000000  1.0
  Pd  Pd9  1  0.73823347  0.50000000  0.00000000  1.0
  Pd  Pd10  1  0.73823347  0.00000000  0.50000000  1.0
  Pd  Pd11  1  0.50000000  0.73823347  0.00000000  1.0
  Pd  Pd12  1  0.50000000  0.00000000  0.73823347  1.0
  Pd  Pd13  1  0.50000000  0.00000000  0.26176653  1.0
  Pd  Pd14  1  0.50000000  0.26176653  0.00000000  1.0
  Pd  Pd15  1  0.00000000  0.73823347  0.50000000  1.0
  Pd  Pd16  1  0.00000000  0.50000000  0.73823347  1.0
  Pd  Pd17  1  0.00000000  0.50000000  0.26176653  1.0
  Pd  Pd18  1  0.00000000  0.26176653  0.50000000  1.0
  Pd  Pd19  1  0.26176653  0.50000000  0.00000000  1.0
  Pd  Pd20  1  0.26176653  0.00000000  0.50000000  1.0
  Pd  Pd21  1  0.74597992  0.50000000  0.50000000  1.0
  Pd  Pd22  1  0.50000000  0.74597992  0.50000000  1.0
  Pd  Pd23  1  0.50000000  0.50000000  0.74597992  1.0
  Pd  Pd24  1  0.50000000  0.50000000  0.25402008  1.0
  Pd  Pd25  1  0.50000000  0.25402008  0.50000000  1.0
  Pd  Pd26  1  0.25402008  0.50000000  0.50000000  1.0
  Pd  Pd27  1  0.70427810  0.00000000  0.00000000  1.0
  Pd  Pd28  1  0.00000000  0.70427810  0.00000000  1.0
  Pd  Pd29  1  0.00000000  0.00000000  0.70427810  1.0
  Pd  Pd30  1  0.00000000  0.00000000  0.29572190  1.0
  Pd  Pd31  1  0.00000000  0.29572190  0.00000000  1.0
  Pd  Pd32  1  0.29572190  0.00000000  0.00000000  1.0
