# generated using pymatgen
data_Gd6Co2Sn
_symmetry_space_group_name_H-M   'P 1'
_cell_length_a   8.47901401
_cell_length_b   8.47901401
_cell_length_c   8.47901401
_cell_angle_alpha   112.31448029
_cell_angle_beta   109.68383773
_cell_angle_gamma   106.46803349
_symmetry_Int_Tables_number   1
_chemical_formula_structural   Gd6Co2Sn
_chemical_formula_sum   'Gd12 Co4 Sn2'
_cell_volume   468.03900987
_cell_formula_units_Z   2
loop_
 _symmetry_equiv_pos_site_id
 _symmetry_equiv_pos_as_xyz
  1  'x, y, z'
loop_
 _atom_site_type_symbol
 _atom_site_label
 _atom_site_symmetry_multiplicity
 _atom_site_fract_x
 _atom_site_fract_y
 _atom_site_fract_z
 _atom_site_occupancy
  Gd  Gd0  1  0.55917806  0.76516577  0.79401229  1.0
  Gd  Gd1  1  1.02884651  1.23483423  0.79401229  1.0
  Gd  Gd2  1  0.97115349  0.76516577  0.20598771  1.0
  Gd  Gd3  1  0.44082194  0.23483423  0.20598771  1.0
  Gd  Gd4  1  0.81480601  0.71413389  0.52893990  1.0
  Gd  Gd5  1  0.18519399  0.71413389  0.89932788  1.0
  Gd  Gd6  1  0.81480601  1.28586611  1.10067212  1.0
  Gd  Gd7  1  0.18519399  0.28586611  0.47106010  1.0
  Gd  Gd8  1  0.67591252  0.36128683  0.68537431  1.0
  Gd  Gd9  1  1.32408748  1.00946178  0.68537431  1.0
  Gd  Gd10  1  0.67591252  0.99053822  0.31462569  1.0
  Gd  Gd11  1  0.32408748  0.63871317  0.31462569  1.0
  Co  Co12  1  0.65751291  0.00000000  0.65751291  1.0
  Co  Co13  1  0.34248709  0.00000000  0.34248709  1.0
  Co  Co14  1  0.88878228  1.38878228  0.50000000  1.0
  Co  Co15  1  1.11121772  0.61121772  0.50000000  1.0
  Sn  Sn16  1  0.00000000  0.00000000  0.00000000  1.0
  Sn  Sn17  1  0.50000000  0.50000000  -0.00000000  1.0
