# generated using pymatgen
data_SrFe3P3O13
_symmetry_space_group_name_H-M   'P 1'
_cell_length_a   7.75399066
_cell_length_b   6.46376029
_cell_length_c   10.44837848
_cell_angle_alpha   90.00000000
_cell_angle_beta   99.17537975
_cell_angle_gamma   90.00000000
_symmetry_Int_Tables_number   1
_chemical_formula_structural   SrFe3P3O13
_chemical_formula_sum   'Sr2 Fe6 P6 O26'
_cell_volume   516.97162077
_cell_formula_units_Z   2
loop_
 _symmetry_equiv_pos_site_id
 _symmetry_equiv_pos_as_xyz
  1  'x, y, z'
loop_
 _atom_site_type_symbol
 _atom_site_label
 _atom_site_symmetry_multiplicity
 _atom_site_fract_x
 _atom_site_fract_y
 _atom_site_fract_z
 _atom_site_occupancy
  Fe  Fe0  1  0.20835687  0.25000000  0.55832198  1.0
  Fe  Fe1  1  0.79164313  0.75000000  0.44167802  1.0
  Fe  Fe2  1  0.65295730  0.25000000  0.80135072  1.0
  Fe  Fe3  1  0.34704270  0.75000000  0.19864928  1.0
  Fe  Fe4  1  0.00000000  0.50000000  0.00000000  1.0
  Fe  Fe5  1  0.00000000  0.00000000  0.00000000  1.0
  O  O6  1  0.20851185  0.44767167  0.90774736  1.0
  O  O7  1  0.20851185  0.05232833  0.90774736  1.0
  O  O8  1  0.79148815  0.94767167  0.09225264  1.0
  O  O9  1  0.79148815  0.55232833  0.09225264  1.0
  O  O10  1  0.87724265  0.25000000  0.91065289  1.0
  O  O11  1  0.12275735  0.75000000  0.08934711  1.0
  O  O12  1  0.97686154  0.25000000  0.59088790  1.0
  O  O13  1  0.02313846  0.75000000  0.40911210  1.0
  O  O14  1  0.08006576  0.25000000  0.13362118  1.0
  O  O15  1  0.91993424  0.75000000  0.86637882  1.0
  O  O16  1  0.65843028  0.25000000  0.61522968  1.0
  O  O17  1  0.34156972  0.75000000  0.38477032  1.0
  O  O18  1  0.34801378  0.25000000  0.73863061  1.0
  O  O19  1  0.65198622  0.75000000  0.26136939  1.0
  O  O20  1  0.20153486  0.25000000  0.37299467  1.0
  O  O21  1  0.79846514  0.75000000  0.62700533  1.0
  O  O22  1  0.75290028  0.44010662  0.42361655  1.0
  O  O23  1  0.75290028  0.05989338  0.42361655  1.0
  O  O24  1  0.24709972  0.94010662  0.57638345  1.0
  O  O25  1  0.24709972  0.55989338  0.57638345  1.0
  O  O26  1  0.50176006  0.25000000  0.95759541  1.0
  O  O27  1  0.49823994  0.75000000  0.04240459  1.0
  O  O28  1  0.63246086  0.93869117  0.78830415  1.0
  O  O29  1  0.63246086  0.56130883  0.78830415  1.0
  O  O30  1  0.36753914  0.43869117  0.21169585  1.0
  O  O31  1  0.36753914  0.06130883  0.21169585  1.0
  Sr  Sr32  1  0.66139652  0.25000000  0.19952515  1.0
  Sr  Sr33  1  0.33860348  0.75000000  0.80047485  1.0
  P  P34  1  0.78545839  0.25000000  0.51683403  1.0
  P  P35  1  0.21454161  0.75000000  0.48316597  1.0
  P  P36  1  0.31204218  0.25000000  0.88228011  1.0
  P  P37  1  0.68795782  0.75000000  0.11771989  1.0
  P  P38  1  0.25380130  0.25000000  0.23669995  1.0
  P  P39  1  0.74619870  0.75000000  0.76330005  1.0
