# generated using pymatgen
data_AlBiBr6
_symmetry_space_group_name_H-M   'P 1'
_cell_length_a   10.00264280
_cell_length_b   8.36307430
_cell_length_c   8.11478530
_cell_angle_alpha   97.04843721
_cell_angle_beta   105.51256988
_cell_angle_gamma   102.06310272
_symmetry_Int_Tables_number   1
_chemical_formula_structural   AlBiBr6
_chemical_formula_sum   'Al2 Bi2 Br12'
_cell_volume   628.05778558
_cell_formula_units_Z   2
loop_
 _symmetry_equiv_pos_site_id
 _symmetry_equiv_pos_as_xyz
  1  'x, y, z'
loop_
 _atom_site_type_symbol
 _atom_site_label
 _atom_site_symmetry_multiplicity
 _atom_site_fract_x
 _atom_site_fract_y
 _atom_site_fract_z
 _atom_site_occupancy
  Al  Al0  1  0.14763885  0.70092996  0.81217961  1.0
  Al  Al1  1  0.85236115  0.29907004  0.18782039  1.0
  Bi  Bi2  1  0.70573567  0.51755877  0.69277228  1.0
  Bi  Bi3  1  0.29426433  0.48244123  0.30722772  1.0
  Br  Br4  1  0.95604817  0.83147346  0.75831794  1.0
  Br  Br5  1  0.04395183  0.16852654  0.24168206  1.0
  Br  Br6  1  0.29615462  0.78666710  0.64814719  1.0
  Br  Br7  1  0.70384538  0.21333290  0.35185281  1.0
  Br  Br8  1  0.64354941  0.68526008  0.94200824  1.0
  Br  Br9  1  0.35645059  0.31473992  0.05799176  1.0
  Br  Br10  1  0.58540914  0.69141225  0.43317008  1.0
  Br  Br11  1  0.41459086  0.30858775  0.56682992  1.0
  Br  Br12  1  0.96523068  0.57959112  0.25129963  1.0
  Br  Br13  1  0.03476932  0.42040888  0.74870037  1.0
  Br  Br14  1  0.71465847  0.21309627  0.89186610  1.0
  Br  Br15  1  0.28534153  0.78690373  0.10813390  1.0
