# generated using pymatgen
data_Gd(ClO4)3
_symmetry_space_group_name_H-M   'P 1'
_cell_length_a   9.87316550
_cell_length_b   9.87316550
_cell_length_c   5.62497596
_cell_angle_alpha   90.00000000
_cell_angle_beta   90.00000000
_cell_angle_gamma   120.00000000
_symmetry_Int_Tables_number   1
_chemical_formula_structural   Gd(ClO4)3
_chemical_formula_sum   'Gd2 Cl6 O24'
_cell_volume   474.85841258
_cell_formula_units_Z   2
loop_
 _symmetry_equiv_pos_site_id
 _symmetry_equiv_pos_as_xyz
  1  'x, y, z'
loop_
 _atom_site_type_symbol
 _atom_site_label
 _atom_site_symmetry_multiplicity
 _atom_site_fract_x
 _atom_site_fract_y
 _atom_site_fract_z
 _atom_site_occupancy
  Gd  Gd0  1  0.66666667  0.33333333  0.25000000  1.0
  Gd  Gd1  1  0.33333333  0.66666667  0.75000000  1.0
  Cl  Cl2  1  0.29952174  0.90394982  0.25000000  1.0
  Cl  Cl3  1  0.90394982  0.60442808  0.75000000  1.0
  Cl  Cl4  1  0.60442808  0.70047826  0.25000000  1.0
  Cl  Cl5  1  0.09605018  0.39557192  0.25000000  1.0
  Cl  Cl6  1  0.70047826  0.09605018  0.75000000  1.0
  Cl  Cl7  1  0.39557192  0.29952174  0.75000000  1.0
  O  O8  1  0.35019438  0.85079481  0.46148415  1.0
  O  O9  1  0.35019438  0.85079481  0.03851585  1.0
  O  O10  1  0.85079481  0.50060044  0.96148415  1.0
  O  O11  1  0.85079481  0.50060044  0.53851585  1.0
  O  O12  1  0.50060044  0.64980562  0.46148415  1.0
  O  O13  1  0.50060044  0.64980562  0.03851585  1.0
  O  O14  1  0.14920519  0.49939956  0.46148415  1.0
  O  O15  1  0.14920519  0.49939956  0.03851585  1.0
  O  O16  1  0.64980562  0.14920519  0.96148415  1.0
  O  O17  1  0.64980562  0.14920519  0.53851585  1.0
  O  O18  1  0.49939956  0.35019438  0.96148415  1.0
  O  O19  1  0.49939956  0.35019438  0.53851585  1.0
  O  O20  1  0.13441189  0.84309279  0.25000000  1.0
  O  O21  1  0.84309279  0.70868090  0.75000000  1.0
  O  O22  1  0.70868090  0.86558811  0.25000000  1.0
  O  O23  1  0.15690721  0.29131910  0.25000000  1.0
  O  O24  1  0.86558811  0.15690721  0.75000000  1.0
  O  O25  1  0.29131910  0.13441189  0.75000000  1.0
  O  O26  1  0.68983985  0.61537479  0.25000000  1.0
  O  O27  1  0.61537479  0.92553493  0.75000000  1.0
  O  O28  1  0.92553493  0.31016015  0.25000000  1.0
  O  O29  1  0.38462521  0.07446507  0.25000000  1.0
  O  O30  1  0.31016015  0.38462521  0.75000000  1.0
  O  O31  1  0.07446507  0.68983985  0.75000000  1.0
