# generated using pymatgen
data_Na(GdSn)4
_symmetry_space_group_name_H-M   'P 1'
_cell_length_a   7.81265514
_cell_length_b   15.82934896
_cell_length_c   8.34701201
_cell_angle_alpha   90.00000000
_cell_angle_beta   90.00000000
_cell_angle_gamma   90.00000000
_symmetry_Int_Tables_number   1
_chemical_formula_structural   Na(GdSn)4
_chemical_formula_sum   'Na4 Gd16 Sn16'
_cell_volume   1032.26867014
_cell_formula_units_Z   4
loop_
 _symmetry_equiv_pos_site_id
 _symmetry_equiv_pos_as_xyz
  1  'x, y, z'
loop_
 _atom_site_type_symbol
 _atom_site_label
 _atom_site_symmetry_multiplicity
 _atom_site_fract_x
 _atom_site_fract_y
 _atom_site_fract_z
 _atom_site_occupancy
  Na  Na0  1  0.34160934  0.25000000  0.00465571  1.0
  Na  Na1  1  0.84160934  0.25000000  0.49534429  1.0
  Na  Na2  1  0.65839066  0.75000000  0.99534429  1.0
  Na  Na3  1  0.15839066  0.75000000  0.50465571  1.0
  Gd  Gd4  1  0.49513870  0.90512576  0.68551664  1.0
  Gd  Gd5  1  0.49513870  0.59487424  0.68551664  1.0
  Gd  Gd6  1  0.99513870  0.90512576  0.81448336  1.0
  Gd  Gd7  1  0.99513870  0.59487424  0.81448336  1.0
  Gd  Gd8  1  0.50486130  0.40512576  0.31448336  1.0
  Gd  Gd9  1  0.50486130  0.09487424  0.31448336  1.0
  Gd  Gd10  1  0.00486130  0.40512576  0.18551664  1.0
  Gd  Gd11  1  0.00486130  0.09487424  0.18551664  1.0
  Gd  Gd12  1  0.16595702  0.37341990  0.67110199  1.0
  Gd  Gd13  1  0.16595702  0.12658010  0.67110199  1.0
  Gd  Gd14  1  0.66595702  0.37341990  0.82889801  1.0
  Gd  Gd15  1  0.66595702  0.12658010  0.82889801  1.0
  Gd  Gd16  1  0.83404298  0.87341990  0.32889801  1.0
  Gd  Gd17  1  0.83404298  0.62658010  0.32889801  1.0
  Gd  Gd18  1  0.33404298  0.87341990  0.17110199  1.0
  Gd  Gd19  1  0.33404298  0.62658010  0.17110199  1.0
  Sn  Sn20  1  0.32365778  0.46278195  0.96351094  1.0
  Sn  Sn21  1  0.32365778  0.03721805  0.96351094  1.0
  Sn  Sn22  1  0.82365778  0.46278195  0.53648906  1.0
  Sn  Sn23  1  0.82365778  0.03721805  0.53648906  1.0
  Sn  Sn24  1  0.67634222  0.96278195  0.03648906  1.0
  Sn  Sn25  1  0.67634222  0.53721805  0.03648906  1.0
  Sn  Sn26  1  0.17634222  0.96278195  0.46351094  1.0
  Sn  Sn27  1  0.17634222  0.53721805  0.46351094  1.0
  Sn  Sn28  1  0.47388840  0.25000000  0.59690240  1.0
  Sn  Sn29  1  0.97388840  0.25000000  0.90309760  1.0
  Sn  Sn30  1  0.52611160  0.75000000  0.40309760  1.0
  Sn  Sn31  1  0.02611160  0.75000000  0.09690240  1.0
  Sn  Sn32  1  0.20846134  0.25000000  0.35586595  1.0
  Sn  Sn33  1  0.70846134  0.25000000  0.14413405  1.0
  Sn  Sn34  1  0.79153866  0.75000000  0.64413405  1.0
  Sn  Sn35  1  0.29153866  0.75000000  0.85586595  1.0
