# generated using pymatgen
data_GaGe(MoS2)4
_symmetry_space_group_name_H-M   'P 1'
_cell_length_a   7.49346708
_cell_length_b   7.49346708
_cell_length_c   7.49346708
_cell_angle_alpha   60.00000000
_cell_angle_beta   60.00000000
_cell_angle_gamma   60.00000000
_symmetry_Int_Tables_number   1
_chemical_formula_structural   GaGe(MoS2)4
_chemical_formula_sum   'Ga1 Ge1 Mo4 S8'
_cell_volume   297.53181649
_cell_formula_units_Z   1
loop_
 _symmetry_equiv_pos_site_id
 _symmetry_equiv_pos_as_xyz
  1  'x, y, z'
loop_
 _atom_site_type_symbol
 _atom_site_label
 _atom_site_symmetry_multiplicity
 _atom_site_fract_x
 _atom_site_fract_y
 _atom_site_fract_z
 _atom_site_occupancy
  Ga  Ga0  1  0.00000000  0.00000000  -0.00000000  1.0
  Ge  Ge1  1  0.75000000  0.75000000  -0.25000000  1.0
  Mo  Mo2  1  -0.40668002  0.59331998  0.59331998  1.0
  Mo  Mo3  1  1.22004006  0.59331998  -0.40668002  1.0
  Mo  Mo4  1  -0.40668002  0.59331998  1.22004006  1.0
  Mo  Mo5  1  0.59331998  1.22004006  -0.40668002  1.0
  S  S6  1  0.87287222  0.87287222  -0.12712778  1.0
  S  S7  1  0.38138335  0.87287222  -0.12712778  1.0
  S  S8  1  0.87287222  0.87287222  -0.61861665  1.0
  S  S9  1  0.87287222  0.38138335  -0.12712778  1.0
  S  S10  1  0.37567349  1.37567349  0.37567349  1.0
  S  S11  1  -0.12702046  0.37567349  0.37567349  1.0
  S  S12  1  0.37567349  1.37567349  -0.12702046  1.0
  S  S13  1  0.37567349  -0.12702046  0.37567349  1.0
