# generated using pymatgen
data_Y2V2O7
_symmetry_space_group_name_H-M   'P 1'
_cell_length_a   7.07341751
_cell_length_b   7.07341751
_cell_length_c   7.07341751
_cell_angle_alpha   60.00000000
_cell_angle_beta   60.00000000
_cell_angle_gamma   60.00000000
_symmetry_Int_Tables_number   1
_chemical_formula_structural   Y2V2O7
_chemical_formula_sum   'Y4 V4 O14'
_cell_volume   250.24930554
_cell_formula_units_Z   2
loop_
 _symmetry_equiv_pos_site_id
 _symmetry_equiv_pos_as_xyz
  1  'x, y, z'
loop_
 _atom_site_type_symbol
 _atom_site_label
 _atom_site_symmetry_multiplicity
 _atom_site_fract_x
 _atom_site_fract_y
 _atom_site_fract_z
 _atom_site_occupancy
  Y  Y0  1  1.12500000  0.62500000  0.62500000  1.0
  Y  Y1  1  0.62500000  1.12500000  -0.37500000  1.0
  Y  Y2  1  -0.37500000  0.62500000  1.12500000  1.0
  Y  Y3  1  -0.37500000  0.62500000  0.62500000  1.0
  O  O4  1  0.76689557  0.76689557  -0.76689557  1.0
  O  O5  1  0.23310443  1.23310443  -0.23310443  1.0
  O  O6  1  0.76689557  -0.76689557  0.76689557  1.0
  O  O7  1  0.23310443  -0.23310443  0.23310443  1.0
  O  O8  1  -0.76689557  0.76689557  0.76689557  1.0
  O  O9  1  -0.23310443  0.23310443  0.23310443  1.0
  O  O10  1  0.48310443  1.48310443  0.01689557  1.0
  O  O11  1  0.01689557  0.01689557  0.48310443  1.0
  O  O12  1  0.48310443  1.01689557  0.48310443  1.0
  O  O13  1  0.01689557  1.48310443  0.01689557  1.0
  O  O14  1  0.01689557  1.48310443  0.48310443  1.0
  O  O15  1  0.48310443  1.01689557  0.01689557  1.0
  O  O16  1  0.25000000  1.25000000  0.25000000  1.0
  O  O17  1  -0.00000000  -0.00000000  -0.00000000  1.0
  V  V18  1  0.62500000  1.12500000  0.12500000  1.0
  V  V19  1  0.12500000  1.62500000  0.12500000  1.0
  V  V20  1  0.12500000  0.12500000  1.62500000  1.0
  V  V21  1  0.12500000  0.12500000  0.12500000  1.0
