# generated using pymatgen
data_Y2Ga2Fe15
_symmetry_space_group_name_H-M   'P 1'
_cell_length_a   6.38234959
_cell_length_b   6.38234959
_cell_length_c   6.38234959
_cell_angle_alpha   82.31591120
_cell_angle_beta   82.31591120
_cell_angle_gamma   82.31591120
_symmetry_Int_Tables_number   1
_chemical_formula_structural   Y2Ga2Fe15
_chemical_formula_sum   'Y2 Ga2 Fe15'
_cell_volume   253.55091896
_cell_formula_units_Z   1
loop_
 _symmetry_equiv_pos_site_id
 _symmetry_equiv_pos_as_xyz
  1  'x, y, z'
loop_
 _atom_site_type_symbol
 _atom_site_label
 _atom_site_symmetry_multiplicity
 _atom_site_fract_x
 _atom_site_fract_y
 _atom_site_fract_z
 _atom_site_occupancy
  Y  Y0  1  0.65340883  0.65340883  -0.34659117  1.0
  Y  Y1  1  1.34659117  1.34659117  0.34659117  1.0
  Ga  Ga2  1  0.89789158  0.89789158  -0.10210842  1.0
  Ga  Ga3  1  1.10210842  1.10210842  0.10210842  1.0
  Fe  Fe4  1  1.00000000  0.00000000  -0.50000000  1.0
  Fe  Fe5  1  1.00000000  -0.50000000  0.00000000  1.0
  Fe  Fe6  1  1.50000000  1.00000000  0.00000000  1.0
  Fe  Fe7  1  0.30525031  -0.30525031  0.00000000  1.0
  Fe  Fe8  1  0.69474969  0.00000000  -0.69474969  1.0
  Fe  Fe9  1  1.00000000  0.30525031  -0.30525031  1.0
  Fe  Fe10  1  0.30525031  0.00000000  -0.30525031  1.0
  Fe  Fe11  1  1.00000000  -0.30525031  0.30525031  1.0
  Fe  Fe12  1  0.69474969  -0.69474969  0.00000000  1.0
  Fe  Fe13  1  0.34062112  0.34062112  -0.15955563  1.0
  Fe  Fe14  1  0.34062112  0.84044437  -0.65937888  1.0
  Fe  Fe15  1  0.84044437  0.34062112  -0.65937888  1.0
  Fe  Fe16  1  0.65937888  -0.34062112  0.15955563  1.0
  Fe  Fe17  1  0.65937888  0.15955563  -0.34062112  1.0
  Fe  Fe18  1  0.15955563  0.65937888  -0.34062112  1.0
