# generated using pymatgen
data_K3BiSe3
_symmetry_space_group_name_H-M   'P 1'
_cell_length_a   9.94357985
_cell_length_b   9.94357985
_cell_length_c   9.94357985
_cell_angle_alpha   90.00000000
_cell_angle_beta   90.00000000
_cell_angle_gamma   90.00000000
_symmetry_Int_Tables_number   1
_chemical_formula_structural   K3BiSe3
_chemical_formula_sum   'K12 Bi4 Se12'
_cell_volume   983.16927243
_cell_formula_units_Z   4
loop_
 _symmetry_equiv_pos_site_id
 _symmetry_equiv_pos_as_xyz
  1  'x, y, z'
loop_
 _atom_site_type_symbol
 _atom_site_label
 _atom_site_symmetry_multiplicity
 _atom_site_fract_x
 _atom_site_fract_y
 _atom_site_fract_z
 _atom_site_occupancy
  K  K0  1  0.43705655  0.93705655  0.56294345  1.0
  K  K1  1  0.93705655  0.56294345  0.43705655  1.0
  K  K2  1  0.56294345  0.43705655  0.93705655  1.0
  K  K3  1  0.06294345  0.06294345  0.06294345  1.0
  K  K4  1  0.92879147  0.42879147  0.07120853  1.0
  K  K5  1  0.42879147  0.07120853  0.92879147  1.0
  K  K6  1  0.07120853  0.92879147  0.42879147  1.0
  K  K7  1  0.57120853  0.57120853  0.57120853  1.0
  K  K8  1  0.67642564  0.17642564  0.32357436  1.0
  K  K9  1  0.17642564  0.32357436  0.67642564  1.0
  K  K10  1  0.32357436  0.67642564  0.17642564  1.0
  K  K11  1  0.82357436  0.82357436  0.82357436  1.0
  Bi  Bi12  1  0.21704727  0.71704727  0.78295273  1.0
  Bi  Bi13  1  0.71704727  0.78295273  0.21704727  1.0
  Bi  Bi14  1  0.78295273  0.21704727  0.71704727  1.0
  Bi  Bi15  1  0.28295273  0.28295273  0.28295273  1.0
  Se  Se16  1  0.47522477  0.74903898  0.86009372  1.0
  Se  Se17  1  0.97522477  0.75096102  0.13990628  1.0
  Se  Se18  1  0.24903898  0.63990628  0.52477523  1.0
  Se  Se19  1  0.74903898  0.86009372  0.47522477  1.0
  Se  Se20  1  0.13990628  0.97522477  0.75096102  1.0
  Se  Se21  1  0.63990628  0.52477523  0.24903898  1.0
  Se  Se22  1  0.52477523  0.24903898  0.63990628  1.0
  Se  Se23  1  0.02477523  0.25096102  0.36009372  1.0
  Se  Se24  1  0.75096102  0.13990628  0.97522477  1.0
  Se  Se25  1  0.25096102  0.36009372  0.02477523  1.0
  Se  Se26  1  0.86009372  0.47522477  0.74903898  1.0
  Se  Se27  1  0.36009372  0.02477523  0.25096102  1.0
