# generated using pymatgen
data_ZrPd
_symmetry_space_group_name_H-M   'P 1'
_cell_length_a   5.47231436
_cell_length_b   5.47231436
_cell_length_c   4.37358994
_cell_angle_alpha   90.00000000
_cell_angle_beta   90.00000000
_cell_angle_gamma   144.10354248
_symmetry_Int_Tables_number   1
_chemical_formula_structural   ZrPd
_chemical_formula_sum   'Zr2 Pd2'
_cell_volume   76.79209736
_cell_formula_units_Z   2
loop_
 _symmetry_equiv_pos_site_id
 _symmetry_equiv_pos_as_xyz
  1  'x, y, z'
loop_
 _atom_site_type_symbol
 _atom_site_label
 _atom_site_symmetry_multiplicity
 _atom_site_fract_x
 _atom_site_fract_y
 _atom_site_fract_z
 _atom_site_occupancy
  Zr  Zr0  1  -0.64177467  0.64177467  0.25000000  1.0
  Zr  Zr1  1  -0.35822533  1.35822533  0.75000000  1.0
  Pd  Pd2  1  -0.91131180  0.91131180  0.25000000  1.0
  Pd  Pd3  1  -0.08868820  1.08868820  0.75000000  1.0
