# generated using pymatgen
data_Hf6Ga16Co7
_symmetry_space_group_name_H-M   'P 1'
_cell_length_a   8.49643140
_cell_length_b   8.49643140
_cell_length_c   8.49643140
_cell_angle_alpha   60.00000000
_cell_angle_beta   60.00000000
_cell_angle_gamma   60.00000000
_symmetry_Int_Tables_number   1
_chemical_formula_structural   Hf6Ga16Co7
_chemical_formula_sum   'Hf6 Ga16 Co7'
_cell_volume   433.70523795
_cell_formula_units_Z   1
loop_
 _symmetry_equiv_pos_site_id
 _symmetry_equiv_pos_as_xyz
  1  'x, y, z'
loop_
 _atom_site_type_symbol
 _atom_site_label
 _atom_site_symmetry_multiplicity
 _atom_site_fract_x
 _atom_site_fract_y
 _atom_site_fract_z
 _atom_site_occupancy
  Ga  Ga0  1  0.87912126  0.87912126  -0.12087874  1.0
  Ga  Ga1  1  1.12087874  0.12087874  0.63736378  1.0
  Ga  Ga2  1  1.12087874  0.63736378  0.12087874  1.0
  Ga  Ga3  1  0.36263622  0.87912126  -0.12087874  1.0
  Ga  Ga4  1  1.63736378  0.12087874  0.12087874  1.0
  Ga  Ga5  1  0.87912126  0.36263622  -0.12087874  1.0
  Ga  Ga6  1  0.87912126  0.87912126  -0.63736378  1.0
  Ga  Ga7  1  1.12087874  0.12087874  0.12087874  1.0
  Ga  Ga8  1  0.65914906  0.65914906  -0.34085094  1.0
  Ga  Ga9  1  1.34085094  0.34085094  -0.02255282  1.0
  Ga  Ga10  1  1.34085094  -0.02255282  0.34085094  1.0
  Ga  Ga11  1  1.02255282  0.65914906  -0.34085094  1.0
  Ga  Ga12  1  0.97744718  0.34085094  0.34085094  1.0
  Ga  Ga13  1  0.65914906  1.02255282  -0.34085094  1.0
  Ga  Ga14  1  0.65914906  0.65914906  0.02255282  1.0
  Ga  Ga15  1  1.34085094  0.34085094  0.34085094  1.0
  Co  Co16  1  1.50000000  0.00000000  -0.00000000  1.0
  Co  Co17  1  1.00000000  0.50000000  -0.50000000  1.0
  Co  Co18  1  0.00000000  1.50000000  -0.00000000  1.0
  Co  Co19  1  0.50000000  1.00000000  -0.50000000  1.0
  Co  Co20  1  0.00000000  0.00000000  0.50000000  1.0
  Co  Co21  1  0.50000000  -0.50000000  1.00000000  1.0
  Co  Co22  1  0.00000000  0.00000000  -0.00000000  1.0
  Hf  Hf23  1  -0.69538162  0.69538162  0.69538162  1.0
  Hf  Hf24  1  -0.30461838  0.30461838  0.69538162  1.0
  Hf  Hf25  1  0.69538162  0.69538162  -0.69538162  1.0
  Hf  Hf26  1  0.30461838  1.30461838  -0.30461838  1.0
  Hf  Hf27  1  0.30461838  -0.30461838  1.30461838  1.0
  Hf  Hf28  1  -0.30461838  0.30461838  0.30461838  1.0
