# generated using pymatgen
data_Sc3P2
_symmetry_space_group_name_H-M   'P 1'
_cell_length_a   6.92702099
_cell_length_b   3.78284026
_cell_length_c   14.42640158
_cell_angle_alpha   90.00000000
_cell_angle_beta   90.00000000
_cell_angle_gamma   90.00000000
_symmetry_Int_Tables_number   1
_chemical_formula_structural   Sc3P2
_chemical_formula_sum   'Sc12 P8'
_cell_volume   378.02674198
_cell_formula_units_Z   4
loop_
 _symmetry_equiv_pos_site_id
 _symmetry_equiv_pos_as_xyz
  1  'x, y, z'
loop_
 _atom_site_type_symbol
 _atom_site_label
 _atom_site_symmetry_multiplicity
 _atom_site_fract_x
 _atom_site_fract_y
 _atom_site_fract_z
 _atom_site_occupancy
  Sc  Sc0  1  0.99157381  0.75000000  0.60408389  1.0
  Sc  Sc1  1  0.49157381  0.75000000  0.89591611  1.0
  Sc  Sc2  1  0.00842619  0.25000000  0.39591611  1.0
  Sc  Sc3  1  0.50842619  0.25000000  0.10408389  1.0
  Sc  Sc4  1  0.83823832  0.75000000  0.22259868  1.0
  Sc  Sc5  1  0.33823832  0.75000000  0.27740132  1.0
  Sc  Sc6  1  0.16176168  0.25000000  0.77740132  1.0
  Sc  Sc7  1  0.66176168  0.25000000  0.72259868  1.0
  Sc  Sc8  1  0.63450312  0.75000000  0.43223468  1.0
  Sc  Sc9  1  0.13450312  0.75000000  0.06776532  1.0
  Sc  Sc10  1  0.36549688  0.25000000  0.56776532  1.0
  Sc  Sc11  1  0.86549688  0.25000000  0.93223468  1.0
  P  P12  1  0.87018965  0.75000000  0.79505229  1.0
  P  P13  1  0.37018965  0.75000000  0.70494771  1.0
  P  P14  1  0.12981035  0.25000000  0.20494771  1.0
  P  P15  1  0.62981035  0.25000000  0.29505229  1.0
  P  P16  1  0.74156245  0.75000000  0.04188592  1.0
  P  P17  1  0.24156245  0.75000000  0.45811408  1.0
  P  P18  1  0.25843755  0.25000000  0.95811408  1.0
  P  P19  1  0.75843755  0.25000000  0.54188592  1.0
