# generated using pymatgen
data_V4Cu3AgO12
_symmetry_space_group_name_H-M   'P 1'
_cell_length_a   6.32587879
_cell_length_b   6.32587879
_cell_length_c   6.32587879
_cell_angle_alpha   109.47122063
_cell_angle_beta   109.47122063
_cell_angle_gamma   109.47122063
_symmetry_Int_Tables_number   1
_chemical_formula_structural   V4Cu3AgO12
_chemical_formula_sum   'V4 Cu3 Ag1 O12'
_cell_volume   194.86808079
_cell_formula_units_Z   1
loop_
 _symmetry_equiv_pos_site_id
 _symmetry_equiv_pos_as_xyz
  1  'x, y, z'
loop_
 _atom_site_type_symbol
 _atom_site_label
 _atom_site_symmetry_multiplicity
 _atom_site_fract_x
 _atom_site_fract_y
 _atom_site_fract_z
 _atom_site_occupancy
  V  V0  1  0.50000000  1.00000000  1.00000000  1.0
  V  V1  1  0.50000000  0.50000000  0.50000000  1.0
  V  V2  1  1.00000000  1.00000000  0.50000000  1.0
  V  V3  1  1.00000000  0.50000000  1.00000000  1.0
  Cu  Cu4  1  0.50000000  0.50000000  -0.00000000  1.0
  Cu  Cu5  1  0.00000000  0.50000000  0.50000000  1.0
  Cu  Cu6  1  0.50000000  0.00000000  0.50000000  1.0
  Ag  Ag7  1  0.00000000  0.00000000  0.00000000  1.0
  O  O8  1  0.81200981  1.30487806  1.11688787  1.0
  O  O9  1  0.81200981  0.69512194  0.50713175  1.0
  O  O10  1  0.18799019  0.30487806  0.49286825  1.0
  O  O11  1  0.18799019  0.69512194  0.88311213  1.0
  O  O12  1  0.50713175  0.81200981  0.69512194  1.0
  O  O13  1  1.11688787  0.81200981  1.30487806  1.0
  O  O14  1  0.69512194  0.88311213  0.18799019  1.0
  O  O15  1  0.69512194  0.50713175  0.81200981  1.0
  O  O16  1  0.88311213  0.18799019  0.69512194  1.0
  O  O17  1  0.49286825  0.18799019  0.30487806  1.0
  O  O18  1  0.30487806  0.49286825  0.18799019  1.0
  O  O19  1  1.30487806  1.11688787  0.81200981  1.0
