# generated using pymatgen
data_RbSr2Cl5
_symmetry_space_group_name_H-M   'P 1'
_cell_length_a   9.10370579
_cell_length_b   8.02511191
_cell_length_c   12.92474054
_cell_angle_alpha   90.00000000
_cell_angle_beta   90.25030864
_cell_angle_gamma   90.00000000
_symmetry_Int_Tables_number   1
_chemical_formula_structural   RbSr2Cl5
_chemical_formula_sum   'Rb4 Sr8 Cl20'
_cell_volume   944.25001520
_cell_formula_units_Z   4
loop_
 _symmetry_equiv_pos_site_id
 _symmetry_equiv_pos_as_xyz
  1  'x, y, z'
loop_
 _atom_site_type_symbol
 _atom_site_label
 _atom_site_symmetry_multiplicity
 _atom_site_fract_x
 _atom_site_fract_y
 _atom_site_fract_z
 _atom_site_occupancy
  Rb  Rb0  1  0.48891032  0.44978197  0.16687807  1.0
  Rb  Rb1  1  0.48891032  0.05021803  0.66687807  1.0
  Rb  Rb2  1  0.51108968  0.94978197  0.33312193  1.0
  Rb  Rb3  1  0.51108968  0.55021803  0.83312193  1.0
  Sr  Sr4  1  0.99756938  0.48112003  0.17760473  1.0
  Sr  Sr5  1  0.99756938  0.01887997  0.67760473  1.0
  Sr  Sr6  1  0.00243062  0.98112003  0.32239527  1.0
  Sr  Sr7  1  0.00243062  0.51887997  0.82239527  1.0
  Sr  Sr8  1  0.75324433  0.43730953  0.49493943  1.0
  Sr  Sr9  1  0.75324433  0.06269047  0.99493943  1.0
  Sr  Sr10  1  0.24675567  0.93730953  0.00506057  1.0
  Sr  Sr11  1  0.24675567  0.56269047  0.50506057  1.0
  Cl  Cl12  1  0.96391769  0.84307846  0.10286585  1.0
  Cl  Cl13  1  0.96391769  0.65692154  0.60286585  1.0
  Cl  Cl14  1  0.03608231  0.34307846  0.39713415  1.0
  Cl  Cl15  1  0.03608231  0.15692154  0.89713415  1.0
  Cl  Cl16  1  0.79206767  0.05304010  0.49700695  1.0
  Cl  Cl17  1  0.79206767  0.44695990  0.99700695  1.0
  Cl  Cl18  1  0.20793233  0.55304010  0.00299305  1.0
  Cl  Cl19  1  0.20793233  0.94695990  0.50299305  1.0
  Cl  Cl20  1  0.79083094  0.66927518  0.31793088  1.0
  Cl  Cl21  1  0.79083094  0.83072482  0.81793088  1.0
  Cl  Cl22  1  0.20916906  0.16927518  0.18206912  1.0
  Cl  Cl23  1  0.20916906  0.33072482  0.68206912  1.0
  Cl  Cl24  1  0.77645555  0.19157976  0.21349672  1.0
  Cl  Cl25  1  0.77645555  0.30842024  0.71349672  1.0
  Cl  Cl26  1  0.22354445  0.69157976  0.28650328  1.0
  Cl  Cl27  1  0.22354445  0.80842024  0.78650328  1.0
  Cl  Cl28  1  0.46870792  0.33050238  0.41794865  1.0
  Cl  Cl29  1  0.46870792  0.16949762  0.91794865  1.0
  Cl  Cl30  1  0.53129208  0.83050238  0.08205135  1.0
  Cl  Cl31  1  0.53129208  0.66949762  0.58205135  1.0
