# generated using pymatgen
data_Fe3C
_symmetry_space_group_name_H-M   'P 1'
_cell_length_a   5.02760253
_cell_length_b   6.73272932
_cell_length_c   4.48179782
_cell_angle_alpha   90.00000000
_cell_angle_beta   90.00000000
_cell_angle_gamma   90.00000000
_symmetry_Int_Tables_number   1
_chemical_formula_structural   Fe3C
_chemical_formula_sum   'Fe12 C4'
_cell_volume   151.70655684
_cell_formula_units_Z   4
loop_
 _symmetry_equiv_pos_site_id
 _symmetry_equiv_pos_as_xyz
  1  'x, y, z'
loop_
 _atom_site_type_symbol
 _atom_site_label
 _atom_site_symmetry_multiplicity
 _atom_site_fract_x
 _atom_site_fract_y
 _atom_site_fract_z
 _atom_site_occupancy
  Fe  Fe0  1  0.17641819  0.56825758  0.33130606  1.0
  Fe  Fe1  1  0.17641819  0.93174242  0.33130606  1.0
  Fe  Fe2  1  0.82358181  0.06825758  0.66869394  1.0
  Fe  Fe3  1  0.32358181  0.06825758  0.83130607  1.0
  Fe  Fe4  1  0.67641819  0.93174242  0.16869394  1.0
  Fe  Fe5  1  0.67641819  0.56825758  0.16869394  1.0
  Fe  Fe6  1  0.32358181  0.43174242  0.83130607  1.0
  Fe  Fe7  1  0.82358181  0.43174242  0.66869394  1.0
  Fe  Fe8  1  0.03609034  0.75000000  0.83646988  1.0
  Fe  Fe9  1  0.96390966  0.25000000  0.16353012  1.0
  Fe  Fe10  1  0.46390966  0.25000000  0.33646988  1.0
  Fe  Fe11  1  0.53609034  0.75000000  0.66353012  1.0
  C  C12  1  0.87666168  0.75000000  0.43750619  1.0
  C  C13  1  0.12333832  0.25000000  0.56249381  1.0
  C  C14  1  0.62333832  0.25000000  0.93750619  1.0
  C  C15  1  0.37666168  0.75000000  0.06249381  1.0
