# generated using pymatgen
data_Zr3TiO8
_symmetry_space_group_name_H-M   'P 1'
_cell_length_a   6.37961935
_cell_length_b   6.37961935
_cell_length_c   6.37961935
_cell_angle_alpha   133.19396447
_cell_angle_beta   133.19396447
_cell_angle_gamma   68.34970226
_symmetry_Int_Tables_number   1
_chemical_formula_structural   Zr3TiO8
_chemical_formula_sum   'Zr3 Ti1 O8'
_cell_volume   135.56008429
_cell_formula_units_Z   1
loop_
 _symmetry_equiv_pos_site_id
 _symmetry_equiv_pos_as_xyz
  1  'x, y, z'
loop_
 _atom_site_type_symbol
 _atom_site_label
 _atom_site_symmetry_multiplicity
 _atom_site_fract_x
 _atom_site_fract_y
 _atom_site_fract_z
 _atom_site_occupancy
  Zr  Zr0  1  0.25000000  0.75000000  0.50000000  1.0
  Zr  Zr1  1  0.75000000  0.25000000  0.50000000  1.0
  Zr  Zr2  1  0.50000000  0.50000000  1.00000000  1.0
  Ti  Ti3  1  0.00000000  0.00000000  0.00000000  1.0
  O  O4  1  0.54778992  1.13504570  1.00000000  1.0
  O  O5  1  0.86495430  0.86495430  1.41274421  1.0
  O  O6  1  0.45221008  0.45221008  0.58725579  1.0
  O  O7  1  1.13504570  0.54778992  1.00000000  1.0
  O  O8  1  0.31297216  0.86728603  1.00000000  1.0
  O  O9  1  1.13271397  1.13271397  1.44568612  1.0
  O  O10  1  0.68702784  0.68702784  0.55431388  1.0
  O  O11  1  0.86728603  0.31297216  1.00000000  1.0
