# generated using pymatgen
data_CsAuSe3
_symmetry_space_group_name_H-M   'P 1'
_cell_length_a   7.70965748
_cell_length_b   7.70965748
_cell_length_c   7.78974536
_cell_angle_alpha   81.35412470
_cell_angle_beta   98.64587530
_cell_angle_gamma   51.67129404
_symmetry_Int_Tables_number   1
_chemical_formula_structural   CsAuSe3
_chemical_formula_sum   'Cs2 Au2 Se6'
_cell_volume   340.92386094
_cell_formula_units_Z   2
loop_
 _symmetry_equiv_pos_site_id
 _symmetry_equiv_pos_as_xyz
  1  'x, y, z'
loop_
 _atom_site_type_symbol
 _atom_site_label
 _atom_site_symmetry_multiplicity
 _atom_site_fract_x
 _atom_site_fract_y
 _atom_site_fract_z
 _atom_site_occupancy
  Cs  Cs0  1  0.65029662  -0.34970338  0.75000000  1.0
  Cs  Cs1  1  0.34970338  0.34970338  0.25000000  1.0
  Au  Au2  1  0.92769732  -0.07230268  0.75000000  1.0
  Au  Au3  1  0.07230268  0.07230268  0.25000000  1.0
  Se  Se4  1  0.69478539  0.13711217  0.93989118  1.0
  Se  Se5  1  0.86288783  -0.69478539  0.43989118  1.0
  Se  Se6  1  1.13711217  -0.30521461  0.56010882  1.0
  Se  Se7  1  0.30521461  -0.13711217  0.06010882  1.0
  Se  Se8  1  0.31147072  0.31147072  0.75000000  1.0
  Se  Se9  1  0.68852928  -0.31147072  0.25000000  1.0
