# generated using pymatgen
data_Na2CoGeO4
_symmetry_space_group_name_H-M   'P 1'
_cell_length_a   5.41768910
_cell_length_b   5.69742023
_cell_length_c   8.99654371
_cell_angle_alpha   90.00000000
_cell_angle_beta   127.06138613
_cell_angle_gamma   90.00000000
_symmetry_Int_Tables_number   1
_chemical_formula_structural   Na2CoGeO4
_chemical_formula_sum   'Na4 Co2 Ge2 O8'
_cell_volume   221.59789176
_cell_formula_units_Z   2
loop_
 _symmetry_equiv_pos_site_id
 _symmetry_equiv_pos_as_xyz
  1  'x, y, z'
loop_
 _atom_site_type_symbol
 _atom_site_label
 _atom_site_symmetry_multiplicity
 _atom_site_fract_x
 _atom_site_fract_y
 _atom_site_fract_z
 _atom_site_occupancy
  Na  Na0  1  0.62655882  0.82512037  0.06187236  1.0
  Na  Na1  1  0.62655882  0.17487963  0.56187236  1.0
  Na  Na2  1  0.36938259  0.67360293  0.30661439  1.0
  Na  Na3  1  0.36938259  0.32639707  0.80661439  1.0
  Co  Co4  1  0.12773429  0.18549246  0.05387889  1.0
  Co  Co5  1  0.12773429  0.81450754  0.55387889  1.0
  Ge  Ge6  1  0.88697396  0.31413296  0.30909301  1.0
  Ge  Ge7  1  0.88697396  0.68586704  0.80909301  1.0
  O  O8  1  0.00577010  0.15101978  0.51294661  1.0
  O  O9  1  0.00577010  0.84898022  0.01294661  1.0
  O  O10  1  0.83149821  0.61722460  0.33660946  1.0
  O  O11  1  0.83149821  0.38277540  0.83660946  1.0
  O  O12  1  0.53670241  0.20567636  0.10308543  1.0
  O  O13  1  0.53670241  0.79432364  0.60308543  1.0
  O  O14  1  0.18607963  0.29197301  0.28079985  1.0
  O  O15  1  0.18607963  0.70802699  0.78079985  1.0
