# generated using pymatgen
data_Rb3Ge4Au
_symmetry_space_group_name_H-M   'P 1'
_cell_length_a   6.96737513
_cell_length_b   12.68635752
_cell_length_c   6.21045750
_cell_angle_alpha   90.00000000
_cell_angle_beta   90.00000000
_cell_angle_gamma   90.00000000
_symmetry_Int_Tables_number   1
_chemical_formula_structural   Rb3Ge4Au
_chemical_formula_sum   'Rb6 Ge8 Au2'
_cell_volume   548.94613860
_cell_formula_units_Z   2
loop_
 _symmetry_equiv_pos_site_id
 _symmetry_equiv_pos_as_xyz
  1  'x, y, z'
loop_
 _atom_site_type_symbol
 _atom_site_label
 _atom_site_symmetry_multiplicity
 _atom_site_fract_x
 _atom_site_fract_y
 _atom_site_fract_z
 _atom_site_occupancy
  Rb  Rb0  1  0.50000000  0.26391079  0.83323592  1.0
  Rb  Rb1  1  0.50000000  0.73608921  0.83323592  1.0
  Rb  Rb2  1  0.00000000  0.23608921  0.16676408  1.0
  Rb  Rb3  1  0.00000000  0.76391079  0.16676408  1.0
  Rb  Rb4  1  0.50000000  0.50000000  0.42694018  1.0
  Rb  Rb5  1  0.00000000  0.00000000  0.57305982  1.0
  Ge  Ge6  1  0.80263853  0.50000000  0.94136977  1.0
  Ge  Ge7  1  0.19736147  0.50000000  0.94136977  1.0
  Ge  Ge8  1  0.69736147  0.00000000  0.05863023  1.0
  Ge  Ge9  1  0.30263853  0.00000000  0.05863023  1.0
  Ge  Ge10  1  0.50000000  0.89027479  0.32955226  1.0
  Ge  Ge11  1  0.50000000  0.10972521  0.32955226  1.0
  Ge  Ge12  1  0.00000000  0.60972521  0.67044774  1.0
  Ge  Ge13  1  0.00000000  0.39027479  0.67044774  1.0
  Au  Au14  1  0.50000000  0.00000000  0.69135323  1.0
  Au  Au15  1  0.00000000  0.50000000  0.30864677  1.0
