# generated using pymatgen
data_VAg(PSe3)2
_symmetry_space_group_name_H-M   'P 1'
_cell_length_a   6.43185607
_cell_length_b   6.43185607
_cell_length_c   7.72532304
_cell_angle_alpha   82.55133295
_cell_angle_beta   97.44866705
_cell_angle_gamma   59.50102289
_symmetry_Int_Tables_number   1
_chemical_formula_structural   VAg(PSe3)2
_chemical_formula_sum   'V1 Ag1 P2 Se6'
_cell_volume   265.80536989
_cell_formula_units_Z   1
loop_
 _symmetry_equiv_pos_site_id
 _symmetry_equiv_pos_as_xyz
  1  'x, y, z'
loop_
 _atom_site_type_symbol
 _atom_site_label
 _atom_site_symmetry_multiplicity
 _atom_site_fract_x
 _atom_site_fract_y
 _atom_site_fract_z
 _atom_site_occupancy
  V  V0  1  0.34621253  0.34621253  0.00000000  1.0
  Ag  Ag1  1  -0.00264933  -0.00264933  -0.00000000  1.0
  P  P2  1  0.62790100  -0.28483466  0.85132461  1.0
  P  P3  1  0.71516534  -0.37209900  0.14867539  1.0
  Se  Se4  1  1.29062473  -0.30106510  0.76646293  1.0
  Se  Se5  1  0.69893490  0.29062473  0.23353707  1.0
  Se  Se6  1  1.09889781  -0.44645019  0.22990625  1.0
  Se  Se7  1  0.55354981  0.09889781  0.77009375  1.0
  Se  Se8  1  0.95943756  -0.57467436  0.77505908  1.0
  Se  Se9  1  0.42532564  -0.04056244  0.22494092  1.0
