# generated using pymatgen
data_K4MnMo4O15
_symmetry_space_group_name_H-M   'P 1'
_cell_length_a   10.48077880
_cell_length_b   10.48077880
_cell_length_c   8.30248892
_cell_angle_alpha   90.00000000
_cell_angle_beta   90.00000000
_cell_angle_gamma   120.00000000
_symmetry_Int_Tables_number   1
_chemical_formula_structural   K4MnMo4O15
_chemical_formula_sum   'K8 Mn2 Mo8 O30'
_cell_volume   789.81621759
_cell_formula_units_Z   2
loop_
 _symmetry_equiv_pos_site_id
 _symmetry_equiv_pos_as_xyz
  1  'x, y, z'
loop_
 _atom_site_type_symbol
 _atom_site_label
 _atom_site_symmetry_multiplicity
 _atom_site_fract_x
 _atom_site_fract_y
 _atom_site_fract_z
 _atom_site_occupancy
  K  K0  1  0.08994694  0.69513904  0.35861783  1.0
  K  K1  1  0.69513904  0.60519210  0.64138217  1.0
  K  K2  1  0.60519210  0.91005306  0.35861783  1.0
  K  K3  1  0.30486096  0.39480790  0.35861783  1.0
  K  K4  1  0.91005306  0.30486096  0.64138217  1.0
  K  K5  1  0.39480790  0.08994694  0.64138217  1.0
  K  K6  1  0.00000000  0.00000000  0.50000000  1.0
  K  K7  1  0.00000000  0.00000000  0.00000000  1.0
  Mn  Mn8  1  0.33333333  0.66666667  0.03292414  1.0
  Mn  Mn9  1  0.66666667  0.33333333  0.96707586  1.0
  Mo  Mo10  1  0.67349879  0.65741940  0.13857697  1.0
  Mo  Mo11  1  0.65741940  0.98392061  0.86142303  1.0
  Mo  Mo12  1  0.98392061  0.32650121  0.13857697  1.0
  Mo  Mo13  1  0.34258060  0.01607939  0.13857697  1.0
  Mo  Mo14  1  0.32650121  0.34258060  0.86142303  1.0
  Mo  Mo15  1  0.01607939  0.67349879  0.86142303  1.0
  Mo  Mo16  1  0.33333333  0.66666667  0.64297620  1.0
  Mo  Mo17  1  0.66666667  0.33333333  0.35702380  1.0
  O  O18  1  0.36359549  0.85572986  0.15757408  1.0
  O  O19  1  0.85572986  0.49213437  0.84242592  1.0
  O  O20  1  0.49213437  0.63640451  0.15757408  1.0
  O  O21  1  0.14427014  0.50786563  0.15757408  1.0
  O  O22  1  0.63640451  0.14427014  0.84242592  1.0
  O  O23  1  0.50786563  0.36359549  0.84242592  1.0
  O  O24  1  0.78671727  0.78049986  0.29000593  1.0
  O  O25  1  0.78049986  0.99378259  0.70999407  1.0
  O  O26  1  0.99378259  0.21328273  0.29000593  1.0
  O  O27  1  0.21950014  0.00621741  0.29000593  1.0
  O  O28  1  0.21328273  0.21950014  0.70999407  1.0
  O  O29  1  0.00621741  0.78671727  0.70999407  1.0
  O  O30  1  0.01647053  0.74076174  0.05376314  1.0
  O  O31  1  0.74076174  0.72429121  0.94623686  1.0
  O  O32  1  0.72429121  0.98352947  0.05376314  1.0
  O  O33  1  0.25923826  0.27570879  0.05376314  1.0
  O  O34  1  0.98352947  0.25923826  0.94623686  1.0
  O  O35  1  0.27570879  0.01647053  0.94623686  1.0
  O  O36  1  0.82254311  0.48011141  0.44762186  1.0
  O  O37  1  0.48011141  0.65756830  0.55237814  1.0
  O  O38  1  0.65756830  0.17745689  0.44762186  1.0
  O  O39  1  0.51988859  0.34243170  0.44762186  1.0
  O  O40  1  0.17745689  0.51988859  0.55237814  1.0
  O  O41  1  0.34243170  0.82254311  0.55237814  1.0
  O  O42  1  0.66481817  0.47921321  0.16037117  1.0
  O  O43  1  0.47921321  0.81439504  0.83962883  1.0
  O  O44  1  0.81439504  0.33518183  0.16037117  1.0
  O  O45  1  0.52078679  0.18560496  0.16037117  1.0
  O  O46  1  0.33518183  0.52078679  0.83962883  1.0
  O  O47  1  0.18560496  0.66481817  0.83962883  1.0
