# generated using pymatgen
data_Zn2As2PbO10
_symmetry_space_group_name_H-M   'P 1'
_cell_length_a   8.01551023
_cell_length_b   5.47885966
_cell_length_c   5.47862813
_cell_angle_alpha   76.55611678
_cell_angle_beta   66.30344636
_cell_angle_gamma   97.03696622
_symmetry_Int_Tables_number   1
_chemical_formula_structural   Zn2As2PbO10
_chemical_formula_sum   'Zn2 As2 Pb1 O10'
_cell_volume   207.88151050
_cell_formula_units_Z   1
loop_
 _symmetry_equiv_pos_site_id
 _symmetry_equiv_pos_as_xyz
  1  'x, y, z'
loop_
 _atom_site_type_symbol
 _atom_site_label
 _atom_site_symmetry_multiplicity
 _atom_site_fract_x
 _atom_site_fract_y
 _atom_site_fract_z
 _atom_site_occupancy
  Zn  Zn0  1  0.50000000  -0.50000000  -0.50000000  1.0
  Zn  Zn1  1  0.50000000  -0.00000000  0.00000000  1.0
  Pb  Pb2  1  0.00000000  0.00000000  0.00000000  1.0
  As  As3  1  0.77471766  -0.43128811  -0.20576138  1.0
  As  As4  1  0.22528234  -0.56871189  0.20576138  1.0
  O  O5  1  0.62438416  -0.31618083  0.05959044  1.0
  O  O6  1  0.37561584  -0.68381917  -0.05959044  1.0
  O  O7  1  0.26545633  -0.23157816  0.07716472  1.0
  O  O8  1  0.73454367  -0.76842184  -0.07716472  1.0
  O  O9  1  0.44531469  -0.07551916  0.47902676  1.0
  O  O10  1  0.55468531  -0.92448084  -0.47902676  1.0
  O  O11  1  -0.00033859  -0.28743110  0.71333063  1.0
  O  O12  1  1.00033859  -0.71256890  -0.71333063  1.0
  O  O13  1  0.26550265  -0.65729528  0.50267229  1.0
  O  O14  1  0.73449735  -0.34270472  -0.50267229  1.0
