# generated using pymatgen
data_K3EuV2O8
_symmetry_space_group_name_H-M   'P 1'
_cell_length_a   7.79289745
_cell_length_b   6.06394476
_cell_length_c   10.01837508
_cell_angle_alpha   90.00000000
_cell_angle_beta   91.44893915
_cell_angle_gamma   90.00000000
_symmetry_Int_Tables_number   1
_chemical_formula_structural   K3EuV2O8
_chemical_formula_sum   'K6 Eu2 V4 O16'
_cell_volume   473.27394901
_cell_formula_units_Z   2
loop_
 _symmetry_equiv_pos_site_id
 _symmetry_equiv_pos_as_xyz
  1  'x, y, z'
loop_
 _atom_site_type_symbol
 _atom_site_label
 _atom_site_symmetry_multiplicity
 _atom_site_fract_x
 _atom_site_fract_y
 _atom_site_fract_z
 _atom_site_occupancy
  K  K0  1  0.82485685  0.25000000  0.56811558  1.0
  K  K1  1  0.17514315  0.75000000  0.43188442  1.0
  K  K2  1  0.29937265  0.25000000  0.92234077  1.0
  K  K3  1  0.70062735  0.75000000  0.07765923  1.0
  K  K4  1  -0.00233186  0.25000000  0.20241659  1.0
  K  K5  1  1.00233186  0.75000000  0.79758341  1.0
  Eu  Eu6  1  0.51366449  0.25000000  0.26989412  1.0
  Eu  Eu7  1  0.48633551  0.75000000  0.73010588  1.0
  V  V8  1  0.74257551  0.25000000  0.90246941  1.0
  V  V9  1  0.25742449  0.75000000  0.09753059  1.0
  V  V10  1  0.29518835  0.25000000  0.57898496  1.0
  V  V11  1  0.70481165  0.75000000  0.42101504  1.0
  O  O12  1  0.68012904  0.48613923  0.81493891  1.0
  O  O13  1  0.68012904  0.01386077  0.81493891  1.0
  O  O14  1  0.31987096  0.98613923  0.18506109  1.0
  O  O15  1  0.31987096  0.51386077  0.18506109  1.0
  O  O16  1  0.27661757  0.48368396  0.67966867  1.0
  O  O17  1  0.27661757  0.01631604  0.67966867  1.0
  O  O18  1  0.72338243  0.98368396  0.32033133  1.0
  O  O19  1  0.72338243  0.51631604  0.32033133  1.0
  O  O20  1  0.95740810  0.25000000  0.92016156  1.0
  O  O21  1  0.04259190  0.75000000  0.07983844  1.0
  O  O22  1  0.65041996  0.25000000  0.05875308  1.0
  O  O23  1  0.34958004  0.75000000  0.94124692  1.0
  O  O24  1  0.48869851  0.25000000  0.50228109  1.0
  O  O25  1  0.51130149  0.75000000  0.49771891  1.0
  O  O26  1  0.13967635  0.25000000  0.45809908  1.0
  O  O27  1  0.86032365  0.75000000  0.54190092  1.0
