# generated using pymatgen
data_Si3N4
_symmetry_space_group_name_H-M   'P 1'
_cell_length_a   5.61999388
_cell_length_b   5.61999388
_cell_length_c   5.61999388
_cell_angle_alpha   109.47122063
_cell_angle_beta   109.47122063
_cell_angle_gamma   109.47122063
_symmetry_Int_Tables_number   1
_chemical_formula_structural   Si3N4
_chemical_formula_sum   'Si6 N8'
_cell_volume   136.64244867
_cell_formula_units_Z   2
loop_
 _symmetry_equiv_pos_site_id
 _symmetry_equiv_pos_as_xyz
  1  'x, y, z'
loop_
 _atom_site_type_symbol
 _atom_site_label
 _atom_site_symmetry_multiplicity
 _atom_site_fract_x
 _atom_site_fract_y
 _atom_site_fract_z
 _atom_site_occupancy
  Si  Si0  1  0.12500000  0.75000000  0.87500000  1.0
  Si  Si1  1  1.37500000  1.25000000  1.62500000  1.0
  Si  Si2  1  0.25000000  0.62500000  0.37500000  1.0
  Si  Si3  1  0.75000000  0.87500000  0.12500000  1.0
  Si  Si4  1  0.87500000  1.12500000  0.75000000  1.0
  Si  Si5  1  1.62500000  1.37500000  1.25000000  1.0
  N  N6  1  1.43725288  1.43725288  1.43725288  1.0
  N  N7  1  1.00000000  1.06274712  1.50000000  1.0
  N  N8  1  1.50000000  1.00000000  1.06274712  1.0
  N  N9  1  1.06274712  0.50000000  1.00000000  1.0
  N  N10  1  1.00000000  0.56274712  1.50000000  1.0
  N  N11  1  0.93725288  0.93725288  0.93725288  1.0
  N  N12  1  0.50000000  1.00000000  0.56274712  1.0
  N  N13  1  0.56274712  1.50000000  1.00000000  1.0
