# generated using pymatgen
data_KTa(GeO3)3
_symmetry_space_group_name_H-M   'P 1'
_cell_length_a   7.08771509
_cell_length_b   7.08771509
_cell_length_c   10.29433053
_cell_angle_alpha   90.00000000
_cell_angle_beta   90.00000000
_cell_angle_gamma   120.00000000
_symmetry_Int_Tables_number   1
_chemical_formula_structural   KTa(GeO3)3
_chemical_formula_sum   'K2 Ta2 Ge6 O18'
_cell_volume   447.85893567
_cell_formula_units_Z   2
loop_
 _symmetry_equiv_pos_site_id
 _symmetry_equiv_pos_as_xyz
  1  'x, y, z'
loop_
 _atom_site_type_symbol
 _atom_site_label
 _atom_site_symmetry_multiplicity
 _atom_site_fract_x
 _atom_site_fract_y
 _atom_site_fract_z
 _atom_site_occupancy
  K  K0  1  0.00000000  0.00000000  0.50000000  1.0
  K  K1  1  0.00000000  0.00000000  0.00000000  1.0
  Ta  Ta2  1  0.33333333  0.66666667  0.50000000  1.0
  Ta  Ta3  1  0.33333333  0.66666667  0.00000000  1.0
  Ge  Ge4  1  0.59236852  0.54888311  0.25000000  1.0
  Ge  Ge5  1  0.59236852  0.04348540  0.75000000  1.0
  Ge  Ge6  1  0.95651460  0.54888311  0.75000000  1.0
  Ge  Ge7  1  0.95651460  0.40763148  0.25000000  1.0
  Ge  Ge8  1  0.45111689  0.40763148  0.75000000  1.0
  Ge  Ge9  1  0.45111689  0.04348540  0.25000000  1.0
  O  O10  1  0.10638899  0.43124622  0.39042662  1.0
  O  O11  1  0.10638899  0.43124622  0.10957338  1.0
  O  O12  1  0.10638899  0.67514277  0.89042662  1.0
  O  O13  1  0.10638899  0.67514277  0.60957338  1.0
  O  O14  1  0.32485723  0.43124622  0.89042662  1.0
  O  O15  1  0.32485723  0.43124622  0.60957338  1.0
  O  O16  1  0.32485723  0.89361101  0.39042662  1.0
  O  O17  1  0.32485723  0.89361101  0.10957338  1.0
  O  O18  1  0.56875378  0.89361101  0.89042662  1.0
  O  O19  1  0.56875378  0.89361101  0.60957338  1.0
  O  O20  1  0.56875378  0.67514277  0.39042662  1.0
  O  O21  1  0.56875378  0.67514277  0.10957338  1.0
  O  O22  1  0.86547859  0.60031296  0.25000000  1.0
  O  O23  1  0.86547859  0.26516563  0.75000000  1.0
  O  O24  1  0.73483437  0.60031296  0.75000000  1.0
  O  O25  1  0.73483437  0.13452141  0.25000000  1.0
  O  O26  1  0.39968704  0.13452141  0.75000000  1.0
  O  O27  1  0.39968704  0.26516563  0.25000000  1.0
