# generated using pymatgen
data_Eu2Te4O11
_symmetry_space_group_name_H-M   'P 1'
_cell_length_a   6.86381297
_cell_length_b   6.86381297
_cell_length_c   16.80730616
_cell_angle_alpha   77.07817332
_cell_angle_beta   102.92182668
_cell_angle_gamma   134.49652448
_symmetry_Int_Tables_number   1
_chemical_formula_structural   Eu2Te4O11
_chemical_formula_sum   'Eu4 Te8 O22'
_cell_volume   547.94579574
_cell_formula_units_Z   2
loop_
 _symmetry_equiv_pos_site_id
 _symmetry_equiv_pos_as_xyz
  1  'x, y, z'
loop_
 _atom_site_type_symbol
 _atom_site_label
 _atom_site_symmetry_multiplicity
 _atom_site_fract_x
 _atom_site_fract_y
 _atom_site_fract_z
 _atom_site_occupancy
  Eu  Eu0  1  1.62309547  -0.13020443  0.45869837  1.0
  Eu  Eu1  1  1.13020443  0.37690453  0.95869837  1.0
  Eu  Eu2  1  0.86979557  -0.37690453  0.04130163  1.0
  Eu  Eu3  1  0.37690453  0.13020443  0.54130163  1.0
  Te  Te4  1  0.66247947  -0.09455048  0.80052335  1.0
  Te  Te5  1  1.09455048  -0.66247947  0.30052335  1.0
  Te  Te6  1  0.90544952  0.66247947  0.69947665  1.0
  Te  Te7  1  1.33752053  0.09455048  0.19947665  1.0
  Te  Te8  1  0.34547476  0.08919944  0.87512514  1.0
  Te  Te9  1  0.91080056  0.65452524  0.37512514  1.0
  Te  Te10  1  1.08919944  -0.65452524  0.62487486  1.0
  Te  Te11  1  1.65452524  -0.08919944  0.12487486  1.0
  O  O12  1  1.91433162  -0.04229512  0.89756756  1.0
  O  O13  1  1.04229512  -0.91433162  0.39756756  1.0
  O  O14  1  0.95770488  0.91433162  0.60243244  1.0
  O  O15  1  0.08566838  0.04229512  0.10243244  1.0
  O  O16  1  1.75162112  0.16651215  0.55114969  1.0
  O  O17  1  0.83348785  -0.75162112  0.05114969  1.0
  O  O18  1  1.16651215  0.75162112  0.94885031  1.0
  O  O19  1  0.24837888  -0.16651215  0.44885031  1.0
  O  O20  1  0.69032288  0.17777672  0.87191129  1.0
  O  O21  1  0.82222328  -0.69032288  0.37191129  1.0
  O  O22  1  1.17777672  0.69032288  0.62808871  1.0
  O  O23  1  1.30967712  -0.17777672  0.12808871  1.0
  O  O24  1  0.60142581  0.29492542  0.66993422  1.0
  O  O25  1  0.70507458  -0.60142581  0.16993422  1.0
  O  O26  1  1.29492542  0.60142581  0.83006578  1.0
  O  O27  1  1.39857419  -0.29492542  0.33006578  1.0
  O  O28  1  0.46606531  0.33234497  0.95303285  1.0
  O  O29  1  0.66765503  0.53393469  0.45303285  1.0
  O  O30  1  1.33234497  -0.53393469  0.54696715  1.0
  O  O31  1  1.53393469  -0.33234497  0.04696715  1.0
  O  O32  1  0.63593440  0.63593440  0.75000000  1.0
  O  O33  1  0.36406560  0.36406560  0.25000000  1.0
