# generated using pymatgen
data_P3Pb5ClO12
_symmetry_space_group_name_H-M   'P 1'
_cell_length_a   10.40991181
_cell_length_b   10.40991181
_cell_length_c   7.36462358
_cell_angle_alpha   90.00000000
_cell_angle_beta   90.00000000
_cell_angle_gamma   120.00000000
_symmetry_Int_Tables_number   1
_chemical_formula_structural   P3Pb5ClO12
_chemical_formula_sum   'P6 Pb10 Cl2 O24'
_cell_volume   691.15473297
_cell_formula_units_Z   2
loop_
 _symmetry_equiv_pos_site_id
 _symmetry_equiv_pos_as_xyz
  1  'x, y, z'
loop_
 _atom_site_type_symbol
 _atom_site_label
 _atom_site_symmetry_multiplicity
 _atom_site_fract_x
 _atom_site_fract_y
 _atom_site_fract_z
 _atom_site_occupancy
  P  P0  1  0.63506350  0.59047984  0.25000000  1.0
  P  P1  1  0.59047984  0.95541633  0.75000000  1.0
  P  P2  1  0.95541633  0.36493650  0.25000000  1.0
  P  P3  1  0.40952016  0.04458367  0.25000000  1.0
  P  P4  1  0.36493650  0.40952016  0.75000000  1.0
  P  P5  1  0.04458367  0.63506350  0.75000000  1.0
  Pb  Pb6  1  -0.00844411  0.72343187  0.25000000  1.0
  Pb  Pb7  1  0.72343187  0.73187598  0.75000000  1.0
  Pb  Pb8  1  0.73187598  1.00844411  0.25000000  1.0
  Pb  Pb9  1  0.27656813  0.26812402  0.25000000  1.0
  Pb  Pb10  1  1.00844411  0.27656813  0.75000000  1.0
  Pb  Pb11  1  0.26812402  -0.00844411  0.75000000  1.0
  Pb  Pb12  1  0.33333333  0.66666667  0.49624836  1.0
  Pb  Pb13  1  0.33333333  0.66666667  0.00375164  1.0
  Pb  Pb14  1  0.66666667  0.33333333  0.99624836  1.0
  Pb  Pb15  1  0.66666667  0.33333333  0.50375164  1.0
  Cl  Cl16  1  0.00000000  0.00000000  0.25000000  1.0
  Cl  Cl17  1  -0.00000000  -0.00000000  0.75000000  1.0
  O  O18  1  0.73803857  0.64081396  0.42136717  1.0
  O  O19  1  0.73803857  0.64081396  0.07863283  1.0
  O  O20  1  0.64081396  0.90277539  0.92136717  1.0
  O  O21  1  0.64081396  0.90277539  0.57863283  1.0
  O  O22  1  0.90277539  0.26196143  0.42136717  1.0
  O  O23  1  0.90277539  0.26196143  0.07863283  1.0
  O  O24  1  0.35918604  0.09722461  0.42136717  1.0
  O  O25  1  0.35918604  0.09722461  0.07863283  1.0
  O  O26  1  0.26196143  0.35918604  0.92136717  1.0
  O  O27  1  0.26196143  0.35918604  0.57863283  1.0
  O  O28  1  0.09722461  0.73803857  0.92136717  1.0
  O  O29  1  0.09722461  0.73803857  0.57863283  1.0
  O  O30  1  0.35702171  0.87690461  0.25000000  1.0
  O  O31  1  0.87690461  0.51988290  0.75000000  1.0
  O  O32  1  0.51988290  0.64297829  0.25000000  1.0
  O  O33  1  0.12309539  0.48011710  0.25000000  1.0
  O  O34  1  0.64297829  0.12309539  0.75000000  1.0
  O  O35  1  0.48011710  0.35702171  0.75000000  1.0
  O  O36  1  0.55097078  0.41319598  0.25000000  1.0
  O  O37  1  0.41319598  0.86222520  0.75000000  1.0
  O  O38  1  0.86222520  0.44902922  0.25000000  1.0
  O  O39  1  0.58680402  0.13777480  0.25000000  1.0
  O  O40  1  0.44902922  0.58680402  0.75000000  1.0
  O  O41  1  0.13777480  0.55097078  0.75000000  1.0
