# generated using pymatgen
data_La4Mn5(Si2O11)2
_symmetry_space_group_name_H-M   'P 1'
_cell_length_a   7.62602115
_cell_length_b   7.62602115
_cell_length_c   11.74953480
_cell_angle_alpha   67.54341983
_cell_angle_beta   112.45658017
_cell_angle_gamma   136.68958294
_symmetry_Int_Tables_number   1
_chemical_formula_structural   La4Mn5(Si2O11)2
_chemical_formula_sum   'La4 Mn5 Si4 O22'
_cell_volume   427.29989941
_cell_formula_units_Z   1
loop_
 _symmetry_equiv_pos_site_id
 _symmetry_equiv_pos_as_xyz
  1  'x, y, z'
loop_
 _atom_site_type_symbol
 _atom_site_label
 _atom_site_symmetry_multiplicity
 _atom_site_fract_x
 _atom_site_fract_y
 _atom_site_fract_z
 _atom_site_occupancy
  Mn  Mn0  1  0.50000000  0.50000000  0.00000000  1.0
  Mn  Mn1  1  0.73045462  0.26954538  0.49901512  1.0
  Mn  Mn2  1  1.26954538  -0.26954538  0.50098488  1.0
  Mn  Mn3  1  0.74864849  0.74864849  0.50000000  1.0
  Mn  Mn4  1  0.25135151  0.25135151  0.50000000  1.0
  O  O5  1  0.64601566  -0.11078398  0.90004721  1.0
  O  O6  1  1.11078398  0.35398434  0.90004721  1.0
  O  O7  1  0.88921602  -0.35398434  0.09995279  1.0
  O  O8  1  1.35398434  0.11078398  0.09995279  1.0
  O  O9  1  0.54021461  -0.03792700  0.62211512  1.0
  O  O10  1  1.03792700  0.45978539  0.62211512  1.0
  O  O11  1  0.96207300  -0.45978539  0.37788488  1.0
  O  O12  1  1.45978539  0.03792700  0.37788488  1.0
  O  O13  1  0.32839814  0.18136251  0.68164818  1.0
  O  O14  1  0.81863749  0.67160186  0.68164818  1.0
  O  O15  1  1.18136251  -0.67160186  0.31835182  1.0
  O  O16  1  1.67160186  -0.18136251  0.31835182  1.0
  O  O17  1  0.70888712  0.29111288  0.86743348  1.0
  O  O18  1  1.29111288  -0.29111288  0.13256652  1.0
  O  O19  1  0.50504114  0.49495886  0.82628275  1.0
  O  O20  1  1.49495886  -0.49495886  0.17371725  1.0
  O  O21  1  0.13379533  -0.13379533  0.90170298  1.0
  O  O22  1  0.86620467  -0.86620467  0.09829702  1.0
  O  O23  1  0.58519431  0.41480569  0.48847455  1.0
  O  O24  1  1.41480569  -0.41480569  0.51152545  1.0
  O  O25  1  0.91309306  -0.91309306  0.51238500  1.0
  O  O26  1  0.08690694  -0.08690694  0.48761500  1.0
  Si  Si27  1  0.83596514  0.16403486  0.95031769  1.0
  Si  Si28  1  1.16403486  -0.16403486  0.04968231  1.0
  Si  Si29  1  0.58791754  0.41208246  0.76565666  1.0
  Si  Si30  1  1.41208246  -0.41208246  0.23434334  1.0
  La  La31  1  0.94795618  -0.94795618  0.74961860  1.0
  La  La32  1  0.05204382  -0.05204382  0.25038140  1.0
  La  La33  1  0.76383526  -0.76383526  0.24047303  1.0
  La  La34  1  0.23616474  -0.23616474  0.75952697  1.0
