# generated using pymatgen
data_Cr2H8N2O7
_symmetry_space_group_name_H-M   'P 1'
_cell_length_a   8.06774495
_cell_length_b   8.06774495
_cell_length_c   7.52694633
_cell_angle_alpha   89.98796346
_cell_angle_beta   90.01203654
_cell_angle_gamma   120.75878072
_symmetry_Int_Tables_number   1
_chemical_formula_structural   Cr2H8N2O7
_chemical_formula_sum   'Cr4 H16 N4 O14'
_cell_volume   421.00001625
_cell_formula_units_Z   2
loop_
 _symmetry_equiv_pos_site_id
 _symmetry_equiv_pos_as_xyz
  1  'x, y, z'
loop_
 _atom_site_type_symbol
 _atom_site_label
 _atom_site_symmetry_multiplicity
 _atom_site_fract_x
 _atom_site_fract_y
 _atom_site_fract_z
 _atom_site_occupancy
  Cr  Cr0  1  0.72915483  -0.07632609  0.63573240  1.0
  Cr  Cr1  1  1.07632609  0.27084517  0.13573240  1.0
  Cr  Cr2  1  0.92367391  0.72915483  0.86426760  1.0
  Cr  Cr3  1  0.27084517  0.07632609  0.36426760  1.0
  H  H4  1  0.53112415  0.07569198  0.81705566  1.0
  H  H5  1  0.92430802  0.46887585  0.31705566  1.0
  H  H6  1  1.07569198  0.53112415  0.68294434  1.0
  H  H7  1  0.46887585  -0.07569198  0.18294434  1.0
  H  H8  1  0.42148326  0.19681991  0.75092705  1.0
  H  H9  1  0.80318009  0.57851674  0.25092705  1.0
  H  H10  1  1.19681991  0.42148326  0.74907295  1.0
  H  H11  1  0.57851674  -0.19681991  0.24907295  1.0
  H  H12  1  0.47964700  0.19643623  0.96938533  1.0
  H  H13  1  0.80356377  0.52035300  0.46938533  1.0
  H  H14  1  1.19643623  0.47964700  0.53061467  1.0
  H  H15  1  0.52035300  -0.19643623  0.03061467  1.0
  H  H16  1  0.65351162  0.32146978  0.81343095  1.0
  H  H17  1  0.67853022  0.34648838  0.31343095  1.0
  H  H18  1  1.32146978  0.65351162  0.68656905  1.0
  H  H19  1  0.34648838  -0.32146978  0.18656905  1.0
  N  N20  1  0.52092818  0.19785208  0.83929697  1.0
  N  N21  1  0.80214792  0.47907182  0.33929697  1.0
  N  N22  1  1.19785208  0.52092818  0.66070303  1.0
  N  N23  1  0.47907182  -0.19785208  0.16070303  1.0
  O  O24  1  0.65784569  -0.22685106  0.47137031  1.0
  O  O25  1  1.22685106  0.34215431  0.97137031  1.0
  O  O26  1  0.77314894  0.65784569  0.02862969  1.0
  O  O27  1  0.34215431  0.22685106  0.52862969  1.0
  O  O28  1  0.54549197  -0.13911796  0.77211778  1.0
  O  O29  1  1.13911796  0.45450803  0.27211778  1.0
  O  O30  1  0.86088204  0.54549197  0.72788222  1.0
  O  O31  1  0.45450803  0.13911796  0.22788222  1.0
  O  O32  1  0.80721751  0.13894696  0.56569499  1.0
  O  O33  1  0.86105304  0.19278249  0.06569499  1.0
  O  O34  1  1.13894696  0.80721751  0.93430501  1.0
  O  O35  1  0.19278249  -0.13894696  0.43430501  1.0
  O  O36  1  0.91783113  0.91783113  0.75000000  1.0
  O  O37  1  0.08216887  0.08216887  0.25000000  1.0
