# generated using pymatgen
data_CaMnSiO4
_symmetry_space_group_name_H-M   'P 1'
_cell_length_a   11.27472180
_cell_length_b   6.54554419
_cell_length_c   4.96191822
_cell_angle_alpha   90.00000000
_cell_angle_beta   90.00000000
_cell_angle_gamma   90.00000000
_symmetry_Int_Tables_number   1
_chemical_formula_structural   CaMnSiO4
_chemical_formula_sum   'Ca4 Mn4 Si4 O16'
_cell_volume   366.18554425
_cell_formula_units_Z   4
loop_
 _symmetry_equiv_pos_site_id
 _symmetry_equiv_pos_as_xyz
  1  'x, y, z'
loop_
 _atom_site_type_symbol
 _atom_site_label
 _atom_site_symmetry_multiplicity
 _atom_site_fract_x
 _atom_site_fract_y
 _atom_site_fract_z
 _atom_site_occupancy
  Ca  Ca0  1  0.77798662  0.25000000  0.51840167  1.0
  Ca  Ca1  1  0.27798662  0.25000000  0.98159833  1.0
  Ca  Ca2  1  0.22201338  0.75000000  0.48159833  1.0
  Ca  Ca3  1  0.72201338  0.75000000  0.01840167  1.0
  Mn  Mn4  1  0.00000000  0.50000000  0.00000000  1.0
  Mn  Mn5  1  0.00000000  0.00000000  0.00000000  1.0
  Mn  Mn6  1  0.50000000  0.50000000  0.50000000  1.0
  Mn  Mn7  1  0.50000000  0.00000000  0.50000000  1.0
  Si  Si8  1  0.58736712  0.25000000  0.08442661  1.0
  Si  Si9  1  0.08736712  0.25000000  0.41557339  1.0
  Si  Si10  1  0.41263288  0.75000000  0.91557339  1.0
  Si  Si11  1  0.91263288  0.75000000  0.58442661  1.0
  O  O12  1  0.65366385  0.45186349  0.21870178  1.0
  O  O13  1  0.65366385  0.04813651  0.21870178  1.0
  O  O14  1  0.15366385  0.45186349  0.28129822  1.0
  O  O15  1  0.15366385  0.04813651  0.28129822  1.0
  O  O16  1  0.34633615  0.95186349  0.78129822  1.0
  O  O17  1  0.34633615  0.54813651  0.78129822  1.0
  O  O18  1  0.84633615  0.95186349  0.71870178  1.0
  O  O19  1  0.84633615  0.54813651  0.71870178  1.0
  O  O20  1  0.95319652  0.25000000  0.26949807  1.0
  O  O21  1  0.45319652  0.25000000  0.23050193  1.0
  O  O22  1  0.04680348  0.75000000  0.73050193  1.0
  O  O23  1  0.54680348  0.75000000  0.76949807  1.0
  O  O24  1  0.58454727  0.25000000  0.75404156  1.0
  O  O25  1  0.08454727  0.25000000  0.74595844  1.0
  O  O26  1  0.41545273  0.75000000  0.24595844  1.0
  O  O27  1  0.91545273  0.75000000  0.25404156  1.0
