# generated using pymatgen
data_TaB3
_symmetry_space_group_name_H-M   'P 1'
_cell_length_a   3.07374063
_cell_length_b   3.07374063
_cell_length_c   8.43135517
_cell_angle_alpha   88.05251267
_cell_angle_beta   91.94748733
_cell_angle_gamma   60.20369326
_symmetry_Int_Tables_number   1
_chemical_formula_structural   TaB3
_chemical_formula_sum   'Ta2 B6'
_cell_volume   68.96852540
_cell_formula_units_Z   2
loop_
 _symmetry_equiv_pos_site_id
 _symmetry_equiv_pos_as_xyz
  1  'x, y, z'
loop_
 _atom_site_type_symbol
 _atom_site_label
 _atom_site_symmetry_multiplicity
 _atom_site_fract_x
 _atom_site_fract_y
 _atom_site_fract_z
 _atom_site_occupancy
  Ta  Ta0  1  0.96318483  -0.96318483  0.80270660  1.0
  Ta  Ta1  1  0.03681517  -0.03681517  0.19729340  1.0
  B  B2  1  1.41438704  0.24289503  0.39902111  1.0
  B  B3  1  0.75710497  -0.41438704  0.39902111  1.0
  B  B4  1  0.58561296  -0.24289503  0.60097889  1.0
  B  B5  1  1.24289503  0.41438704  0.60097889  1.0
  B  B6  1  0.66616913  -0.33383087  0.00000000  1.0
  B  B7  1  1.33383087  0.33383087  0.00000000  1.0
