# generated using pymatgen
data_Ca(GaO2)2
_symmetry_space_group_name_H-M   'P 1'
_cell_length_a   10.42631141
_cell_length_b   7.83435964
_cell_length_c   9.24875431
_cell_angle_alpha   90.00000000
_cell_angle_beta   90.00000000
_cell_angle_gamma   90.00000000
_symmetry_Int_Tables_number   1
_chemical_formula_structural   Ca(GaO2)2
_chemical_formula_sum   'Ca8 Ga16 O32'
_cell_volume   755.47037499
_cell_formula_units_Z   8
loop_
 _symmetry_equiv_pos_site_id
 _symmetry_equiv_pos_as_xyz
  1  'x, y, z'
loop_
 _atom_site_type_symbol
 _atom_site_label
 _atom_site_symmetry_multiplicity
 _atom_site_fract_x
 _atom_site_fract_y
 _atom_site_fract_z
 _atom_site_occupancy
  Ca  Ca0  1  0.38686089  0.99306404  0.84472320  1.0
  Ca  Ca1  1  0.88686089  0.50693596  0.84472320  1.0
  Ca  Ca2  1  0.61313911  0.00693596  0.34472320  1.0
  Ca  Ca3  1  0.11313911  0.49306404  0.34472320  1.0
  Ca  Ca4  1  0.31794832  0.50316395  0.79763972  1.0
  Ca  Ca5  1  0.81794832  0.99683605  0.79763972  1.0
  Ca  Ca6  1  0.68205168  0.49683605  0.29763972  1.0
  Ca  Ca7  1  0.18205168  0.00316395  0.29763972  1.0
  Ga  Ga8  1  0.38553473  0.71552351  0.17463838  1.0
  Ga  Ga9  1  0.88553473  0.78447649  0.17463838  1.0
  Ga  Ga10  1  0.61446527  0.28447649  0.67463838  1.0
  Ga  Ga11  1  0.11446527  0.21552351  0.67463838  1.0
  Ga  Ga12  1  0.34963773  0.75882056  0.50136986  1.0
  Ga  Ga13  1  0.84963773  0.74117944  0.50136986  1.0
  Ga  Ga14  1  0.65036227  0.24117944  0.00136986  1.0
  Ga  Ga15  1  0.15036227  0.25882056  0.00136986  1.0
  Ga  Ga16  1  0.13092867  0.80804190  0.00238076  1.0
  Ga  Ga17  1  0.63092867  0.69195810  0.00238076  1.0
  Ga  Ga18  1  0.86907133  0.19195810  0.50238076  1.0
  Ga  Ga19  1  0.36907133  0.30804190  0.50238076  1.0
  Ga  Ga20  1  0.09549288  0.81649521  0.67531389  1.0
  Ga  Ga21  1  0.59549288  0.68350479  0.67531389  1.0
  Ga  Ga22  1  0.90450712  0.18350479  0.17531389  1.0
  Ga  Ga23  1  0.40450712  0.31649521  0.17531389  1.0
  O  O24  1  0.18321077  0.84882695  0.50453394  1.0
  O  O25  1  0.68321077  0.65117305  0.50453394  1.0
  O  O26  1  0.81678923  0.15117305  0.00453394  1.0
  O  O27  1  0.31678923  0.34882695  0.00453394  1.0
  O  O28  1  0.47095769  0.52291011  0.23931806  1.0
  O  O29  1  0.97095769  0.97708989  0.23931806  1.0
  O  O30  1  0.52904231  0.47708989  0.73931806  1.0
  O  O31  1  0.02904231  0.02291011  0.73931806  1.0
  O  O32  1  0.45974281  0.76230741  0.99519873  1.0
  O  O33  1  0.95974281  0.73769259  0.99519873  1.0
  O  O34  1  0.54025719  0.23769259  0.49519873  1.0
  O  O35  1  0.04025719  0.26230741  0.49519873  1.0
  O  O36  1  0.45515191  0.82681771  0.65220525  1.0
  O  O37  1  0.95515191  0.67318229  0.65220525  1.0
  O  O38  1  0.54484809  0.17318229  0.15220525  1.0
  O  O39  1  0.04484809  0.32681771  0.15220525  1.0
  O  O40  1  0.41068343  0.86527739  0.33189963  1.0
  O  O41  1  0.91068343  0.63472261  0.33189963  1.0
  O  O42  1  0.58931657  0.13472261  0.83189963  1.0
  O  O43  1  0.08931657  0.36527739  0.83189963  1.0
  O  O44  1  0.29960585  0.52941698  0.52674452  1.0
  O  O45  1  0.79960585  0.97058302  0.52674452  1.0
  O  O46  1  0.70039415  0.47058302  0.02674452  1.0
  O  O47  1  0.20039415  0.02941698  0.02674452  1.0
  O  O48  1  0.29500047  0.20745063  0.67002557  1.0
  O  O49  1  0.79500047  0.29254937  0.67002557  1.0
  O  O50  1  0.70499953  0.79254937  0.17002557  1.0
  O  O51  1  0.20499953  0.70745063  0.17002557  1.0
  O  O52  1  0.20783686  0.75356563  0.82450849  1.0
  O  O53  1  0.70783686  0.74643437  0.82450849  1.0
  O  O54  1  0.79216314  0.24643437  0.32450849  1.0
  O  O55  1  0.29216314  0.25356563  0.32450849  1.0
