# generated using pymatgen
data_P4S3
_symmetry_space_group_name_H-M   'P 1'
_cell_length_a   11.91012780
_cell_length_b   11.27712265
_cell_length_c   7.22871827
_cell_angle_alpha   90.00000000
_cell_angle_beta   90.00000000
_cell_angle_gamma   90.00000000
_symmetry_Int_Tables_number   1
_chemical_formula_structural   P4S3
_chemical_formula_sum   'P16 S12'
_cell_volume   970.90340617
_cell_formula_units_Z   4
loop_
 _symmetry_equiv_pos_site_id
 _symmetry_equiv_pos_as_xyz
  1  'x, y, z'
loop_
 _atom_site_type_symbol
 _atom_site_label
 _atom_site_symmetry_multiplicity
 _atom_site_fract_x
 _atom_site_fract_y
 _atom_site_fract_z
 _atom_site_occupancy
  P  P0  1  0.64113810  0.25000000  0.16457879  1.0
  P  P1  1  0.14113810  0.25000000  0.33542121  1.0
  P  P2  1  0.35886190  0.75000000  0.83542121  1.0
  P  P3  1  0.85886190  0.75000000  0.66457879  1.0
  P  P4  1  0.91204867  0.25000000  0.59541526  1.0
  P  P5  1  0.41204867  0.25000000  0.90458474  1.0
  P  P6  1  0.08795133  0.75000000  0.40458474  1.0
  P  P7  1  0.58795133  0.75000000  0.09541526  1.0
  P  P8  1  0.94889431  0.85035862  0.26065311  1.0
  P  P9  1  0.94889431  0.64964138  0.26065311  1.0
  P  P10  1  0.44889431  0.85035862  0.23934689  1.0
  P  P11  1  0.44889431  0.64964138  0.23934689  1.0
  P  P12  1  0.05110569  0.35035862  0.73934689  1.0
  P  P13  1  0.05110569  0.14964138  0.73934689  1.0
  P  P14  1  0.55110569  0.35035862  0.76065311  1.0
  P  P15  1  0.55110569  0.14964138  0.76065311  1.0
  S  S16  1  0.96303245  0.25000000  0.31607925  1.0
  S  S17  1  0.46303245  0.25000000  0.18392075  1.0
  S  S18  1  0.03696755  0.75000000  0.68392075  1.0
  S  S19  1  0.53696755  0.75000000  0.81607925  1.0
  S  S20  1  0.83783528  0.89367731  0.47744062  1.0
  S  S21  1  0.83783528  0.60632269  0.47744062  1.0
  S  S22  1  0.33783528  0.89367731  0.02255938  1.0
  S  S23  1  0.33783528  0.60632269  0.02255938  1.0
  S  S24  1  0.16216472  0.39367731  0.52255938  1.0
  S  S25  1  0.16216472  0.10632269  0.52255938  1.0
  S  S26  1  0.66216472  0.39367731  0.97744062  1.0
  S  S27  1  0.66216472  0.10632269  0.97744062  1.0
