# generated using pymatgen
data_Rb8Zr6BeBr20
_symmetry_space_group_name_H-M   'P 1'
_cell_length_a   12.07003405
_cell_length_b   12.07003405
_cell_length_c   12.07003405
_cell_angle_alpha   60.00000000
_cell_angle_beta   60.00000000
_cell_angle_gamma   60.00000000
_symmetry_Int_Tables_number   1
_chemical_formula_structural   Rb8Zr6BeBr20
_chemical_formula_sum   'Rb8 Zr6 Be1 Br20'
_cell_volume   1243.39892646
_cell_formula_units_Z   1
loop_
 _symmetry_equiv_pos_site_id
 _symmetry_equiv_pos_as_xyz
  1  'x, y, z'
loop_
 _atom_site_type_symbol
 _atom_site_label
 _atom_site_symmetry_multiplicity
 _atom_site_fract_x
 _atom_site_fract_y
 _atom_site_fract_z
 _atom_site_occupancy
  Rb  Rb0  1  0.63932905  0.63932905  -0.36067095  1.0
  Rb  Rb1  1  0.36067095  1.36067095  -0.08201286  1.0
  Rb  Rb2  1  1.36067095  -0.08201286  0.36067095  1.0
  Rb  Rb3  1  1.08201286  0.63932905  0.63932905  1.0
  Rb  Rb4  1  -0.08201286  1.36067095  0.36067095  1.0
  Rb  Rb5  1  0.63932905  1.08201286  -0.36067095  1.0
  Rb  Rb6  1  0.63932905  0.63932905  1.08201286  1.0
  Rb  Rb7  1  1.36067095  0.36067095  0.36067095  1.0
  Zr  Zr8  1  -0.85979342  0.85979342  0.85979342  1.0
  Zr  Zr9  1  -0.14020658  0.14020658  0.85979342  1.0
  Zr  Zr10  1  0.85979342  0.85979342  -0.85979342  1.0
  Zr  Zr11  1  0.14020658  1.14020658  -0.14020658  1.0
  Zr  Zr12  1  0.14020658  -0.14020658  1.14020658  1.0
  Zr  Zr13  1  -0.14020658  0.14020658  0.14020658  1.0
  Be  Be14  1  0.00000000  0.00000000  0.00000000  1.0
  Br  Br15  1  0.75000000  0.75000000  -0.25000000  1.0
  Br  Br16  1  1.25000000  0.25000000  0.25000000  1.0
  Br  Br17  1  1.68074830  0.00000000  -0.00000000  1.0
  Br  Br18  1  1.00000000  0.31925170  -0.31925170  1.0
  Br  Br19  1  1.00000000  0.68074830  -0.68074830  1.0
  Br  Br20  1  1.31925170  0.00000000  -0.00000000  1.0
  Br  Br21  1  0.00000000  1.68074830  -0.00000000  1.0
  Br  Br22  1  0.31925170  1.00000000  -0.31925170  1.0
  Br  Br23  1  0.00000000  -0.00000000  0.68074830  1.0
  Br  Br24  1  0.31925170  -0.31925170  1.00000000  1.0
  Br  Br25  1  0.68074830  1.00000000  -0.68074830  1.0
  Br  Br26  1  0.00000000  1.31925170  -0.00000000  1.0
  Br  Br27  1  0.68074830  -0.68074830  1.00000000  1.0
  Br  Br28  1  -0.00000000  0.00000000  0.31925170  1.0
  Br  Br29  1  -0.68930494  0.68930494  0.68930494  1.0
  Br  Br30  1  -0.31069506  0.31069506  0.68930494  1.0
  Br  Br31  1  0.68930494  0.68930494  -0.68930494  1.0
  Br  Br32  1  0.31069506  1.31069506  -0.31069506  1.0
  Br  Br33  1  0.31069506  -0.31069506  1.31069506  1.0
  Br  Br34  1  -0.31069506  0.31069506  0.31069506  1.0
