# generated using pymatgen
data_Sr3MoN4
_symmetry_space_group_name_H-M   'P 1'
_cell_length_a   10.35214943
_cell_length_b   10.35214943
_cell_length_c   9.94265607
_cell_angle_alpha   83.13136545
_cell_angle_beta   96.86863455
_cell_angle_gamma   120.07351215
_symmetry_Int_Tables_number   1
_chemical_formula_structural   Sr3MoN4
_chemical_formula_sum   'Sr18 Mo6 N24'
_cell_volume   913.25916906
_cell_formula_units_Z   6
loop_
 _symmetry_equiv_pos_site_id
 _symmetry_equiv_pos_as_xyz
  1  'x, y, z'
loop_
 _atom_site_type_symbol
 _atom_site_label
 _atom_site_symmetry_multiplicity
 _atom_site_fract_x
 _atom_site_fract_y
 _atom_site_fract_z
 _atom_site_occupancy
  Sr  Sr0  1  0.81774274  -0.13955031  0.91317512  1.0
  Sr  Sr1  1  1.13955031  0.18225726  0.41317512  1.0
  Sr  Sr2  1  0.86044969  -0.18225726  0.58682488  1.0
  Sr  Sr3  1  1.18225726  0.13955031  0.08682488  1.0
  Sr  Sr4  1  0.58028516  -0.11084142  0.40033457  1.0
  Sr  Sr5  1  1.11084142  0.41971484  0.90033457  1.0
  Sr  Sr6  1  0.88915858  -0.41971484  0.09966543  1.0
  Sr  Sr7  1  1.41971484  0.11084142  0.59966543  1.0
  Sr  Sr8  1  0.45094718  -0.19442679  0.04572195  1.0
  Sr  Sr9  1  1.19442679  0.54905282  0.54572195  1.0
  Sr  Sr10  1  0.80557321  -0.54905282  0.45427805  1.0
  Sr  Sr11  1  1.54905282  0.19442679  0.95427805  1.0
  Sr  Sr12  1  0.22066984  -0.14893804  0.29754927  1.0
  Sr  Sr13  1  1.14893804  0.77933016  0.79754927  1.0
  Sr  Sr14  1  0.85106196  -0.77933016  0.20245073  1.0
  Sr  Sr15  1  1.77933016  0.14893804  0.70245073  1.0
  Sr  Sr16  1  0.51633759  -0.48366241  0.25000000  1.0
  Sr  Sr17  1  1.48366241  0.48366241  0.75000000  1.0
  Mo  Mo18  1  1.52771949  0.17663556  0.28808253  1.0
  Mo  Mo19  1  0.82336444  -0.52771949  0.78808253  1.0
  Mo  Mo20  1  1.17663556  0.52771949  0.21191747  1.0
  Mo  Mo21  1  0.47228051  -0.17663556  0.71191747  1.0
  Mo  Mo22  1  0.83533122  -0.16466878  0.25000000  1.0
  Mo  Mo23  1  1.16466878  0.16466878  0.75000000  1.0
  N  N24  1  0.67214015  -0.22632705  0.12257978  1.0
  N  N25  1  1.22632705  0.32785985  0.62257978  1.0
  N  N26  1  0.77367295  -0.32785985  0.37742022  1.0
  N  N27  1  1.32785985  0.22632705  0.87742022  1.0
  N  N28  1  0.86927428  -0.00081251  0.34402127  1.0
  N  N29  1  1.00081251  0.13072572  0.84402127  1.0
  N  N30  1  0.99918749  -0.13072572  0.15597873  1.0
  N  N31  1  1.13072572  0.00081251  0.65597873  1.0
  N  N32  1  1.64463674  0.16653583  0.44355218  1.0
  N  N33  1  0.83346417  -0.64463674  0.94355218  1.0
  N  N34  1  1.16653583  0.64463674  0.05644782  1.0
  N  N35  1  0.35536326  -0.16653583  0.55644782  1.0
  N  N36  1  1.48812290  0.01836395  0.18390755  1.0
  N  N37  1  0.98163605  -0.48812290  0.68390755  1.0
  N  N38  1  1.01836395  0.48812290  0.31609245  1.0
  N  N39  1  0.51187710  -0.01836395  0.81609245  1.0
  N  N40  1  1.63684574  0.35935978  0.19215984  1.0
  N  N41  1  0.64064022  -0.63684574  0.69215984  1.0
  N  N42  1  1.35935978  0.63684574  0.30784016  1.0
  N  N43  1  0.36315426  -0.35935978  0.80784016  1.0
  N  N44  1  1.34310360  0.14675051  0.33631425  1.0
  N  N45  1  0.85324949  -0.34310360  0.83631425  1.0
  N  N46  1  1.14675051  0.34310360  0.16368575  1.0
  N  N47  1  0.65689640  -0.14675051  0.66368575  1.0
