# generated using pymatgen
data_K2LiC3(SN)3
_symmetry_space_group_name_H-M   'P 1'
_cell_length_a   12.28111102
_cell_length_b   9.64921667
_cell_length_c   8.70618651
_cell_angle_alpha   90.00000000
_cell_angle_beta   90.00000000
_cell_angle_gamma   90.00000000
_symmetry_Int_Tables_number   1
_chemical_formula_structural   K2LiC3(SN)3
_chemical_formula_sum   'K8 Li4 C12 S12 N12'
_cell_volume   1031.71010027
_cell_formula_units_Z   4
loop_
 _symmetry_equiv_pos_site_id
 _symmetry_equiv_pos_as_xyz
  1  'x, y, z'
loop_
 _atom_site_type_symbol
 _atom_site_label
 _atom_site_symmetry_multiplicity
 _atom_site_fract_x
 _atom_site_fract_y
 _atom_site_fract_z
 _atom_site_occupancy
  K  K0  1  0.17769264  0.13419202  0.24256824  1.0
  K  K1  1  0.67769264  0.36580798  0.24256824  1.0
  K  K2  1  0.82230736  0.86580798  0.74256824  1.0
  K  K3  1  0.32230736  0.63419202  0.74256824  1.0
  K  K4  1  0.17170850  0.12107974  0.74191708  1.0
  K  K5  1  0.67170850  0.37892026  0.74191708  1.0
  K  K6  1  0.82829150  0.87892026  0.24191708  1.0
  K  K7  1  0.32829150  0.62107974  0.24191708  1.0
  Li  Li8  1  0.08592653  0.46421533  0.09568369  1.0
  Li  Li9  1  0.58592653  0.03578467  0.09568369  1.0
  Li  Li10  1  0.91407347  0.53578467  0.59568369  1.0
  Li  Li11  1  0.41407347  0.96421533  0.59568369  1.0
  C  C12  1  0.45967070  0.27168205  0.98758869  1.0
  C  C13  1  0.95967070  0.22831795  0.98758869  1.0
  C  C14  1  0.54032930  0.72831795  0.48758869  1.0
  C  C15  1  0.04032930  0.77168205  0.48758869  1.0
  C  C16  1  0.38671552  0.24832060  0.49513703  1.0
  C  C17  1  0.88671552  0.25167940  0.49513703  1.0
  C  C18  1  0.61328448  0.75167940  0.99513703  1.0
  C  C19  1  0.11328448  0.74832060  0.99513703  1.0
  C  C20  1  0.13286849  0.43580372  0.44426802  1.0
  C  C21  1  0.63286849  0.06419628  0.44426802  1.0
  C  C22  1  0.86713151  0.56419628  0.94426802  1.0
  C  C23  1  0.36713151  0.93580372  0.94426802  1.0
  S  S24  1  0.45139801  0.39625292  0.48514264  1.0
  S  S25  1  0.95139801  0.10374708  0.48514264  1.0
  S  S26  1  0.54860199  0.60374708  0.98514264  1.0
  S  S27  1  0.04860199  0.89625292  0.98514264  1.0
  S  S28  1  0.38345482  0.94036512  0.13062429  1.0
  S  S29  1  0.88345482  0.55963488  0.13062429  1.0
  S  S30  1  0.61654518  0.05963488  0.63062429  1.0
  S  S31  1  0.11654518  0.44036512  0.63062429  1.0
  S  S32  1  0.33714992  0.33566682  0.97133969  1.0
  S  S33  1  0.83714992  0.16433318  0.97133969  1.0
  S  S34  1  0.66285008  0.66433318  0.47133969  1.0
  S  S35  1  0.16285008  0.83566682  0.47133969  1.0
  N  N36  1  0.34094147  0.14001915  0.50342483  1.0
  N  N37  1  0.84094147  0.35998085  0.50342483  1.0
  N  N38  1  0.65905853  0.85998085  0.00342483  1.0
  N  N39  1  0.15905853  0.64001915  0.00342483  1.0
  N  N40  1  0.14359053  0.43275909  0.30887263  1.0
  N  N41  1  0.64359053  0.06724091  0.30887263  1.0
  N  N42  1  0.85640947  0.56724091  0.80887263  1.0
  N  N43  1  0.35640947  0.93275909  0.80887263  1.0
  N  N44  1  0.04888997  0.27495542  1.00023317  1.0
  N  N45  1  0.54888997  0.22504458  1.00023317  1.0
  N  N46  1  0.95111003  0.72504458  0.50023317  1.0
  N  N47  1  0.45111003  0.77495542  0.50023317  1.0
