# generated using pymatgen
data_Rb5In(MoO4)4
_symmetry_space_group_name_H-M   'P 1'
_cell_length_a   11.72274633
_cell_length_b   8.19631537
_cell_length_c   11.34092124
_cell_angle_alpha   90.00000000
_cell_angle_beta   113.94072140
_cell_angle_gamma   90.00000000
_symmetry_Int_Tables_number   1
_chemical_formula_structural   Rb5In(MoO4)4
_chemical_formula_sum   'Rb10 In2 Mo8 O32'
_cell_volume   995.92422975
_cell_formula_units_Z   2
loop_
 _symmetry_equiv_pos_site_id
 _symmetry_equiv_pos_as_xyz
  1  'x, y, z'
loop_
 _atom_site_type_symbol
 _atom_site_label
 _atom_site_symmetry_multiplicity
 _atom_site_fract_x
 _atom_site_fract_y
 _atom_site_fract_z
 _atom_site_occupancy
  Rb  Rb0  1  0.89181823  0.34713530  0.84558808  1.0
  Rb  Rb1  1  0.89181823  0.65286470  0.34558808  1.0
  Rb  Rb2  1  0.10818177  0.34713530  0.65441192  1.0
  Rb  Rb3  1  0.10818177  0.65286470  0.15441192  1.0
  Rb  Rb4  1  0.40632206  0.86658665  0.35642248  1.0
  Rb  Rb5  1  0.40632206  0.13341335  0.85642248  1.0
  Rb  Rb6  1  0.59367794  0.86658665  0.14357752  1.0
  Rb  Rb7  1  0.59367794  0.13341335  0.64357752  1.0
  Rb  Rb8  1  0.50000000  0.61587173  0.75000000  1.0
  Rb  Rb9  1  0.50000000  0.38412827  0.25000000  1.0
  In  In10  1  0.00000000  0.91737979  0.75000000  1.0
  In  In11  1  -0.00000000  0.08262021  0.25000000  1.0
  Mo  Mo12  1  0.81106557  0.85188794  0.94586142  1.0
  Mo  Mo13  1  0.81106557  0.14811206  0.44586142  1.0
  Mo  Mo14  1  0.18893443  0.85188794  0.55413858  1.0
  Mo  Mo15  1  0.18893443  0.14811206  0.05413858  1.0
  Mo  Mo16  1  0.71621237  0.66555260  0.55844402  1.0
  Mo  Mo17  1  0.71621237  0.33444740  0.05844402  1.0
  Mo  Mo18  1  0.28378763  0.66555260  0.94155598  1.0
  Mo  Mo19  1  0.28378763  0.33444740  0.44155598  1.0
  O  O20  1  0.88043771  0.73206306  0.62471486  1.0
  O  O21  1  0.88043771  0.26793694  0.12471486  1.0
  O  O22  1  0.11956229  0.73206306  0.87528514  1.0
  O  O23  1  0.11956229  0.26793694  0.37528514  1.0
  O  O24  1  0.89010390  0.88988924  0.11832708  1.0
  O  O25  1  0.89010390  0.11011076  0.61832708  1.0
  O  O26  1  0.10989610  0.88988924  0.38167292  1.0
  O  O27  1  0.10989610  0.11011076  0.88167292  1.0
  O  O28  1  0.87587312  0.96901996  0.85231426  1.0
  O  O29  1  0.87587312  0.03098004  0.35231426  1.0
  O  O30  1  0.12412688  0.96901996  0.64768574  1.0
  O  O31  1  0.12412688  0.03098004  0.14768574  1.0
  O  O32  1  0.83224773  0.64514728  0.92308959  1.0
  O  O33  1  0.83224773  0.35485272  0.42308959  1.0
  O  O34  1  0.16775227  0.64514728  0.57691041  1.0
  O  O35  1  0.16775227  0.35485272  0.07691041  1.0
  O  O36  1  0.70062367  0.46663085  0.60996070  1.0
  O  O37  1  0.70062367  0.53336915  0.10996070  1.0
  O  O38  1  0.29937633  0.46663085  0.89003930  1.0
  O  O39  1  0.29937633  0.53336915  0.39003930  1.0
  O  O40  1  0.65449292  0.32676346  0.88750514  1.0
  O  O41  1  0.65449292  0.67323654  0.38750514  1.0
  O  O42  1  0.34550708  0.32676346  0.61249486  1.0
  O  O43  1  0.34550708  0.67323654  0.11249486  1.0
  O  O44  1  0.65211898  0.89861235  0.89586874  1.0
  O  O45  1  0.65211898  0.10138765  0.39586874  1.0
  O  O46  1  0.34788102  0.89861235  0.60413126  1.0
  O  O47  1  0.34788102  0.10138765  0.10413126  1.0
  O  O48  1  0.62341169  0.79600104  0.60608693  1.0
  O  O49  1  0.62341169  0.20399896  0.10608693  1.0
  O  O50  1  0.37658831  0.79600104  0.89391307  1.0
  O  O51  1  0.37658831  0.20399896  0.39391307  1.0
