# generated using pymatgen
data_RhSe2
_symmetry_space_group_name_H-M   'P 1'
_cell_length_a   6.08243984
_cell_length_b   6.08243984
_cell_length_c   6.08243984
_cell_angle_alpha   90.00000000
_cell_angle_beta   90.00000000
_cell_angle_gamma   90.00000000
_symmetry_Int_Tables_number   1
_chemical_formula_structural   RhSe2
_chemical_formula_sum   'Rh4 Se8'
_cell_volume   225.02639680
_cell_formula_units_Z   4
loop_
 _symmetry_equiv_pos_site_id
 _symmetry_equiv_pos_as_xyz
  1  'x, y, z'
loop_
 _atom_site_type_symbol
 _atom_site_label
 _atom_site_symmetry_multiplicity
 _atom_site_fract_x
 _atom_site_fract_y
 _atom_site_fract_z
 _atom_site_occupancy
  Rh  Rh0  1  0.50000000  0.00000000  0.50000000  1.0
  Rh  Rh1  1  0.50000000  0.50000000  0.00000000  1.0
  Rh  Rh2  1  0.00000000  0.00000000  0.00000000  1.0
  Rh  Rh3  1  0.00000000  0.50000000  0.50000000  1.0
  Se  Se4  1  0.12208712  0.62208712  0.87791288  1.0
  Se  Se5  1  0.12208712  0.87791288  0.37791288  1.0
  Se  Se6  1  0.62208712  0.62208712  0.62208712  1.0
  Se  Se7  1  0.62208712  0.87791288  0.12208712  1.0
  Se  Se8  1  0.87791288  0.12208712  0.62208712  1.0
  Se  Se9  1  0.87791288  0.37791288  0.12208712  1.0
  Se  Se10  1  0.37791288  0.12208712  0.87791288  1.0
  Se  Se11  1  0.37791288  0.37791288  0.37791288  1.0
