# generated using pymatgen
data_K3FeO4
_symmetry_space_group_name_H-M   'P 1'
_cell_length_a   7.74184664
_cell_length_b   9.13982472
_cell_length_c   8.00909513
_cell_angle_alpha   90.00000000
_cell_angle_beta   90.00000000
_cell_angle_gamma   90.00000000
_symmetry_Int_Tables_number   1
_chemical_formula_structural   K3FeO4
_chemical_formula_sum   'K12 Fe4 O16'
_cell_volume   566.71653376
_cell_formula_units_Z   4
loop_
 _symmetry_equiv_pos_site_id
 _symmetry_equiv_pos_as_xyz
  1  'x, y, z'
loop_
 _atom_site_type_symbol
 _atom_site_label
 _atom_site_symmetry_multiplicity
 _atom_site_fract_x
 _atom_site_fract_y
 _atom_site_fract_z
 _atom_site_occupancy
  K  K0  1  0.46280640  0.96572634  0.77860817  1.0
  K  K1  1  0.46280640  0.53427366  0.77860817  1.0
  K  K2  1  0.96280640  0.96572634  0.72139183  1.0
  K  K3  1  0.96280640  0.53427366  0.72139183  1.0
  K  K4  1  0.53719360  0.46572634  0.22139183  1.0
  K  K5  1  0.53719360  0.03427366  0.22139183  1.0
  K  K6  1  0.03719360  0.46572634  0.27860817  1.0
  K  K7  1  0.03719360  0.03427366  0.27860817  1.0
  K  K8  1  0.32879277  0.25000000  0.54984186  1.0
  K  K9  1  0.82879277  0.25000000  0.95015814  1.0
  K  K10  1  0.67120723  0.75000000  0.45015814  1.0
  K  K11  1  0.17120723  0.75000000  0.04984186  1.0
  Fe  Fe12  1  0.27569816  0.25000000  0.00858407  1.0
  Fe  Fe13  1  0.77569816  0.25000000  0.49141593  1.0
  Fe  Fe14  1  0.72430184  0.75000000  0.99141593  1.0
  Fe  Fe15  1  0.22430184  0.75000000  0.50858407  1.0
  O  O16  1  0.18557478  0.42013348  0.95921303  1.0
  O  O17  1  0.18557478  0.07986652  0.95921303  1.0
  O  O18  1  0.68557478  0.42013348  0.54078697  1.0
  O  O19  1  0.68557478  0.07986652  0.54078697  1.0
  O  O20  1  0.81442522  0.92013348  0.04078697  1.0
  O  O21  1  0.81442522  0.57986652  0.04078697  1.0
  O  O22  1  0.31442522  0.92013348  0.45921303  1.0
  O  O23  1  0.31442522  0.57986652  0.45921303  1.0
  O  O24  1  0.47824781  0.25000000  0.92191575  1.0
  O  O25  1  0.97824781  0.25000000  0.57808425  1.0
  O  O26  1  0.52175219  0.75000000  0.07808425  1.0
  O  O27  1  0.02175219  0.75000000  0.42191575  1.0
  O  O28  1  0.28793273  0.25000000  0.22222671  1.0
  O  O29  1  0.78793273  0.25000000  0.27777329  1.0
  O  O30  1  0.71206727  0.75000000  0.77777329  1.0
  O  O31  1  0.21206727  0.75000000  0.72222671  1.0
