# generated using pymatgen
data_Mn2GeS4
_symmetry_space_group_name_H-M   'P 1'
_cell_length_a   12.83102104
_cell_length_b   7.47002598
_cell_length_c   6.05692552
_cell_angle_alpha   90.00000000
_cell_angle_beta   90.00000000
_cell_angle_gamma   90.00000000
_symmetry_Int_Tables_number   1
_chemical_formula_structural   Mn2GeS4
_chemical_formula_sum   'Mn8 Ge4 S16'
_cell_volume   580.54456409
_cell_formula_units_Z   4
loop_
 _symmetry_equiv_pos_site_id
 _symmetry_equiv_pos_as_xyz
  1  'x, y, z'
loop_
 _atom_site_type_symbol
 _atom_site_label
 _atom_site_symmetry_multiplicity
 _atom_site_fract_x
 _atom_site_fract_y
 _atom_site_fract_z
 _atom_site_occupancy
  Mn  Mn0  1  0.23081432  0.75000000  0.49563514  1.0
  Mn  Mn1  1  0.73081432  0.75000000  1.00436486  1.0
  Mn  Mn2  1  0.76918568  0.25000000  0.50436486  1.0
  Mn  Mn3  1  0.26918568  0.25000000  -0.00436486  1.0
  Mn  Mn4  1  0.00000000  0.50000000  0.00000000  1.0
  Mn  Mn5  1  0.50000000  0.00000000  0.50000000  1.0
  Mn  Mn6  1  0.00000000  0.00000000  0.00000000  1.0
  Mn  Mn7  1  0.50000000  0.50000000  0.50000000  1.0
  S  S8  1  0.57001286  0.75000000  0.75674114  1.0
  S  S9  1  0.07001286  0.75000000  0.74325886  1.0
  S  S10  1  0.42998714  0.25000000  0.24325886  1.0
  S  S11  1  0.92998714  0.25000000  0.25674114  1.0
  S  S12  1  0.33230654  0.51601366  0.74862862  1.0
  S  S13  1  0.83230654  0.98398634  0.75137138  1.0
  S  S14  1  0.66769346  0.01601366  0.25137138  1.0
  S  S15  1  0.16769346  0.48398634  0.24862862  1.0
  S  S16  1  0.66769346  0.48398634  0.25137138  1.0
  S  S17  1  0.16769346  0.01601366  0.24862862  1.0
  S  S18  1  0.33230654  0.98398634  0.74862862  1.0
  S  S19  1  0.83230654  0.51601366  0.75137138  1.0
  S  S20  1  0.40716331  0.75000000  0.28342287  1.0
  S  S21  1  0.90716331  0.75000000  0.21657713  1.0
  S  S22  1  0.59283669  0.25000000  0.71657713  1.0
  S  S23  1  0.09283669  0.25000000  0.78342287  1.0
  Ge  Ge24  1  0.41057498  0.75000000  0.91607512  1.0
  Ge  Ge25  1  0.91057498  0.75000000  0.58392488  1.0
  Ge  Ge26  1  0.58942502  0.25000000  0.08392488  1.0
  Ge  Ge27  1  0.08942502  0.25000000  0.41607512  1.0
