# generated using pymatgen
data_Hg2GeSe4
_symmetry_space_group_name_H-M   'P 1'
_cell_length_a   7.13192324
_cell_length_b   7.13192324
_cell_length_c   7.13192324
_cell_angle_alpha   131.92219048
_cell_angle_beta   131.92219048
_cell_angle_gamma   70.35194635
_symmetry_Int_Tables_number   1
_chemical_formula_structural   Hg2GeSe4
_chemical_formula_sum   'Hg2 Ge1 Se4'
_cell_volume   196.81469934
_cell_formula_units_Z   1
loop_
 _symmetry_equiv_pos_site_id
 _symmetry_equiv_pos_as_xyz
  1  'x, y, z'
loop_
 _atom_site_type_symbol
 _atom_site_label
 _atom_site_symmetry_multiplicity
 _atom_site_fract_x
 _atom_site_fract_y
 _atom_site_fract_z
 _atom_site_occupancy
  Hg  Hg0  1  0.25000000  0.75000000  0.50000000  1.0
  Hg  Hg1  1  0.50000000  0.50000000  1.00000000  1.0
  Ge  Ge2  1  0.00000000  0.00000000  0.00000000  1.0
  Se  Se3  1  0.38856264  0.93571217  1.06425170  1.0
  Se  Se4  1  1.06428783  1.12853954  1.45285048  1.0
  Se  Se5  1  0.87146046  0.32431094  0.93574830  1.0
  Se  Se6  1  0.67568906  0.61143736  0.54714952  1.0
