# generated using pymatgen
data_NdAlCu
_symmetry_space_group_name_H-M   'P 1'
_cell_length_a   7.16226390
_cell_length_b   7.16226390
_cell_length_c   4.12624632
_cell_angle_alpha   90.00000000
_cell_angle_beta   90.00000000
_cell_angle_gamma   120.00000000
_symmetry_Int_Tables_number   1
_chemical_formula_structural   NdAlCu
_chemical_formula_sum   'Nd3 Al3 Cu3'
_cell_volume   183.31011054
_cell_formula_units_Z   3
loop_
 _symmetry_equiv_pos_site_id
 _symmetry_equiv_pos_as_xyz
  1  'x, y, z'
loop_
 _atom_site_type_symbol
 _atom_site_label
 _atom_site_symmetry_multiplicity
 _atom_site_fract_x
 _atom_site_fract_y
 _atom_site_fract_z
 _atom_site_occupancy
  Nd  Nd0  1  0.42312464  0.42312464  0.00000000  1.0
  Nd  Nd1  1  0.00000000  0.57687536  0.00000000  1.0
  Nd  Nd2  1  0.57687536  0.00000000  0.00000000  1.0
  Al  Al3  1  0.77171707  0.77171707  0.50000000  1.0
  Al  Al4  1  0.00000000  0.22828293  0.50000000  1.0
  Al  Al5  1  0.22828293  0.00000000  0.50000000  1.0
  Cu  Cu6  1  0.33333333  0.66666667  0.50000000  1.0
  Cu  Cu7  1  0.66666667  0.33333333  0.50000000  1.0
  Cu  Cu8  1  0.00000000  0.00000000  0.00000000  1.0
