# generated using pymatgen
data_Sr5(SnP3)2
_symmetry_space_group_name_H-M   'P 1'
_cell_length_a   12.30103546
_cell_length_b   13.90281429
_cell_length_c   4.16648950
_cell_angle_alpha   90.00000000
_cell_angle_beta   90.00000000
_cell_angle_gamma   90.00000000
_symmetry_Int_Tables_number   1
_chemical_formula_structural   Sr5(SnP3)2
_chemical_formula_sum   'Sr10 Sn4 P12'
_cell_volume   712.54891584
_cell_formula_units_Z   2
loop_
 _symmetry_equiv_pos_site_id
 _symmetry_equiv_pos_as_xyz
  1  'x, y, z'
loop_
 _atom_site_type_symbol
 _atom_site_label
 _atom_site_symmetry_multiplicity
 _atom_site_fract_x
 _atom_site_fract_y
 _atom_site_fract_z
 _atom_site_occupancy
  Sr  Sr0  1  0.88108926  0.24224808  0.00000000  1.0
  Sr  Sr1  1  0.11891074  0.75775192  0.00000000  1.0
  Sr  Sr2  1  0.61891074  0.74224808  0.00000000  1.0
  Sr  Sr3  1  0.38108926  0.25775192  0.00000000  1.0
  Sr  Sr4  1  0.50000000  0.50000000  0.00000000  1.0
  Sr  Sr5  1  0.00000000  0.00000000  0.00000000  1.0
  Sr  Sr6  1  0.62899892  0.06948108  0.00000000  1.0
  Sr  Sr7  1  0.37100108  0.93051892  0.00000000  1.0
  Sr  Sr8  1  0.87100108  0.56948108  0.00000000  1.0
  Sr  Sr9  1  0.12899892  0.43051892  0.00000000  1.0
  Sn  Sn10  1  0.71455205  0.39640625  0.50000000  1.0
  Sn  Sn11  1  0.28544795  0.60359375  0.50000000  1.0
  Sn  Sn12  1  0.78544795  0.89640625  0.50000000  1.0
  Sn  Sn13  1  0.21455205  0.10359375  0.50000000  1.0
  P  P14  1  0.66968446  0.57604285  0.50000000  1.0
  P  P15  1  0.33031554  0.42395715  0.50000000  1.0
  P  P16  1  0.83031554  0.07604285  0.50000000  1.0
  P  P17  1  0.16968446  0.92395715  0.50000000  1.0
  P  P18  1  0.92030096  0.39823332  0.50000000  1.0
  P  P19  1  0.07969904  0.60176668  0.50000000  1.0
  P  P20  1  0.57969904  0.89823332  0.50000000  1.0
  P  P21  1  0.42030096  0.10176668  0.50000000  1.0
  P  P22  1  0.63426175  0.30612801  0.00000000  1.0
  P  P23  1  0.36573825  0.69387199  0.00000000  1.0
  P  P24  1  0.86573825  0.80612801  0.00000000  1.0
  P  P25  1  0.13426175  0.19387199  0.00000000  1.0
