# generated using pymatgen
data_LaAu2
_symmetry_space_group_name_H-M   'P 1'
_cell_length_a   6.04751983
_cell_length_b   6.04751983
_cell_length_c   6.04751983
_cell_angle_alpha   133.69706722
_cell_angle_beta   105.13612054
_cell_angle_gamma   92.75363417
_symmetry_Int_Tables_number   1
_chemical_formula_structural   LaAu2
_chemical_formula_sum   'La2 Au4'
_cell_volume   145.85883733
_cell_formula_units_Z   2
loop_
 _symmetry_equiv_pos_site_id
 _symmetry_equiv_pos_as_xyz
  1  'x, y, z'
loop_
 _atom_site_type_symbol
 _atom_site_label
 _atom_site_symmetry_multiplicity
 _atom_site_fract_x
 _atom_site_fract_y
 _atom_site_fract_z
 _atom_site_occupancy
  La  La0  1  1.72888814  1.47888814  1.25000000  1.0
  La  La1  1  0.27111186  0.52111186  0.75000000  1.0
  Au  Au2  1  1.31268145  0.83494785  1.47773360  1.0
  Au  Au3  1  1.14278575  0.16505215  0.97773360  1.0
  Au  Au4  1  0.68731855  1.16505215  0.52226640  1.0
  Au  Au5  1  0.85721425  0.83494785  0.02226640  1.0
