# generated using pymatgen
data_RbMgCO3F
_symmetry_space_group_name_H-M   'P 1'
_cell_length_a   9.12746533
_cell_length_b   9.12746533
_cell_length_c   4.01020621
_cell_angle_alpha   90.00000000
_cell_angle_beta   90.00000000
_cell_angle_gamma   120.00000000
_symmetry_Int_Tables_number   1
_chemical_formula_structural   RbMgCO3F
_chemical_formula_sum   'Rb3 Mg3 C3 O9 F3'
_cell_volume   289.33283377
_cell_formula_units_Z   3
loop_
 _symmetry_equiv_pos_site_id
 _symmetry_equiv_pos_as_xyz
  1  'x, y, z'
loop_
 _atom_site_type_symbol
 _atom_site_label
 _atom_site_symmetry_multiplicity
 _atom_site_fract_x
 _atom_site_fract_y
 _atom_site_fract_z
 _atom_site_occupancy
  Rb  Rb0  1  0.61660010  0.61660010  0.50000000  1.0
  Rb  Rb1  1  -0.00000000  0.38339990  0.50000000  1.0
  Rb  Rb2  1  0.38339990  0.00000000  0.50000000  1.0
  Mg  Mg3  1  0.28047884  0.28047884  0.00000000  1.0
  Mg  Mg4  1  0.00000000  0.71952116  0.00000000  1.0
  Mg  Mg5  1  0.71952116  0.00000000  0.00000000  1.0
  C  C6  1  0.33333333  0.66666667  0.00000000  1.0
  C  C7  1  0.66666667  0.33333333  0.00000000  1.0
  C  C8  1  0.00000000  0.00000000  0.00000000  1.0
  O  O9  1  0.19954930  0.68121297  0.00000000  1.0
  O  O10  1  0.68121297  0.19954930  0.00000000  1.0
  O  O11  1  0.48166367  0.80045070  0.00000000  1.0
  O  O12  1  0.31878703  0.51833633  0.00000000  1.0
  O  O13  1  0.80045070  0.48166367  0.00000000  1.0
  O  O14  1  0.51833633  0.31878703  0.00000000  1.0
  O  O15  1  0.85806985  0.85806985  0.00000000  1.0
  O  O16  1  0.00000000  0.14193015  0.00000000  1.0
  O  O17  1  0.14193015  0.00000000  0.00000000  1.0
  F  F18  1  0.27848219  0.27848219  0.50000000  1.0
  F  F19  1  0.00000000  0.72151781  0.50000000  1.0
  F  F20  1  0.72151781  0.00000000  0.50000000  1.0
