# generated using pymatgen
data_La2Zn5Sn
_symmetry_space_group_name_H-M   'P 1'
_cell_length_a   8.71586427
_cell_length_b   8.71586427
_cell_length_c   9.17268898
_cell_angle_alpha   90.00000000
_cell_angle_beta   90.00000000
_cell_angle_gamma   149.60482344
_symmetry_Int_Tables_number   1
_chemical_formula_structural   La2Zn5Sn
_chemical_formula_sum   'La4 Zn10 Sn2'
_cell_volume   352.56139587
_cell_formula_units_Z   2
loop_
 _symmetry_equiv_pos_site_id
 _symmetry_equiv_pos_as_xyz
  1  'x, y, z'
loop_
 _atom_site_type_symbol
 _atom_site_label
 _atom_site_symmetry_multiplicity
 _atom_site_fract_x
 _atom_site_fract_y
 _atom_site_fract_z
 _atom_site_occupancy
  La  La0  1  -0.20743648  0.20743648  0.75000000  1.0
  La  La1  1  0.20743648  0.79256352  0.25000000  1.0
  La  La2  1  0.00000000  0.00000000  0.00000000  1.0
  La  La3  1  0.00000000  0.00000000  0.50000000  1.0
  Zn  Zn4  1  0.18515069  0.81484931  0.89131014  1.0
  Zn  Zn5  1  0.18515069  0.81484931  0.60868986  1.0
  Zn  Zn6  1  -0.18515069  0.18515069  0.39131014  1.0
  Zn  Zn7  1  -0.18515069  0.18515069  0.10868986  1.0
  Zn  Zn8  1  0.34333084  0.65666916  0.98624494  1.0
  Zn  Zn9  1  0.34333084  0.65666916  0.51375506  1.0
  Zn  Zn10  1  -0.34333084  0.34333084  0.48624494  1.0
  Zn  Zn11  1  -0.34333084  0.34333084  0.01375506  1.0
  Zn  Zn12  1  -0.39727064  0.39727064  0.75000000  1.0
  Zn  Zn13  1  0.39727064  0.60272936  0.25000000  1.0
  Sn  Sn14  1  0.44281788  0.55718212  0.75000000  1.0
  Sn  Sn15  1  -0.44281788  0.44281788  0.25000000  1.0
