# generated using pymatgen
data_Hf(PS3)2
_symmetry_space_group_name_H-M   'P 1'
_cell_length_a   12.38382865
_cell_length_b   11.67974361
_cell_length_c   7.14129050
_cell_angle_alpha   78.22040836
_cell_angle_beta   67.41075374
_cell_angle_gamma   34.36883790
_symmetry_Int_Tables_number   1
_chemical_formula_structural   Hf(PS3)2
_chemical_formula_sum   'Hf2 P4 S12'
_cell_volume   525.58034578
_cell_formula_units_Z   2
loop_
 _symmetry_equiv_pos_site_id
 _symmetry_equiv_pos_as_xyz
  1  'x, y, z'
loop_
 _atom_site_type_symbol
 _atom_site_label
 _atom_site_symmetry_multiplicity
 _atom_site_fract_x
 _atom_site_fract_y
 _atom_site_fract_z
 _atom_site_occupancy
  Hf  Hf0  1  1.00079261  0.00079261  -0.00079261  1.0
  Hf  Hf1  1  0.25079261  0.25079261  0.24920739  1.0
  P  P2  1  0.66876402  0.00561015  0.20736823  1.0
  P  P3  1  0.04263177  0.13174240  0.58123598  1.0
  P  P4  1  0.00561015  0.66876402  0.11825760  1.0
  P  P5  1  0.13174240  0.04263177  0.24438985  1.0
  S  S6  1  0.58641072  0.06837780  0.96499819  1.0
  S  S7  1  0.28500181  -0.13021330  0.66358928  1.0
  S  S8  1  0.06837780  0.58641072  0.38021330  1.0
  S  S9  1  -0.13021330  0.28500181  1.18162220  1.0
  S  S10  1  0.67687451  0.16134050  0.27284038  1.0
  S  S11  1  -0.02284038  0.36105540  1.57312549  1.0
  S  S12  1  0.16134050  0.67687451  0.88894460  1.0
  S  S13  1  0.36105540  -0.02284038  0.08865950  1.0
  S  S14  1  0.47372194  0.05910776  0.46273056  1.0
  S  S15  1  0.78726944  -0.75443975  0.77627806  1.0
  S  S16  1  0.05910776  0.47372194  1.00443975  1.0
  S  S17  1  -0.75443975  0.78726944  1.19089224  1.0
