# generated using pymatgen
data_Rb6Ti2O7
_symmetry_space_group_name_H-M   'P 1'
_cell_length_a   6.93164072
_cell_length_b   9.71909515
_cell_length_c   11.85844874
_cell_angle_alpha   90.00000000
_cell_angle_beta   123.80059167
_cell_angle_gamma   90.00000000
_symmetry_Int_Tables_number   1
_chemical_formula_structural   Rb6Ti2O7
_chemical_formula_sum   'Rb12 Ti4 O14'
_cell_volume   663.86483289
_cell_formula_units_Z   2
loop_
 _symmetry_equiv_pos_site_id
 _symmetry_equiv_pos_as_xyz
  1  'x, y, z'
loop_
 _atom_site_type_symbol
 _atom_site_label
 _atom_site_symmetry_multiplicity
 _atom_site_fract_x
 _atom_site_fract_y
 _atom_site_fract_z
 _atom_site_occupancy
  Rb  Rb0  1  0.90379739  0.70919155  0.27884257  1.0
  Rb  Rb1  1  0.90379739  0.79080845  0.77884257  1.0
  Rb  Rb2  1  0.09620261  0.20919155  0.22115743  1.0
  Rb  Rb3  1  0.09620261  0.29080845  0.72115743  1.0
  Rb  Rb4  1  0.70636897  0.02737751  0.45472799  1.0
  Rb  Rb5  1  0.70636897  0.47262249  0.95472799  1.0
  Rb  Rb6  1  0.29363103  0.52737751  0.04527201  1.0
  Rb  Rb7  1  0.29363103  0.97262249  0.54527201  1.0
  Rb  Rb8  1  0.45340248  0.15173344  0.07452717  1.0
  Rb  Rb9  1  0.45340248  0.34826656  0.57452717  1.0
  Rb  Rb10  1  0.54659752  0.65173344  0.42547283  1.0
  Rb  Rb11  1  0.54659752  0.84826656  0.92547283  1.0
  Ti  Ti12  1  0.81700913  0.35994515  0.37110292  1.0
  Ti  Ti13  1  0.81700913  0.14005485  0.87110292  1.0
  Ti  Ti14  1  0.18299087  0.85994515  0.12889708  1.0
  Ti  Ti15  1  0.18299087  0.64005485  0.62889708  1.0
  O  O16  1  0.99886628  0.20764229  0.42829047  1.0
  O  O17  1  0.99886628  0.29235771  0.92829047  1.0
  O  O18  1  0.00113372  0.70764229  0.07170953  1.0
  O  O19  1  0.00113372  0.79235771  0.57170953  1.0
  O  O20  1  0.74551502  0.40768495  0.20420980  1.0
  O  O21  1  0.74551502  0.09231505  0.70420980  1.0
  O  O22  1  0.25448498  0.90768495  0.29579020  1.0
  O  O23  1  0.25448498  0.59231505  0.79579020  1.0
  O  O24  1  0.55626835  0.33062381  0.36970256  1.0
  O  O25  1  0.55626835  0.16937619  0.86970256  1.0
  O  O26  1  0.44373165  0.83062381  0.13029744  1.0
  O  O27  1  0.44373165  0.66937619  0.63029744  1.0
  O  O28  1  -0.00000000  0.50000000  0.50000000  1.0
  O  O29  1  0.00000000  0.00000000  0.00000000  1.0
