# generated using pymatgen
data_LiGeTe2
_symmetry_space_group_name_H-M   'P 1'
_cell_length_a   11.50922365
_cell_length_b   9.27849515
_cell_length_c   7.33779650
_cell_angle_alpha   70.37711501
_cell_angle_beta   76.93267719
_cell_angle_gamma   75.31836172
_symmetry_Int_Tables_number   1
_chemical_formula_structural   LiGeTe2
_chemical_formula_sum   'Li6 Ge6 Te12'
_cell_volume   705.38511204
_cell_formula_units_Z   6
loop_
 _symmetry_equiv_pos_site_id
 _symmetry_equiv_pos_as_xyz
  1  'x, y, z'
loop_
 _atom_site_type_symbol
 _atom_site_label
 _atom_site_symmetry_multiplicity
 _atom_site_fract_x
 _atom_site_fract_y
 _atom_site_fract_z
 _atom_site_occupancy
  Li  Li0  1  -0.30927539  -0.64889555  -0.98113636  1.0
  Li  Li1  1  -0.69072461  -0.35110445  -0.01886364  1.0
  Li  Li2  1  -0.82150335  -0.68077517  -0.53061096  1.0
  Li  Li3  1  -0.17849665  -0.31922483  -0.46938904  1.0
  Li  Li4  1  -0.50000000  -0.00000000  -0.50000000  1.0
  Li  Li5  1  0.00000000  0.00000000  0.00000000  1.0
  Ge  Ge6  1  -0.70628989  -0.96109495  -0.96038420  1.0
  Ge  Ge7  1  -0.29371011  -0.03890505  -0.03961580  1.0
  Ge  Ge8  1  -0.40216835  -0.25746404  -0.94959279  1.0
  Ge  Ge9  1  -0.59783165  -0.74253596  -0.05040721  1.0
  Ge  Ge10  1  -0.95004776  -0.61050109  -0.06673975  1.0
  Ge  Ge11  1  -0.04995224  -0.38949891  -0.93326025  1.0
  Te  Te12  1  -0.57376188  -0.66675093  -0.75807693  1.0
  Te  Te13  1  -0.42623812  -0.33324907  -0.24192307  1.0
  Te  Te14  1  -0.90720981  -0.85034018  -0.74953915  1.0
  Te  Te15  1  -0.09279019  -0.14965982  -0.25046085  1.0
  Te  Te16  1  -0.24731551  -0.98625713  -0.74518227  1.0
  Te  Te17  1  -0.75268449  -0.01374287  -0.25481773  1.0
  Te  Te18  1  -0.91883124  -0.33338859  -0.73505377  1.0
  Te  Te19  1  -0.08116876  -0.66661141  -0.26494623  1.0
  Te  Te20  1  -0.59800419  -0.19759622  -0.69404920  1.0
  Te  Te21  1  -0.40199581  -0.80240378  -0.30595080  1.0
  Te  Te22  1  -0.74375821  -0.52125001  -0.27937946  1.0
  Te  Te23  1  -0.25624179  -0.47874999  -0.72062054  1.0
