# generated using pymatgen
data_CeO3
_symmetry_space_group_name_H-M   'P 1'
_cell_length_a   6.08964807
_cell_length_b   6.08964807
_cell_length_c   3.64612982
_cell_angle_alpha   90.00000000
_cell_angle_beta   90.00000000
_cell_angle_gamma   120.00000000
_symmetry_Int_Tables_number   1
_chemical_formula_structural   CeO3
_chemical_formula_sum   'Ce2 O6'
_cell_volume   117.09737240
_cell_formula_units_Z   2
loop_
 _symmetry_equiv_pos_site_id
 _symmetry_equiv_pos_as_xyz
  1  'x, y, z'
loop_
 _atom_site_type_symbol
 _atom_site_label
 _atom_site_symmetry_multiplicity
 _atom_site_fract_x
 _atom_site_fract_y
 _atom_site_fract_z
 _atom_site_occupancy
  Ce  Ce0  1  0.33333333  0.66666667  0.25000000  1.0
  Ce  Ce1  1  0.66666667  0.33333333  0.75000000  1.0
  O  O2  1  0.67374265  0.58824091  0.25000000  1.0
  O  O3  1  0.58824091  0.91449825  0.75000000  1.0
  O  O4  1  0.91449825  0.32625735  0.25000000  1.0
  O  O5  1  0.41175909  0.08550175  0.25000000  1.0
  O  O6  1  0.32625735  0.41175909  0.75000000  1.0
  O  O7  1  0.08550175  0.67374265  0.75000000  1.0
