# generated using pymatgen
data_La3Si2Cl3O7
_symmetry_space_group_name_H-M   'P 1'
_cell_length_a   5.41117011
_cell_length_b   12.29898621
_cell_length_c   7.99133927
_cell_angle_alpha   90.00000000
_cell_angle_beta   108.79980176
_cell_angle_gamma   90.00000000
_symmetry_Int_Tables_number   1
_chemical_formula_structural   La3Si2Cl3O7
_chemical_formula_sum   'La6 Si4 Cl6 O14'
_cell_volume   503.46546049
_cell_formula_units_Z   2
loop_
 _symmetry_equiv_pos_site_id
 _symmetry_equiv_pos_as_xyz
  1  'x, y, z'
loop_
 _atom_site_type_symbol
 _atom_site_label
 _atom_site_symmetry_multiplicity
 _atom_site_fract_x
 _atom_site_fract_y
 _atom_site_fract_z
 _atom_site_occupancy
  La  La0  1  0.94324067  0.74380625  0.79909064  1.0
  La  La1  1  0.05675933  0.24380625  0.20090936  1.0
  La  La2  1  0.79300903  0.46564667  0.47110684  1.0
  La  La3  1  0.20699097  0.96564667  0.52889316  1.0
  La  La4  1  0.52755458  0.49138148  0.92276699  1.0
  La  La5  1  0.47244542  0.99138148  0.07723301  1.0
  Si  Si6  1  0.88682956  0.04086994  0.81473901  1.0
  Si  Si7  1  0.11317044  0.54086994  0.18526099  1.0
  Si  Si8  1  0.71322941  0.15327728  0.43484193  1.0
  Si  Si9  1  0.28677059  0.65327728  0.56515807  1.0
  Cl  Cl10  1  0.95612173  0.37424314  0.83498510  1.0
  Cl  Cl11  1  0.04387827  0.87424314  0.16501490  1.0
  Cl  Cl12  1  0.50955891  0.24557705  0.99423206  1.0
  Cl  Cl13  1  0.49044109  0.74557705  0.00576794  1.0
  Cl  Cl14  1  0.34535636  0.36937344  0.55899177  1.0
  Cl  Cl15  1  0.65464364  0.86937344  0.44100823  1.0
  O  O16  1  0.91779951  0.43907340  0.19728212  1.0
  O  O17  1  0.08220049  0.93907340  0.80271788  1.0
  O  O18  1  0.87877176  0.11246533  0.63701332  1.0
  O  O19  1  0.12122824  0.61246533  0.36298668  1.0
  O  O20  1  0.84950800  0.08496038  0.30742878  1.0
  O  O21  1  0.15049200  0.58496038  0.69257122  1.0
  O  O22  1  0.77642381  0.27918852  0.40480927  1.0
  O  O23  1  0.22357619  0.77918852  0.59519073  1.0
  O  O24  1  0.59415268  0.00240087  0.80738548  1.0
  O  O25  1  0.40584732  0.50240087  0.19261452  1.0
  O  O26  1  0.59497669  0.61768939  0.62492393  1.0
  O  O27  1  0.40502331  0.11768939  0.37507607  1.0
  O  O28  1  0.05396805  0.10314686  0.99562048  1.0
  O  O29  1  0.94603195  0.60314686  0.00437952  1.0
