# generated using pymatgen
data_Hf7Ni10
_symmetry_space_group_name_H-M   'P 1'
_cell_length_a   7.66271362
_cell_length_b   7.66271362
_cell_length_c   9.12755905
_cell_angle_alpha   90.00000000
_cell_angle_beta   90.00000000
_cell_angle_gamma   72.94463537
_symmetry_Int_Tables_number   1
_chemical_formula_structural   Hf7Ni10
_chemical_formula_sum   'Hf14 Ni20'
_cell_volume   512.37464764
_cell_formula_units_Z   2
loop_
 _symmetry_equiv_pos_site_id
 _symmetry_equiv_pos_as_xyz
  1  'x, y, z'
loop_
 _atom_site_type_symbol
 _atom_site_label
 _atom_site_symmetry_multiplicity
 _atom_site_fract_x
 _atom_site_fract_y
 _atom_site_fract_z
 _atom_site_occupancy
  Hf  Hf0  1  -0.18524216  1.18524216  0.31355116  1.0
  Hf  Hf1  1  0.31475784  0.68524216  0.18644884  1.0
  Hf  Hf2  1  0.18524216  0.81475784  0.68644884  1.0
  Hf  Hf3  1  -0.31475784  1.31475784  0.81355116  1.0
  Hf  Hf4  1  -0.49564703  0.99564703  0.25000000  1.0
  Hf  Hf5  1  0.00435297  1.49564703  0.25000000  1.0
  Hf  Hf6  1  -0.00435297  0.50435297  0.75000000  1.0
  Hf  Hf7  1  0.49564703  1.00435297  0.75000000  1.0
  Hf  Hf8  1  0.19319398  1.19319398  0.50000000  1.0
  Hf  Hf9  1  -0.30680602  0.69319398  0.00000000  1.0
  Hf  Hf10  1  -0.19319398  0.80680602  0.50000000  1.0
  Hf  Hf11  1  0.30680602  1.30680602  0.00000000  1.0
  Hf  Hf12  1  -0.50000000  0.50000000  0.50000000  1.0
  Hf  Hf13  1  0.00000000  1.00000000  0.00000000  1.0
  Ni  Ni14  1  0.36441894  1.34661912  0.29157158  1.0
  Ni  Ni15  1  -0.13558106  0.84661912  0.20842842  1.0
  Ni  Ni16  1  0.34661912  1.36441894  0.70842842  1.0
  Ni  Ni17  1  -0.15338088  0.86441894  0.79157158  1.0
  Ni  Ni18  1  -0.34661912  0.63558106  0.29157158  1.0
  Ni  Ni19  1  0.15338088  1.13558106  0.20842842  1.0
  Ni  Ni20  1  -0.36441894  0.65338088  0.70842842  1.0
  Ni  Ni21  1  0.13558106  1.15338088  0.79157158  1.0
  Ni  Ni22  1  0.43592498  0.85357314  0.49323565  1.0
  Ni  Ni23  1  -0.06407502  1.35357314  0.00676435  1.0
  Ni  Ni24  1  -0.14642686  1.43592498  0.50676435  1.0
  Ni  Ni25  1  0.35357314  0.93592498  0.99323565  1.0
  Ni  Ni26  1  0.14642686  0.56407502  0.49323565  1.0
  Ni  Ni27  1  -0.35357314  1.06407502  0.00676435  1.0
  Ni  Ni28  1  -0.43592498  1.14642686  0.50676435  1.0
  Ni  Ni29  1  0.06407502  0.64642686  0.99323565  1.0
  Ni  Ni30  1  -0.39309116  1.39309116  0.10514224  1.0
  Ni  Ni31  1  0.10690884  0.89309116  0.39485776  1.0
  Ni  Ni32  1  0.39309116  0.60690884  0.89485776  1.0
  Ni  Ni33  1  -0.10690884  1.10690884  0.60514224  1.0
