# generated using pymatgen
data_CaZr4(PO4)6
_symmetry_space_group_name_H-M   'P 1'
_cell_length_a   9.18229451
_cell_length_b   9.18229451
_cell_length_c   9.18229451
_cell_angle_alpha   58.26972405
_cell_angle_beta   58.26972405
_cell_angle_gamma   58.26972406
_symmetry_Int_Tables_number   1
_chemical_formula_structural   CaZr4(PO4)6
_chemical_formula_sum   'Ca1 Zr4 P6 O24'
_cell_volume   525.74629078
_cell_formula_units_Z   1
loop_
 _symmetry_equiv_pos_site_id
 _symmetry_equiv_pos_as_xyz
  1  'x, y, z'
loop_
 _atom_site_type_symbol
 _atom_site_label
 _atom_site_symmetry_multiplicity
 _atom_site_fract_x
 _atom_site_fract_y
 _atom_site_fract_z
 _atom_site_occupancy
  Ca  Ca0  1  0.00000000  0.00000000  0.00000000  1.0
  Zr  Zr1  1  0.14861392  0.14861392  0.14861392  1.0
  Zr  Zr2  1  0.85138608  -0.14861392  -0.14861392  1.0
  Zr  Zr3  1  0.36158843  0.36158843  -0.63841157  1.0
  Zr  Zr4  1  0.63841157  0.63841157  -0.36158843  1.0
  P  P5  1  0.54562303  0.24273114  -0.02920751  1.0
  P  P6  1  1.02920751  -0.54562303  -0.24273114  1.0
  P  P7  1  0.75726886  0.02920751  -0.54562303  1.0
  P  P8  1  0.45437697  -0.24273114  0.02920751  1.0
  P  P9  1  0.97079249  -0.45437697  0.24273114  1.0
  P  P10  1  1.24273114  -0.02920751  -0.45437697  1.0
  O  O11  1  0.19036161  1.00797468  -0.60978630  1.0
  O  O12  1  0.60978630  -0.19036161  -0.00797468  1.0
  O  O13  1  0.99202532  -0.39021370  -0.19036161  1.0
  O  O14  1  0.80963839  -0.00797468  -0.39021370  1.0
  O  O15  1  0.39021370  0.19036161  0.00797468  1.0
  O  O16  1  1.00797468  0.39021370  -0.80963839  1.0
  O  O17  1  0.58453568  0.20033233  -0.55443320  1.0
  O  O18  1  0.55443320  0.41546432  -0.20033233  1.0
  O  O19  1  0.79966767  0.55443320  -0.58453568  1.0
  O  O20  1  0.41546432  0.79966767  -0.44556680  1.0
  O  O21  1  0.44556680  0.58453568  -0.79966767  1.0
  O  O22  1  0.20033233  0.44556680  -0.41546432  1.0
  O  O23  1  0.26766273  -0.08356095  0.06486151  1.0
  O  O24  1  0.93513849  -0.26766273  0.08356095  1.0
  O  O25  1  1.08356095  -0.06486151  -0.26766273  1.0
  O  O26  1  0.73233727  0.08356095  -0.06486151  1.0
  O  O27  1  1.06486151  -0.73233727  -0.08356095  1.0
  O  O28  1  0.91643905  0.06486151  -0.73233727  1.0
  O  O29  1  0.51319339  0.27023238  0.13830305  1.0
  O  O30  1  0.86169695  -0.51319339  -0.27023238  1.0
  O  O31  1  0.72976762  -0.13830305  -0.51319339  1.0
  O  O32  1  0.48680661  -0.27023238  -0.13830305  1.0
  O  O33  1  1.13830305  -0.48680661  0.27023238  1.0
  O  O34  1  1.27023238  0.13830305  -0.48680661  1.0
