# generated using pymatgen
data_RbAlCl4
_symmetry_space_group_name_H-M   'P 1'
_cell_length_a   11.32295817
_cell_length_b   7.28414731
_cell_length_c   9.64683679
_cell_angle_alpha   90.00000000
_cell_angle_beta   90.00000000
_cell_angle_gamma   90.00000000
_symmetry_Int_Tables_number   1
_chemical_formula_structural   RbAlCl4
_chemical_formula_sum   'Rb4 Al4 Cl16'
_cell_volume   795.65272381
_cell_formula_units_Z   4
loop_
 _symmetry_equiv_pos_site_id
 _symmetry_equiv_pos_as_xyz
  1  'x, y, z'
loop_
 _atom_site_type_symbol
 _atom_site_label
 _atom_site_symmetry_multiplicity
 _atom_site_fract_x
 _atom_site_fract_y
 _atom_site_fract_z
 _atom_site_occupancy
  Rb  Rb0  1  0.31341633  0.75000000  0.17933895  1.0
  Rb  Rb1  1  0.81341633  0.75000000  0.32066105  1.0
  Rb  Rb2  1  0.68658367  0.25000000  0.82066105  1.0
  Rb  Rb3  1  0.18658367  0.25000000  0.67933895  1.0
  Al  Al4  1  0.43675080  0.75000000  0.68803950  1.0
  Al  Al5  1  0.93675080  0.75000000  0.81196050  1.0
  Al  Al6  1  0.56324920  0.25000000  0.31196050  1.0
  Al  Al7  1  0.06324920  0.25000000  0.18803950  1.0
  Cl  Cl8  1  0.42536189  0.99118190  0.81933994  1.0
  Cl  Cl9  1  0.42536189  0.50881810  0.81933994  1.0
  Cl  Cl10  1  0.92536189  0.99118190  0.68066006  1.0
  Cl  Cl11  1  0.92536189  0.50881810  0.68066006  1.0
  Cl  Cl12  1  0.57463811  0.49118190  0.18066006  1.0
  Cl  Cl13  1  0.57463811  0.00881810  0.18066006  1.0
  Cl  Cl14  1  0.07463811  0.49118190  0.31933994  1.0
  Cl  Cl15  1  0.07463811  0.00881810  0.31933994  1.0
  Cl  Cl16  1  0.28860534  0.75000000  0.54740856  1.0
  Cl  Cl17  1  0.78860534  0.75000000  0.95259144  1.0
  Cl  Cl18  1  0.71139466  0.25000000  0.45259144  1.0
  Cl  Cl19  1  0.21139466  0.25000000  0.04740856  1.0
  Cl  Cl20  1  0.10367260  0.75000000  0.91843351  1.0
  Cl  Cl21  1  0.60367260  0.75000000  0.58156649  1.0
  Cl  Cl22  1  0.89632740  0.25000000  0.08156649  1.0
  Cl  Cl23  1  0.39632740  0.25000000  0.41843351  1.0
