# generated using pymatgen
data_KNb(PO4)2
_symmetry_space_group_name_H-M   'P 1'
_cell_length_a   5.24496893
_cell_length_b   11.98533151
_cell_length_c   13.02787715
_cell_angle_alpha   90.00000000
_cell_angle_beta   112.65922970
_cell_angle_gamma   90.00000000
_symmetry_Int_Tables_number   1
_chemical_formula_structural   KNb(PO4)2
_chemical_formula_sum   'K4 Nb4 P8 O32'
_cell_volume   755.75333846
_cell_formula_units_Z   4
loop_
 _symmetry_equiv_pos_site_id
 _symmetry_equiv_pos_as_xyz
  1  'x, y, z'
loop_
 _atom_site_type_symbol
 _atom_site_label
 _atom_site_symmetry_multiplicity
 _atom_site_fract_x
 _atom_site_fract_y
 _atom_site_fract_z
 _atom_site_occupancy
  K  K0  1  0.31596629  0.13428830  0.05389300  1.0
  K  K1  1  0.31596629  0.36571170  0.55389300  1.0
  K  K2  1  0.68403371  0.63428830  0.44610700  1.0
  K  K3  1  0.68403371  0.86571170  0.94610700  1.0
  Nb  Nb4  1  0.91269670  0.62302056  0.16918541  1.0
  Nb  Nb5  1  0.91269670  0.87697944  0.66918541  1.0
  Nb  Nb6  1  0.08730330  0.12302056  0.33081459  1.0
  Nb  Nb7  1  0.08730330  0.37697944  0.83081459  1.0
  P  P8  1  0.61428911  0.93705125  0.36535948  1.0
  P  P9  1  0.61428911  0.56294875  0.86535948  1.0
  P  P10  1  0.38571089  0.43705125  0.13464052  1.0
  P  P11  1  0.38571089  0.06294875  0.63464052  1.0
  P  P12  1  0.60477669  0.31074387  0.34851430  1.0
  P  P13  1  0.60477669  0.18925613  0.84851430  1.0
  P  P14  1  0.39522331  0.81074387  0.15148570  1.0
  P  P15  1  0.39522331  0.68925613  0.65148570  1.0
  O  O16  1  0.98083440  0.14169637  0.18842462  1.0
  O  O17  1  0.98083440  0.35830363  0.68842462  1.0
  O  O18  1  0.01916560  0.64169637  0.31157538  1.0
  O  O19  1  0.01916560  0.85830363  0.81157538  1.0
  O  O20  1  0.88325902  0.25572792  0.36195147  1.0
  O  O21  1  0.88325902  0.24427208  0.86195147  1.0
  O  O22  1  0.11674098  0.75572792  0.13804853  1.0
  O  O23  1  0.11674098  0.74427208  0.63804853  1.0
  O  O24  1  0.77143244  0.89210128  0.48036566  1.0
  O  O25  1  0.77143244  0.60789872  0.98036566  1.0
  O  O26  1  0.22856756  0.39210128  0.01963434  1.0
  O  O27  1  0.22856756  0.10789872  0.51963434  1.0
  O  O28  1  0.77481210  0.02088460  0.32266035  1.0
  O  O29  1  0.77481210  0.47911540  0.82266035  1.0
  O  O30  1  0.22518790  0.52088460  0.17733965  1.0
  O  O31  1  0.22518790  0.97911540  0.67733965  1.0
  O  O32  1  0.67131146  0.48698833  0.15372794  1.0
  O  O33  1  0.67131146  0.01301167  0.65372794  1.0
  O  O34  1  0.32868854  0.98698833  0.34627206  1.0
  O  O35  1  0.32868854  0.51301167  0.84627206  1.0
  O  O36  1  0.63511464  0.41699219  0.41221297  1.0
  O  O37  1  0.63511464  0.08300781  0.91221297  1.0
  O  O38  1  0.36488536  0.91699219  0.08778703  1.0
  O  O39  1  0.36488536  0.58300781  0.58778703  1.0
  O  O40  1  0.44326910  0.32784250  0.21408554  1.0
  O  O41  1  0.44326910  0.17215750  0.71408554  1.0
  O  O42  1  0.55673090  0.82784250  0.28591446  1.0
  O  O43  1  0.55673090  0.67215750  0.78591446  1.0
  O  O44  1  0.42445588  0.22199539  0.37623872  1.0
  O  O45  1  0.42445588  0.27800461  0.87623872  1.0
  O  O46  1  0.57554412  0.72199539  0.12376128  1.0
  O  O47  1  0.57554412  0.77800461  0.62376128  1.0
