# generated using pymatgen
data_Ca3B4(H4O)3
_symmetry_space_group_name_H-M   'P 1'
_cell_length_a   6.04907339
_cell_length_b   6.04907339
_cell_length_c   11.82525281
_cell_angle_alpha   90.00000000
_cell_angle_beta   90.00000000
_cell_angle_gamma   83.81374647
_symmetry_Int_Tables_number   1
_chemical_formula_structural   Ca3B4(H4O)3
_chemical_formula_sum   'Ca6 B8 H24 O6'
_cell_volume   430.18155527
_cell_formula_units_Z   2
loop_
 _symmetry_equiv_pos_site_id
 _symmetry_equiv_pos_as_xyz
  1  'x, y, z'
loop_
 _atom_site_type_symbol
 _atom_site_label
 _atom_site_symmetry_multiplicity
 _atom_site_fract_x
 _atom_site_fract_y
 _atom_site_fract_z
 _atom_site_occupancy
  Ca  Ca0  1  0.04655238  0.49026969  0.06874408  1.0
  Ca  Ca1  1  -0.50973031  1.04655238  0.56874408  1.0
  Ca  Ca2  1  0.50973031  0.95344762  0.06874408  1.0
  Ca  Ca3  1  -0.04655238  1.50973031  0.56874408  1.0
  Ca  Ca4  1  0.41854929  0.58145071  0.33804306  1.0
  Ca  Ca5  1  -0.41854929  1.41854929  0.83804306  1.0
  B  B6  1  -0.05490853  1.50468489  0.31590433  1.0
  B  B7  1  0.50468489  0.94509147  0.81590433  1.0
  B  B8  1  -0.50468489  1.05490853  0.31590433  1.0
  B  B9  1  0.05490853  0.49531511  0.81590433  1.0
  B  B10  1  -0.00731746  1.00731746  0.08095782  1.0
  B  B11  1  0.00731746  0.99268254  0.58095782  1.0
  B  B12  1  0.49961777  0.50038223  0.06246321  1.0
  B  B13  1  -0.49961777  1.49961777  0.56246321  1.0
  H  H14  1  -0.10016091  1.88368424  0.14250536  1.0
  H  H15  1  0.88368424  0.89983909  0.64250536  1.0
  H  H16  1  -0.88368424  1.10016091  0.14250536  1.0
  H  H17  1  0.10016091  0.11631576  0.64250536  1.0
  H  H18  1  0.00615003  1.67181538  0.35980603  1.0
  H  H19  1  0.67181538  1.00615003  0.85980603  1.0
  H  H20  1  -0.67181538  0.99384997  0.35980603  1.0
  H  H21  1  -0.00615003  0.32818462  0.85980603  1.0
  H  H22  1  0.09883486  0.38751025  0.27231340  1.0
  H  H23  1  -0.61248975  1.09883486  0.77231340  1.0
  H  H24  1  0.61248975  0.90116514  0.27231340  1.0
  H  H25  1  -0.09883486  1.61248975  0.77231340  1.0
  H  H26  1  -0.19473983  1.56486552  0.24407177  1.0
  H  H27  1  0.56486552  0.80526017  0.74407177  1.0
  H  H28  1  -0.56486552  1.19473983  0.24407177  1.0
  H  H29  1  0.19473983  0.43513448  0.74407177  1.0
  H  H30  1  -0.13653145  1.38582961  0.38413729  1.0
  H  H31  1  0.38582961  0.86346855  0.88413729  1.0
  H  H32  1  -0.38582961  1.13653145  0.38413729  1.0
  H  H33  1  0.13653145  0.61417039  0.88413729  1.0
  H  H34  1  0.09392029  0.90607971  0.00427744  1.0
  H  H35  1  -0.09392029  1.09392029  0.50427744  1.0
  H  H36  1  0.14545125  0.85454875  0.53725270  1.0
  H  H37  1  -0.14545125  1.14545125  0.03725270  1.0
  O  O38  1  -0.31796612  1.58346761  0.01437045  1.0
  O  O39  1  0.58346761  0.68203388  0.51437045  1.0
  O  O40  1  -0.58346761  1.31796612  0.01437045  1.0
  O  O41  1  0.31796612  0.41653239  0.51437045  1.0
  O  O42  1  0.37740754  0.62259246  0.14480036  1.0
  O  O43  1  -0.37740754  1.37740754  0.64480036  1.0
