# generated using pymatgen
data_Ba5Sb3
_symmetry_space_group_name_H-M   'P 1'
_cell_length_a   10.12843539
_cell_length_b   10.12843539
_cell_length_c   7.90558078
_cell_angle_alpha   90.00000000
_cell_angle_beta   90.00000000
_cell_angle_gamma   120.00000000
_symmetry_Int_Tables_number   1
_chemical_formula_structural   Ba5Sb3
_chemical_formula_sum   'Ba10 Sb6'
_cell_volume   702.34280208
_cell_formula_units_Z   2
loop_
 _symmetry_equiv_pos_site_id
 _symmetry_equiv_pos_as_xyz
  1  'x, y, z'
loop_
 _atom_site_type_symbol
 _atom_site_label
 _atom_site_symmetry_multiplicity
 _atom_site_fract_x
 _atom_site_fract_y
 _atom_site_fract_z
 _atom_site_occupancy
  Ba  Ba0  1  0.73991200  0.73991200  0.25000000  1.0
  Ba  Ba1  1  0.73991200  0.00000000  0.75000000  1.0
  Ba  Ba2  1  -0.00000000  0.73991200  0.75000000  1.0
  Ba  Ba3  1  -0.00000000  0.26008800  0.25000000  1.0
  Ba  Ba4  1  0.26008800  0.26008800  0.75000000  1.0
  Ba  Ba5  1  0.26008800  0.00000000  0.25000000  1.0
  Ba  Ba6  1  0.33333333  0.66666667  0.50000000  1.0
  Ba  Ba7  1  0.33333333  0.66666667  0.00000000  1.0
  Ba  Ba8  1  0.66666667  0.33333333  0.50000000  1.0
  Ba  Ba9  1  0.66666667  0.33333333  0.00000000  1.0
  Sb  Sb10  1  0.38945405  0.38945405  0.25000000  1.0
  Sb  Sb11  1  0.38945405  0.00000000  0.75000000  1.0
  Sb  Sb12  1  0.00000000  0.38945405  0.75000000  1.0
  Sb  Sb13  1  0.00000000  0.61054595  0.25000000  1.0
  Sb  Sb14  1  0.61054595  0.61054595  0.75000000  1.0
  Sb  Sb15  1  0.61054595  0.00000000  0.25000000  1.0
