# generated using pymatgen
data_C3N2OF3
_symmetry_space_group_name_H-M   'P 1'
_cell_length_a   11.56774762
_cell_length_b   5.08114072
_cell_length_c   9.33724455
_cell_angle_alpha   90.00000000
_cell_angle_beta   104.47720521
_cell_angle_gamma   90.00000000
_symmetry_Int_Tables_number   1
_chemical_formula_structural   C3N2OF3
_chemical_formula_sum   'C12 N8 O4 F12'
_cell_volume   531.39198562
_cell_formula_units_Z   4
loop_
 _symmetry_equiv_pos_site_id
 _symmetry_equiv_pos_as_xyz
  1  'x, y, z'
loop_
 _atom_site_type_symbol
 _atom_site_label
 _atom_site_symmetry_multiplicity
 _atom_site_fract_x
 _atom_site_fract_y
 _atom_site_fract_z
 _atom_site_occupancy
  C  C0  1  0.95309695  0.96841313  0.93415293  1.0
  C  C1  1  0.95309695  0.53158687  0.43415293  1.0
  C  C2  1  0.04690305  0.46841313  0.56584707  1.0
  C  C3  1  0.04690305  0.03158687  0.06584707  1.0
  C  C4  1  0.79513278  0.98378334  0.77081176  1.0
  C  C5  1  0.79513278  0.51621666  0.27081176  1.0
  C  C6  1  0.20486722  0.48378334  0.72918824  1.0
  C  C7  1  0.20486722  0.01621666  0.22918824  1.0
  C  C8  1  0.32805861  0.53724839  0.82764316  1.0
  C  C9  1  0.32805861  0.96275161  0.32764316  1.0
  C  C10  1  0.67194139  0.03724839  0.67235684  1.0
  C  C11  1  0.67194139  0.46275161  0.17235684  1.0
  N  N12  1  0.96429408  0.77194944  0.84593026  1.0
  N  N13  1  0.96429408  0.72805056  0.34593026  1.0
  N  N14  1  0.03570592  0.27194944  0.65406974  1.0
  N  N15  1  0.03570592  0.22805056  0.15406974  1.0
  N  N16  1  0.84771227  0.39343489  0.39118386  1.0
  N  N17  1  0.84771227  0.10656511  0.89118386  1.0
  N  N18  1  0.15228773  0.89343489  0.10881614  1.0
  N  N19  1  0.15228773  0.60656511  0.60881614  1.0
  O  O20  1  0.85799196  0.78093521  0.73569807  1.0
  O  O21  1  0.85799196  0.71906479  0.23569807  1.0
  O  O22  1  0.14200804  0.28093521  0.76430193  1.0
  O  O23  1  0.14200804  0.21906479  0.26430193  1.0
  F  F24  1  0.66124995  0.93735902  0.53524001  1.0
  F  F25  1  0.66124995  0.56264098  0.03524001  1.0
  F  F26  1  0.33875005  0.43735902  0.96475999  1.0
  F  F27  1  0.33875005  0.06264098  0.46475999  1.0
  F  F28  1  0.58731737  0.92351436  0.73003677  1.0
  F  F29  1  0.58731737  0.57648564  0.23003677  1.0
  F  F30  1  0.41268263  0.42351436  0.76996323  1.0
  F  F31  1  0.41268263  0.07648564  0.26996323  1.0
  F  F32  1  0.34961000  0.79874707  0.83895780  1.0
  F  F33  1  0.34961000  0.70125293  0.33895780  1.0
  F  F34  1  0.65039000  0.29874707  0.66104220  1.0
  F  F35  1  0.65039000  0.20125293  0.16104220  1.0
