# generated using pymatgen
data_K2LiB(PO4)2
_symmetry_space_group_name_H-M   'P 1'
_cell_length_a   8.48412763
_cell_length_b   8.89853096
_cell_length_c   12.47779822
_cell_angle_alpha   90.00000000
_cell_angle_beta   127.25598500
_cell_angle_gamma   90.00000000
_symmetry_Int_Tables_number   1
_chemical_formula_structural   K2LiB(PO4)2
_chemical_formula_sum   'K8 Li4 B4 P8 O32'
_cell_volume   749.79601330
_cell_formula_units_Z   4
loop_
 _symmetry_equiv_pos_site_id
 _symmetry_equiv_pos_as_xyz
  1  'x, y, z'
loop_
 _atom_site_type_symbol
 _atom_site_label
 _atom_site_symmetry_multiplicity
 _atom_site_fract_x
 _atom_site_fract_y
 _atom_site_fract_z
 _atom_site_occupancy
  K  K0  1  0.93832062  0.27367713  0.41231563  1.0
  K  K1  1  0.93832062  0.22632287  0.91231563  1.0
  K  K2  1  0.06167938  0.77367713  0.08768437  1.0
  K  K3  1  0.06167938  0.72632287  0.58768437  1.0
  K  K4  1  0.27430588  0.27509124  0.31886377  1.0
  K  K5  1  0.27430588  0.22490876  0.81886377  1.0
  K  K6  1  0.72569412  0.77509124  0.18113623  1.0
  K  K7  1  0.72569412  0.72490876  0.68113623  1.0
  Li  Li8  1  0.80830449  0.08297055  0.11880207  1.0
  Li  Li9  1  0.80830449  0.41702945  0.61880207  1.0
  Li  Li10  1  0.19169551  0.58297055  0.38119793  1.0
  Li  Li11  1  0.19169551  0.91702945  0.88119793  1.0
  B  B12  1  0.46759210  0.41408807  0.12641698  1.0
  B  B13  1  0.46759210  0.08591193  0.62641698  1.0
  B  B14  1  0.53240790  0.91408807  0.37358302  1.0
  B  B15  1  0.53240790  0.58591193  0.87358302  1.0
  P  P16  1  0.79057783  0.42327754  0.10779807  1.0
  P  P17  1  0.79057783  0.07672246  0.60779807  1.0
  P  P18  1  0.20942217  0.92327754  0.39220193  1.0
  P  P19  1  0.20942217  0.57672246  0.89220193  1.0
  P  P20  1  0.47006095  0.10589964  0.16946935  1.0
  P  P21  1  0.47006095  0.39410036  0.66946935  1.0
  P  P22  1  0.52993905  0.60589964  0.33053065  1.0
  P  P23  1  0.52993905  0.89410036  0.83053065  1.0
  O  O24  1  0.93529168  0.49426802  0.24603514  1.0
  O  O25  1  0.93529168  0.00573198  0.74603514  1.0
  O  O26  1  0.06470832  0.99426802  0.25396486  1.0
  O  O27  1  0.06470832  0.50573198  0.75396486  1.0
  O  O28  1  0.86859150  0.28179952  0.08507305  1.0
  O  O29  1  0.86859150  0.21820048  0.58507305  1.0
  O  O30  1  0.13140850  0.78179952  0.41492695  1.0
  O  O31  1  0.13140850  0.71820048  0.91492695  1.0
  O  O32  1  0.73453137  0.95070640  0.49785538  1.0
  O  O33  1  0.73453137  0.54929360  0.99785538  1.0
  O  O34  1  0.26546863  0.45070640  0.00214462  1.0
  O  O35  1  0.26546863  0.04929360  0.50214462  1.0
  O  O36  1  0.70674939  0.94073724  0.97197310  1.0
  O  O37  1  0.70674939  0.55926276  0.47197310  1.0
  O  O38  1  0.29325061  0.44073724  0.52802690  1.0
  O  O39  1  0.29325061  0.05926276  0.02802690  1.0
  O  O40  1  0.67353438  0.07045537  0.20694270  1.0
  O  O41  1  0.67353438  0.42954463  0.70694270  1.0
  O  O42  1  0.32646562  0.57045537  0.29305730  1.0
  O  O43  1  0.32646562  0.92954463  0.79305730  1.0
  O  O44  1  0.59078526  0.37499157  0.08318258  1.0
  O  O45  1  0.59078526  0.12500843  0.58318258  1.0
  O  O46  1  0.40921474  0.87499157  0.41681742  1.0
  O  O47  1  0.40921474  0.62500843  0.91681742  1.0
  O  O48  1  0.45098390  0.28163655  0.19079667  1.0
  O  O49  1  0.45098390  0.21836345  0.69079667  1.0
  O  O50  1  0.54901610  0.78163655  0.30920333  1.0
  O  O51  1  0.54901610  0.71836345  0.80920333  1.0
  O  O52  1  0.44453937  0.03972073  0.27739160  1.0
  O  O53  1  0.44453937  0.46027927  0.77739160  1.0
  O  O54  1  0.55546063  0.53972073  0.22260840  1.0
  O  O55  1  0.55546063  0.96027927  0.72260840  1.0
