# generated using pymatgen
data_Zr9Ni11
_symmetry_space_group_name_H-M   'P 1'
_cell_length_a   7.76667757
_cell_length_b   7.76667757
_cell_length_c   7.76667757
_cell_angle_alpha   100.00156430
_cell_angle_beta   100.00156430
_cell_angle_gamma   130.74168995
_symmetry_Int_Tables_number   1
_chemical_formula_structural   Zr9Ni11
_chemical_formula_sum   'Zr9 Ni11'
_cell_volume   322.66764358
_cell_formula_units_Z   1
loop_
 _symmetry_equiv_pos_site_id
 _symmetry_equiv_pos_as_xyz
  1  'x, y, z'
loop_
 _atom_site_type_symbol
 _atom_site_label
 _atom_site_symmetry_multiplicity
 _atom_site_fract_x
 _atom_site_fract_y
 _atom_site_fract_z
 _atom_site_occupancy
  Zr  Zr0  1  0.00000000  0.00000000  0.00000000  1.0
  Zr  Zr1  1  0.68869324  0.90954948  1.59824272  1.0
  Zr  Zr2  1  0.90954948  1.31130676  1.22085624  1.0
  Zr  Zr3  1  0.31130676  0.09045052  0.40175728  1.0
  Zr  Zr4  1  1.09045052  0.68869324  0.77914376  1.0
  Zr  Zr5  1  0.75183878  0.58490518  0.33674396  1.0
  Zr  Zr6  1  0.58490518  0.24816122  0.83306641  1.0
  Zr  Zr7  1  1.24816122  1.41509482  1.66325604  1.0
  Zr  Zr8  1  0.41509482  0.75183878  1.16693359  1.0
  Ni  Ni9  1  1.08604118  0.98067654  0.65623335  1.0
  Ni  Ni10  1  0.67555681  0.57019217  0.65623335  1.0
  Ni  Ni11  1  0.98067654  0.32444319  0.89463535  1.0
  Ni  Ni12  1  1.57019217  0.91395882  0.89463535  1.0
  Ni  Ni13  1  1.32444319  1.42980783  1.34376665  1.0
  Ni  Ni14  1  0.91395882  1.01932346  1.34376665  1.0
  Ni  Ni15  1  0.42980783  1.08604118  1.10536465  1.0
  Ni  Ni16  1  1.01932346  1.67555681  1.10536465  1.0
  Ni  Ni17  1  0.50000000  0.50000000  -0.00000000  1.0
  Ni  Ni18  1  1.25000000  0.75000000  0.50000000  1.0
  Ni  Ni19  1  0.75000000  0.25000000  0.50000000  1.0
