# generated using pymatgen
data_TaSiRh
_symmetry_space_group_name_H-M   'P 1'
_cell_length_a   6.40145702
_cell_length_b   3.76216502
_cell_length_c   7.33182598
_cell_angle_alpha   90.00000000
_cell_angle_beta   90.00000000
_cell_angle_gamma   90.00000000
_symmetry_Int_Tables_number   1
_chemical_formula_structural   TaSiRh
_chemical_formula_sum   'Ta4 Si4 Rh4'
_cell_volume   176.57484078
_cell_formula_units_Z   4
loop_
 _symmetry_equiv_pos_site_id
 _symmetry_equiv_pos_as_xyz
  1  'x, y, z'
loop_
 _atom_site_type_symbol
 _atom_site_label
 _atom_site_symmetry_multiplicity
 _atom_site_fract_x
 _atom_site_fract_y
 _atom_site_fract_z
 _atom_site_occupancy
  Ta  Ta0  1  0.97435272  0.75000000  0.67318755  1.0
  Ta  Ta1  1  0.47435272  0.75000000  0.82681245  1.0
  Ta  Ta2  1  0.02564728  0.25000000  0.32681245  1.0
  Ta  Ta3  1  0.52564728  0.25000000  0.17318755  1.0
  Si  Si4  1  0.73270495  0.75000000  0.37547999  1.0
  Si  Si5  1  0.23270495  0.75000000  0.12452001  1.0
  Si  Si6  1  0.26729505  0.25000000  0.62452001  1.0
  Si  Si7  1  0.76729505  0.25000000  0.87547999  1.0
  Rh  Rh8  1  0.85522469  0.75000000  0.06367720  1.0
  Rh  Rh9  1  0.35522469  0.75000000  0.43632280  1.0
  Rh  Rh10  1  0.14477531  0.25000000  0.93632280  1.0
  Rh  Rh11  1  0.64477531  0.25000000  0.56367720  1.0
