# generated using pymatgen
data_SiPb4(BrO)4
_symmetry_space_group_name_H-M   'P 1'
_cell_length_a   9.20278235
_cell_length_b   16.54486318
_cell_length_c   8.57762652
_cell_angle_alpha   90.00000000
_cell_angle_beta   91.83838570
_cell_angle_gamma   90.00000000
_symmetry_Int_Tables_number   1
_chemical_formula_structural   SiPb4(BrO)4
_chemical_formula_sum   'Si4 Pb16 Br16 O16'
_cell_volume   1305.34668633
_cell_formula_units_Z   4
loop_
 _symmetry_equiv_pos_site_id
 _symmetry_equiv_pos_as_xyz
  1  'x, y, z'
loop_
 _atom_site_type_symbol
 _atom_site_label
 _atom_site_symmetry_multiplicity
 _atom_site_fract_x
 _atom_site_fract_y
 _atom_site_fract_z
 _atom_site_occupancy
  Si  Si0  1  0.62768630  0.85062590  0.64116696  1.0
  Si  Si1  1  0.62768630  0.64937410  0.14116696  1.0
  Si  Si2  1  0.37231370  0.35062590  0.85883304  1.0
  Si  Si3  1  0.37231370  0.14937410  0.35883304  1.0
  Pb  Pb4  1  0.87599894  0.74497589  0.91990325  1.0
  Pb  Pb5  1  0.87599894  0.75502411  0.41990325  1.0
  Pb  Pb6  1  0.12400106  0.24497589  0.58009675  1.0
  Pb  Pb7  1  0.12400106  0.25502411  0.08009675  1.0
  Pb  Pb8  1  0.82996360  0.98333034  0.79989982  1.0
  Pb  Pb9  1  0.82996360  0.51666966  0.29989982  1.0
  Pb  Pb10  1  0.17003640  0.48333034  0.70010018  1.0
  Pb  Pb11  1  0.17003640  0.01666966  0.20010018  1.0
  Pb  Pb12  1  0.65127870  0.46552593  0.85587407  1.0
  Pb  Pb13  1  0.65127870  0.03447407  0.35587407  1.0
  Pb  Pb14  1  0.34872130  0.96552593  0.64412593  1.0
  Pb  Pb15  1  0.34872130  0.53447407  0.14412593  1.0
  Pb  Pb16  1  0.43646962  0.79688315  0.98661285  1.0
  Pb  Pb17  1  0.43646962  0.70311685  0.48661285  1.0
  Pb  Pb18  1  0.56353038  0.29688315  0.51338715  1.0
  Pb  Pb19  1  0.56353038  0.20311685  0.01338715  1.0
  Br  Br20  1  0.87531784  0.39135390  0.61046642  1.0
  Br  Br21  1  0.87531784  0.10864610  0.11046642  1.0
  Br  Br22  1  0.12468216  0.89135390  0.88953358  1.0
  Br  Br23  1  0.12468216  0.60864610  0.38953358  1.0
  Br  Br24  1  0.81435449  0.62324513  0.66289174  1.0
  Br  Br25  1  0.81435449  0.87675487  0.16289174  1.0
  Br  Br26  1  0.18564551  0.12324513  0.83710826  1.0
  Br  Br27  1  0.18564551  0.37675487  0.33710826  1.0
  Br  Br28  1  0.27015740  0.65339154  0.86931150  1.0
  Br  Br29  1  0.27015740  0.84660846  0.36931150  1.0
  Br  Br30  1  0.72984260  0.15339154  0.63068850  1.0
  Br  Br31  1  0.72984260  0.34660846  0.13068850  1.0
  Br  Br32  1  -0.00000000  0.00000000  0.50000000  1.0
  Br  Br33  1  0.00000000  0.50000000  0.00000000  1.0
  Br  Br34  1  0.50000000  0.00000000  0.00000000  1.0
  Br  Br35  1  0.50000000  0.50000000  0.50000000  1.0
  O  O36  1  0.77581966  0.84280299  0.75522346  1.0
  O  O37  1  0.77581966  0.65719701  0.25522346  1.0
  O  O38  1  0.22418034  0.34280299  0.74477654  1.0
  O  O39  1  0.22418034  0.15719701  0.24477654  1.0
  O  O40  1  0.64148742  0.70915215  0.98866189  1.0
  O  O41  1  0.64148742  0.79084785  0.48866189  1.0
  O  O42  1  0.35851258  0.20915215  0.51133811  1.0
  O  O43  1  0.35851258  0.29084785  0.01133811  1.0
  O  O44  1  0.61846636  0.94867758  0.59838791  1.0
  O  O45  1  0.61846636  0.55132242  0.09838791  1.0
  O  O46  1  0.38153364  0.44867758  0.90161209  1.0
  O  O47  1  0.38153364  0.05132242  0.40161209  1.0
  O  O48  1  0.47423285  0.82806103  0.72494901  1.0
  O  O49  1  0.47423285  0.67193897  0.22494901  1.0
  O  O50  1  0.52576715  0.32806103  0.77505099  1.0
  O  O51  1  0.52576715  0.17193897  0.27505099  1.0
