# generated using pymatgen
data_Nb2P5
_symmetry_space_group_name_H-M   'P 1'
_cell_length_a   16.83797027
_cell_length_b   3.35367013
_cell_length_c   7.93631569
_cell_angle_alpha   90.00000000
_cell_angle_beta   90.00000000
_cell_angle_gamma   90.00000000
_symmetry_Int_Tables_number   1
_chemical_formula_structural   Nb2P5
_chemical_formula_sum   'Nb8 P20'
_cell_volume   448.15579489
_cell_formula_units_Z   4
loop_
 _symmetry_equiv_pos_site_id
 _symmetry_equiv_pos_as_xyz
  1  'x, y, z'
loop_
 _atom_site_type_symbol
 _atom_site_label
 _atom_site_symmetry_multiplicity
 _atom_site_fract_x
 _atom_site_fract_y
 _atom_site_fract_z
 _atom_site_occupancy
  Nb  Nb0  1  0.40464971  0.75000000  0.83551338  1.0
  Nb  Nb1  1  0.90464971  0.75000000  0.66448662  1.0
  Nb  Nb2  1  0.59535029  0.25000000  0.16448662  1.0
  Nb  Nb3  1  0.09535029  0.25000000  0.33551338  1.0
  Nb  Nb4  1  0.22612735  0.75000000  0.82712053  1.0
  Nb  Nb5  1  0.72612735  0.75000000  0.67287947  1.0
  Nb  Nb6  1  0.77387265  0.25000000  0.17287947  1.0
  Nb  Nb7  1  0.27387265  0.25000000  0.32712053  1.0
  P  P8  1  0.18451055  0.75000000  0.50524224  1.0
  P  P9  1  0.68451055  0.75000000  0.99475776  1.0
  P  P10  1  0.81548945  0.25000000  0.49475776  1.0
  P  P11  1  0.31548945  0.25000000  0.00524224  1.0
  P  P12  1  0.47835959  0.75000000  0.11925618  1.0
  P  P13  1  0.97835959  0.75000000  0.38074382  1.0
  P  P14  1  0.52164041  0.25000000  0.88074382  1.0
  P  P15  1  0.02164041  0.25000000  0.61925618  1.0
  P  P16  1  0.45943512  0.75000000  0.53856417  1.0
  P  P17  1  0.95943512  0.75000000  0.96143583  1.0
  P  P18  1  0.54056488  0.25000000  0.46143583  1.0
  P  P19  1  0.04056488  0.25000000  0.03856417  1.0
  P  P20  1  0.38416723  0.75000000  0.31562967  1.0
  P  P21  1  0.88416723  0.75000000  0.18437033  1.0
  P  P22  1  0.61583277  0.25000000  0.68437033  1.0
  P  P23  1  0.11583277  0.25000000  0.81562967  1.0
  P  P24  1  0.18565356  0.75000000  0.15177744  1.0
  P  P25  1  0.68565356  0.75000000  0.34822256  1.0
  P  P26  1  0.81434644  0.25000000  0.84822256  1.0
  P  P27  1  0.31434644  0.25000000  0.65177744  1.0
