# generated using pymatgen
data_Zr2Ni
_symmetry_space_group_name_H-M   'P 1'
_cell_length_a   5.28906808
_cell_length_b   5.28906808
_cell_length_c   5.28906808
_cell_angle_alpha   104.20999563
_cell_angle_beta   104.20999563
_cell_angle_gamma   120.60037062
_symmetry_Int_Tables_number   1
_chemical_formula_structural   Zr2Ni
_chemical_formula_sum   'Zr4 Ni2'
_cell_volume   110.62294108
_cell_formula_units_Z   2
loop_
 _symmetry_equiv_pos_site_id
 _symmetry_equiv_pos_as_xyz
  1  'x, y, z'
loop_
 _atom_site_type_symbol
 _atom_site_label
 _atom_site_symmetry_multiplicity
 _atom_site_fract_x
 _atom_site_fract_y
 _atom_site_fract_z
 _atom_site_occupancy
  Zr  Zr0  1  0.83661986  0.33661986  1.17323973  1.0
  Zr  Zr1  1  0.66338014  0.83661986  0.50000000  1.0
  Zr  Zr2  1  1.33661986  1.16338014  1.50000000  1.0
  Zr  Zr3  1  0.16338014  0.66338014  0.82676027  1.0
  Ni  Ni4  1  0.25000000  0.25000000  -0.00000000  1.0
  Ni  Ni5  1  0.75000000  0.75000000  -0.00000000  1.0
