# generated using pymatgen
data_P2WO7
_symmetry_space_group_name_H-M   'P 1'
_cell_length_a   8.36625294
_cell_length_b   8.36625294
_cell_length_c   8.36625294
_cell_angle_alpha   90.00000000
_cell_angle_beta   90.00000000
_cell_angle_gamma   90.00000000
_symmetry_Int_Tables_number   1
_chemical_formula_structural   P2WO7
_chemical_formula_sum   'P8 W4 O28'
_cell_volume   585.58908280
_cell_formula_units_Z   4
loop_
 _symmetry_equiv_pos_site_id
 _symmetry_equiv_pos_as_xyz
  1  'x, y, z'
loop_
 _atom_site_type_symbol
 _atom_site_label
 _atom_site_symmetry_multiplicity
 _atom_site_fract_x
 _atom_site_fract_y
 _atom_site_fract_z
 _atom_site_occupancy
  P  P0  1  0.38993893  0.88993893  0.61006107  1.0
  P  P1  1  0.38993893  0.61006107  0.11006107  1.0
  P  P2  1  0.88993893  0.88993893  0.88993893  1.0
  P  P3  1  0.88993893  0.61006107  0.38993893  1.0
  P  P4  1  0.61006107  0.38993893  0.88993893  1.0
  P  P5  1  0.61006107  0.11006107  0.38993893  1.0
  P  P6  1  0.11006107  0.38993893  0.61006107  1.0
  P  P7  1  0.11006107  0.11006107  0.11006107  1.0
  W  W8  1  -0.00000000  0.50000000  0.00000000  1.0
  W  W9  1  0.00000000  -0.00000000  0.50000000  1.0
  W  W10  1  0.50000000  0.50000000  0.50000000  1.0
  W  W11  1  0.50000000  0.00000000  0.00000000  1.0
  O  O12  1  0.44193132  0.71744148  0.58448985  1.0
  O  O13  1  0.44193132  0.78255852  0.08448985  1.0
  O  O14  1  0.94193132  0.71744148  0.91551015  1.0
  O  O15  1  0.94193132  0.78255852  0.41551015  1.0
  O  O16  1  0.21744148  0.91551015  0.55806868  1.0
  O  O17  1  0.21744148  0.58448985  0.05806868  1.0
  O  O18  1  0.71744148  0.91551015  0.94193132  1.0
  O  O19  1  0.71744148  0.58448985  0.44193132  1.0
  O  O20  1  0.41551015  0.94193132  0.78255852  1.0
  O  O21  1  0.41551015  0.55806868  0.28255852  1.0
  O  O22  1  0.91551015  0.94193132  0.71744148  1.0
  O  O23  1  0.91551015  0.55806868  0.21744148  1.0
  O  O24  1  0.55806868  0.21744148  0.91551015  1.0
  O  O25  1  0.55806868  0.28255852  0.41551015  1.0
  O  O26  1  0.05806868  0.21744148  0.58448985  1.0
  O  O27  1  0.05806868  0.28255852  0.08448985  1.0
  O  O28  1  0.78255852  0.41551015  0.94193132  1.0
  O  O29  1  0.78255852  0.08448985  0.44193132  1.0
  O  O30  1  0.28255852  0.41551015  0.55806868  1.0
  O  O31  1  0.28255852  0.08448985  0.05806868  1.0
  O  O32  1  0.58448985  0.44193132  0.71744148  1.0
  O  O33  1  0.58448985  0.05806868  0.21744148  1.0
  O  O34  1  0.08448985  0.44193132  0.78255852  1.0
  O  O35  1  0.08448985  0.05806868  0.28255852  1.0
  O  O36  1  0.50000000  -0.00000000  0.50000000  1.0
  O  O37  1  0.50000000  0.50000000  0.00000000  1.0
  O  O38  1  -0.00000000  -0.00000000  -0.00000000  1.0
  O  O39  1  0.00000000  0.50000000  0.50000000  1.0
