# generated using pymatgen
data_Lu(NbCl3)6
_symmetry_space_group_name_H-M   'P 1'
_cell_length_a   10.12977082
_cell_length_b   10.12977082
_cell_length_c   10.12977082
_cell_angle_alpha   56.41922285
_cell_angle_beta   56.41922285
_cell_angle_gamma   56.41922285
_symmetry_Int_Tables_number   1
_chemical_formula_structural   Lu(NbCl3)6
_chemical_formula_sum   'Lu1 Nb6 Cl18'
_cell_volume   674.13950255
_cell_formula_units_Z   1
loop_
 _symmetry_equiv_pos_site_id
 _symmetry_equiv_pos_as_xyz
  1  'x, y, z'
loop_
 _atom_site_type_symbol
 _atom_site_label
 _atom_site_symmetry_multiplicity
 _atom_site_fract_x
 _atom_site_fract_y
 _atom_site_fract_z
 _atom_site_occupancy
  Lu  Lu0  1  0.00000000  0.00000000  0.00000000  1.0
  Nb  Nb1  1  0.65034929  0.40408866  -0.69740455  1.0
  Nb  Nb2  1  0.69740455  0.34965071  -0.40408866  1.0
  Nb  Nb3  1  0.59591134  0.69740455  -0.65034929  1.0
  Nb  Nb4  1  0.34965071  0.59591134  -0.30259545  1.0
  Nb  Nb5  1  0.30259545  0.65034929  -0.59591134  1.0
  Nb  Nb6  1  0.40408866  0.30259545  -0.34965071  1.0
  Cl  Cl7  1  0.56398655  0.16125527  -0.55472839  1.0
  Cl  Cl8  1  0.55472839  0.43601345  -0.16125527  1.0
  Cl  Cl9  1  0.83874473  0.55472839  -0.56398655  1.0
  Cl  Cl10  1  0.43601345  0.83874473  -0.44527161  1.0
  Cl  Cl11  1  0.44527161  0.56398655  -0.83874473  1.0
  Cl  Cl12  1  0.16125527  0.44527161  -0.43601345  1.0
  Cl  Cl13  1  0.37918354  0.90381004  -0.78060164  1.0
  Cl  Cl14  1  0.78060164  -0.37918354  0.09618996  1.0
  Cl  Cl15  1  1.09618996  -0.21939836  -0.37918354  1.0
  Cl  Cl16  1  0.62081646  0.09618996  -0.21939836  1.0
  Cl  Cl17  1  0.21939836  0.37918354  -0.09618996  1.0
  Cl  Cl18  1  0.90381004  0.21939836  -0.62081646  1.0
  Cl  Cl19  1  0.28807093  0.04879386  -0.16011965  1.0
  Cl  Cl20  1  1.16011965  -0.28807093  -0.04879386  1.0
  Cl  Cl21  1  0.95120614  0.16011965  -0.28807093  1.0
  Cl  Cl22  1  0.71192907  -0.04879386  0.16011965  1.0
  Cl  Cl23  1  0.83988035  -0.71192907  0.04879386  1.0
  Cl  Cl24  1  1.04879386  -0.16011965  -0.71192907  1.0
