# generated using pymatgen
data_Zn3As2(HO)16
_symmetry_space_group_name_H-M   'P 1'
_cell_length_a   8.56036326
_cell_length_b   8.56036326
_cell_length_c   4.81794935
_cell_angle_alpha   80.27860436
_cell_angle_beta   99.72139564
_cell_angle_gamma   75.52565875
_symmetry_Int_Tables_number   1
_chemical_formula_structural   Zn3As2(HO)16
_chemical_formula_sum   'Zn3 As2 H16 O16'
_cell_volume   328.60009011
_cell_formula_units_Z   1
loop_
 _symmetry_equiv_pos_site_id
 _symmetry_equiv_pos_as_xyz
  1  'x, y, z'
loop_
 _atom_site_type_symbol
 _atom_site_label
 _atom_site_symmetry_multiplicity
 _atom_site_fract_x
 _atom_site_fract_y
 _atom_site_fract_z
 _atom_site_occupancy
  Zn  Zn0  1  0.00000000  -0.00000000  0.00000000  1.0
  Zn  Zn1  1  1.38357741  0.38357741  0.00000000  1.0
  Zn  Zn2  1  0.61642259  -0.38357741  0.00000000  1.0
  As  As3  1  0.68629335  -0.68629335  0.62575177  1.0
  As  As4  1  0.31370665  -0.31370665  0.37424823  1.0
  H  H5  1  1.03842143  0.79782360  0.64312306  1.0
  H  H6  1  0.20217640  -0.03842143  0.64312306  1.0
  H  H7  1  0.96157857  -0.79782360  0.35687694  1.0
  H  H8  1  1.79782360  0.03842143  0.35687694  1.0
  H  H9  1  1.05873027  0.68607848  0.95345367  1.0
  H  H10  1  0.31392152  -0.05873027  0.95345367  1.0
  H  H11  1  0.94126973  -0.68607848  0.04654633  1.0
  H  H12  1  1.68607848  0.05873027  0.04654633  1.0
  H  H13  1  1.17946752  0.42173874  0.51256613  1.0
  H  H14  1  0.57826126  -0.17946752  0.51256613  1.0
  H  H15  1  0.82053248  -0.42173874  0.48743387  1.0
  H  H16  1  1.42173874  0.17946752  0.48743387  1.0
  H  H17  1  1.18628229  0.24931426  0.71611216  1.0
  H  H18  1  0.75068574  -0.18628229  0.71611216  1.0
  H  H19  1  0.81371771  -0.24931426  0.28388784  1.0
  H  H20  1  1.24931426  0.18628229  0.28388784  1.0
  O  O21  1  0.85295880  -0.85295880  0.61410533  1.0
  O  O22  1  0.14704120  -0.14704120  0.38589467  1.0
  O  O23  1  0.59009706  -0.59009706  0.26874336  1.0
  O  O24  1  0.40990294  -0.40990294  0.73125664  1.0
  O  O25  1  0.77207053  -0.55234294  0.79274349  1.0
  O  O26  1  1.55234294  0.22792947  0.79274349  1.0
  O  O27  1  1.22792947  0.55234294  0.20725651  1.0
  O  O28  1  0.44765706  -0.22792947  0.20725651  1.0
  O  O29  1  1.01782579  0.21376705  0.19137813  1.0
  O  O30  1  0.78623295  -0.01782579  0.19137813  1.0
  O  O31  1  0.98217421  -0.21376705  0.80862187  1.0
  O  O32  1  1.21376705  0.01782579  0.80862187  1.0
  O  O33  1  0.82201341  -0.36693219  0.28907106  1.0
  O  O34  1  1.36693219  0.17798659  0.28907106  1.0
  O  O35  1  1.17798659  0.36693219  0.71092894  1.0
  O  O36  1  0.63306781  -0.17798659  0.71092894  1.0
