# generated using pymatgen
data_Gd2(Ga3Rh)3
_symmetry_space_group_name_H-M   'P 1'
_cell_length_a   7.57625504
_cell_length_b   7.57625504
_cell_length_c   9.56980579
_cell_angle_alpha   90.00000000
_cell_angle_beta   90.00000000
_cell_angle_gamma   60.27822874
_symmetry_Int_Tables_number   1
_chemical_formula_structural   Gd2(Ga3Rh)3
_chemical_formula_sum   'Gd4 Ga18 Rh6'
_cell_volume   477.03880591
_cell_formula_units_Z   2
loop_
 _symmetry_equiv_pos_site_id
 _symmetry_equiv_pos_as_xyz
  1  'x, y, z'
loop_
 _atom_site_type_symbol
 _atom_site_label
 _atom_site_symmetry_multiplicity
 _atom_site_fract_x
 _atom_site_fract_y
 _atom_site_fract_z
 _atom_site_occupancy
  Gd  Gd0  1  -0.00211403  1.33059358  0.25000000  1.0
  Gd  Gd1  1  0.33059358  0.99788597  0.75000000  1.0
  Gd  Gd2  1  -0.33059358  1.00211403  0.25000000  1.0
  Gd  Gd3  1  0.00211403  0.66940642  0.75000000  1.0
  Ga  Ga4  1  0.00141134  0.66519586  0.42162872  1.0
  Ga  Ga5  1  0.00141134  0.66519586  0.07837128  1.0
  Ga  Ga6  1  -0.33480414  1.00141134  0.92162872  1.0
  Ga  Ga7  1  -0.33480414  1.00141134  0.57837128  1.0
  Ga  Ga8  1  0.33480414  0.99858866  0.42162872  1.0
  Ga  Ga9  1  0.33480414  0.99858866  0.07837128  1.0
  Ga  Ga10  1  -0.00141134  1.33480414  0.92162872  1.0
  Ga  Ga11  1  -0.00141134  1.33480414  0.57837128  1.0
  Ga  Ga12  1  0.33862703  0.45272356  0.25000000  1.0
  Ga  Ga13  1  -0.54727644  1.33862703  0.75000000  1.0
  Ga  Ga14  1  0.54727644  0.66137297  0.25000000  1.0
  Ga  Ga15  1  -0.33862703  1.54727644  0.75000000  1.0
  Ga  Ga16  1  0.33360785  0.66639215  0.93659149  1.0
  Ga  Ga17  1  0.33360785  0.66639215  0.56340851  1.0
  Ga  Ga18  1  -0.33360785  1.33360785  0.43659149  1.0
  Ga  Ga19  1  -0.33360785  1.33360785  0.06340851  1.0
  Ga  Ga20  1  0.12723077  0.87276923  0.25000000  1.0
  Ga  Ga21  1  -0.12723077  1.12723077  0.75000000  1.0
  Rh  Rh22  1  0.67104672  0.67104672  0.50000000  1.0
  Rh  Rh23  1  0.67104672  0.67104672  0.00000000  1.0
  Rh  Rh24  1  0.32895328  0.32895328  0.50000000  1.0
  Rh  Rh25  1  0.32895328  0.32895328  0.00000000  1.0
  Rh  Rh26  1  0.00000000  0.00000000  0.50000000  1.0
  Rh  Rh27  1  0.00000000  0.00000000  0.00000000  1.0
