# generated using pymatgen
data_Eu5Sn3H
_symmetry_space_group_name_H-M   'P 1'
_cell_length_a   9.53313933
_cell_length_b   9.53313933
_cell_length_c   9.53313933
_cell_angle_alpha   127.92673767
_cell_angle_beta   127.92673767
_cell_angle_gamma   76.74374022
_symmetry_Int_Tables_number   1
_chemical_formula_structural   Eu5Sn3H
_chemical_formula_sum   'Eu10 Sn6 H2'
_cell_volume   523.48533248
_cell_formula_units_Z   2
loop_
 _symmetry_equiv_pos_site_id
 _symmetry_equiv_pos_as_xyz
  1  'x, y, z'
loop_
 _atom_site_type_symbol
 _atom_site_label
 _atom_site_symmetry_multiplicity
 _atom_site_fract_x
 _atom_site_fract_y
 _atom_site_fract_z
 _atom_site_occupancy
  Eu  Eu0  1  1.18432779  0.68432779  1.17272654  1.0
  Eu  Eu1  1  0.48839875  0.98839875  1.17272654  1.0
  Eu  Eu2  1  1.01160125  1.18432779  1.50000000  1.0
  Eu  Eu3  1  0.31567221  0.48839875  0.50000000  1.0
  Eu  Eu4  1  0.68432779  0.51160125  0.50000000  1.0
  Eu  Eu5  1  0.98839875  0.81567221  1.50000000  1.0
  Eu  Eu6  1  0.51160125  1.01160125  0.82727346  1.0
  Eu  Eu7  1  0.81567221  0.31567221  0.82727346  1.0
  Eu  Eu8  1  0.00000000  0.00000000  0.00000000  1.0
  Eu  Eu9  1  0.50000000  0.50000000  1.00000000  1.0
  Sn  Sn10  1  0.87376248  0.37376248  1.24752497  1.0
  Sn  Sn11  1  0.62623752  0.87376248  1.50000000  1.0
  Sn  Sn12  1  0.37376248  0.12623752  0.50000000  1.0
  Sn  Sn13  1  0.12623752  0.62623752  0.75247503  1.0
  Sn  Sn14  1  0.75000000  0.75000000  1.00000000  1.0
  Sn  Sn15  1  0.25000000  0.25000000  0.00000000  1.0
  H  H16  1  0.25000000  0.75000000  0.50000000  1.0
  H  H17  1  0.75000000  0.25000000  0.50000000  1.0
