# generated using pymatgen
data_FeCoSi
_symmetry_space_group_name_H-M   'P 1'
_cell_length_a   4.87528479
_cell_length_b   3.78158158
_cell_length_c   7.15552215
_cell_angle_alpha   90.00000000
_cell_angle_beta   90.00000000
_cell_angle_gamma   90.00000000
_symmetry_Int_Tables_number   1
_chemical_formula_structural   FeCoSi
_chemical_formula_sum   'Fe4 Co4 Si4'
_cell_volume   131.92126101
_cell_formula_units_Z   4
loop_
 _symmetry_equiv_pos_site_id
 _symmetry_equiv_pos_as_xyz
  1  'x, y, z'
loop_
 _atom_site_type_symbol
 _atom_site_label
 _atom_site_symmetry_multiplicity
 _atom_site_fract_x
 _atom_site_fract_y
 _atom_site_fract_z
 _atom_site_occupancy
  Fe  Fe0  1  0.95506681  0.75000000  0.72991451  1.0
  Fe  Fe1  1  0.45506681  0.75000000  0.77008549  1.0
  Fe  Fe2  1  0.04493319  0.25000000  0.27008549  1.0
  Fe  Fe3  1  0.54493319  0.25000000  0.22991451  1.0
  Co  Co4  1  0.81824870  0.75000000  0.06554739  1.0
  Co  Co5  1  0.31824870  0.75000000  0.43445261  1.0
  Co  Co6  1  0.18175130  0.25000000  0.93445261  1.0
  Co  Co7  1  0.68175130  0.25000000  0.56554739  1.0
  Si  Si8  1  0.79639418  0.75000000  0.39672040  1.0
  Si  Si9  1  0.29639418  0.75000000  0.10327960  1.0
  Si  Si10  1  0.20360582  0.25000000  0.60327960  1.0
  Si  Si11  1  0.70360582  0.25000000  0.89672040  1.0
