# generated using pymatgen
data_K3MnO3
_symmetry_space_group_name_H-M   'P 1'
_cell_length_a   6.66053905
_cell_length_b   11.63835461
_cell_length_c   6.79164093
_cell_angle_alpha   90.00000000
_cell_angle_beta   95.90347315
_cell_angle_gamma   90.00000000
_symmetry_Int_Tables_number   1
_chemical_formula_structural   K3MnO3
_chemical_formula_sum   'K12 Mn4 O12'
_cell_volume   523.68038575
_cell_formula_units_Z   4
loop_
 _symmetry_equiv_pos_site_id
 _symmetry_equiv_pos_as_xyz
  1  'x, y, z'
loop_
 _atom_site_type_symbol
 _atom_site_label
 _atom_site_symmetry_multiplicity
 _atom_site_fract_x
 _atom_site_fract_y
 _atom_site_fract_z
 _atom_site_occupancy
  Mn  Mn0  1  0.83943971  0.49708809  0.33982706  1.0
  Mn  Mn1  1  0.83943971  0.00291191  0.83982706  1.0
  Mn  Mn2  1  0.16056029  0.99708809  0.16017294  1.0
  Mn  Mn3  1  0.16056029  0.50291191  0.66017294  1.0
  O  O4  1  0.69976199  0.37507541  0.21495040  1.0
  O  O5  1  0.69976199  0.12492459  0.71495040  1.0
  O  O6  1  0.30023801  0.87507541  0.28504960  1.0
  O  O7  1  0.30023801  0.62492459  0.78504960  1.0
  O  O8  1  0.27992916  0.11908248  0.30226310  1.0
  O  O9  1  0.27992916  0.38091752  0.80226310  1.0
  O  O10  1  0.72007084  0.61908248  0.19773690  1.0
  O  O11  1  0.72007084  0.88091752  0.69773690  1.0
  O  O12  1  0.89741112  0.92380092  0.09373120  1.0
  O  O13  1  0.89741112  0.57619908  0.59373120  1.0
  O  O14  1  0.10258888  0.42380092  0.40626880  1.0
  O  O15  1  0.10258888  0.07619908  0.90626880  1.0
  K  K16  1  0.02060230  0.27376607  0.08678623  1.0
  K  K17  1  0.02060230  0.22623393  0.58678623  1.0
  K  K18  1  0.97939770  0.77376607  0.41321377  1.0
  K  K19  1  0.97939770  0.72623393  0.91321377  1.0
  K  K20  1  0.65598172  0.00851998  0.35705743  1.0
  K  K21  1  0.65598172  0.49148002  0.85705743  1.0
  K  K22  1  0.34401828  0.50851998  0.14294257  1.0
  K  K23  1  0.34401828  0.99148002  0.64294257  1.0
  K  K24  1  0.47622292  0.28865877  0.49198053  1.0
  K  K25  1  0.47622292  0.21134123  0.99198053  1.0
  K  K26  1  0.52377708  0.78865877  0.00801947  1.0
  K  K27  1  0.52377708  0.71134123  0.50801947  1.0
