# generated using pymatgen
data_LiTl3(MoO4)2
_symmetry_space_group_name_H-M   'P 1'
_cell_length_a   6.11424450
_cell_length_b   6.11424450
_cell_length_c   16.17267613
_cell_angle_alpha   90.00000000
_cell_angle_beta   90.00000000
_cell_angle_gamma   120.00000000
_symmetry_Int_Tables_number   1
_chemical_formula_structural   LiTl3(MoO4)2
_chemical_formula_sum   'Li2 Tl6 Mo4 O16'
_cell_volume   523.59817520
_cell_formula_units_Z   2
loop_
 _symmetry_equiv_pos_site_id
 _symmetry_equiv_pos_as_xyz
  1  'x, y, z'
loop_
 _atom_site_type_symbol
 _atom_site_label
 _atom_site_symmetry_multiplicity
 _atom_site_fract_x
 _atom_site_fract_y
 _atom_site_fract_z
 _atom_site_occupancy
  Li  Li0  1  0.33333333  0.66666667  0.63733914  1.0
  Li  Li1  1  0.66666667  0.33333333  0.13733914  1.0
  Tl  Tl2  1  0.33333333  0.66666667  0.84069704  1.0
  Tl  Tl3  1  0.66666667  0.33333333  0.34069704  1.0
  Tl  Tl4  1  0.00000000  0.00000000  -0.00539397  1.0
  Tl  Tl5  1  0.00000000  0.00000000  0.49460603  1.0
  Tl  Tl6  1  0.00000000  0.00000000  0.24129736  1.0
  Tl  Tl7  1  0.00000000  0.00000000  0.74129736  1.0
  Mo  Mo8  1  0.33333333  0.66666667  0.14013247  1.0
  Mo  Mo9  1  0.66666667  0.33333333  0.64013247  1.0
  Mo  Mo10  1  0.33333333  0.66666667  0.41197349  1.0
  Mo  Mo11  1  0.66666667  0.33333333  0.91197349  1.0
  O  O12  1  0.65400697  0.82700348  0.37641371  1.0
  O  O13  1  0.82700348  0.65400697  0.87641371  1.0
  O  O14  1  0.82700348  0.17299652  0.87641371  1.0
  O  O15  1  0.17299652  0.82700348  0.37641371  1.0
  O  O16  1  0.17299652  0.34599303  0.37641371  1.0
  O  O17  1  0.34599303  0.17299652  0.87641371  1.0
  O  O18  1  0.01547119  0.50773559  0.17825983  1.0
  O  O19  1  0.50773559  0.01547119  0.67825983  1.0
  O  O20  1  0.50773559  0.49226441  0.67825983  1.0
  O  O21  1  0.49226441  0.50773559  0.17825983  1.0
  O  O22  1  0.49226441  0.98452881  0.17825983  1.0
  O  O23  1  0.98452881  0.49226441  0.67825983  1.0
  O  O24  1  0.33333333  0.66666667  0.03093679  1.0
  O  O25  1  0.66666667  0.33333333  0.53093679  1.0
  O  O26  1  0.33333333  0.66666667  0.52009704  1.0
  O  O27  1  0.66666667  0.33333333  0.02009704  1.0
