# generated using pymatgen
data_Zn2GeO4
_symmetry_space_group_name_H-M   'P 1'
_cell_length_a   8.93929328
_cell_length_b   8.93929328
_cell_length_c   8.93929328
_cell_angle_alpha   107.80610999
_cell_angle_beta   107.80610999
_cell_angle_gamma   107.80610999
_symmetry_Int_Tables_number   1
_chemical_formula_structural   Zn2GeO4
_chemical_formula_sum   'Zn12 Ge6 O24'
_cell_volume   581.33747055
_cell_formula_units_Z   6
loop_
 _symmetry_equiv_pos_site_id
 _symmetry_equiv_pos_as_xyz
  1  'x, y, z'
loop_
 _atom_site_type_symbol
 _atom_site_label
 _atom_site_symmetry_multiplicity
 _atom_site_fract_x
 _atom_site_fract_y
 _atom_site_fract_z
 _atom_site_occupancy
  Zn  Zn0  1  0.70290396  1.10825133  -0.05935737  1.0
  Zn  Zn1  1  0.89174867  0.05935737  0.29709604  1.0
  Zn  Zn2  1  1.05935737  0.29709604  -0.10825133  1.0
  Zn  Zn3  1  1.29709604  -0.10825133  0.05935737  1.0
  Zn  Zn4  1  1.10825133  0.94064263  -0.29709604  1.0
  Zn  Zn5  1  0.94064263  0.70290396  0.10825133  1.0
  Zn  Zn6  1  1.37341298  0.77560819  -0.39659776  1.0
  Zn  Zn7  1  1.22439181  0.39659776  -0.37341298  1.0
  Zn  Zn8  1  1.39659776  -0.37341298  0.22439181  1.0
  Zn  Zn9  1  0.62658702  0.22439181  0.39659776  1.0
  Zn  Zn10  1  0.77560819  0.60340224  0.37341298  1.0
  Zn  Zn11  1  0.60340224  1.37341298  -0.22439181  1.0
  Ge  Ge12  1  1.55498611  0.73210510  -0.03707075  1.0
  Ge  Ge13  1  0.26789490  1.03707075  -0.55498611  1.0
  Ge  Ge14  1  1.03707075  0.44501389  -0.73210510  1.0
  Ge  Ge15  1  0.44501389  0.26789490  0.03707075  1.0
  Ge  Ge16  1  1.73210510  -0.03707075  0.55498611  1.0
  Ge  Ge17  1  0.96292925  0.55498611  0.73210510  1.0
  O  O18  1  0.57355547  1.25067637  -0.07871933  1.0
  O  O19  1  0.74932363  0.07871933  0.42644453  1.0
  O  O20  1  1.07871933  0.42644453  -0.25067637  1.0
  O  O21  1  1.42644453  -0.25067637  0.07871933  1.0
  O  O22  1  1.25067637  0.92128067  -0.42644453  1.0
  O  O23  1  0.92128067  0.57355547  0.25067637  1.0
  O  O24  1  0.77900302  0.81641442  0.11080305  1.0
  O  O25  1  1.18358558  -0.11080305  0.22099698  1.0
  O  O26  1  0.88919695  0.22099698  0.18358558  1.0
  O  O27  1  1.22099698  0.18358558  -0.11080305  1.0
  O  O28  1  0.81641442  1.11080305  -0.22099698  1.0
  O  O29  1  1.11080305  0.77900302  -0.18358558  1.0
  O  O30  1  1.47059566  0.51368465  -0.19612228  1.0
  O  O31  1  0.48631535  1.19612228  -0.47059566  1.0
  O  O32  1  1.19612228  0.52940434  -0.51368465  1.0
  O  O33  1  0.52940434  0.48631535  0.19612228  1.0
  O  O34  1  1.51368465  -0.19612228  0.47059566  1.0
  O  O35  1  0.80387772  0.47059566  0.51368465  1.0
  O  O36  1  1.53497764  0.86371515  -0.15015301  1.0
  O  O37  1  1.13628485  0.15015301  -0.53497764  1.0
  O  O38  1  1.15015301  -0.53497764  0.13628485  1.0
  O  O39  1  0.46502236  0.13628485  0.15015301  1.0
  O  O40  1  0.86371515  0.84984699  0.53497764  1.0
  O  O41  1  0.84984699  1.53497764  -0.13628485  1.0
