# generated using pymatgen
data_Na2Cr3O9
_symmetry_space_group_name_H-M   'P 1'
_cell_length_a   8.28692983
_cell_length_b   5.81845400
_cell_length_c   8.61567297
_cell_angle_alpha   90.00000000
_cell_angle_beta   112.57612978
_cell_angle_gamma   90.00000000
_symmetry_Int_Tables_number   1
_chemical_formula_structural   Na2Cr3O9
_chemical_formula_sum   'Na4 Cr6 O18'
_cell_volume   383.58917743
_cell_formula_units_Z   2
loop_
 _symmetry_equiv_pos_site_id
 _symmetry_equiv_pos_as_xyz
  1  'x, y, z'
loop_
 _atom_site_type_symbol
 _atom_site_label
 _atom_site_symmetry_multiplicity
 _atom_site_fract_x
 _atom_site_fract_y
 _atom_site_fract_z
 _atom_site_occupancy
  Cr  Cr0  1  1.03194033  0.25000000  0.68364068  1.0
  Cr  Cr1  1  -0.03194033  0.75000000  0.31635932  1.0
  Cr  Cr2  1  0.59419086  0.25000000  0.81058203  1.0
  Cr  Cr3  1  0.40580914  0.75000000  0.18941797  1.0
  Cr  Cr4  1  0.00000000  0.50000000  0.00000000  1.0
  Cr  Cr5  1  0.00000000  0.00000000  0.00000000  1.0
  O  O6  1  0.92169424  0.98391386  0.18761757  1.0
  O  O7  1  0.92169424  0.51608614  0.18761757  1.0
  O  O8  1  0.07830576  0.48391386  0.81238243  1.0
  O  O9  1  0.07830576  0.01608614  0.81238243  1.0
  O  O10  1  0.52217793  0.47863956  0.69477611  1.0
  O  O11  1  0.52217793  0.02136044  0.69477611  1.0
  O  O12  1  0.47782207  0.97863956  0.30522389  1.0
  O  O13  1  0.47782207  0.52136044  0.30522389  1.0
  O  O14  1  0.82762870  0.25000000  0.89616320  1.0
  O  O15  1  0.17237130  0.75000000  0.10383680  1.0
  O  O16  1  0.82843545  0.25000000  0.55499050  1.0
  O  O17  1  0.17156455  0.75000000  0.44500950  1.0
  O  O18  1  0.52685434  0.25000000  0.96211164  1.0
  O  O19  1  0.47314566  0.75000000  0.03788836  1.0
  O  O20  1  0.15666223  0.25000000  0.57933799  1.0
  O  O21  1  0.84333777  0.75000000  0.42066201  1.0
  O  O22  1  0.13355493  0.25000000  0.09764163  1.0
  O  O23  1  0.86644507  0.75000000  0.90235837  1.0
  Na  Na24  1  0.69127120  0.25000000  0.25449071  1.0
  Na  Na25  1  0.30872880  0.75000000  0.74550929  1.0
  Na  Na26  1  0.32565028  0.25000000  0.41224693  1.0
  Na  Na27  1  0.67434972  0.75000000  0.58775307  1.0
