# generated using pymatgen
data_LiCoPO4
_symmetry_space_group_name_H-M   'P 1'
_cell_length_a   4.94985290
_cell_length_b   4.94985290
_cell_length_c   6.21860061
_cell_angle_alpha   90.00000000
_cell_angle_beta   90.00000000
_cell_angle_gamma   111.87776051
_symmetry_Int_Tables_number   1
_chemical_formula_structural   LiCoPO4
_chemical_formula_sum   'Li2 Co2 P2 O8'
_cell_volume   141.38922590
_cell_formula_units_Z   2
loop_
 _symmetry_equiv_pos_site_id
 _symmetry_equiv_pos_as_xyz
  1  'x, y, z'
loop_
 _atom_site_type_symbol
 _atom_site_label
 _atom_site_symmetry_multiplicity
 _atom_site_fract_x
 _atom_site_fract_y
 _atom_site_fract_z
 _atom_site_occupancy
  Li  Li0  1  -0.32920337  1.32920337  0.25000000  1.0
  Li  Li1  1  0.32920337  0.67079663  0.75000000  1.0
  Co  Co2  1  0.00000000  0.00000000  0.50000000  1.0
  Co  Co3  1  0.00000000  0.00000000  0.00000000  1.0
  P  P4  1  0.34985491  0.65014509  0.25000000  1.0
  P  P5  1  -0.34985491  1.34985491  0.75000000  1.0
  O  O6  1  0.24052472  0.30662046  0.25000000  1.0
  O  O7  1  -0.69337954  1.24052472  0.75000000  1.0
  O  O8  1  0.69337954  0.75947528  0.25000000  1.0
  O  O9  1  -0.24052472  1.69337954  0.75000000  1.0
  O  O10  1  0.24350885  0.75649115  0.45548850  1.0
  O  O11  1  0.24350885  0.75649115  0.04451150  1.0
  O  O12  1  -0.24350885  1.24350885  0.95548850  1.0
  O  O13  1  -0.24350885  1.24350885  0.54451150  1.0
