# generated using pymatgen
data_V4O9
_symmetry_space_group_name_H-M   'P 1'
_cell_length_a   6.80658981
_cell_length_b   6.80658981
_cell_length_c   15.23314803
_cell_angle_alpha   90.00000000
_cell_angle_beta   90.00000000
_cell_angle_gamma   77.43170032
_symmetry_Int_Tables_number   1
_chemical_formula_structural   V4O9
_chemical_formula_sum   'V16 O36'
_cell_volume   688.83505176
_cell_formula_units_Z   4
loop_
 _symmetry_equiv_pos_site_id
 _symmetry_equiv_pos_as_xyz
  1  'x, y, z'
loop_
 _atom_site_type_symbol
 _atom_site_label
 _atom_site_symmetry_multiplicity
 _atom_site_fract_x
 _atom_site_fract_y
 _atom_site_fract_z
 _atom_site_occupancy
  V  V0  1  -0.21025949  1.79836498  0.38726465  1.0
  V  V1  1  -0.21025949  1.79836498  0.11273535  1.0
  V  V2  1  0.79836498  0.78974051  0.88726465  1.0
  V  V3  1  0.79836498  0.78974051  0.61273535  1.0
  V  V4  1  -0.79836498  1.21025949  0.38726465  1.0
  V  V5  1  -0.79836498  1.21025949  0.11273535  1.0
  V  V6  1  0.21025949  0.20163502  0.88726465  1.0
  V  V7  1  0.21025949  0.20163502  0.61273535  1.0
  V  V8  1  0.32732198  0.67267802  0.86434870  1.0
  V  V9  1  0.32732198  0.67267802  0.63565130  1.0
  V  V10  1  -0.32732198  1.32732198  0.36434870  1.0
  V  V11  1  -0.32732198  1.32732198  0.13565130  1.0
  V  V12  1  0.31608224  0.68391776  0.37180534  1.0
  V  V13  1  0.31608224  0.68391776  0.12819466  1.0
  V  V14  1  -0.31608224  1.31608224  0.87180534  1.0
  V  V15  1  -0.31608224  1.31608224  0.62819466  1.0
  O  O16  1  0.02820227  0.71132508  0.35450462  1.0
  O  O17  1  0.02820227  0.71132508  0.14549538  1.0
  O  O18  1  -0.28867492  1.02820227  0.85450462  1.0
  O  O19  1  -0.28867492  1.02820227  0.64549538  1.0
  O  O20  1  0.28867492  0.97179773  0.35450462  1.0
  O  O21  1  0.28867492  0.97179773  0.14549538  1.0
  O  O22  1  -0.02820227  1.28867492  0.85450462  1.0
  O  O23  1  -0.02820227  1.28867492  0.64549538  1.0
  O  O24  1  -0.04310473  1.30241879  0.36050109  1.0
  O  O25  1  -0.04310473  1.30241879  0.13949891  1.0
  O  O26  1  0.30241879  0.95689527  0.86050109  1.0
  O  O27  1  0.30241879  0.95689527  0.63949891  1.0
  O  O28  1  -0.30241879  1.04310473  0.36050109  1.0
  O  O29  1  -0.30241879  1.04310473  0.13949891  1.0
  O  O30  1  0.04310473  0.69758121  0.86050109  1.0
  O  O31  1  0.04310473  0.69758121  0.63949891  1.0
  O  O32  1  -0.37168638  1.62950058  0.37097502  1.0
  O  O33  1  -0.37168638  1.62950058  0.12902498  1.0
  O  O34  1  0.62950058  0.62831362  0.87097502  1.0
  O  O35  1  0.62950058  0.62831362  0.62902498  1.0
  O  O36  1  -0.62950058  1.37168638  0.37097502  1.0
  O  O37  1  -0.62950058  1.37168638  0.12902498  1.0
  O  O38  1  0.37168638  0.37049942  0.87097502  1.0
  O  O39  1  0.37168638  0.37049942  0.62902498  1.0
  O  O40  1  0.31145119  0.68854881  0.48471155  1.0
  O  O41  1  0.31145119  0.68854881  0.01528845  1.0
  O  O42  1  -0.31145119  1.31145119  0.98471155  1.0
  O  O43  1  -0.31145119  1.31145119  0.51528845  1.0
  O  O44  1  0.81219740  0.81219740  0.50000000  1.0
  O  O45  1  0.81219740  0.81219740  0.00000000  1.0
  O  O46  1  0.18780260  0.18780260  0.50000000  1.0
  O  O47  1  0.18780260  0.18780260  0.00000000  1.0
  O  O48  1  0.33882568  0.66117432  0.25000000  1.0
  O  O49  1  -0.33882568  1.33882568  0.75000000  1.0
  O  O50  1  -0.33893653  1.33893653  0.25000000  1.0
  O  O51  1  0.33893653  0.66106347  0.75000000  1.0
