# generated using pymatgen
data_Ba(AuS)2
_symmetry_space_group_name_H-M   'P 1'
_cell_length_a   7.93284528
_cell_length_b   7.93284528
_cell_length_c   7.93284528
_cell_angle_alpha   131.23725202
_cell_angle_beta   131.23725202
_cell_angle_gamma   71.43640546
_symmetry_Int_Tables_number   1
_chemical_formula_structural   Ba(AuS)2
_chemical_formula_sum   'Ba2 Au4 S4'
_cell_volume   276.27744506
_cell_formula_units_Z   2
loop_
 _symmetry_equiv_pos_site_id
 _symmetry_equiv_pos_as_xyz
  1  'x, y, z'
loop_
 _atom_site_type_symbol
 _atom_site_label
 _atom_site_symmetry_multiplicity
 _atom_site_fract_x
 _atom_site_fract_y
 _atom_site_fract_z
 _atom_site_occupancy
  Ba  Ba0  1  0.75000000  1.25000000  0.50000000  1.0
  Ba  Ba1  1  0.00000000  0.00000000  0.00000000  1.0
  Au  Au2  1  1.37500000  1.12500000  0.75000000  1.0
  Au  Au3  1  0.87500000  0.62500000  0.25000000  1.0
  Au  Au4  1  1.37500000  1.62500000  1.25000000  1.0
  Au  Au5  1  1.37500000  0.62500000  0.75000000  1.0
  S  S6  1  0.50249773  0.00249773  0.50000000  1.0
  S  S7  1  0.75249773  0.75249773  -0.00000000  1.0
  S  S8  1  1.24750227  1.24750227  1.00000000  1.0
  S  S9  1  0.99750227  1.49750227  0.50000000  1.0
