# generated using pymatgen
data_Cr(GaSb)2
_symmetry_space_group_name_H-M   'P 1'
_cell_length_a   7.27278945
_cell_length_b   7.27278945
_cell_length_c   7.27278945
_cell_angle_alpha   131.20297961
_cell_angle_beta   70.92050961
_cell_angle_gamma   131.92452078
_symmetry_Int_Tables_number   1
_chemical_formula_structural   Cr(GaSb)2
_chemical_formula_sum   'Cr2 Ga4 Sb4'
_cell_volume   210.88903124
_cell_formula_units_Z   2
loop_
 _symmetry_equiv_pos_site_id
 _symmetry_equiv_pos_as_xyz
  1  'x, y, z'
loop_
 _atom_site_type_symbol
 _atom_site_label
 _atom_site_symmetry_multiplicity
 _atom_site_fract_x
 _atom_site_fract_y
 _atom_site_fract_z
 _atom_site_occupancy
  Cr  Cr0  1  0.01246549  0.01246549  0.00000000  1.0
  Cr  Cr1  1  0.51246549  0.51246549  0.00000000  1.0
  Ga  Ga2  1  0.63511843  1.03101474  1.14147379  1.0
  Ga  Ga3  1  0.38954095  0.53101474  0.39589631  1.0
  Ga  Ga4  1  1.13511843  0.99364464  0.60410369  1.0
  Ga  Ga5  1  0.88954095  1.49364464  0.85852621  1.0
  Sb  Sb6  1  0.39920617  0.99088054  0.86521158  1.0
  Sb  Sb7  1  0.62566896  0.49088054  0.59167437  1.0
  Sb  Sb8  1  0.89920617  1.03399459  0.40832563  1.0
  Sb  Sb9  1  1.12566896  1.53399459  1.13478842  1.0
