# generated using pymatgen
data_LiSiBO4
_symmetry_space_group_name_H-M   'P 1'
_cell_length_a   4.66404520
_cell_length_b   4.66404520
_cell_length_c   4.66404520
_cell_angle_alpha   123.14713346
_cell_angle_beta   123.14713346
_cell_angle_gamma   84.63029933
_symmetry_Int_Tables_number   1
_chemical_formula_structural   LiSiBO4
_chemical_formula_sum   'Li1 Si1 B1 O4'
_cell_volume   68.00291060
_cell_formula_units_Z   1
loop_
 _symmetry_equiv_pos_site_id
 _symmetry_equiv_pos_as_xyz
  1  'x, y, z'
loop_
 _atom_site_type_symbol
 _atom_site_label
 _atom_site_symmetry_multiplicity
 _atom_site_fract_x
 _atom_site_fract_y
 _atom_site_fract_z
 _atom_site_occupancy
  Li  Li0  1  0.50000000  0.50000000  1.00000000  1.0
  Si  Si1  1  0.00000000  0.00000000  0.00000000  1.0
  B  B2  1  0.25000000  0.75000000  0.50000000  1.0
  O  O3  1  0.28165364  0.85565751  0.88090151  1.0
  O  O4  1  1.14434249  1.02524401  1.42599613  1.0
  O  O5  1  0.97475599  0.40075212  1.11909849  1.0
  O  O6  1  0.59924788  0.71834636  0.57400387  1.0
