# generated using pymatgen
data_HCN
_symmetry_space_group_name_H-M   'P 1'
_cell_length_a   4.02965332
_cell_length_b   4.02965332
_cell_length_c   4.02965332
_cell_angle_alpha   90.00000000
_cell_angle_beta   90.00000000
_cell_angle_gamma   90.00000000
_symmetry_Int_Tables_number   1
_chemical_formula_structural   HCN
_chemical_formula_sum   'H4 C4 N4'
_cell_volume   65.43393705
_cell_formula_units_Z   4
loop_
 _symmetry_equiv_pos_site_id
 _symmetry_equiv_pos_as_xyz
  1  'x, y, z'
loop_
 _atom_site_type_symbol
 _atom_site_label
 _atom_site_symmetry_multiplicity
 _atom_site_fract_x
 _atom_site_fract_y
 _atom_site_fract_z
 _atom_site_occupancy
  H  H0  1  0.07999297  0.57999297  0.92000703  1.0
  H  H1  1  0.57999297  0.92000703  0.07999297  1.0
  H  H2  1  0.92000703  0.07999297  0.57999297  1.0
  H  H3  1  0.42000703  0.42000703  0.42000703  1.0
  C  C4  1  0.92358629  0.42358629  0.07641371  1.0
  C  C5  1  0.42358629  0.07641371  0.92358629  1.0
  C  C6  1  0.07641371  0.92358629  0.42358629  1.0
  C  C7  1  0.57641371  0.57641371  0.57641371  1.0
  N  N8  1  0.38788658  0.88788658  0.61211342  1.0
  N  N9  1  0.88788658  0.61211342  0.38788658  1.0
  N  N10  1  0.61211342  0.38788658  0.88788658  1.0
  N  N11  1  0.11211342  0.11211342  0.11211342  1.0
