# generated using pymatgen
data_Gd2Mo(SeO4)3
_symmetry_space_group_name_H-M   'P 1'
_cell_length_a   7.21379919
_cell_length_b   6.66514961
_cell_length_c   11.02695801
_cell_angle_alpha   73.18140676
_cell_angle_beta   84.94939561
_cell_angle_gamma   86.34801287
_symmetry_Int_Tables_number   1
_chemical_formula_structural   Gd2Mo(SeO4)3
_chemical_formula_sum   'Gd4 Mo2 Se6 O24'
_cell_volume   505.13244228
_cell_formula_units_Z   2
loop_
 _symmetry_equiv_pos_site_id
 _symmetry_equiv_pos_as_xyz
  1  'x, y, z'
loop_
 _atom_site_type_symbol
 _atom_site_label
 _atom_site_symmetry_multiplicity
 _atom_site_fract_x
 _atom_site_fract_y
 _atom_site_fract_z
 _atom_site_occupancy
  Gd  Gd0  1  -0.85983303  -0.26764024  -0.99129027  1.0
  Gd  Gd1  1  -0.14016697  -0.73235976  -0.00870973  1.0
  Gd  Gd2  1  -0.67978194  -0.20231813  -0.66828960  1.0
  Gd  Gd3  1  -0.32021806  -0.79768187  -0.33171040  1.0
  Mo  Mo4  1  -0.39114411  -0.72042308  -0.70540841  1.0
  Mo  Mo5  1  -0.60885589  -0.27957692  -0.29459159  1.0
  Se  Se6  1  -0.84050996  -0.80205128  -0.28317030  1.0
  Se  Se7  1  -0.15949004  -0.19794872  -0.71682970  1.0
  Se  Se8  1  -0.63946630  -0.78874596  -0.99235164  1.0
  Se  Se9  1  -0.36053370  -0.21125404  -0.00764836  1.0
  Se  Se10  1  -0.85822535  -0.65596852  -0.64321928  1.0
  Se  Se11  1  -0.14177465  -0.34403148  -0.35678072  1.0
  O  O12  1  -0.63007071  -0.94461198  -0.30484223  1.0
  O  O13  1  -0.36992929  -0.05538802  -0.69515777  1.0
  O  O14  1  -0.89744174  -0.91749106  -0.11896347  1.0
  O  O15  1  -0.10255826  -0.08250894  -0.88103653  1.0
  O  O16  1  -1.00258346  -0.90260592  -0.34907697  1.0
  O  O17  1  0.00258346  -0.09739408  -0.65092303  1.0
  O  O18  1  -0.66586854  -0.81988660  -0.67868299  1.0
  O  O19  1  -0.33413146  -0.18011340  -0.32131701  1.0
  O  O20  1  -0.33148659  -0.78253027  -0.54782271  1.0
  O  O21  1  -0.66851341  -0.21746973  -0.45217729  1.0
  O  O22  1  -0.46313880  -0.71871042  -0.91652053  1.0
  O  O23  1  -0.53686120  -0.28128958  -0.08347947  1.0
  O  O24  1  -0.17648562  -0.69507651  -0.79818767  1.0
  O  O25  1  -0.82351438  -0.30492349  -0.20181233  1.0
  O  O26  1  -0.83709575  -0.64239275  -0.96013210  1.0
  O  O27  1  -0.16290425  -0.35760725  -0.03986790  1.0
  O  O28  1  -0.77094458  -0.55030707  -0.53897527  1.0
  O  O29  1  -0.22905542  -0.44969293  -0.46102473  1.0
  O  O30  1  -0.47172331  -0.45463916  -0.73299298  1.0
  O  O31  1  -0.52827669  -0.54536084  -0.26700702  1.0
  O  O32  1  -0.84475349  -0.42666100  -0.76979770  1.0
  O  O33  1  -0.15524651  -0.57333900  -0.23020230  1.0
  O  O34  1  -0.68995614  -0.03964945  -0.89311817  1.0
  O  O35  1  -0.31004386  -0.96035055  -0.10688183  1.0
