# generated using pymatgen
data_ZnGaNO
_symmetry_space_group_name_H-M   'P 1'
_cell_length_a   6.52839395
_cell_length_b   6.52839395
_cell_length_c   10.53712995
_cell_angle_alpha   90.00000000
_cell_angle_beta   90.00000000
_cell_angle_gamma   120.00000000
_symmetry_Int_Tables_number   1
_chemical_formula_structural   ZnGaNO
_chemical_formula_sum   'Zn8 Ga8 N8 O8'
_cell_volume   388.92483372
_cell_formula_units_Z   8
loop_
 _symmetry_equiv_pos_site_id
 _symmetry_equiv_pos_as_xyz
  1  'x, y, z'
loop_
 _atom_site_type_symbol
 _atom_site_label
 _atom_site_symmetry_multiplicity
 _atom_site_fract_x
 _atom_site_fract_y
 _atom_site_fract_z
 _atom_site_occupancy
  Zn  Zn0  1  0.49573977  0.50426023  0.48981806  1.0
  Zn  Zn1  1  -0.00000000  -0.00000000  0.99577197  1.0
  Zn  Zn2  1  0.66666667  0.33333333  0.25603970  1.0
  Zn  Zn3  1  0.16071590  0.83928410  0.73670871  1.0
  Zn  Zn4  1  0.49573977  -0.00852046  0.48981806  1.0
  Zn  Zn5  1  0.00852046  0.50426023  0.48981806  1.0
  Zn  Zn6  1  0.67856821  0.83928410  0.73670871  1.0
  Zn  Zn7  1  0.16071590  0.32143179  0.73670871  1.0
  Ga  Ga8  1  0.50242463  0.49757537  1.00724730  1.0
  Ga  Ga9  1  0.00000000  0.00000000  0.49565060  1.0
  Ga  Ga10  1  0.66666667  0.33333333  0.74934588  1.0
  Ga  Ga11  1  0.17259781  0.82740219  0.25604769  1.0
  Ga  Ga12  1  0.50242463  0.00484927  1.00724730  1.0
  Ga  Ga13  1  -0.00484927  0.49757537  1.00724730  1.0
  Ga  Ga14  1  0.65480438  0.82740219  0.25604769  1.0
  Ga  Ga15  1  0.17259781  0.34519562  0.25604769  1.0
  N  N16  1  0.49666979  0.50333021  0.18676001  1.0
  N  N17  1  0.00000000  0.00000000  0.68244616  1.0
  N  N18  1  0.66666667  0.33333333  0.93763500  1.0
  N  N19  1  0.16159278  0.83840722  0.43545473  1.0
  N  N20  1  0.49666979  -0.00666042  0.18676001  1.0
  N  N21  1  0.00666042  0.50333021  0.18676001  1.0
  N  N22  1  0.67681445  0.83840722  0.43545473  1.0
  N  N23  1  0.16159278  0.32318555  0.43545473  1.0
  O  O24  1  0.50639721  0.49360279  0.69871128  1.0
  O  O25  1  0.00000000  0.00000000  0.18763923  1.0
  O  O26  1  0.66666667  0.33333333  0.44730662  1.0
  O  O27  1  0.17403399  0.82596601  0.94397062  1.0
  O  O28  1  0.50639721  0.01279443  0.69871128  1.0
  O  O29  1  -0.01279443  0.49360279  0.69871128  1.0
  O  O30  1  0.65193202  0.82596601  0.94397062  1.0
  O  O31  1  0.17403399  0.34806798  0.94397062  1.0
