# generated using pymatgen
data_Sn3O4
_symmetry_space_group_name_H-M   'P 1'
_cell_length_a   8.41538811
_cell_length_b   4.96709455
_cell_length_c   5.86986930
_cell_angle_alpha   90.00000000
_cell_angle_beta   94.77410955
_cell_angle_gamma   90.00000000
_symmetry_Int_Tables_number   1
_chemical_formula_structural   Sn3O4
_chemical_formula_sum   'Sn6 O8'
_cell_volume   244.50944144
_cell_formula_units_Z   2
loop_
 _symmetry_equiv_pos_site_id
 _symmetry_equiv_pos_as_xyz
  1  'x, y, z'
loop_
 _atom_site_type_symbol
 _atom_site_label
 _atom_site_symmetry_multiplicity
 _atom_site_fract_x
 _atom_site_fract_y
 _atom_site_fract_z
 _atom_site_occupancy
  Sn  Sn0  1  0.68219134  -0.00078991  0.29310856  1.0
  Sn  Sn1  1  0.68219134  0.50078991  0.79310856  1.0
  Sn  Sn2  1  0.31780866  0.49921009  0.20689144  1.0
  Sn  Sn3  1  0.31780866  0.00078991  0.70689144  1.0
  Sn  Sn4  1  -0.00000000  0.50000000  0.50000000  1.0
  Sn  Sn5  1  0.00000000  -0.00000000  0.00000000  1.0
  O  O6  1  0.90569602  0.19724545  0.27454539  1.0
  O  O7  1  0.90569602  0.30275455  0.77454539  1.0
  O  O8  1  0.09430398  0.69724545  0.22545461  1.0
  O  O9  1  0.09430398  0.80275455  0.72545461  1.0
  O  O10  1  0.77232597  0.67423834  0.49555082  1.0
  O  O11  1  0.77232597  0.82576166  -0.00444918  1.0
  O  O12  1  0.22767403  0.17423834  0.00444918  1.0
  O  O13  1  0.22767403  0.32576166  0.50444918  1.0
