# generated using pymatgen
data_CsYbS2
_symmetry_space_group_name_H-M   'P 1'
_cell_length_a   8.32922051
_cell_length_b   8.32922051
_cell_length_c   8.32922051
_cell_angle_alpha   28.48212355
_cell_angle_beta   28.48212355
_cell_angle_gamma   28.48212355
_symmetry_Int_Tables_number   1
_chemical_formula_structural   CsYbS2
_chemical_formula_sum   'Cs1 Yb1 S2'
_cell_volume   116.14818620
_cell_formula_units_Z   1
loop_
 _symmetry_equiv_pos_site_id
 _symmetry_equiv_pos_as_xyz
  1  'x, y, z'
loop_
 _atom_site_type_symbol
 _atom_site_label
 _atom_site_symmetry_multiplicity
 _atom_site_fract_x
 _atom_site_fract_y
 _atom_site_fract_z
 _atom_site_occupancy
  Cs  Cs0  1  0.00000000  0.00000000  0.00000000  1.0
  Yb  Yb1  1  1.50000000  0.50000000  0.50000000  1.0
  S  S2  1  0.77382422  0.77382422  0.77382422  1.0
  S  S3  1  1.22617578  1.22617578  0.22617578  1.0
