# generated using pymatgen
data_Ca(Fe2O3)2
_symmetry_space_group_name_H-M   'P 1'
_cell_length_a   5.23676287
_cell_length_b   5.23676287
_cell_length_c   15.58695207
_cell_angle_alpha   90.00000000
_cell_angle_beta   90.00000000
_cell_angle_gamma   146.15571568
_symmetry_Int_Tables_number   1
_chemical_formula_structural   Ca(Fe2O3)2
_chemical_formula_sum   'Ca2 Fe8 O12'
_cell_volume   238.06395942
_cell_formula_units_Z   2
loop_
 _symmetry_equiv_pos_site_id
 _symmetry_equiv_pos_as_xyz
  1  'x, y, z'
loop_
 _atom_site_type_symbol
 _atom_site_label
 _atom_site_symmetry_multiplicity
 _atom_site_fract_x
 _atom_site_fract_y
 _atom_site_fract_z
 _atom_site_occupancy
  Ca  Ca0  1  -0.14875068  0.14875068  0.75000000  1.0
  Ca  Ca1  1  0.14875068  0.85124932  0.25000000  1.0
  Fe  Fe2  1  0.10209867  0.89790133  0.86483163  1.0
  Fe  Fe3  1  0.10209867  0.89790133  0.63516837  1.0
  Fe  Fe4  1  -0.10209867  0.10209867  0.36483163  1.0
  Fe  Fe5  1  -0.10209867  0.10209867  0.13516837  1.0
  Fe  Fe6  1  0.36504690  0.63495310  0.95588467  1.0
  Fe  Fe7  1  0.36504690  0.63495310  0.54411533  1.0
  Fe  Fe8  1  -0.36504690  0.36504690  0.45588467  1.0
  Fe  Fe9  1  -0.36504690  0.36504690  0.04411533  1.0
  O  O10  1  0.27422773  0.72577227  0.42013327  1.0
  O  O11  1  0.27422773  0.72577227  0.07986673  1.0
  O  O12  1  -0.27422773  0.27422773  0.92013327  1.0
  O  O13  1  -0.27422773  0.27422773  0.57986673  1.0
  O  O14  1  0.46297918  0.53702082  0.84429672  1.0
  O  O15  1  0.46297918  0.53702082  0.65570328  1.0
  O  O16  1  -0.46297918  0.46297918  0.34429672  1.0
  O  O17  1  -0.46297918  0.46297918  0.15570328  1.0
  O  O18  1  0.17891621  0.82108379  0.75000000  1.0
  O  O19  1  -0.17891621  0.17891621  0.25000000  1.0
  O  O20  1  0.00000000  0.00000000  0.00000000  1.0
  O  O21  1  0.00000000  0.00000000  0.50000000  1.0
