# generated using pymatgen
data_NbCrP
_symmetry_space_group_name_H-M   'P 1'
_cell_length_a   6.26602055
_cell_length_b   3.53679810
_cell_length_c   7.38288409
_cell_angle_alpha   90.00000000
_cell_angle_beta   90.00000000
_cell_angle_gamma   90.00000000
_symmetry_Int_Tables_number   1
_chemical_formula_structural   NbCrP
_chemical_formula_sum   'Nb4 Cr4 P4'
_cell_volume   163.61689016
_cell_formula_units_Z   4
loop_
 _symmetry_equiv_pos_site_id
 _symmetry_equiv_pos_as_xyz
  1  'x, y, z'
loop_
 _atom_site_type_symbol
 _atom_site_label
 _atom_site_symmetry_multiplicity
 _atom_site_fract_x
 _atom_site_fract_y
 _atom_site_fract_z
 _atom_site_occupancy
  Nb  Nb0  1  0.96896570  0.75000000  0.67264730  1.0
  Nb  Nb1  1  0.46896570  0.75000000  0.82735270  1.0
  Nb  Nb2  1  0.03103430  0.25000000  0.32735270  1.0
  Nb  Nb3  1  0.53103430  0.25000000  0.17264730  1.0
  Cr  Cr4  1  0.85714843  0.75000000  0.05951304  1.0
  Cr  Cr5  1  0.35714843  0.75000000  0.44048696  1.0
  Cr  Cr6  1  0.14285157  0.25000000  0.94048696  1.0
  Cr  Cr7  1  0.64285157  0.25000000  0.55951304  1.0
  P  P8  1  0.73023615  0.75000000  0.36846707  1.0
  P  P9  1  0.23023615  0.75000000  0.13153293  1.0
  P  P10  1  0.26976385  0.25000000  0.63153293  1.0
  P  P11  1  0.76976385  0.25000000  0.86846707  1.0
