# generated using pymatgen
data_KAlPO5
_symmetry_space_group_name_H-M   'P 1'
_cell_length_a   12.80025032
_cell_length_b   10.25683236
_cell_length_c   6.37492946
_cell_angle_alpha   90.00000000
_cell_angle_beta   90.00000000
_cell_angle_gamma   90.00000000
_symmetry_Int_Tables_number   1
_chemical_formula_structural   KAlPO5
_chemical_formula_sum   'K8 Al8 P8 O40'
_cell_volume   836.96462751
_cell_formula_units_Z   8
loop_
 _symmetry_equiv_pos_site_id
 _symmetry_equiv_pos_as_xyz
  1  'x, y, z'
loop_
 _atom_site_type_symbol
 _atom_site_label
 _atom_site_symmetry_multiplicity
 _atom_site_fract_x
 _atom_site_fract_y
 _atom_site_fract_z
 _atom_site_occupancy
  Al  Al0  1  0.36881313  0.25000000  0.75000000  1.0
  Al  Al1  1  0.13118687  0.75000000  0.75000000  1.0
  Al  Al2  1  0.63118687  0.75000000  0.25000000  1.0
  Al  Al3  1  0.86881313  0.25000000  0.25000000  1.0
  Al  Al4  1  0.00000000  0.50000000  0.00000000  1.0
  Al  Al5  1  0.50000000  0.50000000  0.00000000  1.0
  Al  Al6  1  0.00000000  0.00000000  0.50000000  1.0
  Al  Al7  1  0.50000000  0.00000000  0.50000000  1.0
  K  K8  1  0.14200814  0.12831040  0.04020000  1.0
  K  K9  1  0.35799186  0.87168960  0.04020000  1.0
  K  K10  1  0.14200814  0.37168960  0.45980000  1.0
  K  K11  1  0.35799186  0.62831040  0.45980000  1.0
  K  K12  1  0.85799186  0.87168960  0.95980000  1.0
  K  K13  1  0.64200814  0.12831040  0.95980000  1.0
  K  K14  1  0.85799186  0.62831040  0.54020000  1.0
  K  K15  1  0.64200814  0.37168960  0.54020000  1.0
  O  O16  1  0.15143352  0.47553131  0.06415161  1.0
  O  O17  1  0.34856648  0.52446869  0.06415161  1.0
  O  O18  1  0.15143352  0.02446869  0.43584839  1.0
  O  O19  1  0.34856648  0.97553131  0.43584839  1.0
  O  O20  1  0.84856648  0.52446869  0.93584839  1.0
  O  O21  1  0.65143352  0.47553131  0.93584839  1.0
  O  O22  1  0.84856648  0.97553131  0.56415161  1.0
  O  O23  1  0.65143352  0.02446869  0.56415161  1.0
  O  O24  1  0.00586304  0.36440920  0.80594323  1.0
  O  O25  1  0.49413696  0.63559080  0.80594323  1.0
  O  O26  1  0.00586304  0.13559080  0.69405677  1.0
  O  O27  1  0.49413696  0.86440920  0.69405677  1.0
  O  O28  1  0.99413696  0.63559080  0.19405677  1.0
  O  O29  1  0.50586304  0.36440920  0.19405677  1.0
  O  O30  1  0.99413696  0.86440920  0.30594323  1.0
  O  O31  1  0.50586304  0.13559080  0.30594323  1.0
  O  O32  1  0.36242779  0.21031067  0.05822419  1.0
  O  O33  1  0.13757221  0.78968933  0.05822419  1.0
  O  O34  1  0.36242779  0.28968933  0.44177581  1.0
  O  O35  1  0.13757221  0.71031067  0.44177581  1.0
  O  O36  1  0.63757221  0.78968933  0.94177581  1.0
  O  O37  1  0.86242779  0.21031067  0.94177581  1.0
  O  O38  1  0.63757221  0.71031067  0.55822419  1.0
  O  O39  1  0.86242779  0.28968933  0.55822419  1.0
  O  O40  1  0.26765508  0.38022876  0.78211081  1.0
  O  O41  1  0.23234492  0.61977124  0.78211081  1.0
  O  O42  1  0.26765508  0.11977124  0.71788919  1.0
  O  O43  1  0.23234492  0.88022876  0.71788919  1.0
  O  O44  1  0.73234492  0.61977124  0.21788919  1.0
  O  O45  1  0.76765508  0.38022876  0.21788919  1.0
  O  O46  1  0.73234492  0.88022876  0.28211081  1.0
  O  O47  1  0.76765508  0.11977124  0.28211081  1.0
  O  O48  1  0.97323291  0.37454399  0.21112108  1.0
  O  O49  1  0.52676709  0.62545601  0.21112108  1.0
  O  O50  1  0.97323291  0.12545601  0.28887892  1.0
  O  O51  1  0.52676709  0.87454399  0.28887892  1.0
  O  O52  1  0.02676709  0.62545601  0.78887892  1.0
  O  O53  1  0.47323291  0.37454399  0.78887892  1.0
  O  O54  1  0.02676709  0.87454399  0.71112108  1.0
  O  O55  1  0.47323291  0.12545601  0.71112108  1.0
  P  P56  1  0.92968643  0.25000000  0.75000000  1.0
  P  P57  1  0.57031357  0.75000000  0.75000000  1.0
  P  P58  1  0.07031357  0.75000000  0.25000000  1.0
  P  P59  1  0.42968643  0.25000000  0.25000000  1.0
  P  P60  1  0.25000000  0.50000000  0.92866632  1.0
  P  P61  1  0.25000000  0.00000000  0.57133368  1.0
  P  P62  1  0.75000000  0.50000000  0.07133368  1.0
  P  P63  1  0.75000000  0.00000000  0.42866632  1.0
