# generated using pymatgen
data_K4PbF6
_symmetry_space_group_name_H-M   'P 1'
_cell_length_a   7.72365880
_cell_length_b   7.72365880
_cell_length_c   7.72365880
_cell_angle_alpha   90.29540384
_cell_angle_beta   90.29540384
_cell_angle_gamma   90.29540384
_symmetry_Int_Tables_number   1
_chemical_formula_structural   K4PbF6
_chemical_formula_sum   'K8 Pb2 F12'
_cell_volume   460.73569861
_cell_formula_units_Z   2
loop_
 _symmetry_equiv_pos_site_id
 _symmetry_equiv_pos_as_xyz
  1  'x, y, z'
loop_
 _atom_site_type_symbol
 _atom_site_label
 _atom_site_symmetry_multiplicity
 _atom_site_fract_x
 _atom_site_fract_y
 _atom_site_fract_z
 _atom_site_occupancy
  K  K0  1  0.90341037  0.25000000  -0.40341037  1.0
  K  K1  1  0.40341037  0.09658963  -0.25000000  1.0
  K  K2  1  0.75000000  0.40341037  -0.90341037  1.0
  K  K3  1  0.25000000  0.59658963  -0.09658963  1.0
  K  K4  1  0.09658963  0.75000000  -0.59658963  1.0
  K  K5  1  0.59658963  -0.09658963  0.25000000  1.0
  K  K6  1  1.25000000  1.25000000  0.25000000  1.0
  K  K7  1  0.75000000  0.75000000  -0.25000000  1.0
  Pb  Pb8  1  0.50000000  0.50000000  -0.50000000  1.0
  Pb  Pb9  1  -0.00000000  0.00000000  -0.00000000  1.0
  F  F10  1  0.19546259  0.42745846  -0.45223744  1.0
  F  F11  1  0.69546259  0.04776256  -0.07254154  1.0
  F  F12  1  0.95223744  0.07254154  -0.69546259  1.0
  F  F13  1  0.45223744  0.80453741  -0.42745846  1.0
  F  F14  1  0.57254154  0.45223744  -0.19546259  1.0
  F  F15  1  1.07254154  -0.69546259  -0.04776256  1.0
  F  F16  1  0.80453741  0.57254154  -0.54776256  1.0
  F  F17  1  0.30453741  -0.04776256  0.07254154  1.0
  F  F18  1  0.54776256  0.19546259  -0.57254154  1.0
  F  F19  1  1.04776256  -0.07254154  -0.30453741  1.0
  F  F20  1  0.92745846  -0.30453741  0.04776256  1.0
  F  F21  1  0.42745846  0.54776256  -0.80453741  1.0
