# generated using pymatgen
data_TlInAs2O7
_symmetry_space_group_name_H-M   'P 1'
_cell_length_a   8.02288144
_cell_length_b   10.75981170
_cell_length_c   8.82936489
_cell_angle_alpha   91.15678359
_cell_angle_beta   105.93241119
_cell_angle_gamma   89.93667352
_symmetry_Int_Tables_number   1
_chemical_formula_structural   TlInAs2O7
_chemical_formula_sum   'Tl4 In4 As8 O28'
_cell_volume   732.75633191
_cell_formula_units_Z   4
loop_
 _symmetry_equiv_pos_site_id
 _symmetry_equiv_pos_as_xyz
  1  'x, y, z'
loop_
 _atom_site_type_symbol
 _atom_site_label
 _atom_site_symmetry_multiplicity
 _atom_site_fract_x
 _atom_site_fract_y
 _atom_site_fract_z
 _atom_site_occupancy
  Tl  Tl0  1  0.65514201  0.17643260  -0.95815419  1.0
  Tl  Tl1  1  0.34485799  0.82356740  -0.04184581  1.0
  Tl  Tl2  1  0.32148795  0.67786975  -0.56277045  1.0
  Tl  Tl3  1  0.67851205  0.32213025  -0.43722955  1.0
  In  In4  1  0.73798241  0.90412069  -0.23980395  1.0
  In  In5  1  0.26201759  0.09587931  -0.76019605  1.0
  In  In6  1  0.73854615  0.60167755  -0.73211323  1.0
  In  In7  1  0.26145385  0.39832245  -0.26788677  1.0
  As  As8  1  0.94575284  0.63066906  -0.29786285  1.0
  As  As9  1  0.05424716  0.36933094  -0.70213715  1.0
  As  As10  1  0.93243875  0.85855778  -0.82727926  1.0
  As  As11  1  0.06756125  0.14144222  -0.17272074  1.0
  As  As12  1  0.65542671  0.92480556  -0.64956129  1.0
  As  As13  1  0.34457329  0.07519444  -0.35043871  1.0
  As  As14  1  0.37679254  0.39673825  -0.83113605  1.0
  As  As15  1  0.62320746  0.60326175  -0.16886395  1.0
  O  O16  1  0.95902940  0.71029809  -0.75170030  1.0
  O  O17  1  0.04097060  0.28970191  -0.24829970  1.0
  O  O18  1  0.95122582  0.79023959  -0.27354729  1.0
  O  O19  1  0.04877418  0.20976041  -0.72645271  1.0
  O  O20  1  0.86305734  0.95621190  -0.68646750  1.0
  O  O21  1  0.13694266  0.04378810  -0.31353250  1.0
  O  O22  1  0.84752134  0.56586561  -0.15214934  1.0
  O  O23  1  0.15247866  0.43413439  -0.84785066  1.0
  O  O24  1  0.84284883  0.42014182  -0.76437164  1.0
  O  O25  1  0.15715117  0.57985818  -0.23562836  1.0
  O  O26  1  0.82665768  0.56756538  -0.47474170  1.0
  O  O27  1  0.17334232  0.43243462  -0.52525830  1.0
  O  O28  1  0.76442758  0.86839150  -0.99544946  1.0
  O  O29  1  0.23557242  0.13160850  -0.00455054  1.0
  O  O30  1  0.68790881  0.98800372  -0.46449408  1.0
  O  O31  1  0.31209119  0.01199628  -0.53550592  1.0
  O  O32  1  0.59707076  0.62052600  -0.98395218  1.0
  O  O33  1  0.40292924  0.37947400  -0.01604782  1.0
  O  O34  1  0.60508512  0.76862842  -0.67532516  1.0
  O  O35  1  0.39491488  0.23137158  -0.32467484  1.0
  O  O36  1  0.57186881  0.73606764  -0.28028575  1.0
  O  O37  1  0.42813119  0.26393236  -0.71971425  1.0
  O  O38  1  0.49623324  0.99339648  -0.21112747  1.0
  O  O39  1  0.50376676  0.00660352  -0.78887253  1.0
  O  O40  1  0.49595358  0.51649130  -0.71785579  1.0
  O  O41  1  0.50404642  0.48350870  -0.28214421  1.0
  O  O42  1  0.12697412  0.91688639  -0.83927667  1.0
  O  O43  1  0.87302588  0.08311361  -0.16072333  1.0
