# generated using pymatgen
data_Li2CdGeS4
_symmetry_space_group_name_H-M   'P 1'
_cell_length_a   7.83570659
_cell_length_b   6.90085282
_cell_length_c   6.45451350
_cell_angle_alpha   90.00000000
_cell_angle_beta   90.00000000
_cell_angle_gamma   90.00000000
_symmetry_Int_Tables_number   1
_chemical_formula_structural   Li2CdGeS4
_chemical_formula_sum   'Li4 Cd2 Ge2 S8'
_cell_volume   349.01528251
_cell_formula_units_Z   2
loop_
 _symmetry_equiv_pos_site_id
 _symmetry_equiv_pos_as_xyz
  1  'x, y, z'
loop_
 _atom_site_type_symbol
 _atom_site_label
 _atom_site_symmetry_multiplicity
 _atom_site_fract_x
 _atom_site_fract_y
 _atom_site_fract_z
 _atom_site_occupancy
  Li  Li0  1  0.24637872  0.17168187  -0.00023462  1.0
  Li  Li1  1  0.74637872  0.82831813  0.49976538  1.0
  Li  Li2  1  0.75362128  0.17168187  -0.00023462  1.0
  Li  Li3  1  0.25362128  0.82831813  0.49976538  1.0
  Cd  Cd4  1  0.50000000  0.64888229  0.99820090  1.0
  Cd  Cd5  1  0.00000000  0.35111771  0.49820090  1.0
  Ge  Ge6  1  0.50000000  0.32604676  0.50034687  1.0
  Ge  Ge7  1  0.00000000  0.67395324  0.00034687  1.0
  S  S8  1  0.27055504  0.16679833  0.37884927  1.0
  S  S9  1  0.77055504  0.83320167  0.87884927  1.0
  S  S10  1  0.72944496  0.16679833  0.37884927  1.0
  S  S11  1  0.22944496  0.83320167  0.87884927  1.0
  S  S12  1  0.50000000  0.30724518  0.84766989  1.0
  S  S13  1  0.00000000  0.69275482  0.34766989  1.0
  S  S14  1  0.50000000  0.63608614  0.39715304  1.0
  S  S15  1  0.00000000  0.36391386  0.89715304  1.0
