# generated using pymatgen
data_ZnS
_symmetry_space_group_name_H-M   'P 1'
_cell_length_a   3.85002801
_cell_length_b   3.85002801
_cell_length_c   75.49847859
_cell_angle_alpha   90.00000000
_cell_angle_beta   90.00000000
_cell_angle_gamma   120.00000000
_symmetry_Int_Tables_number   1
_chemical_formula_structural   ZnS
_chemical_formula_sum   'Zn24 S24'
_cell_volume   969.16251877
_cell_formula_units_Z   24
loop_
 _symmetry_equiv_pos_site_id
 _symmetry_equiv_pos_as_xyz
  1  'x, y, z'
loop_
 _atom_site_type_symbol
 _atom_site_label
 _atom_site_symmetry_multiplicity
 _atom_site_fract_x
 _atom_site_fract_y
 _atom_site_fract_z
 _atom_site_occupancy
  Zn  Zn0  1  0.00000000  0.00000000  0.01042770  1.0
  Zn  Zn1  1  -0.00000000  -0.00000000  0.13542819  1.0
  Zn  Zn2  1  -0.00000000  -0.00000000  0.26042188  1.0
  Zn  Zn3  1  0.00000000  0.00000000  0.42710017  1.0
  Zn  Zn4  1  0.00000000  0.00000000  0.55209511  1.0
  Zn  Zn5  1  0.00000000  0.00000000  0.67706590  1.0
  Zn  Zn6  1  0.00000000  0.00000000  0.76046048  1.0
  Zn  Zn7  1  -0.00000000  -0.00000000  0.88542719  1.0
  Zn  Zn8  1  0.66666667  0.33333333  0.09376620  1.0
  Zn  Zn9  1  0.66666667  0.33333333  0.21875974  1.0
  Zn  Zn10  1  0.66666667  0.33333333  0.34375977  1.0
  Zn  Zn11  1  0.66666667  0.33333333  0.46876067  1.0
  Zn  Zn12  1  0.66666667  0.33333333  0.59376035  1.0
  Zn  Zn13  1  0.66666667  0.33333333  0.71876108  1.0
  Zn  Zn14  1  0.66666667  0.33333333  0.84373154  1.0
  Zn  Zn15  1  0.66666667  0.33333333  0.92712120  1.0
  Zn  Zn16  1  0.33333333  0.66666667  0.05212757  1.0
  Zn  Zn17  1  0.33333333  0.66666667  0.17709421  1.0
  Zn  Zn18  1  0.33333333  0.66666667  0.30206535  1.0
  Zn  Zn19  1  0.33333333  0.66666667  0.38546052  1.0
  Zn  Zn20  1  0.33333333  0.66666667  0.51042753  1.0
  Zn  Zn21  1  0.33333333  0.66666667  0.63542163  1.0
  Zn  Zn22  1  0.33333333  0.66666667  0.80209323  1.0
  Zn  Zn23  1  0.33333333  0.66666667  0.96873602  1.0
  S  S24  1  0.00000000  0.00000000  0.04171286  1.0
  S  S25  1  0.00000000  0.00000000  0.16667223  1.0
  S  S26  1  0.00000000  0.00000000  0.29165926  1.0
  S  S27  1  -0.00000000  -0.00000000  0.45834139  1.0
  S  S28  1  -0.00000000  -0.00000000  0.58333903  1.0
  S  S29  1  -0.00000000  -0.00000000  0.70829594  1.0
  S  S30  1  0.00000000  0.00000000  0.79168539  1.0
  S  S31  1  -0.00000000  -0.00000000  0.91671103  1.0
  S  S32  1  0.66666667  0.33333333  0.12500779  1.0
  S  S33  1  0.66666667  0.33333333  0.25000281  1.0
  S  S34  1  0.66666667  0.33333333  0.37504550  1.0
  S  S35  1  0.66666667  0.33333333  0.50000484  1.0
  S  S36  1  0.66666667  0.33333333  0.62500321  1.0
  S  S37  1  0.66666667  0.33333333  0.75004646  1.0
  S  S38  1  0.66666667  0.33333333  0.87496165  1.0
  S  S39  1  0.66666667  0.33333333  0.95834054  1.0
  S  S40  1  0.33333333  0.66666667  -0.00003625  1.0
  S  S41  1  0.33333333  0.66666667  0.08335400  1.0
  S  S42  1  0.33333333  0.66666667  0.20833820  1.0
  S  S43  1  0.33333333  0.66666667  0.33329560  1.0
  S  S44  1  0.33333333  0.66666667  0.41668724  1.0
  S  S45  1  0.33333333  0.66666667  0.54167186  1.0
  S  S46  1  0.33333333  0.66666667  0.66665883  1.0
  S  S47  1  0.33333333  0.66666667  0.83332737  1.0
