# generated using pymatgen
data_InCl
_symmetry_space_group_name_H-M   'P 1'
_cell_length_a   6.63689407
_cell_length_b   6.63689407
_cell_length_c   4.49607024
_cell_angle_alpha   90.00000000
_cell_angle_beta   90.00000000
_cell_angle_gamma   141.08476656
_symmetry_Int_Tables_number   1
_chemical_formula_structural   InCl
_chemical_formula_sum   'In2 Cl2'
_cell_volume   124.40562467
_cell_formula_units_Z   2
loop_
 _symmetry_equiv_pos_site_id
 _symmetry_equiv_pos_as_xyz
  1  'x, y, z'
loop_
 _atom_site_type_symbol
 _atom_site_label
 _atom_site_symmetry_multiplicity
 _atom_site_fract_x
 _atom_site_fract_y
 _atom_site_fract_z
 _atom_site_occupancy
  In  In0  1  -0.88531463  0.88531463  0.25000000  1.0
  In  In1  1  -0.11468537  1.11468537  0.75000000  1.0
  Cl  Cl2  1  -0.65563593  0.65563593  0.25000000  1.0
  Cl  Cl3  1  -0.34436407  1.34436407  0.75000000  1.0
