# generated using pymatgen
data_RbH3(SeO3)2
_symmetry_space_group_name_H-M   'P 1'
_cell_length_a   6.06247752
_cell_length_b   6.50613621
_cell_length_c   18.21179776
_cell_angle_alpha   90.00000000
_cell_angle_beta   90.00000000
_cell_angle_gamma   90.00000000
_symmetry_Int_Tables_number   1
_chemical_formula_structural   RbH3(SeO3)2
_chemical_formula_sum   'Rb4 H12 Se8 O24'
_cell_volume   718.33348486
_cell_formula_units_Z   4
loop_
 _symmetry_equiv_pos_site_id
 _symmetry_equiv_pos_as_xyz
  1  'x, y, z'
loop_
 _atom_site_type_symbol
 _atom_site_label
 _atom_site_symmetry_multiplicity
 _atom_site_fract_x
 _atom_site_fract_y
 _atom_site_fract_z
 _atom_site_occupancy
  Rb  Rb0  1  0.01989045  0.98272015  0.66271980  1.0
  Rb  Rb1  1  0.51989045  0.51727985  0.33728020  1.0
  Rb  Rb2  1  0.98010955  0.48272015  0.83728020  1.0
  Rb  Rb3  1  0.48010955  0.01727985  0.16271980  1.0
  H  H4  1  0.47463962  0.24763666  0.78172869  1.0
  H  H5  1  0.97463962  0.25236334  0.21827131  1.0
  H  H6  1  0.52536038  0.74763666  0.71827131  1.0
  H  H7  1  0.02536038  0.75236334  0.28172869  1.0
  H  H8  1  0.26868288  0.70489790  0.98681314  1.0
  H  H9  1  0.76868288  0.79510210  0.01318686  1.0
  H  H10  1  0.73131712  0.20489790  0.51318686  1.0
  H  H11  1  0.23131712  0.29510210  0.48681314  1.0
  H  H12  1  0.15578129  0.96437377  0.86402217  1.0
  H  H13  1  0.65578129  0.53562623  0.13597783  1.0
  H  H14  1  0.84421871  0.46437377  0.63597783  1.0
  H  H15  1  0.34421871  0.03562623  0.36402217  1.0
  Se  Se16  1  0.47999345  0.92463404  0.50498914  1.0
  Se  Se17  1  0.97999345  0.57536596  0.49501086  1.0
  Se  Se18  1  0.52000655  0.42463404  0.99501086  1.0
  Se  Se19  1  0.02000655  0.07536596  0.00498914  1.0
  Se  Se20  1  0.45960183  0.45011750  0.64694528  1.0
  Se  Se21  1  0.95960183  0.04988250  0.35305472  1.0
  Se  Se22  1  0.54039817  0.95011750  0.85305472  1.0
  Se  Se23  1  0.04039817  0.54988250  0.14694528  1.0
  O  O24  1  0.44014648  0.71583049  0.67099973  1.0
  O  O25  1  0.94014648  0.78416951  0.32900027  1.0
  O  O26  1  0.55985352  0.21583049  0.82900027  1.0
  O  O27  1  0.05985352  0.28416951  0.17099973  1.0
  O  O28  1  0.32973342  0.32474897  0.71449474  1.0
  O  O29  1  0.82973342  0.17525103  0.28550526  1.0
  O  O30  1  0.67026658  0.82474897  0.78550526  1.0
  O  O31  1  0.17026658  0.67525103  0.21449474  1.0
  O  O32  1  0.28769703  0.56686940  0.95987731  1.0
  O  O33  1  0.78769703  0.93313060  0.04012269  1.0
  O  O34  1  0.71230297  0.06686940  0.54012269  1.0
  O  O35  1  0.21230297  0.43313060  0.45987731  1.0
  O  O36  1  0.26291450  0.90562647  0.82388543  1.0
  O  O37  1  0.76291450  0.59437353  0.17611457  1.0
  O  O38  1  0.73708550  0.40562647  0.67611457  1.0
  O  O39  1  0.23708550  0.09437353  0.32388543  1.0
  O  O40  1  0.23764005  0.92177202  0.02391427  1.0
  O  O41  1  0.73764005  0.57822798  0.97608573  1.0
  O  O42  1  0.76235995  0.42177202  0.47608573  1.0
  O  O43  1  0.26235995  0.07822798  0.52391427  1.0
  O  O44  1  0.01769024  0.55760920  0.58785454  1.0
  O  O45  1  0.51769024  0.94239080  0.41214546  1.0
  O  O46  1  0.98230976  0.05760920  0.91214546  1.0
  O  O47  1  0.48230976  0.44239080  0.08785454  1.0
