# generated using pymatgen
data_KZrVF7
_symmetry_space_group_name_H-M   'P 1'
_cell_length_a   11.19458061
_cell_length_b   8.06744771
_cell_length_c   6.67784581
_cell_angle_alpha   90.00000000
_cell_angle_beta   90.00000000
_cell_angle_gamma   90.00000000
_symmetry_Int_Tables_number   1
_chemical_formula_structural   KZrVF7
_chemical_formula_sum   'K4 Zr4 V4 F28'
_cell_volume   603.08756620
_cell_formula_units_Z   4
loop_
 _symmetry_equiv_pos_site_id
 _symmetry_equiv_pos_as_xyz
  1  'x, y, z'
loop_
 _atom_site_type_symbol
 _atom_site_label
 _atom_site_symmetry_multiplicity
 _atom_site_fract_x
 _atom_site_fract_y
 _atom_site_fract_z
 _atom_site_occupancy
  K  K0  1  0.25000000  0.50000000  0.25584344  1.0
  K  K1  1  0.25000000  0.00000000  0.24415656  1.0
  K  K2  1  0.75000000  0.50000000  0.74415656  1.0
  K  K3  1  0.75000000  0.00000000  0.75584344  1.0
  Zr  Zr4  1  0.40733410  0.25000000  0.75000000  1.0
  Zr  Zr5  1  0.90733410  0.25000000  0.25000000  1.0
  Zr  Zr6  1  0.59266590  0.75000000  0.25000000  1.0
  Zr  Zr7  1  0.09266590  0.75000000  0.75000000  1.0
  V  V8  1  0.09703781  0.25000000  0.75000000  1.0
  V  V9  1  0.59703781  0.25000000  0.25000000  1.0
  V  V10  1  0.90296219  0.75000000  0.25000000  1.0
  V  V11  1  0.40296219  0.75000000  0.75000000  1.0
  F  F12  1  0.45633412  0.29117339  0.05163655  1.0
  F  F13  1  0.45633412  0.20882661  0.44836345  1.0
  F  F14  1  0.95633412  0.29117339  0.94836345  1.0
  F  F15  1  0.95633412  0.20882661  0.55163655  1.0
  F  F16  1  0.54366588  0.79117339  0.55163655  1.0
  F  F17  1  0.54366588  0.70882661  0.94836345  1.0
  F  F18  1  0.04366588  0.79117339  0.44836345  1.0
  F  F19  1  0.04366588  0.70882661  0.05163655  1.0
  F  F20  1  0.40053728  0.49823481  0.68957682  1.0
  F  F21  1  0.40053728  0.00176519  0.81042318  1.0
  F  F22  1  0.90053728  0.49823481  0.31042318  1.0
  F  F23  1  0.90053728  0.00176519  0.18957682  1.0
  F  F24  1  0.59946272  0.99823481  0.18957682  1.0
  F  F25  1  0.59946272  0.50176519  0.31042318  1.0
  F  F26  1  0.09946272  0.99823481  0.81042318  1.0
  F  F27  1  0.09946272  0.50176519  0.68957682  1.0
  F  F28  1  0.24836665  0.21973010  0.57086348  1.0
  F  F29  1  0.24836665  0.28026990  0.92913652  1.0
  F  F30  1  0.74836665  0.21973010  0.42913652  1.0
  F  F31  1  0.74836665  0.28026990  0.07086348  1.0
  F  F32  1  0.75163335  0.71973010  0.07086348  1.0
  F  F33  1  0.75163335  0.78026990  0.42913652  1.0
  F  F34  1  0.25163335  0.71973010  0.92913652  1.0
  F  F35  1  0.25163335  0.78026990  0.57086348  1.0
  F  F36  1  0.58691774  0.25000000  0.75000000  1.0
  F  F37  1  0.08691774  0.25000000  0.25000000  1.0
  F  F38  1  0.41308226  0.75000000  0.25000000  1.0
  F  F39  1  0.91308226  0.75000000  0.75000000  1.0
