# generated using pymatgen
data_Zn2SiH2O5
_symmetry_space_group_name_H-M   'P 1'
_cell_length_a   7.36829143
_cell_length_b   7.36829143
_cell_length_c   7.36829143
_cell_angle_alpha   109.26719105
_cell_angle_beta   85.15249241
_cell_angle_gamma   138.98433443
_symmetry_Int_Tables_number   1
_chemical_formula_structural   Zn2SiH2O5
_chemical_formula_sum   'Zn4 Si2 H4 O10'
_cell_volume   238.93286605
_cell_formula_units_Z   2
loop_
 _symmetry_equiv_pos_site_id
 _symmetry_equiv_pos_as_xyz
  1  'x, y, z'
loop_
 _atom_site_type_symbol
 _atom_site_label
 _atom_site_symmetry_multiplicity
 _atom_site_fract_x
 _atom_site_fract_y
 _atom_site_fract_z
 _atom_site_occupancy
  Zn  Zn0  1  0.75667070  0.79686989  0.36534608  1.0
  Zn  Zn1  1  1.43152381  0.79686989  1.04019919  1.0
  Zn  Zn2  1  0.75667070  1.39132462  0.95980081  1.0
  Zn  Zn3  1  1.43152381  1.39132462  1.63465392  1.0
  Si  Si4  1  0.94099841  1.08754904  0.85344937  1.0
  Si  Si5  1  1.23409967  1.08754904  1.14655063  1.0
  H  H6  1  0.94657927  1.53513576  0.58855649  1.0
  H  H7  1  0.94657927  1.35802278  0.41144351  1.0
  H  H8  1  0.42252975  1.04600840  0.62347865  1.0
  H  H9  1  0.42252975  0.79905110  0.37652135  1.0
  O  O10  1  1.16510507  1.11916546  1.36514618  1.0
  O  O11  1  0.75401928  1.11916546  0.95406039  1.0
  O  O12  1  1.16510507  0.79995889  1.04593961  1.0
  O  O13  1  0.75401928  0.79995889  0.63485382  1.0
  O  O14  1  0.00433312  0.00433312  -0.00000000  1.0
  O  O15  1  0.56908370  1.26505706  0.69597337  1.0
  O  O16  1  0.56908370  0.87311033  0.30402663  1.0
  O  O17  1  1.23515989  1.40179204  0.83336785  1.0
  O  O18  1  1.56842418  1.40179204  1.16663215  1.0
  O  O19  1  0.06746155  0.56746155  0.50000000  1.0
