# generated using pymatgen
data_Ca3(In3Rh)4
_symmetry_space_group_name_H-M   'P 1'
_cell_length_a   9.55409356
_cell_length_b   9.55409356
_cell_length_c   10.58985573
_cell_angle_alpha   90.00000000
_cell_angle_beta   90.00000000
_cell_angle_gamma   120.00000000
_symmetry_Int_Tables_number   1
_chemical_formula_structural   Ca3(In3Rh)4
_chemical_formula_sum   'Ca6 In24 Rh8'
_cell_volume   837.14300963
_cell_formula_units_Z   2
loop_
 _symmetry_equiv_pos_site_id
 _symmetry_equiv_pos_as_xyz
  1  'x, y, z'
loop_
 _atom_site_type_symbol
 _atom_site_label
 _atom_site_symmetry_multiplicity
 _atom_site_fract_x
 _atom_site_fract_y
 _atom_site_fract_z
 _atom_site_occupancy
  Ca  Ca0  1  0.18840023  0.81159977  0.25000000  1.0
  Ca  Ca1  1  0.18840023  0.37680045  0.25000000  1.0
  Ca  Ca2  1  0.81159977  0.18840023  0.75000000  1.0
  Ca  Ca3  1  0.81159977  0.62319955  0.75000000  1.0
  Ca  Ca4  1  0.62319955  0.81159977  0.25000000  1.0
  Ca  Ca5  1  0.37680045  0.18840023  0.75000000  1.0
  In  In6  1  0.16501427  0.83498573  0.92796627  1.0
  In  In7  1  0.16501427  0.83498573  0.57203373  1.0
  In  In8  1  0.16501427  0.33002853  0.92796627  1.0
  In  In9  1  0.16501427  0.33002853  0.57203373  1.0
  In  In10  1  0.83498573  0.16501427  0.42796627  1.0
  In  In11  1  0.83498573  0.16501427  0.07203373  1.0
  In  In12  1  0.83498573  0.66997147  0.42796627  1.0
  In  In13  1  0.83498573  0.66997147  0.07203373  1.0
  In  In14  1  0.66997147  0.83498573  0.92796627  1.0
  In  In15  1  0.66997147  0.83498573  0.57203373  1.0
  In  In16  1  0.33002853  0.16501427  0.42796627  1.0
  In  In17  1  0.33002853  0.16501427  0.07203373  1.0
  In  In18  1  0.55575100  0.44424900  0.25000000  1.0
  In  In19  1  0.55575100  0.11150199  0.25000000  1.0
  In  In20  1  0.44424900  0.55575100  0.75000000  1.0
  In  In21  1  0.44424900  0.88849801  0.75000000  1.0
  In  In22  1  0.88849801  0.44424900  0.25000000  1.0
  In  In23  1  0.11150199  0.55575100  0.75000000  1.0
  In  In24  1  0.33333333  0.66666667  0.44122414  1.0
  In  In25  1  0.33333333  0.66666667  0.05877586  1.0
  In  In26  1  0.66666667  0.33333333  0.94122414  1.0
  In  In27  1  0.66666667  0.33333333  0.55877586  1.0
  In  In28  1  0.00000000  0.00000000  0.25000000  1.0
  In  In29  1  -0.00000000  -0.00000000  0.75000000  1.0
  Rh  Rh30  1  0.50000000  0.50000000  0.50000000  1.0
  Rh  Rh31  1  0.50000000  0.50000000  -0.00000000  1.0
  Rh  Rh32  1  0.50000000  0.00000000  0.50000000  1.0
  Rh  Rh33  1  0.50000000  -0.00000000  -0.00000000  1.0
  Rh  Rh34  1  0.00000000  0.50000000  0.50000000  1.0
  Rh  Rh35  1  0.00000000  0.50000000  0.00000000  1.0
  Rh  Rh36  1  -0.00000000  -0.00000000  0.50000000  1.0
  Rh  Rh37  1  0.00000000  -0.00000000  0.00000000  1.0
