# generated using pymatgen
data_Sr2Sb3
_symmetry_space_group_name_H-M   'P 1'
_cell_length_a   6.73190061
_cell_length_b   13.10322419
_cell_length_c   15.32890206
_cell_angle_alpha   90.00000000
_cell_angle_beta   90.07646295
_cell_angle_gamma   90.00000000
_symmetry_Int_Tables_number   1
_chemical_formula_structural   Sr2Sb3
_chemical_formula_sum   'Sr16 Sb24'
_cell_volume   1352.15515942
_cell_formula_units_Z   8
loop_
 _symmetry_equiv_pos_site_id
 _symmetry_equiv_pos_as_xyz
  1  'x, y, z'
loop_
 _atom_site_type_symbol
 _atom_site_label
 _atom_site_symmetry_multiplicity
 _atom_site_fract_x
 _atom_site_fract_y
 _atom_site_fract_z
 _atom_site_occupancy
  Sr  Sr0  1  0.99428740  0.72173287  0.75561463  1.0
  Sr  Sr1  1  0.99428740  0.77826713  0.25561463  1.0
  Sr  Sr2  1  0.00571260  0.22173287  0.74438537  1.0
  Sr  Sr3  1  0.00571260  0.27826713  0.24438537  1.0
  Sr  Sr4  1  0.75348270  0.87298807  0.50405781  1.0
  Sr  Sr5  1  0.75348270  0.62701193  0.00405781  1.0
  Sr  Sr6  1  0.24651730  0.37298807  0.99594219  1.0
  Sr  Sr7  1  0.24651730  0.12701193  0.49594219  1.0
  Sr  Sr8  1  0.74615733  0.37625530  0.49657297  1.0
  Sr  Sr9  1  0.74615733  0.12374470  0.99657297  1.0
  Sr  Sr10  1  0.25384267  0.87625530  0.00342703  1.0
  Sr  Sr11  1  0.25384267  0.62374470  0.50342703  1.0
  Sr  Sr12  1  0.49293528  0.52874378  0.74740730  1.0
  Sr  Sr13  1  0.49293528  0.97125622  0.24740730  1.0
  Sr  Sr14  1  0.50706472  0.02874378  0.75259270  1.0
  Sr  Sr15  1  0.50706472  0.47125622  0.25259270  1.0
  Sb  Sb16  1  0.96551565  0.96903789  0.83792449  1.0
  Sb  Sb17  1  0.96551565  0.53096211  0.33792449  1.0
  Sb  Sb18  1  0.03448435  0.46903789  0.66207551  1.0
  Sb  Sb19  1  0.03448435  0.03096211  0.16207551  1.0
  Sb  Sb20  1  0.91515010  0.45506666  0.84589802  1.0
  Sb  Sb21  1  0.91515010  0.04493334  0.34589802  1.0
  Sb  Sb22  1  0.08484990  0.95506666  0.65410198  1.0
  Sb  Sb23  1  0.08484990  0.54493334  0.15410198  1.0
  Sb  Sb24  1  0.76476225  0.61672378  0.57644077  1.0
  Sb  Sb25  1  0.76476225  0.88327622  0.07644077  1.0
  Sb  Sb26  1  0.23523775  0.11672378  0.92355923  1.0
  Sb  Sb27  1  0.23523775  0.38327622  0.42355923  1.0
  Sb  Sb28  1  0.53541565  0.77858264  0.84060585  1.0
  Sb  Sb29  1  0.53541565  0.72141736  0.34060585  1.0
  Sb  Sb30  1  0.46458435  0.27858264  0.65939415  1.0
  Sb  Sb31  1  0.46458435  0.22141736  0.15939415  1.0
  Sb  Sb32  1  0.41925927  0.79551125  0.65667489  1.0
  Sb  Sb33  1  0.41925927  0.70448875  0.15667489  1.0
  Sb  Sb34  1  0.58074073  0.29551125  0.84332511  1.0
  Sb  Sb35  1  0.58074073  0.20448875  0.34332511  1.0
  Sb  Sb36  1  0.26331503  0.63160489  0.92827078  1.0
  Sb  Sb37  1  0.26331503  0.86839511  0.42827078  1.0
  Sb  Sb38  1  0.73668497  0.13160489  0.57172922  1.0
  Sb  Sb39  1  0.73668497  0.36839511  0.07172922  1.0
