# generated using pymatgen
data_Cs2PdI6
_symmetry_space_group_name_H-M   'P 1'
_cell_length_a   7.96935864
_cell_length_b   7.96935864
_cell_length_c   7.96935864
_cell_angle_alpha   110.49864813
_cell_angle_beta   109.18887856
_cell_angle_gamma   108.73136021
_symmetry_Int_Tables_number   1
_chemical_formula_structural   Cs2PdI6
_chemical_formula_sum   'Cs2 Pd1 I6'
_cell_volume   389.52601222
_cell_formula_units_Z   1
loop_
 _symmetry_equiv_pos_site_id
 _symmetry_equiv_pos_as_xyz
  1  'x, y, z'
loop_
 _atom_site_type_symbol
 _atom_site_label
 _atom_site_symmetry_multiplicity
 _atom_site_fract_x
 _atom_site_fract_y
 _atom_site_fract_z
 _atom_site_occupancy
  Cs  Cs0  1  0.25208448  0.50000000  0.75208448  1.0
  Cs  Cs1  1  0.74791552  0.50000000  0.24791552  1.0
  Pd  Pd2  1  0.00000000  0.00000000  0.00000000  1.0
  I  I3  1  0.79607185  1.58838365  0.79231181  1.0
  I  I4  1  1.20392815  0.99623996  0.79231181  1.0
  I  I5  1  0.79607185  1.00376004  0.20768819  1.0
  I  I6  1  1.20392815  1.41161635  1.20768819  1.0
  I  I7  1  0.65787816  0.00000000  0.65787816  1.0
  I  I8  1  0.34212184  0.00000000  0.34212184  1.0
