# generated using pymatgen
data_Sc3Co2Ge3
_symmetry_space_group_name_H-M   'P 1'
_cell_length_a   5.33522594
_cell_length_b   5.33522594
_cell_length_c   13.27850689
_cell_angle_alpha   90.00000000
_cell_angle_beta   90.00000000
_cell_angle_gamma   135.52133722
_symmetry_Int_Tables_number   1
_chemical_formula_structural   Sc3Co2Ge3
_chemical_formula_sum   'Sc6 Co4 Ge6'
_cell_volume   264.82076357
_cell_formula_units_Z   2
loop_
 _symmetry_equiv_pos_site_id
 _symmetry_equiv_pos_as_xyz
  1  'x, y, z'
loop_
 _atom_site_type_symbol
 _atom_site_label
 _atom_site_symmetry_multiplicity
 _atom_site_fract_x
 _atom_site_fract_y
 _atom_site_fract_z
 _atom_site_occupancy
  Sc  Sc0  1  0.07906587  0.92093413  0.88938756  1.0
  Sc  Sc1  1  0.07906587  0.92093413  0.61061244  1.0
  Sc  Sc2  1  -0.07906587  0.07906587  0.38938756  1.0
  Sc  Sc3  1  -0.07906587  0.07906587  0.11061244  1.0
  Sc  Sc4  1  0.35282484  0.64717516  0.75000000  1.0
  Sc  Sc5  1  -0.35282484  0.35282484  0.25000000  1.0
  Co  Co6  1  0.20845422  0.79154578  0.40113719  1.0
  Co  Co7  1  0.20845422  0.79154578  0.09886281  1.0
  Co  Co8  1  -0.20845422  0.20845422  0.90113719  1.0
  Co  Co9  1  -0.20845422  0.20845422  0.59886281  1.0
  Ge  Ge10  1  0.37576566  0.62423434  0.96057442  1.0
  Ge  Ge11  1  0.37576566  0.62423434  0.53942558  1.0
  Ge  Ge12  1  -0.37576566  0.37576566  0.46057442  1.0
  Ge  Ge13  1  -0.37576566  0.37576566  0.03942558  1.0
  Ge  Ge14  1  -0.34725782  0.34725782  0.75000000  1.0
  Ge  Ge15  1  0.34725782  0.65274218  0.25000000  1.0
