# generated using pymatgen
data_N12Ne7
_symmetry_space_group_name_H-M   'P 1'
_cell_length_a   10.96544291
_cell_length_b   10.96544291
_cell_length_c   10.96544291
_cell_angle_alpha   111.17507216
_cell_angle_beta   111.17507216
_cell_angle_gamma   111.17507216
_symmetry_Int_Tables_number   1
_chemical_formula_structural   N12Ne7
_chemical_formula_sum   'N24 Ne14'
_cell_volume   945.55469758
_cell_formula_units_Z   2
loop_
 _symmetry_equiv_pos_site_id
 _symmetry_equiv_pos_as_xyz
  1  'x, y, z'
loop_
 _atom_site_type_symbol
 _atom_site_label
 _atom_site_symmetry_multiplicity
 _atom_site_fract_x
 _atom_site_fract_y
 _atom_site_fract_z
 _atom_site_occupancy
  N  N0  1  0.47028986  0.47028986  -0.21077929  1.0
  N  N1  1  1.47028986  -0.21077929  0.47028986  1.0
  N  N2  1  1.21077929  0.52971014  0.52971014  1.0
  N  N3  1  1.52971014  0.21077929  0.52971014  1.0
  N  N4  1  0.52971014  0.52971014  0.21077929  1.0
  N  N5  1  0.78922071  0.47028986  0.47028986  1.0
  N  N6  1  0.49308287  0.84335574  0.06014867  1.0
  N  N7  1  0.49308287  0.06014867  -0.15664426  1.0
  N  N8  1  0.93985133  1.15664426  0.50691713  1.0
  N  N9  1  0.93985133  0.50691713  0.15664426  1.0
  N  N10  1  1.15664426  0.93985133  0.50691713  1.0
  N  N11  1  1.15664426  -0.49308287  -0.06014867  1.0
  N  N12  1  0.50691713  0.15664426  -0.06014867  1.0
  N  N13  1  1.50691713  -0.06014867  0.15664426  1.0
  N  N14  1  1.06014867  -0.50691713  -0.15664426  1.0
  N  N15  1  1.06014867  0.84335574  0.49308287  1.0
  N  N16  1  0.84335574  0.49308287  0.06014867  1.0
  N  N17  1  0.84335574  1.06014867  0.49308287  1.0
  N  N18  1  0.37538421  0.37538421  -0.22144885  1.0
  N  N19  1  1.37538421  -0.22144885  0.37538421  1.0
  N  N20  1  1.22144885  0.62461579  0.62461579  1.0
  N  N21  1  1.62461579  0.22144885  0.62461579  1.0
  N  N22  1  0.62461579  0.62461579  0.22144885  1.0
  N  N23  1  0.77855115  0.37538421  0.37538421  1.0
  Ne  Ne24  1  0.15632718  0.15632718  -0.13775403  1.0
  Ne  Ne25  1  1.15632718  -0.13775403  0.15632718  1.0
  Ne  Ne26  1  1.13775403  0.84367282  0.84367282  1.0
  Ne  Ne27  1  1.84367282  0.13775403  0.84367282  1.0
  Ne  Ne28  1  0.84367282  0.84367282  0.13775403  1.0
  Ne  Ne29  1  0.86224597  0.15632718  0.15632718  1.0
  Ne  Ne30  1  1.17900832  1.17900832  0.36387655  1.0
  Ne  Ne31  1  1.17900832  -0.63612345  0.17900832  1.0
  Ne  Ne32  1  0.63612345  -0.17900832  -0.17900832  1.0
  Ne  Ne33  1  0.82099168  -0.36387655  -0.17900832  1.0
  Ne  Ne34  1  0.82099168  0.82099168  0.63612345  1.0
  Ne  Ne35  1  0.36387655  0.17900832  0.17900832  1.0
  Ne  Ne36  1  0.50000000  0.50000000  0.50000000  1.0
  Ne  Ne37  1  0.00000000  0.00000000  0.00000000  1.0
