# generated using pymatgen
data_Se2O5
_symmetry_space_group_name_H-M   'P 1'
_cell_length_a   5.00989885
_cell_length_b   7.08717995
_cell_length_c   14.04213354
_cell_angle_alpha   90.00000000
_cell_angle_beta   90.69882057
_cell_angle_gamma   90.00000000
_symmetry_Int_Tables_number   1
_chemical_formula_structural   Se2O5
_chemical_formula_sum   'Se8 O20'
_cell_volume   498.54367734
_cell_formula_units_Z   4
loop_
 _symmetry_equiv_pos_site_id
 _symmetry_equiv_pos_as_xyz
  1  'x, y, z'
loop_
 _atom_site_type_symbol
 _atom_site_label
 _atom_site_symmetry_multiplicity
 _atom_site_fract_x
 _atom_site_fract_y
 _atom_site_fract_z
 _atom_site_occupancy
  Se  Se0  1  0.99948468  0.77385495  0.87193414  1.0
  Se  Se1  1  0.99948468  0.72614505  0.37193414  1.0
  Se  Se2  1  0.00051532  0.27385495  0.62806586  1.0
  Se  Se3  1  0.00051532  0.22614505  0.12806586  1.0
  Se  Se4  1  0.87412896  0.72963920  0.64215759  1.0
  Se  Se5  1  0.87412896  0.77036080  0.14215759  1.0
  Se  Se6  1  0.12587104  0.22963920  0.85784241  1.0
  Se  Se7  1  0.12587104  0.27036080  0.35784241  1.0
  O  O8  1  0.80522156  0.23831777  0.86003793  1.0
  O  O9  1  0.80522156  0.26168223  0.36003793  1.0
  O  O10  1  0.19477844  0.73831777  0.63996207  1.0
  O  O11  1  0.19477844  0.76168223  0.13996207  1.0
  O  O12  1  0.80792239  0.81734808  0.96241402  1.0
  O  O13  1  0.80792239  0.68265192  0.46241402  1.0
  O  O14  1  0.19207761  0.31734808  0.53758598  1.0
  O  O15  1  0.19207761  0.18265192  0.03758598  1.0
  O  O16  1  0.78631047  0.46319902  0.65138099  1.0
  O  O17  1  0.78631047  0.03680098  0.15138099  1.0
  O  O18  1  0.21368953  0.96319902  0.84861901  1.0
  O  O19  1  0.21368953  0.53680098  0.34861901  1.0
  O  O20  1  0.77920816  0.76818643  0.77386121  1.0
  O  O21  1  0.77920816  0.73181357  0.27386121  1.0
  O  O22  1  0.22079184  0.26818643  0.72613879  1.0
  O  O23  1  0.22079184  0.23181357  0.22613879  1.0
  O  O24  1  0.19373959  0.58949719  0.87495402  1.0
  O  O25  1  0.19373959  0.91050281  0.37495402  1.0
  O  O26  1  0.80626041  0.08949719  0.62504598  1.0
  O  O27  1  0.80626041  0.41050281  0.12504598  1.0
