# generated using pymatgen
data_Cs3H5Pd
_symmetry_space_group_name_H-M   'P 1'
_cell_length_a   8.27994111
_cell_length_b   8.27994111
_cell_length_c   6.33633362
_cell_angle_alpha   90.00000000
_cell_angle_beta   90.00000000
_cell_angle_gamma   90.00000000
_symmetry_Int_Tables_number   1
_chemical_formula_structural   Cs3H5Pd
_chemical_formula_sum   'Cs6 H10 Pd2'
_cell_volume   434.40271513
_cell_formula_units_Z   2
loop_
 _symmetry_equiv_pos_site_id
 _symmetry_equiv_pos_as_xyz
  1  'x, y, z'
loop_
 _atom_site_type_symbol
 _atom_site_label
 _atom_site_symmetry_multiplicity
 _atom_site_fract_x
 _atom_site_fract_y
 _atom_site_fract_z
 _atom_site_occupancy
  Cs  Cs0  1  0.31571655  0.18428345  0.50000000  1.0
  Cs  Cs1  1  0.81571655  0.31571655  0.50000000  1.0
  Cs  Cs2  1  0.68428345  0.81571655  0.50000000  1.0
  Cs  Cs3  1  0.18428345  0.68428345  0.50000000  1.0
  Cs  Cs4  1  0.50000000  0.50000000  0.00000000  1.0
  Cs  Cs5  1  0.00000000  0.00000000  0.00000000  1.0
  H  H6  1  0.89869331  0.60130669  0.81616832  1.0
  H  H7  1  0.89869331  0.60130669  0.18383168  1.0
  H  H8  1  0.39869331  0.89869331  0.81616832  1.0
  H  H9  1  0.39869331  0.89869331  0.18383168  1.0
  H  H10  1  0.10130669  0.39869331  0.81616832  1.0
  H  H11  1  0.10130669  0.39869331  0.18383168  1.0
  H  H12  1  0.60130669  0.10130669  0.81616832  1.0
  H  H13  1  0.60130669  0.10130669  0.18383168  1.0
  H  H14  1  0.50000000  0.50000000  0.50000000  1.0
  H  H15  1  0.00000000  0.00000000  0.50000000  1.0
  Pd  Pd16  1  0.50000000  0.00000000  0.00000000  1.0
  Pd  Pd17  1  0.00000000  0.50000000  0.00000000  1.0
