# generated using pymatgen
data_Lu(BRh)4
_symmetry_space_group_name_H-M   'P 1'
_cell_length_a   9.12692717
_cell_length_b   9.12692717
_cell_length_c   9.12692717
_cell_angle_alpha   131.46492323
_cell_angle_beta   131.46492323
_cell_angle_gamma   71.07544675
_symmetry_Int_Tables_number   1
_chemical_formula_structural   Lu(BRh)4
_chemical_formula_sum   'Lu4 B16 Rh16'
_cell_volume   418.01795879
_cell_formula_units_Z   4
loop_
 _symmetry_equiv_pos_site_id
 _symmetry_equiv_pos_as_xyz
  1  'x, y, z'
loop_
 _atom_site_type_symbol
 _atom_site_label
 _atom_site_symmetry_multiplicity
 _atom_site_fract_x
 _atom_site_fract_y
 _atom_site_fract_z
 _atom_site_occupancy
  Lu  Lu0  1  0.75000000  0.75000000  0.00000000  1.0
  Lu  Lu1  1  1.25000000  1.25000000  1.00000000  1.0
  Lu  Lu2  1  0.00000000  0.50000000  0.50000000  1.0
  Lu  Lu3  1  0.50000000  0.00000000  0.50000000  1.0
  B  B4  1  0.71981393  0.41180050  0.96755850  1.0
  B  B5  1  0.21981393  0.25225543  0.30801343  1.0
  B  B6  1  1.66180050  1.46981393  1.46755850  1.0
  B  B7  1  1.16180050  1.69424200  1.19198657  1.0
  B  B8  1  1.03018607  0.83819950  0.53244150  1.0
  B  B9  1  1.53018607  0.99774457  1.19198657  1.0
  B  B10  1  1.08819950  1.78018607  1.03244150  1.0
  B  B11  1  1.58819950  1.55575800  1.30801343  1.0
  B  B12  1  0.94424200  0.91180050  1.69198657  1.0
  B  B13  1  0.44424200  0.75225543  1.03244150  1.0
  B  B14  1  1.50225543  0.96981393  0.80801343  1.0
  B  B15  1  1.00225543  1.19424200  0.53244150  1.0
  B  B16  1  0.80575800  1.33819950  0.80801343  1.0
  B  B17  1  1.30575800  1.49774457  1.46755850  1.0
  B  B18  1  1.24774457  1.28018607  0.69198657  1.0
  B  B19  1  1.74774457  1.05575800  0.96755850  1.0
  Rh  Rh20  1  1.03278141  1.57028355  1.22990454  1.0
  Rh  Rh21  1  1.53278141  1.30287687  1.46249786  1.0
  Rh  Rh22  1  1.82028355  1.78278141  1.72990454  1.0
  Rh  Rh23  1  1.32028355  1.59037900  1.03750214  1.0
  Rh  Rh24  1  0.71721859  0.67971645  1.27009546  1.0
  Rh  Rh25  1  0.21721859  0.94712313  1.03750214  1.0
  Rh  Rh26  1  0.92971645  1.46721859  0.77009546  1.0
  Rh  Rh27  1  1.42971645  1.65962100  1.46249786  1.0
  Rh  Rh28  1  0.84037900  1.07028355  0.53750214  1.0
  Rh  Rh29  1  1.34037900  0.80287687  0.77009546  1.0
  Rh  Rh30  1  1.55287687  1.28278141  0.96249786  1.0
  Rh  Rh31  1  1.05287687  1.09037900  0.27009546  1.0
  Rh  Rh32  1  0.90962100  0.17971645  0.96249786  1.0
  Rh  Rh33  1  0.40962100  0.44712313  0.72990454  1.0
  Rh  Rh34  1  1.19712313  0.96721859  0.53750214  1.0
  Rh  Rh35  1  1.69712313  1.15962100  1.22990454  1.0
