# generated using pymatgen
data_K2Mo(OF2)2
_symmetry_space_group_name_H-M   'P 1'
_cell_length_a   6.35140923
_cell_length_b   6.35140923
_cell_length_c   9.17794842
_cell_angle_alpha   90.00000000
_cell_angle_beta   90.00000000
_cell_angle_gamma   90.00000000
_symmetry_Int_Tables_number   1
_chemical_formula_structural   K2Mo(OF2)2
_chemical_formula_sum   'K4 Mo2 O4 F8'
_cell_volume   370.24210344
_cell_formula_units_Z   2
loop_
 _symmetry_equiv_pos_site_id
 _symmetry_equiv_pos_as_xyz
  1  'x, y, z'
loop_
 _atom_site_type_symbol
 _atom_site_label
 _atom_site_symmetry_multiplicity
 _atom_site_fract_x
 _atom_site_fract_y
 _atom_site_fract_z
 _atom_site_occupancy
  Mo  Mo0  1  0.50000000  0.00000000  0.21467418  1.0
  Mo  Mo1  1  0.00000000  0.50000000  0.78532582  1.0
  O  O2  1  0.50000000  0.00000000  0.40831700  1.0
  O  O3  1  0.00000000  0.50000000  0.59168300  1.0
  O  O4  1  0.50000000  0.00000000  0.01615645  1.0
  O  O5  1  0.00000000  0.50000000  0.98384355  1.0
  F  F6  1  0.71755552  0.21755552  0.20940717  1.0
  F  F7  1  0.71755552  0.78244448  0.20940717  1.0
  F  F8  1  0.21755552  0.71755552  0.79059283  1.0
  F  F9  1  0.21755552  0.28244448  0.79059283  1.0
  F  F10  1  0.78244448  0.71755552  0.79059283  1.0
  F  F11  1  0.78244448  0.28244448  0.79059283  1.0
  F  F12  1  0.28244448  0.21755552  0.20940717  1.0
  F  F13  1  0.28244448  0.78244448  0.20940717  1.0
  K  K14  1  0.50000000  0.00000000  0.69587994  1.0
  K  K15  1  0.00000000  0.50000000  0.30412006  1.0
  K  K16  1  0.00000000  0.00000000  0.00000000  1.0
  K  K17  1  0.50000000  0.50000000  0.00000000  1.0
