# generated using pymatgen
data_RbBi3S5
_symmetry_space_group_name_H-M   'P 1'
_cell_length_a   11.99577039
_cell_length_b   4.10701127
_cell_length_c   21.53090603
_cell_angle_alpha   90.00000000
_cell_angle_beta   90.00000000
_cell_angle_gamma   90.00000000
_symmetry_Int_Tables_number   1
_chemical_formula_structural   RbBi3S5
_chemical_formula_sum   'Rb4 Bi12 S20'
_cell_volume   1060.75806915
_cell_formula_units_Z   4
loop_
 _symmetry_equiv_pos_site_id
 _symmetry_equiv_pos_as_xyz
  1  'x, y, z'
loop_
 _atom_site_type_symbol
 _atom_site_label
 _atom_site_symmetry_multiplicity
 _atom_site_fract_x
 _atom_site_fract_y
 _atom_site_fract_z
 _atom_site_occupancy
  Rb  Rb0  1  0.48608233  0.75000000  0.61726491  1.0
  Rb  Rb1  1  0.98608233  0.75000000  0.88273509  1.0
  Rb  Rb2  1  0.51391767  0.25000000  0.38273509  1.0
  Rb  Rb3  1  0.01391767  0.25000000  0.11726491  1.0
  Bi  Bi4  1  0.87546310  0.75000000  0.35402746  1.0
  Bi  Bi5  1  0.37546310  0.75000000  0.14597254  1.0
  Bi  Bi6  1  0.12453690  0.25000000  0.64597254  1.0
  Bi  Bi7  1  0.62453690  0.25000000  0.85402746  1.0
  Bi  Bi8  1  0.84149085  0.75000000  0.68889172  1.0
  Bi  Bi9  1  0.34149085  0.75000000  0.81110828  1.0
  Bi  Bi10  1  0.15850915  0.25000000  0.31110828  1.0
  Bi  Bi11  1  0.65850915  0.25000000  0.18889172  1.0
  Bi  Bi12  1  0.67193729  0.75000000  0.02339640  1.0
  Bi  Bi13  1  0.17193729  0.75000000  0.47660360  1.0
  Bi  Bi14  1  0.32806271  0.25000000  0.97660360  1.0
  Bi  Bi15  1  0.82806271  0.25000000  0.52339640  1.0
  S  S16  1  0.98318665  0.75000000  0.58162163  1.0
  S  S17  1  0.48318665  0.75000000  0.91837837  1.0
  S  S18  1  0.01681335  0.25000000  0.41837837  1.0
  S  S19  1  0.51681335  0.25000000  0.08162163  1.0
  S  S20  1  0.78952724  0.75000000  0.12681867  1.0
  S  S21  1  0.28952724  0.75000000  0.37318133  1.0
  S  S22  1  0.21047276  0.25000000  0.87318133  1.0
  S  S23  1  0.71047276  0.25000000  0.62681867  1.0
  S  S24  1  0.74551233  0.75000000  0.80701860  1.0
  S  S25  1  0.24551233  0.75000000  0.69298140  1.0
  S  S26  1  0.25448767  0.25000000  0.19298140  1.0
  S  S27  1  0.75448767  0.25000000  0.30701860  1.0
  S  S28  1  0.71487223  0.75000000  0.46715537  1.0
  S  S29  1  0.21487223  0.75000000  0.03284463  1.0
  S  S30  1  0.28512777  0.25000000  0.53284463  1.0
  S  S31  1  0.78512777  0.25000000  0.96715537  1.0
  S  S32  1  0.52590833  0.75000000  0.23854867  1.0
  S  S33  1  0.02590833  0.75000000  0.26145133  1.0
  S  S34  1  0.47409167  0.25000000  0.76145133  1.0
  S  S35  1  0.97409167  0.25000000  0.73854867  1.0
