# generated using pymatgen
data_Nb3C
_symmetry_space_group_name_H-M   'P 1'
_cell_length_a   4.60848220
_cell_length_b   8.75802129
_cell_length_c   3.03917971
_cell_angle_alpha   90.00000000
_cell_angle_beta   90.00000000
_cell_angle_gamma   90.00000000
_symmetry_Int_Tables_number   1
_chemical_formula_structural   Nb3C
_chemical_formula_sum   'Nb6 C2'
_cell_volume   122.66489496
_cell_formula_units_Z   2
loop_
 _symmetry_equiv_pos_site_id
 _symmetry_equiv_pos_as_xyz
  1  'x, y, z'
loop_
 _atom_site_type_symbol
 _atom_site_label
 _atom_site_symmetry_multiplicity
 _atom_site_fract_x
 _atom_site_fract_y
 _atom_site_fract_z
 _atom_site_occupancy
  Nb  Nb0  1  0.50000000  0.00000000  0.55461584  1.0
  Nb  Nb1  1  0.00000000  0.50000000  0.44538416  1.0
  Nb  Nb2  1  0.00000000  0.82845745  0.11152843  1.0
  Nb  Nb3  1  0.00000000  0.17154255  0.11152843  1.0
  Nb  Nb4  1  0.50000000  0.32845745  0.88847157  1.0
  Nb  Nb5  1  0.50000000  0.67154255  0.88847157  1.0
  C  C6  1  0.00000000  0.00000000  0.61672767  1.0
  C  C7  1  0.50000000  0.50000000  0.38327233  1.0
