# generated using pymatgen
data_Cu2SO2
_symmetry_space_group_name_H-M   'P 1'
_cell_length_a   11.15023529
_cell_length_b   9.52070765
_cell_length_c   6.70278202
_cell_angle_alpha   84.94606279
_cell_angle_beta   58.27017800
_cell_angle_gamma   36.78375921
_symmetry_Int_Tables_number   1
_chemical_formula_structural   Cu2SO2
_chemical_formula_sum   'Cu8 S4 O8'
_cell_volume   274.13045639
_cell_formula_units_Z   4
loop_
 _symmetry_equiv_pos_site_id
 _symmetry_equiv_pos_as_xyz
  1  'x, y, z'
loop_
 _atom_site_type_symbol
 _atom_site_label
 _atom_site_symmetry_multiplicity
 _atom_site_fract_x
 _atom_site_fract_y
 _atom_site_fract_z
 _atom_site_occupancy
  Cu  Cu0  1  1.09511073  0.77806426  0.65260332  1.0
  Cu  Cu1  1  0.47422168  0.65260332  0.77806426  1.0
  Cu  Cu2  1  0.47193574  1.15488927  0.77577832  1.0
  Cu  Cu3  1  0.59739668  0.77577832  1.15488927  1.0
  Cu  Cu4  1  1.65260332  -0.52577832  0.09511073  1.0
  Cu  Cu5  1  1.77806426  0.09511073  -0.52577832  1.0
  Cu  Cu6  1  0.77577832  0.59739668  0.47193574  1.0
  Cu  Cu7  1  1.15488927  0.47193574  0.59739668  1.0
  S  S8  1  1.12500000  0.12500000  0.62500000  1.0
  S  S9  1  1.12500000  0.62500000  0.12500000  1.0
  S  S10  1  1.12500000  0.12500000  0.12500000  1.0
  S  S11  1  1.62500000  0.12500000  0.12500000  1.0
  O  O12  1  1.24085645  -0.15153352  0.52028998  1.0
  O  O13  1  1.39038709  0.52028998  -0.15153352  1.0
  O  O14  1  0.40153352  1.00914355  0.85961291  1.0
  O  O15  1  0.72971002  0.85961291  1.00914355  1.0
  O  O16  1  1.52028998  0.39038709  0.24085645  1.0
  O  O17  1  0.84846648  0.24085645  0.39038709  1.0
  O  O18  1  0.85961291  0.72971002  0.40153352  1.0
  O  O19  1  1.00914355  0.40153352  0.72971002  1.0
