# generated using pymatgen
data_KC8
_symmetry_space_group_name_H-M   'P 1'
_cell_length_a   11.54899460
_cell_length_b   10.99998070
_cell_length_c   4.97584300
_cell_angle_alpha   83.50677273
_cell_angle_beta   71.14728612
_cell_angle_gamma   25.34594115
_symmetry_Int_Tables_number   1
_chemical_formula_structural   KC8
_chemical_formula_sum   'K2 C16'
_cell_volume   229.74782314
_cell_formula_units_Z   2
loop_
 _symmetry_equiv_pos_site_id
 _symmetry_equiv_pos_as_xyz
  1  'x, y, z'
loop_
 _atom_site_type_symbol
 _atom_site_label
 _atom_site_symmetry_multiplicity
 _atom_site_fract_x
 _atom_site_fract_y
 _atom_site_fract_z
 _atom_site_occupancy
  K  K0  1  0.25000000  0.25000000  1.25000000  1.0
  K  K1  1  -0.00000000  0.00000000  0.00000000  1.0
  C  C2  1  -0.04187145  0.29189568  0.70848637  1.0
  C  C3  1  0.70848637  0.04148940  -0.04187145  1.0
  C  C4  1  0.29187145  -0.04189568  1.54151363  1.0
  C  C5  1  0.54151363  0.20851060  1.29187145  1.0
  C  C6  1  1.04148940  -0.29151363  0.29189568  1.0
  C  C7  1  0.29189568  -0.04187145  1.04148940  1.0
  C  C8  1  0.20851060  0.54151363  -0.04189568  1.0
  C  C9  1  -0.04189568  0.29187145  0.20851060  1.0
  C  C10  1  0.45740378  -0.20937444  1.20933790  1.0
  C  C11  1  1.20933790  -0.45736724  0.45740378  1.0
  C  C12  1  0.79259622  -0.54062556  1.04066210  1.0
  C  C13  1  1.04066210  -0.29263276  0.79259622  1.0
  C  C14  1  0.54263276  0.20933790  -0.20937444  1.0
  C  C15  1  -0.20937444  0.45740378  0.54263276  1.0
  C  C16  1  -0.29263276  1.04066210  0.45937444  1.0
  C  C17  1  -0.54062556  0.79259622  0.70736724  1.0
