# generated using pymatgen
data_Al2CdO4
_symmetry_space_group_name_H-M   'P 1'
_cell_length_a   8.93393514
_cell_length_b   8.93393514
_cell_length_c   8.93393514
_cell_angle_alpha   107.73257100
_cell_angle_beta   107.73257100
_cell_angle_gamma   107.73257100
_symmetry_Int_Tables_number   1
_chemical_formula_structural   Al2CdO4
_chemical_formula_sum   'Al12 Cd6 O24'
_cell_volume   581.57111502
_cell_formula_units_Z   6
loop_
 _symmetry_equiv_pos_site_id
 _symmetry_equiv_pos_as_xyz
  1  'x, y, z'
loop_
 _atom_site_type_symbol
 _atom_site_label
 _atom_site_symmetry_multiplicity
 _atom_site_fract_x
 _atom_site_fract_y
 _atom_site_fract_z
 _atom_site_occupancy
  Al  Al0  1  0.78951329  0.57493023  0.38465613  1.0
  Al  Al1  1  1.38465613  -0.21048671  0.57493023  1.0
  Al  Al2  1  1.57493023  0.38465613  -0.21048671  1.0
  Al  Al3  1  1.21048671  0.42506977  -0.38465613  1.0
  Al  Al4  1  0.61534387  1.21048671  -0.57493023  1.0
  Al  Al5  1  0.42506977  0.61534387  0.21048671  1.0
  Al  Al6  1  1.13200883  0.89662947  -0.27941943  1.0
  Al  Al7  1  0.72058057  1.13200883  -0.10337053  1.0
  Al  Al8  1  0.89662947  0.72058057  0.13200883  1.0
  Al  Al9  1  0.86799117  0.10337053  0.27941943  1.0
  Al  Al10  1  1.27941943  -0.13200883  0.10337053  1.0
  Al  Al11  1  1.10337053  0.27941943  -0.13200883  1.0
  Cd  Cd12  1  0.45213001  0.22509137  0.06051560  1.0
  Cd  Cd13  1  1.06051560  -0.54786999  0.22509137  1.0
  Cd  Cd14  1  1.22509137  0.06051560  -0.54786999  1.0
  Cd  Cd15  1  1.54786999  0.77490863  -0.06051560  1.0
  Cd  Cd16  1  0.93948440  1.54786999  -0.22509137  1.0
  Cd  Cd17  1  0.77490863  0.93948440  0.54786999  1.0
  O  O18  1  0.59641015  1.25415690  -0.09742809  1.0
  O  O19  1  0.90257191  0.59641015  0.25415690  1.0
  O  O20  1  1.25415690  0.90257191  -0.40358985  1.0
  O  O21  1  1.40358985  -0.25415690  0.09742809  1.0
  O  O22  1  1.09742809  0.40358985  -0.25415690  1.0
  O  O23  1  0.74584310  0.09742809  0.40358985  1.0
  O  O24  1  1.26784120  0.94199463  -0.06283278  1.0
  O  O25  1  0.93716722  1.26784120  -0.05800537  1.0
  O  O26  1  0.94199463  0.93716722  0.26784120  1.0
  O  O27  1  0.73215880  0.05800537  0.06283278  1.0
  O  O28  1  1.06283278  -0.26784120  0.05800537  1.0
  O  O29  1  1.05800537  0.06283278  -0.26784120  1.0
  O  O30  1  0.66267336  0.35424448  0.32831720  1.0
  O  O31  1  1.32831720  -0.33732664  0.35424448  1.0
  O  O32  1  1.35424448  0.32831720  -0.33732664  1.0
  O  O33  1  1.33732664  0.64575552  -0.32831720  1.0
  O  O34  1  0.67168280  1.33732664  -0.35424448  1.0
  O  O35  1  0.64575552  0.67168280  0.33732664  1.0
  O  O36  1  0.94131898  0.69275276  0.61101603  1.0
  O  O37  1  1.61101603  -0.05868102  0.69275276  1.0
  O  O38  1  1.69275276  0.61101603  -0.05868102  1.0
  O  O39  1  1.05868102  0.30724724  -0.61101603  1.0
  O  O40  1  0.38898397  1.05868102  -0.69275276  1.0
  O  O41  1  0.30724724  0.38898397  0.05868102  1.0
