# generated using pymatgen
data_NaCdH3(CO2)3
_symmetry_space_group_name_H-M   'P 1'
_cell_length_a   6.53207948
_cell_length_b   7.33028650
_cell_length_c   14.45908491
_cell_angle_alpha   90.00000000
_cell_angle_beta   90.00000000
_cell_angle_gamma   90.00000000
_symmetry_Int_Tables_number   1
_chemical_formula_structural   NaCdH3(CO2)3
_chemical_formula_sum   'Na4 Cd4 H12 C12 O24'
_cell_volume   692.33010605
_cell_formula_units_Z   4
loop_
 _symmetry_equiv_pos_site_id
 _symmetry_equiv_pos_as_xyz
  1  'x, y, z'
loop_
 _atom_site_type_symbol
 _atom_site_label
 _atom_site_symmetry_multiplicity
 _atom_site_fract_x
 _atom_site_fract_y
 _atom_site_fract_z
 _atom_site_occupancy
  Na  Na0  1  0.75000000  0.50000000  0.77872984  1.0
  Na  Na1  1  0.25000000  0.50000000  0.72127016  1.0
  Na  Na2  1  0.25000000  0.50000000  0.22127016  1.0
  Na  Na3  1  0.75000000  0.50000000  0.27872984  1.0
  Cd  Cd4  1  0.75000000  0.00000000  0.92806450  1.0
  Cd  Cd5  1  0.25000000  0.00000000  0.57193550  1.0
  Cd  Cd6  1  0.25000000  0.00000000  0.07193550  1.0
  Cd  Cd7  1  0.75000000  0.00000000  0.42806450  1.0
  H  H8  1  0.50000000  0.05255462  0.75000000  1.0
  H  H9  1  0.00000000  0.94744538  0.75000000  1.0
  H  H10  1  0.50000000  0.94744538  0.25000000  1.0
  H  H11  1  0.00000000  0.05255462  0.25000000  1.0
  H  H12  1  0.70688394  0.32818153  0.07078628  1.0
  H  H13  1  0.79311606  0.67181847  0.07078628  1.0
  H  H14  1  0.20688394  0.67181847  0.42921372  1.0
  H  H15  1  0.29311606  0.32818153  0.42921372  1.0
  H  H16  1  0.29311606  0.67181847  0.92921372  1.0
  H  H17  1  0.20688394  0.32818153  0.92921372  1.0
  H  H18  1  0.79311606  0.32818153  0.57078628  1.0
  H  H19  1  0.70688394  0.67181847  0.57078628  1.0
  C  C20  1  0.50000000  0.90109029  0.75000000  1.0
  C  C21  1  0.00000000  0.09890971  0.75000000  1.0
  C  C22  1  0.50000000  0.09890971  0.25000000  1.0
  C  C23  1  -0.00000000  0.90109029  0.25000000  1.0
  C  C24  1  0.86778900  0.29284511  0.08755576  1.0
  C  C25  1  0.63221100  0.70715489  0.08755576  1.0
  C  C26  1  0.36778900  0.70715489  0.41244424  1.0
  C  C27  1  0.13221100  0.29284511  0.41244424  1.0
  C  C28  1  0.13221100  0.70715489  0.91244424  1.0
  C  C29  1  0.36778900  0.29284511  0.91244424  1.0
  C  C30  1  0.63221100  0.29284511  0.58755576  1.0
  C  C31  1  0.86778900  0.70715489  0.58755576  1.0
  O  O32  1  0.60399630  0.81976145  0.81162735  1.0
  O  O33  1  0.89600370  0.18023855  0.81162735  1.0
  O  O34  1  0.10399630  0.18023855  0.68837265  1.0
  O  O35  1  0.39600370  0.81976145  0.68837265  1.0
  O  O36  1  0.39600370  0.18023855  0.18837265  1.0
  O  O37  1  0.10399630  0.81976145  0.18837265  1.0
  O  O38  1  0.89600370  0.81976145  0.31162735  1.0
  O  O39  1  0.60399630  0.18023855  0.31162735  1.0
  O  O40  1  0.94271100  0.15856847  0.04095768  1.0
  O  O41  1  0.55728900  0.84143153  0.04095768  1.0
  O  O42  1  0.44271100  0.84143153  0.45904232  1.0
  O  O43  1  0.05728900  0.15856847  0.45904232  1.0
  O  O44  1  0.05728900  0.84143153  0.95904232  1.0
  O  O45  1  0.44271100  0.15856847  0.95904232  1.0
  O  O46  1  0.55728900  0.15856847  0.54095768  1.0
  O  O47  1  0.94271100  0.84143153  0.54095768  1.0
  O  O48  1  0.95939966  0.38105991  0.14826543  1.0
  O  O49  1  0.54060034  0.61894009  0.14826543  1.0
  O  O50  1  0.45939966  0.61894009  0.35173457  1.0
  O  O51  1  0.04060034  0.38105991  0.35173457  1.0
  O  O52  1  0.04060034  0.61894009  0.85173457  1.0
  O  O53  1  0.45939966  0.38105991  0.85173457  1.0
  O  O54  1  0.54060034  0.38105991  0.64826543  1.0
  O  O55  1  0.95939966  0.61894009  0.64826543  1.0
