# generated using pymatgen
data_Cs3Bi2Br9
_symmetry_space_group_name_H-M   'P 1'
_cell_length_a   8.18068161
_cell_length_b   8.18068161
_cell_length_c   10.09909790
_cell_angle_alpha   90.00000000
_cell_angle_beta   90.00000000
_cell_angle_gamma   120.00000000
_symmetry_Int_Tables_number   1
_chemical_formula_structural   Cs3Bi2Br9
_chemical_formula_sum   'Cs3 Bi2 Br9'
_cell_volume   585.31842432
_cell_formula_units_Z   1
loop_
 _symmetry_equiv_pos_site_id
 _symmetry_equiv_pos_as_xyz
  1  'x, y, z'
loop_
 _atom_site_type_symbol
 _atom_site_label
 _atom_site_symmetry_multiplicity
 _atom_site_fract_x
 _atom_site_fract_y
 _atom_site_fract_z
 _atom_site_occupancy
  Cs  Cs0  1  0.33333333  0.66666667  0.66062788  1.0
  Cs  Cs1  1  0.66666667  0.33333333  0.33937212  1.0
  Cs  Cs2  1  0.00000000  0.00000000  0.00000000  1.0
  Bi  Bi3  1  0.33333333  0.66666667  0.18590442  1.0
  Bi  Bi4  1  0.66666667  0.33333333  0.81409558  1.0
  Br  Br5  1  0.66094363  0.83047181  0.33401176  1.0
  Br  Br6  1  0.83047181  0.66094363  0.66598824  1.0
  Br  Br7  1  0.83047181  0.16952819  0.66598824  1.0
  Br  Br8  1  0.16952819  0.83047181  0.33401176  1.0
  Br  Br9  1  0.16952819  0.33905637  0.33401176  1.0
  Br  Br10  1  0.33905637  0.16952819  0.66598824  1.0
  Br  Br11  1  0.50000000  0.50000000  0.00000000  1.0
  Br  Br12  1  0.50000000  0.00000000  0.00000000  1.0
  Br  Br13  1  -0.00000000  0.50000000  0.00000000  1.0
