# generated using pymatgen
data_Cd(HO)2
_symmetry_space_group_name_H-M   'P 1'
_cell_length_a   6.43054536
_cell_length_b   6.43054536
_cell_length_c   3.26123656
_cell_angle_alpha   80.44525075
_cell_angle_beta   99.55474925
_cell_angle_gamma   57.28471762
_symmetry_Int_Tables_number   1
_chemical_formula_structural   Cd(HO)2
_chemical_formula_sum   'Cd2 H4 O4'
_cell_volume   106.44503864
_cell_formula_units_Z   2
loop_
 _symmetry_equiv_pos_site_id
 _symmetry_equiv_pos_as_xyz
  1  'x, y, z'
loop_
 _atom_site_type_symbol
 _atom_site_label
 _atom_site_symmetry_multiplicity
 _atom_site_fract_x
 _atom_site_fract_y
 _atom_site_fract_z
 _atom_site_occupancy
  Cd  Cd0  1  1.24406898  0.47718612  0.28212212  1.0
  Cd  Cd1  1  1.52281388  -0.24406898  0.28212212  1.0
  H  H2  1  1.00108908  0.35498559  0.76468059  1.0
  H  H3  1  1.64501441  -0.00108908  0.76468059  1.0
  H  H4  1  0.91336227  -0.91336227  0.65187989  1.0
  H  H5  1  0.72511673  -0.72511673  0.90348367  1.0
  O  O6  1  0.96303309  0.52785243  0.66467696  1.0
  O  O7  1  1.47214757  0.03696691  0.66467696  1.0
  O  O8  1  -0.09734301  0.09734301  -0.05645264  1.0
  O  O9  1  0.46669700  -0.46669700  0.85112973  1.0
