# generated using pymatgen
data_BaGd2ZnO5
_symmetry_space_group_name_H-M   'P 1'
_cell_length_a   12.57466202
_cell_length_b   5.81573075
_cell_length_c   7.23098389
_cell_angle_alpha   90.00000000
_cell_angle_beta   90.00000000
_cell_angle_gamma   90.00000000
_symmetry_Int_Tables_number   1
_chemical_formula_structural   BaGd2ZnO5
_chemical_formula_sum   'Ba4 Gd8 Zn4 O20'
_cell_volume   528.80798784
_cell_formula_units_Z   4
loop_
 _symmetry_equiv_pos_site_id
 _symmetry_equiv_pos_as_xyz
  1  'x, y, z'
loop_
 _atom_site_type_symbol
 _atom_site_label
 _atom_site_symmetry_multiplicity
 _atom_site_fract_x
 _atom_site_fract_y
 _atom_site_fract_z
 _atom_site_occupancy
  Ba  Ba0  1  0.10066571  0.75000000  0.57691695  1.0
  Ba  Ba1  1  0.60066571  0.75000000  0.92308305  1.0
  Ba  Ba2  1  0.89933429  0.25000000  0.42308305  1.0
  Ba  Ba3  1  0.39933429  0.25000000  0.07691695  1.0
  Gd  Gd4  1  0.20782269  0.75000000  0.11741884  1.0
  Gd  Gd5  1  0.70782269  0.75000000  0.38258116  1.0
  Gd  Gd6  1  0.79217731  0.25000000  0.88258116  1.0
  Gd  Gd7  1  0.29217731  0.25000000  0.61741884  1.0
  Gd  Gd8  1  0.92547777  0.75000000  0.10176201  1.0
  Gd  Gd9  1  0.42547777  0.75000000  0.39823799  1.0
  Gd  Gd10  1  0.07452223  0.25000000  0.89823799  1.0
  Gd  Gd11  1  0.57452223  0.25000000  0.60176201  1.0
  Zn  Zn12  1  0.35053176  0.75000000  0.80808059  1.0
  Zn  Zn13  1  0.85053176  0.75000000  0.69191941  1.0
  Zn  Zn14  1  0.64946824  0.25000000  0.19191941  1.0
  Zn  Zn15  1  0.14946824  0.25000000  0.30808059  1.0
  O  O16  1  0.43427707  0.99604217  0.66574988  1.0
  O  O17  1  0.43427707  0.50395783  0.66574988  1.0
  O  O18  1  0.93427707  0.99604217  0.83425012  1.0
  O  O19  1  0.93427707  0.50395783  0.83425012  1.0
  O  O20  1  0.56572293  0.49604217  0.33425012  1.0
  O  O21  1  0.56572293  0.00395783  0.33425012  1.0
  O  O22  1  0.06572293  0.49604217  0.16574988  1.0
  O  O23  1  0.06572293  0.00395783  0.16574988  1.0
  O  O24  1  0.22453773  0.99732242  0.85441185  1.0
  O  O25  1  0.22453773  0.50267758  0.85441185  1.0
  O  O26  1  0.72453773  0.99732242  0.64558815  1.0
  O  O27  1  0.72453773  0.50267758  0.64558815  1.0
  O  O28  1  0.77546227  0.49732242  0.14558815  1.0
  O  O29  1  0.77546227  0.00267758  0.14558815  1.0
  O  O30  1  0.27546227  0.49732242  0.35441185  1.0
  O  O31  1  0.27546227  0.00267758  0.35441185  1.0
  O  O32  1  0.40135014  0.75000000  0.06999011  1.0
  O  O33  1  0.90135014  0.75000000  0.43000989  1.0
  O  O34  1  0.59864986  0.25000000  0.93000989  1.0
  O  O35  1  0.09864986  0.25000000  0.56999011  1.0
