# generated using pymatgen
data_LaSiNO2
_symmetry_space_group_name_H-M   'P 1'
_cell_length_a   7.34544005
_cell_length_b   9.60211463
_cell_length_c   7.36247068
_cell_angle_alpha   90.00000000
_cell_angle_beta   120.09491973
_cell_angle_gamma   90.00000000
_symmetry_Int_Tables_number   1
_chemical_formula_structural   LaSiNO2
_chemical_formula_sum   'La6 Si6 N6 O12'
_cell_volume   449.28583625
_cell_formula_units_Z   6
loop_
 _symmetry_equiv_pos_site_id
 _symmetry_equiv_pos_as_xyz
  1  'x, y, z'
loop_
 _atom_site_type_symbol
 _atom_site_label
 _atom_site_symmetry_multiplicity
 _atom_site_fract_x
 _atom_site_fract_y
 _atom_site_fract_z
 _atom_site_occupancy
  La  La0  1  0.35485255  0.74981990  0.00714036  1.0
  La  La1  1  0.35485255  0.25018010  0.00714036  1.0
  La  La2  1  0.00701768  0.75017989  0.35552209  1.0
  La  La3  1  0.00701768  0.24982011  0.35552209  1.0
  La  La4  1  0.68094158  0.74999693  0.68134268  1.0
  La  La5  1  0.68094158  0.25000307  0.68134268  1.0
  Si  Si6  1  0.77909072  0.00000000  0.01745597  1.0
  Si  Si7  1  0.10407671  0.50000000  0.10478802  1.0
  Si  Si8  1  0.25778926  0.00000000  0.25788334  1.0
  Si  Si9  1  0.58277067  0.50000000  0.34520364  1.0
  Si  Si10  1  0.34447520  0.50000000  0.58268117  1.0
  Si  Si11  1  0.01739271  0.00000000  0.77998715  1.0
  N  N12  1  0.24582216  0.00000000  0.01798060  1.0
  N  N13  1  0.34461108  0.50000000  0.11687831  1.0
  N  N14  1  0.01724951  0.00000000  0.24578915  1.0
  N  N15  1  0.11604720  0.50000000  0.34468989  1.0
  N  N16  1  0.57204255  0.50000000  0.57215953  1.0
  N  N17  1  0.78982145  0.00000000  0.79050215  1.0
  O  O18  1  -0.01058547  0.64965956  -0.00989955  1.0
  O  O19  1  -0.01058547  0.35034044  -0.00989955  1.0
  O  O20  1  0.66191374  0.85140131  0.01613037  1.0
  O  O21  1  0.66191374  0.14859869  0.01613037  1.0
  O  O22  1  0.69994615  0.64859870  0.34652473  1.0
  O  O23  1  0.69994615  0.35140130  0.34652473  1.0
  O  O24  1  0.37244538  0.85033770  0.37256697  1.0
  O  O25  1  0.37244538  0.14966230  0.37256697  1.0
  O  O26  1  0.01615537  0.85149034  0.66288277  1.0
  O  O27  1  0.01615537  0.14850966  0.66288277  1.0
  O  O28  1  0.34571841  0.64850717  0.69979012  1.0
  O  O29  1  0.34571841  0.35149283  0.69979012  1.0
