# generated using pymatgen
data_MnFe4B2P
_symmetry_space_group_name_H-M   'P 1'
_cell_length_a   6.44508995
_cell_length_b   6.44508995
_cell_length_c   6.44508995
_cell_angle_alpha   129.77523285
_cell_angle_beta   129.77523285
_cell_angle_gamma   73.76634829
_symmetry_Int_Tables_number   1
_chemical_formula_structural   MnFe4B2P
_chemical_formula_sum   'Mn2 Fe8 B4 P2'
_cell_volume   154.27737128
_cell_formula_units_Z   2
loop_
 _symmetry_equiv_pos_site_id
 _symmetry_equiv_pos_as_xyz
  1  'x, y, z'
loop_
 _atom_site_type_symbol
 _atom_site_label
 _atom_site_symmetry_multiplicity
 _atom_site_fract_x
 _atom_site_fract_y
 _atom_site_fract_z
 _atom_site_occupancy
  Mn  Mn0  1  0.50000000  0.50000000  1.00000000  1.0
  Mn  Mn1  1  0.00000000  0.00000000  0.00000000  1.0
  Fe  Fe2  1  0.53318096  1.03318096  0.84238109  1.0
  Fe  Fe3  1  1.19079987  0.69079987  1.15761891  1.0
  Fe  Fe4  1  1.03318096  1.19079987  1.50000000  1.0
  Fe  Fe5  1  0.69079987  0.53318096  0.50000000  1.0
  Fe  Fe6  1  0.46681904  0.96681904  1.15761891  1.0
  Fe  Fe7  1  0.80920013  0.30920013  0.84238109  1.0
  Fe  Fe8  1  0.96681904  0.80920013  1.50000000  1.0
  Fe  Fe9  1  0.30920013  0.46681904  0.50000000  1.0
  B  B10  1  0.88207546  0.38207546  1.26415092  1.0
  B  B11  1  0.11792454  0.61792454  0.73584908  1.0
  B  B12  1  0.38207546  0.11792454  0.50000000  1.0
  B  B13  1  0.61792454  0.88207546  1.50000000  1.0
  P  P14  1  0.25000000  0.25000000  0.00000000  1.0
  P  P15  1  0.75000000  0.75000000  1.00000000  1.0
