# generated using pymatgen
data_NaCaH3
_symmetry_space_group_name_H-M   'P 1'
_cell_length_a   6.11106222
_cell_length_b   6.11106222
_cell_length_c   6.11106222
_cell_angle_alpha   57.40197130
_cell_angle_beta   57.40197130
_cell_angle_gamma   57.40197130
_symmetry_Int_Tables_number   1
_chemical_formula_structural   NaCaH3
_chemical_formula_sum   'Na2 Ca2 H6'
_cell_volume   151.72705199
_cell_formula_units_Z   2
loop_
 _symmetry_equiv_pos_site_id
 _symmetry_equiv_pos_as_xyz
  1  'x, y, z'
loop_
 _atom_site_type_symbol
 _atom_site_label
 _atom_site_symmetry_multiplicity
 _atom_site_fract_x
 _atom_site_fract_y
 _atom_site_fract_z
 _atom_site_occupancy
  Na  Na0  1  0.28186155  0.28186155  0.28186155  1.0
  Na  Na1  1  0.78186155  -0.21813845  -0.21813845  1.0
  Ca  Ca2  1  0.50081176  0.50081176  -0.49918824  1.0
  Ca  Ca3  1  0.00081176  0.00081176  0.00081176  1.0
  H  H4  1  1.19454413  -0.11746288  -0.38175455  1.0
  H  H5  1  0.88253712  -0.38175455  0.19454413  1.0
  H  H6  1  0.61824545  0.19454413  -0.11746288  1.0
  H  H7  1  0.69454413  0.11824545  -0.61746288  1.0
  H  H8  1  0.11824545  0.38253712  -0.30545587  1.0
  H  H9  1  0.38253712  0.69454413  -0.88175455  1.0
