# generated using pymatgen
data_Eu2Ge2O7
_symmetry_space_group_name_H-M   'P 1'
_cell_length_a   7.02517668
_cell_length_b   7.02517668
_cell_length_c   12.70350539
_cell_angle_alpha   90.00000000
_cell_angle_beta   90.00000000
_cell_angle_gamma   90.00000000
_symmetry_Int_Tables_number   1
_chemical_formula_structural   Eu2Ge2O7
_chemical_formula_sum   'Eu8 Ge8 O28'
_cell_volume   626.95746522
_cell_formula_units_Z   4
loop_
 _symmetry_equiv_pos_site_id
 _symmetry_equiv_pos_as_xyz
  1  'x, y, z'
loop_
 _atom_site_type_symbol
 _atom_site_label
 _atom_site_symmetry_multiplicity
 _atom_site_fract_x
 _atom_site_fract_y
 _atom_site_fract_z
 _atom_site_occupancy
  Eu  Eu0  1  0.14743536  0.62011834  0.86506205  1.0
  Eu  Eu1  1  0.64743536  0.87988166  0.88493795  1.0
  Eu  Eu2  1  0.37988166  0.85256464  0.63493795  1.0
  Eu  Eu3  1  0.87988166  0.64743536  0.11506205  1.0
  Eu  Eu4  1  0.85256464  0.37988166  0.36506205  1.0
  Eu  Eu5  1  0.35256464  0.12011834  0.38493795  1.0
  Eu  Eu6  1  0.62011834  0.14743536  0.13493795  1.0
  Eu  Eu7  1  0.12011834  0.35256464  0.61506205  1.0
  Ge  Ge8  1  0.40411260  0.65362142  0.12133446  1.0
  Ge  Ge9  1  0.90411260  0.84637858  0.62866554  1.0
  Ge  Ge10  1  0.34637858  0.59588740  0.37866554  1.0
  Ge  Ge11  1  0.84637858  0.90411260  0.37133446  1.0
  Ge  Ge12  1  0.59588740  0.34637858  0.62133446  1.0
  Ge  Ge13  1  0.09588740  0.15362142  0.12866554  1.0
  Ge  Ge14  1  0.65362142  0.40411260  0.87866554  1.0
  Ge  Ge15  1  0.15362142  0.09588740  0.87133446  1.0
  O  O16  1  0.47311994  0.57757020  0.87416328  1.0
  O  O17  1  0.97311994  0.92242980  0.87583672  1.0
  O  O18  1  0.42242980  0.52688006  0.62583672  1.0
  O  O19  1  0.92242980  0.97311994  0.12416328  1.0
  O  O20  1  0.52688006  0.42242980  0.37416328  1.0
  O  O21  1  0.02688006  0.07757020  0.37583672  1.0
  O  O22  1  0.57757020  0.47311994  0.12583672  1.0
  O  O23  1  0.07757020  0.02688006  0.62416328  1.0
  O  O24  1  0.33745451  0.93949180  0.82257081  1.0
  O  O25  1  0.83745451  0.56050820  0.92742919  1.0
  O  O26  1  0.06050820  0.66254549  0.67742919  1.0
  O  O27  1  0.56050820  0.83745451  0.07257081  1.0
  O  O28  1  0.66254549  0.06050820  0.32257081  1.0
  O  O29  1  0.16254549  0.43949180  0.42742919  1.0
  O  O30  1  0.93949180  0.33745451  0.17742919  1.0
  O  O31  1  0.43949180  0.16254549  0.57257081  1.0
  O  O32  1  0.19312009  0.64251289  0.04613628  1.0
  O  O33  1  0.69312009  0.85748711  0.70386372  1.0
  O  O34  1  0.35748711  0.80687991  0.45386372  1.0
  O  O35  1  0.85748711  0.69312009  0.29613628  1.0
  O  O36  1  0.80687991  0.35748711  0.54613628  1.0
  O  O37  1  0.30687991  0.14251289  0.20386372  1.0
  O  O38  1  0.64251289  0.19312009  0.95386372  1.0
  O  O39  1  0.14251289  0.30687991  0.79613628  1.0
  O  O40  1  0.30454266  0.69545734  0.25000000  1.0
  O  O41  1  0.80454266  0.80454266  0.50000000  1.0
  O  O42  1  0.69545734  0.30454266  0.75000000  1.0
  O  O43  1  0.19545734  0.19545734  0.00000000  1.0
