# generated using pymatgen
data_Na4SnTe4
_symmetry_space_group_name_H-M   'P 1'
_cell_length_a   8.89374814
_cell_length_b   8.89296540
_cell_length_c   15.79981490
_cell_angle_alpha   90.00000000
_cell_angle_beta   90.00000000
_cell_angle_gamma   90.00000000
_symmetry_Int_Tables_number   1
_chemical_formula_structural   Na4SnTe4
_chemical_formula_sum   'Na16 Sn4 Te16'
_cell_volume   1249.63571419
_cell_formula_units_Z   4
loop_
 _symmetry_equiv_pos_site_id
 _symmetry_equiv_pos_as_xyz
  1  'x, y, z'
loop_
 _atom_site_type_symbol
 _atom_site_label
 _atom_site_symmetry_multiplicity
 _atom_site_fract_x
 _atom_site_fract_y
 _atom_site_fract_z
 _atom_site_occupancy
  Na  Na0  1  0.55412257  0.90270379  0.88837488  1.0
  Na  Na1  1  1.05412257  0.59729621  0.11162512  1.0
  Na  Na2  1  0.44587743  0.40270379  0.61162512  1.0
  Na  Na3  1  -0.05412257  0.09729621  0.38837488  1.0
  Na  Na4  1  0.34743566  0.30420240  0.86175662  1.0
  Na  Na5  1  0.84743566  0.19579760  0.13824338  1.0
  Na  Na6  1  0.65256434  0.80420240  0.63824338  1.0
  Na  Na7  1  0.15256434  0.69579760  0.36175662  1.0
  Na  Na8  1  0.15242897  0.69675504  0.86154996  1.0
  Na  Na9  1  0.65242897  0.80324496  0.13845004  1.0
  Na  Na10  1  0.84757103  0.19675504  0.63845004  1.0
  Na  Na11  1  0.34757103  0.30324496  0.36154996  1.0
  Na  Na12  1  0.05445190  0.59798294  0.61179664  1.0
  Na  Na13  1  0.55445190  0.90201706  0.38820336  1.0
  Na  Na14  1  0.94554810  0.09798294  0.88820336  1.0
  Na  Na15  1  0.44554810  0.40201706  0.11179664  1.0
  Sn  Sn16  1  0.25006969  0.99956211  0.12495895  1.0
  Sn  Sn17  1  0.75006969  0.50043789  0.87504105  1.0
  Sn  Sn18  1  0.74993031  0.49956211  0.37504105  1.0
  Sn  Sn19  1  0.24993031  0.00043789  0.62495895  1.0
  Te  Te20  1  0.50518441  0.59706191  0.77794197  1.0
  Te  Te21  1  1.00518441  0.90293809  0.22205803  1.0
  Te  Te22  1  0.49481559  0.09706191  0.72205803  1.0
  Te  Te23  1  -0.00518441  0.40293809  0.27794197  1.0
  Te  Te24  1  0.34693096  0.75547777  0.52796531  1.0
  Te  Te25  1  0.84693096  0.74452223  0.47203469  1.0
  Te  Te26  1  0.65306904  0.25547777  0.97203469  1.0
  Te  Te27  1  0.15306904  0.24452223  0.02796531  1.0
  Te  Te28  1  0.34689159  0.75468746  0.02786104  1.0
  Te  Te29  1  0.84689159  0.74531254  0.97213896  1.0
  Te  Te30  1  0.65310841  0.25468746  0.47213896  1.0
  Te  Te31  1  0.15310841  0.24531254  0.52786104  1.0
  Te  Te32  1  0.00473673  0.90365779  0.72185809  1.0
  Te  Te33  1  0.50473673  0.59634221  0.27814191  1.0
  Te  Te34  1  0.99526327  0.40365779  0.77814191  1.0
  Te  Te35  1  0.49526327  0.09634221  0.22185809  1.0
