# generated using pymatgen
data_Tl2Mo9S11
_symmetry_space_group_name_H-M   'P 1'
_cell_length_a   13.04442062
_cell_length_b   13.04442062
_cell_length_c   13.04442062
_cell_angle_alpha   42.44833485
_cell_angle_beta   42.44833485
_cell_angle_gamma   42.44833485
_symmetry_Int_Tables_number   1
_chemical_formula_structural   Tl2Mo9S11
_chemical_formula_sum   'Tl4 Mo18 S22'
_cell_volume   915.41827127
_cell_formula_units_Z   2
loop_
 _symmetry_equiv_pos_site_id
 _symmetry_equiv_pos_as_xyz
  1  'x, y, z'
loop_
 _atom_site_type_symbol
 _atom_site_label
 _atom_site_symmetry_multiplicity
 _atom_site_fract_x
 _atom_site_fract_y
 _atom_site_fract_z
 _atom_site_occupancy
  Tl  Tl0  1  0.44808133  0.44808133  -0.55191867  1.0
  Tl  Tl1  1  0.94808133  -0.05191867  -0.05191867  1.0
  Tl  Tl2  1  0.55191867  0.55191867  -0.44808133  1.0
  Tl  Tl3  1  0.05191867  0.05191867  0.05191867  1.0
  Mo  Mo4  1  1.08384051  0.25000000  -0.58384051  1.0
  Mo  Mo5  1  0.25000000  0.41615949  0.08384051  1.0
  Mo  Mo6  1  0.41615949  0.08384051  0.25000000  1.0
  Mo  Mo7  1  0.58384051  -0.08384051  -0.25000000  1.0
  Mo  Mo8  1  0.91615949  -0.25000000  -0.41615949  1.0
  Mo  Mo9  1  0.75000000  -0.41615949  -0.08384051  1.0
  Mo  Mo10  1  0.32359670  1.14554769  -0.52775752  1.0
  Mo  Mo11  1  1.14554769  0.47224248  -0.67640330  1.0
  Mo  Mo12  1  0.47224248  0.32359670  0.14554769  1.0
  Mo  Mo13  1  0.82359670  -0.02775752  -0.35445231  1.0
  Mo  Mo14  1  0.97224248  -0.35445231  -0.17640330  1.0
  Mo  Mo15  1  0.64554769  -0.17640330  -0.02775752  1.0
  Mo  Mo16  1  0.67640330  -0.14554769  -0.47224248  1.0
  Mo  Mo17  1  0.85445231  -0.47224248  -0.32359670  1.0
  Mo  Mo18  1  0.52775752  -0.32359670  -0.14554769  1.0
  Mo  Mo19  1  1.17640330  0.02775752  -0.64554769  1.0
  Mo  Mo20  1  1.02775752  -0.64554769  0.17640330  1.0
  Mo  Mo21  1  0.35445231  0.17640330  0.02775752  1.0
  S  S22  1  0.25000000  0.94796239  -0.44796239  1.0
  S  S23  1  0.94796239  -0.44796239  0.25000000  1.0
  S  S24  1  0.55203761  0.25000000  -0.05203761  1.0
  S  S25  1  0.75000000  0.05203761  -0.55203761  1.0
  S  S26  1  1.05203761  -0.55203761  -0.25000000  1.0
  S  S27  1  0.44796239  -0.25000000  0.05203761  1.0
  S  S28  1  1.01976272  0.28567122  -0.38044332  1.0
  S  S29  1  1.28567122  -0.38044332  0.01976272  1.0
  S  S30  1  0.61955668  0.01976272  0.28567122  1.0
  S  S31  1  0.51976272  0.11955668  -0.21432878  1.0
  S  S32  1  1.11955668  -0.21432878  -0.48023728  1.0
  S  S33  1  0.78567122  -0.48023728  0.11955668  1.0
  S  S34  1  0.98023728  -0.28567122  -0.61955668  1.0
  S  S35  1  0.71432878  -0.61955668  -0.01976272  1.0
  S  S36  1  0.38044332  -0.01976272  -0.28567122  1.0
  S  S37  1  0.48023728  0.88044332  -0.78567122  1.0
  S  S38  1  0.88044332  0.21432878  -0.51976272  1.0
  S  S39  1  0.21432878  0.48023728  -0.11955668  1.0
  S  S40  1  0.36556587  0.36556587  -0.63443413  1.0
  S  S41  1  0.86556587  -0.13443413  -0.13443413  1.0
  S  S42  1  0.63443413  0.63443413  -0.36556587  1.0
  S  S43  1  0.13443413  0.13443413  0.13443413  1.0
