# generated using pymatgen
data_ZrNCl
_symmetry_space_group_name_H-M   'P 1'
_cell_length_a   10.26847653
_cell_length_b   10.26847653
_cell_length_c   10.26847653
_cell_angle_alpha   20.33796654
_cell_angle_beta   20.33796654
_cell_angle_gamma   20.33796654
_symmetry_Int_Tables_number   1
_chemical_formula_structural   ZrNCl
_chemical_formula_sum   'Zr2 N2 Cl2'
_cell_volume   114.45529141
_cell_formula_units_Z   2
loop_
 _symmetry_equiv_pos_site_id
 _symmetry_equiv_pos_as_xyz
  1  'x, y, z'
loop_
 _atom_site_type_symbol
 _atom_site_label
 _atom_site_symmetry_multiplicity
 _atom_site_fract_x
 _atom_site_fract_y
 _atom_site_fract_z
 _atom_site_occupancy
  Zr  Zr0  1  0.78996795  0.78996795  0.78996795  1.0
  Zr  Zr1  1  1.21003205  1.21003205  0.21003205  1.0
  N  N2  1  0.86185836  0.86185836  0.86185836  1.0
  N  N3  1  1.13814164  1.13814164  0.13814164  1.0
  Cl  Cl4  1  1.60342074  0.60342074  0.60342074  1.0
  Cl  Cl5  1  1.39657926  0.39657926  0.39657926  1.0
