# generated using pymatgen
data_Y3TaO7
_symmetry_space_group_name_H-M   'P 1'
_cell_length_a   6.49384073
_cell_length_b   6.49384073
_cell_length_c   7.46491203
_cell_angle_alpha   90.00000000
_cell_angle_beta   90.00000000
_cell_angle_gamma   108.66529859
_symmetry_Int_Tables_number   1
_chemical_formula_structural   Y3TaO7
_chemical_formula_sum   'Y6 Ta2 O14'
_cell_volume   298.23822368
_cell_formula_units_Z   2
loop_
 _symmetry_equiv_pos_site_id
 _symmetry_equiv_pos_as_xyz
  1  'x, y, z'
loop_
 _atom_site_type_symbol
 _atom_site_label
 _atom_site_symmetry_multiplicity
 _atom_site_fract_x
 _atom_site_fract_y
 _atom_site_fract_z
 _atom_site_occupancy
  Y  Y0  1  -0.00005957  1.53443892  0.24117074  1.0
  Y  Y1  1  0.53443892  0.99994043  0.75882926  1.0
  Y  Y2  1  -0.53443892  1.00005957  0.25882926  1.0
  Y  Y3  1  0.00005957  0.46556108  0.74117074  1.0
  Y  Y4  1  0.46294350  0.46294350  0.00000000  1.0
  Y  Y5  1  0.53705650  0.53705650  0.50000000  1.0
  Ta  Ta6  1  -0.00199334  -0.00199334  0.00000000  1.0
  Ta  Ta7  1  0.00199334  0.00199334  0.50000000  1.0
  O  O8  1  0.08274204  0.32839411  0.02397305  1.0
  O  O9  1  -0.67160589  1.08274204  0.97602695  1.0
  O  O10  1  0.67160589  0.91725796  0.47602695  1.0
  O  O11  1  -0.08274204  1.67160589  0.52397305  1.0
  O  O12  1  0.04855720  0.30692404  0.45543516  1.0
  O  O13  1  -0.69307596  1.04855720  0.54456484  1.0
  O  O14  1  0.69307596  0.95144280  0.04456484  1.0
  O  O15  1  -0.04855720  1.69307596  0.95543516  1.0
  O  O16  1  0.06756516  0.93243484  0.25000000  1.0
  O  O17  1  -0.06756516  1.06756516  0.75000000  1.0
  O  O18  1  0.35950263  0.64049737  0.25000000  1.0
  O  O19  1  -0.35950263  1.35950263  0.75000000  1.0
  O  O20  1  -0.37147572  1.37147572  0.25000000  1.0
  O  O21  1  0.37147572  0.62852428  0.75000000  1.0
