# generated using pymatgen
data_Cd3PCl3
_symmetry_space_group_name_H-M   'P 1'
_cell_length_a   13.26500627
_cell_length_b   8.10263542
_cell_length_c   7.12151525
_cell_angle_alpha   90.00000000
_cell_angle_beta   90.00000000
_cell_angle_gamma   90.00000000
_symmetry_Int_Tables_number   1
_chemical_formula_structural   Cd3PCl3
_chemical_formula_sum   'Cd12 P4 Cl12'
_cell_volume   765.43120995
_cell_formula_units_Z   4
loop_
 _symmetry_equiv_pos_site_id
 _symmetry_equiv_pos_as_xyz
  1  'x, y, z'
loop_
 _atom_site_type_symbol
 _atom_site_label
 _atom_site_symmetry_multiplicity
 _atom_site_fract_x
 _atom_site_fract_y
 _atom_site_fract_z
 _atom_site_occupancy
  Cd  Cd0  1  0.91399715  0.25000000  0.48228082  1.0
  Cd  Cd1  1  0.41399715  0.25000000  0.01771918  1.0
  Cd  Cd2  1  0.08600285  0.75000000  0.51771918  1.0
  Cd  Cd3  1  0.58600285  0.75000000  0.98228082  1.0
  Cd  Cd4  1  0.74532599  0.25000000  1.00129005  1.0
  Cd  Cd5  1  0.24532599  0.25000000  0.49870995  1.0
  Cd  Cd6  1  0.25467401  0.75000000  -0.00129005  1.0
  Cd  Cd7  1  0.75467401  0.75000000  0.50129005  1.0
  Cd  Cd8  1  0.00000000  0.50000000  0.00000000  1.0
  Cd  Cd9  1  0.00000000  0.00000000  0.00000000  1.0
  Cd  Cd10  1  0.50000000  0.50000000  0.50000000  1.0
  Cd  Cd11  1  0.50000000  0.00000000  0.50000000  1.0
  P  P12  1  0.91956145  0.25000000  0.13473934  1.0
  P  P13  1  0.41956145  0.25000000  0.36526066  1.0
  P  P14  1  0.08043855  0.75000000  0.86526066  1.0
  P  P15  1  0.58043855  0.75000000  0.63473934  1.0
  Cl  Cl16  1  0.66768217  0.97737825  0.18845550  1.0
  Cl  Cl17  1  0.66768217  0.52262175  0.18845550  1.0
  Cl  Cl18  1  0.16768217  0.97737825  0.31154450  1.0
  Cl  Cl19  1  0.16768217  0.52262175  0.31154450  1.0
  Cl  Cl20  1  0.33231783  0.47737825  0.81154450  1.0
  Cl  Cl21  1  0.33231783  0.02262175  0.81154450  1.0
  Cl  Cl22  1  0.83231783  0.47737825  0.68845550  1.0
  Cl  Cl23  1  0.83231783  0.02262175  0.68845550  1.0
  Cl  Cl24  1  0.58250917  0.25000000  0.81173239  1.0
  Cl  Cl25  1  0.08250917  0.25000000  0.68826761  1.0
  Cl  Cl26  1  0.41749083  0.75000000  0.18826761  1.0
  Cl  Cl27  1  0.91749083  0.75000000  0.31173239  1.0
