# generated using pymatgen
data_MgSiO3
_symmetry_space_group_name_H-M   'P 1'
_cell_length_a   4.86835187
_cell_length_b   6.86730197
_cell_length_c   10.30257813
_cell_angle_alpha   90.00000000
_cell_angle_beta   100.08331500
_cell_angle_gamma   90.00000000
_symmetry_Int_Tables_number   1
_chemical_formula_structural   MgSiO3
_chemical_formula_sum   'Mg8 Si8 O24'
_cell_volume   339.12019537
_cell_formula_units_Z   8
loop_
 _symmetry_equiv_pos_site_id
 _symmetry_equiv_pos_as_xyz
  1  'x, y, z'
loop_
 _atom_site_type_symbol
 _atom_site_label
 _atom_site_symmetry_multiplicity
 _atom_site_fract_x
 _atom_site_fract_y
 _atom_site_fract_z
 _atom_site_occupancy
  Mg  Mg0  1  0.61042843  0.75000000  0.78219302  1.0
  Mg  Mg1  1  0.38957157  0.25000000  0.21780698  1.0
  Mg  Mg2  1  0.51381106  0.75000000  0.04597389  1.0
  Mg  Mg3  1  0.48618894  0.25000000  0.95402611  1.0
  Mg  Mg4  1  0.39558701  0.75000000  0.29438815  1.0
  Mg  Mg5  1  0.60441299  0.25000000  0.70561185  1.0
  Mg  Mg6  1  0.02447513  0.75000000  0.52987406  1.0
  Mg  Mg7  1  0.97552487  0.25000000  0.47012594  1.0
  Si  Si8  1  0.91079028  0.99846615  0.25327057  1.0
  Si  Si9  1  0.91079028  0.50153385  0.25327057  1.0
  Si  Si10  1  0.08920972  0.49846615  0.74672943  1.0
  Si  Si11  1  0.08920972  0.00153385  0.74672943  1.0
  Si  Si12  1  0.50000000  0.00000000  0.50000000  1.0
  Si  Si13  1  0.50000000  0.50000000  0.50000000  1.0
  Si  Si14  1  0.00000000  0.00000000  0.00000000  1.0
  Si  Si15  1  0.00000000  0.50000000  0.00000000  1.0
  O  O16  1  0.84003383  0.44333919  0.59685229  1.0
  O  O17  1  0.84003383  0.05666081  0.59685229  1.0
  O  O18  1  0.15996617  0.94333919  0.40314771  1.0
  O  O19  1  0.15996617  0.55666081  0.40314771  1.0
  O  O20  1  0.80748763  0.44689567  0.84120896  1.0
  O  O21  1  0.80748763  0.05310433  0.84120896  1.0
  O  O22  1  0.19251237  0.94689567  0.15879104  1.0
  O  O23  1  0.19251237  0.55310433  0.15879104  1.0
  O  O24  1  0.36277064  0.94657446  0.65220014  1.0
  O  O25  1  0.36277064  0.55342554  0.65220014  1.0
  O  O26  1  0.63722936  0.44657446  0.34779986  1.0
  O  O27  1  0.63722936  0.05342554  0.34779986  1.0
  O  O28  1  0.28406506  0.95149759  0.90773214  1.0
  O  O29  1  0.28406506  0.54850241  0.90773214  1.0
  O  O30  1  0.71593494  0.45149759  0.09226786  1.0
  O  O31  1  0.71593494  0.04850241  0.09226786  1.0
  O  O32  1  0.97855156  0.75000000  0.72162943  1.0
  O  O33  1  0.02144844  0.25000000  0.27837057  1.0
  O  O34  1  0.86615541  0.75000000  0.97303987  1.0
  O  O35  1  0.13384459  0.25000000  0.02696013  1.0
  O  O36  1  0.78017250  0.75000000  0.23793286  1.0
  O  O37  1  0.21982750  0.25000000  0.76206714  1.0
  O  O38  1  0.59862200  0.75000000  0.48584860  1.0
  O  O39  1  0.40137800  0.25000000  0.51415140  1.0
