# generated using pymatgen
data_CaMg2Au
_symmetry_space_group_name_H-M   'P 1'
_cell_length_a   5.77430324
_cell_length_b   5.77430324
_cell_length_c   8.31625353
_cell_angle_alpha   90.00000000
_cell_angle_beta   90.00000000
_cell_angle_gamma   135.89504683
_symmetry_Int_Tables_number   1
_chemical_formula_structural   CaMg2Au
_chemical_formula_sum   'Ca2 Mg4 Au2'
_cell_volume   192.98362354
_cell_formula_units_Z   2
loop_
 _symmetry_equiv_pos_site_id
 _symmetry_equiv_pos_as_xyz
  1  'x, y, z'
loop_
 _atom_site_type_symbol
 _atom_site_label
 _atom_site_symmetry_multiplicity
 _atom_site_fract_x
 _atom_site_fract_y
 _atom_site_fract_z
 _atom_site_occupancy
  Ca  Ca0  1  0.44247913  0.55752087  0.75000000  1.0
  Ca  Ca1  1  -0.44247913  0.44247913  0.25000000  1.0
  Mg  Mg2  1  0.15253870  0.84746130  0.94385888  1.0
  Mg  Mg3  1  0.15253870  0.84746130  0.55614112  1.0
  Mg  Mg4  1  -0.15253870  0.15253870  0.44385888  1.0
  Mg  Mg5  1  -0.15253870  0.15253870  0.05614112  1.0
  Au  Au6  1  -0.26903331  0.26903331  0.75000000  1.0
  Au  Au7  1  0.26903331  0.73096669  0.25000000  1.0
