# generated using pymatgen
data_Ba5Ru2Br2O9
_symmetry_space_group_name_H-M   'P 1'
_cell_length_a   5.91183415
_cell_length_b   5.91183415
_cell_length_c   25.90845787
_cell_angle_alpha   90.00000000
_cell_angle_beta   90.00000000
_cell_angle_gamma   120.00000000
_symmetry_Int_Tables_number   1
_chemical_formula_structural   Ba5Ru2Br2O9
_chemical_formula_sum   'Ba10 Ru4 Br4 O18'
_cell_volume   784.18165544
_cell_formula_units_Z   2
loop_
 _symmetry_equiv_pos_site_id
 _symmetry_equiv_pos_as_xyz
  1  'x, y, z'
loop_
 _atom_site_type_symbol
 _atom_site_label
 _atom_site_symmetry_multiplicity
 _atom_site_fract_x
 _atom_site_fract_y
 _atom_site_fract_z
 _atom_site_occupancy
  Ru  Ru0  1  0.00000000  0.00000000  0.30484017  1.0
  Ru  Ru1  1  0.00000000  0.00000000  0.19515983  1.0
  Ru  Ru2  1  0.00000000  0.00000000  0.80484017  1.0
  Ru  Ru3  1  0.00000000  0.00000000  0.69515983  1.0
  Ba  Ba4  1  0.33333333  0.66666667  0.32627250  1.0
  Ba  Ba5  1  0.33333333  0.66666667  0.17372750  1.0
  Ba  Ba6  1  0.66666667  0.33333333  0.82627250  1.0
  Ba  Ba7  1  0.66666667  0.33333333  0.67372750  1.0
  Ba  Ba8  1  0.33333333  0.66666667  0.91275487  1.0
  Ba  Ba9  1  0.33333333  0.66666667  0.58724513  1.0
  Ba  Ba10  1  0.66666667  0.33333333  0.41275487  1.0
  Ba  Ba11  1  0.66666667  0.33333333  0.08724513  1.0
  Ba  Ba12  1  0.33333333  0.66666667  0.75000000  1.0
  Ba  Ba13  1  0.66666667  0.33333333  0.25000000  1.0
  O  O14  1  0.15094795  0.84905205  0.25000000  1.0
  O  O15  1  0.15094795  0.30189591  0.25000000  1.0
  O  O16  1  0.84905205  0.15094795  0.75000000  1.0
  O  O17  1  0.84905205  0.69810409  0.75000000  1.0
  O  O18  1  0.69810409  0.84905205  0.25000000  1.0
  O  O19  1  0.30189591  0.15094795  0.75000000  1.0
  O  O20  1  0.15978270  0.84021730  0.84148085  1.0
  O  O21  1  0.15978270  0.84021730  0.65851915  1.0
  O  O22  1  0.15978270  0.31956541  0.84148085  1.0
  O  O23  1  0.15978270  0.31956541  0.65851915  1.0
  O  O24  1  0.84021730  0.15978270  0.34148085  1.0
  O  O25  1  0.84021730  0.15978270  0.15851915  1.0
  O  O26  1  0.84021730  0.68043459  0.34148085  1.0
  O  O27  1  0.84021730  0.68043459  0.15851915  1.0
  O  O28  1  0.68043459  0.84021730  0.84148085  1.0
  O  O29  1  0.68043459  0.84021730  0.65851915  1.0
  O  O30  1  0.31956541  0.15978270  0.34148085  1.0
  O  O31  1  0.31956541  0.15978270  0.15851915  1.0
  Br  Br32  1  0.33333333  0.66666667  0.45388082  1.0
  Br  Br33  1  0.33333333  0.66666667  0.04611918  1.0
  Br  Br34  1  0.66666667  0.33333333  0.95388082  1.0
  Br  Br35  1  0.66666667  0.33333333  0.54611918  1.0
