# generated using pymatgen
data_MoF3
_symmetry_space_group_name_H-M   'P 1'
_cell_length_a   5.70867705
_cell_length_b   5.70867705
_cell_length_c   5.70867705
_cell_angle_alpha   56.13030537
_cell_angle_beta   56.13030537
_cell_angle_gamma   56.13030537
_symmetry_Int_Tables_number   1
_chemical_formula_structural   MoF3
_chemical_formula_sum   'Mo2 F6'
_cell_volume   119.76375261
_cell_formula_units_Z   2
loop_
 _symmetry_equiv_pos_site_id
 _symmetry_equiv_pos_as_xyz
  1  'x, y, z'
loop_
 _atom_site_type_symbol
 _atom_site_label
 _atom_site_symmetry_multiplicity
 _atom_site_fract_x
 _atom_site_fract_y
 _atom_site_fract_z
 _atom_site_occupancy
  Mo  Mo0  1  1.00000000  0.00000000  -0.00000000  1.0
  Mo  Mo1  1  0.50000000  0.50000000  0.50000000  1.0
  F  F2  1  1.37458160  -0.25000000  0.12541840  1.0
  F  F3  1  0.87458160  -0.37458160  0.25000000  1.0
  F  F4  1  0.25000000  0.87458160  -0.37458160  1.0
  F  F5  1  0.75000000  0.12541840  0.37458160  1.0
  F  F6  1  0.62541840  0.25000000  -0.12541840  1.0
  F  F7  1  1.12541840  0.37458160  -0.25000000  1.0
