# generated using pymatgen
data_WO3
_symmetry_space_group_name_H-M   'P 1'
_cell_length_a   5.51354680
_cell_length_b   5.53863758
_cell_length_c   7.52247331
_cell_angle_alpha   90.00000000
_cell_angle_beta   90.01836900
_cell_angle_gamma   90.00000000
_symmetry_Int_Tables_number   1
_chemical_formula_structural   WO3
_chemical_formula_sum   'W4 O12'
_cell_volume   229.71779900
_cell_formula_units_Z   4
loop_
 _symmetry_equiv_pos_site_id
 _symmetry_equiv_pos_as_xyz
  1  'x, y, z'
loop_
 _atom_site_type_symbol
 _atom_site_label
 _atom_site_symmetry_multiplicity
 _atom_site_fract_x
 _atom_site_fract_y
 _atom_site_fract_z
 _atom_site_occupancy
  W  W0  1  0.25006211  0.80926964  0.74950856  1.0
  W  W1  1  0.74993789  0.30926964  0.75049144  1.0
  W  W2  1  0.74993789  0.19073036  0.25049144  1.0
  W  W3  1  0.25006211  0.69073036  0.24950856  1.0
  O  O4  1  0.49796948  0.01792079  0.74921272  1.0
  O  O5  1  0.50203052  0.51792079  0.75078728  1.0
  O  O6  1  0.50203052  0.98207921  0.25078728  1.0
  O  O7  1  0.49796948  0.48207921  0.24921272  1.0
  O  O8  1  0.24998690  0.74855357  0.49994622  1.0
  O  O9  1  0.75001310  0.24855357  0.00005378  1.0
  O  O10  1  0.75001310  0.25144643  0.50005378  1.0
  O  O11  1  0.24998690  0.75144643  0.99994622  1.0
  O  O12  1  1.00276182  0.01861357  0.74915145  1.0
  O  O13  1  -0.00276182  0.51861357  0.75084855  1.0
  O  O14  1  -0.00276182  0.98138643  0.25084855  1.0
  O  O15  1  1.00276182  0.48138643  0.24915145  1.0
