# generated using pymatgen
data_MgTiO3
_symmetry_space_group_name_H-M   'P 1'
_cell_length_a   5.52171847
_cell_length_b   5.52171847
_cell_length_c   5.52171847
_cell_angle_alpha   54.92595447
_cell_angle_beta   54.92595447
_cell_angle_gamma   54.92595447
_symmetry_Int_Tables_number   1
_chemical_formula_structural   MgTiO3
_chemical_formula_sum   'Mg2 Ti2 O6'
_cell_volume   104.98575248
_cell_formula_units_Z   2
loop_
 _symmetry_equiv_pos_site_id
 _symmetry_equiv_pos_as_xyz
  1  'x, y, z'
loop_
 _atom_site_type_symbol
 _atom_site_label
 _atom_site_symmetry_multiplicity
 _atom_site_fract_x
 _atom_site_fract_y
 _atom_site_fract_z
 _atom_site_occupancy
  Mg  Mg0  1  0.14532213  0.14532213  0.14532213  1.0
  Mg  Mg1  1  0.85467787  -0.14532213  -0.14532213  1.0
  Ti  Ti2  1  0.35656494  0.35656494  -0.64343506  1.0
  Ti  Ti3  1  0.64343506  0.64343506  -0.35656494  1.0
  O  O4  1  0.45160711  0.06333531  -0.27502579  1.0
  O  O5  1  1.27502579  -0.45160711  -0.06333531  1.0
  O  O6  1  0.93666469  0.27502579  -0.45160711  1.0
  O  O7  1  0.54839289  -0.06333531  0.27502579  1.0
  O  O8  1  0.72497421  -0.54839289  0.06333531  1.0
  O  O9  1  1.06333531  -0.27502579  -0.54839289  1.0
