# generated using pymatgen
data_Bi2SeO7
_symmetry_space_group_name_H-M   'P 1'
_cell_length_a   8.45142313
_cell_length_b   13.11806599
_cell_length_c   5.89891692
_cell_angle_alpha   90.00000000
_cell_angle_beta   106.81360847
_cell_angle_gamma   90.00000000
_symmetry_Int_Tables_number   1
_chemical_formula_structural   Bi2SeO7
_chemical_formula_sum   'Bi8 Se4 O28'
_cell_volume   626.03366020
_cell_formula_units_Z   4
loop_
 _symmetry_equiv_pos_site_id
 _symmetry_equiv_pos_as_xyz
  1  'x, y, z'
loop_
 _atom_site_type_symbol
 _atom_site_label
 _atom_site_symmetry_multiplicity
 _atom_site_fract_x
 _atom_site_fract_y
 _atom_site_fract_z
 _atom_site_occupancy
  O  O0  1  0.78105706  0.79132501  0.85961980  1.0
  O  O1  1  0.78105706  0.70867499  0.35961980  1.0
  O  O2  1  0.21894294  0.29132501  0.64038020  1.0
  O  O3  1  0.21894294  0.20867499  0.14038020  1.0
  O  O4  1  0.73398618  0.56955369  0.68193024  1.0
  O  O5  1  0.73398618  0.93044631  0.18193024  1.0
  O  O6  1  0.26601382  0.06955369  0.81806976  1.0
  O  O7  1  0.26601382  0.43044631  0.31806976  1.0
  O  O8  1  0.57606276  0.94939025  0.71430909  1.0
  O  O9  1  0.57606276  0.55060975  0.21430909  1.0
  O  O10  1  0.42393724  0.44939025  0.78569091  1.0
  O  O11  1  0.42393724  0.05060975  0.28569091  1.0
  O  O12  1  0.48182574  0.79919439  0.96865483  1.0
  O  O13  1  0.48182574  0.70080561  0.46865483  1.0
  O  O14  1  0.51817426  0.29919439  0.53134517  1.0
  O  O15  1  0.51817426  0.20080561  0.03134517  1.0
  O  O16  1  0.85939061  0.34679888  0.57214764  1.0
  O  O17  1  0.85939061  0.15320112  0.07214764  1.0
  O  O18  1  0.14060939  0.84679888  0.92785236  1.0
  O  O19  1  0.14060939  0.65320112  0.42785236  1.0
  O  O20  1  0.89006112  0.45853842  1.11259024  1.0
  O  O21  1  0.89006112  0.04146158  0.61259024  1.0
  O  O22  1  0.10993888  0.95853842  0.38740976  1.0
  O  O23  1  0.10993888  0.54146158  -0.11259024  1.0
  O  O24  1  0.86502258  0.23515546  0.57442448  1.0
  O  O25  1  0.86502258  0.26484454  0.07442448  1.0
  O  O26  1  0.13497742  0.73515546  0.92557552  1.0
  O  O27  1  0.13497742  0.76484454  0.42557552  1.0
  Bi  Bi28  1  0.93600275  0.87422171  0.54354700  1.0
  Bi  Bi29  1  0.93600275  0.62577829  0.04354700  1.0
  Bi  Bi30  1  0.06399725  0.37422171  0.95645300  1.0
  Bi  Bi31  1  0.06399725  0.12577829  0.45645300  1.0
  Bi  Bi32  1  0.30494002  0.62567768  0.79801296  1.0
  Bi  Bi33  1  0.30494002  0.87432232  0.29801296  1.0
  Bi  Bi34  1  0.69505998  0.12567768  0.70198704  1.0
  Bi  Bi35  1  0.69505998  0.37432232  0.20198704  1.0
  Se  Se36  1  0.64248625  0.86443745  0.93608372  1.0
  Se  Se37  1  0.64248625  0.63556255  0.43608372  1.0
  Se  Se38  1  0.35751375  0.36443745  0.56391628  1.0
  Se  Se39  1  0.35751375  0.13556255  0.06391628  1.0
