# generated using pymatgen
data_NaGa3Te5
_symmetry_space_group_name_H-M   'P 1'
_cell_length_a   10.52405093
_cell_length_b   10.52405093
_cell_length_c   10.52405093
_cell_angle_alpha   90.52337343
_cell_angle_beta   90.52337343
_cell_angle_gamma   90.52337343
_symmetry_Int_Tables_number   1
_chemical_formula_structural   NaGa3Te5
_chemical_formula_sum   'Na4 Ga12 Te20'
_cell_volume   1165.45129761
_cell_formula_units_Z   4
loop_
 _symmetry_equiv_pos_site_id
 _symmetry_equiv_pos_as_xyz
  1  'x, y, z'
loop_
 _atom_site_type_symbol
 _atom_site_label
 _atom_site_symmetry_multiplicity
 _atom_site_fract_x
 _atom_site_fract_y
 _atom_site_fract_z
 _atom_site_occupancy
  Na  Na0  1  0.75697561  0.50000000  0.24302439  1.0
  Na  Na1  1  0.50000000  1.24302439  -0.24302439  1.0
  Na  Na2  1  1.24302439  -0.24302439  0.50000000  1.0
  Na  Na3  1  0.00000000  0.00000000  0.00000000  1.0
  Ga  Ga4  1  1.66184907  -0.07328344  0.62190917  1.0
  Ga  Ga5  1  0.37809083  1.07328344  -0.66184907  1.0
  Ga  Ga6  1  1.07328344  0.33815093  -0.62190917  1.0
  Ga  Ga7  1  0.33815093  0.37809083  0.07328344  1.0
  Ga  Ga8  1  1.62190917  0.66184907  -0.07328344  1.0
  Ga  Ga9  1  0.92671656  0.62190917  0.66184907  1.0
  Ga  Ga10  1  0.84306752  1.24783108  -0.33527723  1.0
  Ga  Ga11  1  1.33527723  -0.24783108  0.15693248  1.0
  Ga  Ga12  1  0.75216892  0.15693248  0.33527723  1.0
  Ga  Ga13  1  1.15693248  0.33527723  -0.24783108  1.0
  Ga  Ga14  1  0.66472277  0.84306752  0.24783108  1.0
  Ga  Ga15  1  1.24783108  0.66472277  -0.15693248  1.0
  Te  Te16  1  0.75094132  1.06996395  -0.18715093  1.0
  Te  Te17  1  1.18715093  -0.06996395  0.24905868  1.0
  Te  Te18  1  0.93003605  0.24905868  0.18715093  1.0
  Te  Te19  1  1.24905868  0.18715093  -0.06996395  1.0
  Te  Te20  1  0.81284907  0.75094132  0.06996395  1.0
  Te  Te21  1  1.06996395  0.81284907  -0.24905868  1.0
  Te  Te22  1  0.56989597  0.06967640  0.17321682  1.0
  Te  Te23  1  0.82678318  0.93032360  0.43010403  1.0
  Te  Te24  1  0.93032360  1.43010403  -0.17321682  1.0
  Te  Te25  1  1.43010403  0.82678318  -0.06967640  1.0
  Te  Te26  1  1.17321682  -0.43010403  0.06967640  1.0
  Te  Te27  1  1.06967640  0.17321682  -0.43010403  1.0
  Te  Te28  1  1.32731987  0.50000000  -0.32731987  1.0
  Te  Te29  1  0.50000000  0.67268013  0.32731987  1.0
  Te  Te30  1  0.67268013  0.32731987  0.50000000  1.0
  Te  Te31  1  0.42293060  1.00000000  -0.42293060  1.0
  Te  Te32  1  1.00000000  0.57706940  -0.57706940  1.0
  Te  Te33  1  0.57706940  0.42293060  0.00000000  1.0
  Te  Te34  1  0.67274757  0.67274757  0.67274757  1.0
  Te  Te35  1  0.32725243  0.32725243  0.32725243  1.0
