# generated using pymatgen
data_NaC2N3
_symmetry_space_group_name_H-M   'P 1'
_cell_length_a   3.66809321
_cell_length_b   15.13983284
_cell_length_c   7.52078700
_cell_angle_alpha   90.00000000
_cell_angle_beta   118.78719064
_cell_angle_gamma   90.00000000
_symmetry_Int_Tables_number   1
_chemical_formula_structural   NaC2N3
_chemical_formula_sum   'Na4 C8 N12'
_cell_volume   366.04477943
_cell_formula_units_Z   4
loop_
 _symmetry_equiv_pos_site_id
 _symmetry_equiv_pos_as_xyz
  1  'x, y, z'
loop_
 _atom_site_type_symbol
 _atom_site_label
 _atom_site_symmetry_multiplicity
 _atom_site_fract_x
 _atom_site_fract_y
 _atom_site_fract_z
 _atom_site_occupancy
  Na  Na0  1  0.11009064  0.08777401  0.35843273  1.0
  Na  Na1  1  0.11009064  0.41222599  0.85843273  1.0
  Na  Na2  1  0.88990936  0.58777401  0.14156727  1.0
  Na  Na3  1  0.88990936  0.91222599  0.64156727  1.0
  C  C4  1  0.69759774  0.27251257  0.44591481  1.0
  C  C5  1  0.69759774  0.22748743  0.94591481  1.0
  C  C6  1  0.30240226  0.77251257  0.05408519  1.0
  C  C7  1  0.30240226  0.72748743  0.55408519  1.0
  C  C8  1  0.58818975  0.41718527  0.33858303  1.0
  C  C9  1  0.58818975  0.08281473  0.83858303  1.0
  C  C10  1  0.41181025  0.91718527  0.16141697  1.0
  C  C11  1  0.41181025  0.58281473  0.66141697  1.0
  N  N12  1  0.73196643  0.35717981  0.47828407  1.0
  N  N13  1  0.73196643  0.14282019  0.97828407  1.0
  N  N14  1  0.26803357  0.85717981  0.02171593  1.0
  N  N15  1  0.26803357  0.64282019  0.52171593  1.0
  N  N16  1  0.68562424  0.19477936  0.43532042  1.0
  N  N17  1  0.68562424  0.30522064  0.93532042  1.0
  N  N18  1  0.31437576  0.69477936  0.06467958  1.0
  N  N19  1  0.31437576  0.80522064  0.56467958  1.0
  N  N20  1  0.47156642  0.47765453  0.22517419  1.0
  N  N21  1  0.47156642  0.02234547  0.72517419  1.0
  N  N22  1  0.52843358  0.97765453  0.27482581  1.0
  N  N23  1  0.52843358  0.52234547  0.77482581  1.0
