# generated using pymatgen
data_Nb3Ge
_symmetry_space_group_name_H-M   'P 1'
_cell_length_a   10.34068200
_cell_length_b   10.34068200
_cell_length_c   5.26267597
_cell_angle_alpha   90.00000000
_cell_angle_beta   90.00000000
_cell_angle_gamma   90.00000000
_symmetry_Int_Tables_number   1
_chemical_formula_structural   Nb3Ge
_chemical_formula_sum   'Nb24 Ge8'
_cell_volume   562.73638544
_cell_formula_units_Z   8
loop_
 _symmetry_equiv_pos_site_id
 _symmetry_equiv_pos_as_xyz
  1  'x, y, z'
loop_
 _atom_site_type_symbol
 _atom_site_label
 _atom_site_symmetry_multiplicity
 _atom_site_fract_x
 _atom_site_fract_y
 _atom_site_fract_z
 _atom_site_occupancy
  Nb  Nb0  1  0.48417802  0.35155015  1.22162613  1.0
  Nb  Nb1  1  0.98417802  0.85155015  0.27837387  1.0
  Nb  Nb2  1  0.35155015  0.51582198  -0.22162613  1.0
  Nb  Nb3  1  0.85155015  0.01582198  0.72162613  1.0
  Nb  Nb4  1  0.51582198  0.64844985  1.22162613  1.0
  Nb  Nb5  1  0.01582198  0.14844985  0.27837387  1.0
  Nb  Nb6  1  0.64844985  0.48417802  -0.22162613  1.0
  Nb  Nb7  1  0.14844985  0.98417802  0.72162613  1.0
  Nb  Nb8  1  0.30930568  0.78701252  0.48527412  1.0
  Nb  Nb9  1  0.80930568  0.28701252  0.01472588  1.0
  Nb  Nb10  1  0.78701252  0.69069432  0.51472588  1.0
  Nb  Nb11  1  0.28701252  0.19069432  0.98527412  1.0
  Nb  Nb12  1  0.69069432  0.21298748  0.48527412  1.0
  Nb  Nb13  1  0.19069432  0.71298748  0.01472588  1.0
  Nb  Nb14  1  0.21298748  0.30930568  0.51472588  1.0
  Nb  Nb15  1  0.71298748  0.80930568  0.98527412  1.0
  Nb  Nb16  1  1.09548478  0.41607335  0.03561090  1.0
  Nb  Nb17  1  0.59548478  0.91607335  0.46438910  1.0
  Nb  Nb18  1  0.41607335  -0.09548478  0.96438910  1.0
  Nb  Nb19  1  0.91607335  0.40451522  0.53561090  1.0
  Nb  Nb20  1  -0.09548478  0.58392665  0.03561090  1.0
  Nb  Nb21  1  0.40451522  0.08392665  0.46438910  1.0
  Nb  Nb22  1  0.58392665  1.09548478  0.96438910  1.0
  Nb  Nb23  1  0.08392665  0.59548478  0.53561090  1.0
  Ge  Ge24  1  0.47317267  0.29513867  0.71747621  1.0
  Ge  Ge25  1  0.97317267  0.79513867  -0.21747621  1.0
  Ge  Ge26  1  0.29513867  0.52682733  0.28252379  1.0
  Ge  Ge27  1  0.79513867  0.02682733  1.21747621  1.0
  Ge  Ge28  1  0.52682733  0.70486133  0.71747621  1.0
  Ge  Ge29  1  0.02682733  0.20486133  -0.21747621  1.0
  Ge  Ge30  1  0.70486133  0.47317267  0.28252379  1.0
  Ge  Ge31  1  0.20486133  0.97317267  1.21747621  1.0
