# generated using pymatgen
data_BiPPb2
_symmetry_space_group_name_H-M   'P 1'
_cell_length_a   4.75859238
_cell_length_b   7.79028170
_cell_length_c   14.30653043
_cell_angle_alpha   90.00000000
_cell_angle_beta   90.00000000
_cell_angle_gamma   90.00000000
_symmetry_Int_Tables_number   1
_chemical_formula_structural   BiPPb2
_chemical_formula_sum   'Bi4 P4 Pb8'
_cell_volume   530.35417292
_cell_formula_units_Z   4
loop_
 _symmetry_equiv_pos_site_id
 _symmetry_equiv_pos_as_xyz
  1  'x, y, z'
loop_
 _atom_site_type_symbol
 _atom_site_label
 _atom_site_symmetry_multiplicity
 _atom_site_fract_x
 _atom_site_fract_y
 _atom_site_fract_z
 _atom_site_occupancy
  Bi  Bi0  1  0.68340682  0.25000000  0.33820520  1.0
  Bi  Bi1  1  0.18340682  0.25000000  0.16179480  1.0
  Bi  Bi2  1  0.31659318  0.75000000  0.66179480  1.0
  Bi  Bi3  1  0.81659318  0.75000000  0.83820520  1.0
  P  P4  1  0.14115151  0.75000000  0.01287939  1.0
  P  P5  1  0.64115151  0.75000000  0.48712061  1.0
  P  P6  1  0.85884849  0.25000000  0.98712061  1.0
  P  P7  1  0.35884849  0.25000000  0.51287939  1.0
  Pb  Pb8  1  0.70490887  0.52293872  0.10458173  1.0
  Pb  Pb9  1  0.20490887  0.97706128  0.39541827  1.0
  Pb  Pb10  1  0.29509113  0.02293872  0.89541827  1.0
  Pb  Pb11  1  0.79509113  0.47706128  0.60458173  1.0
  Pb  Pb12  1  0.29509113  0.47706128  0.89541827  1.0
  Pb  Pb13  1  0.79509113  0.02293872  0.60458173  1.0
  Pb  Pb14  1  0.70490887  0.97706128  0.10458173  1.0
  Pb  Pb15  1  0.20490887  0.52293872  0.39541827  1.0
