# generated using pymatgen
data_Zr2CuSi4
_symmetry_space_group_name_H-M   'P 1'
_cell_length_a   16.57827111
_cell_length_b   16.57827111
_cell_length_c   3.68993404
_cell_angle_alpha   90.00000000
_cell_angle_beta   90.00000000
_cell_angle_gamma   167.15955872
_symmetry_Int_Tables_number   1
_chemical_formula_structural   Zr2CuSi4
_chemical_formula_sum   'Zr4 Cu2 Si8'
_cell_volume   225.37872946
_cell_formula_units_Z   2
loop_
 _symmetry_equiv_pos_site_id
 _symmetry_equiv_pos_as_xyz
  1  'x, y, z'
loop_
 _atom_site_type_symbol
 _atom_site_label
 _atom_site_symmetry_multiplicity
 _atom_site_fract_x
 _atom_site_fract_y
 _atom_site_fract_z
 _atom_site_occupancy
  Zr  Zr0  1  0.17633627  0.82366373  0.75000000  1.0
  Zr  Zr1  1  -0.17633627  0.17633627  0.25000000  1.0
  Zr  Zr2  1  0.45336836  0.54663164  0.75000000  1.0
  Zr  Zr3  1  -0.45336836  0.45336836  0.25000000  1.0
  Cu  Cu4  1  -0.24996454  0.24996454  0.75000000  1.0
  Cu  Cu5  1  0.24996454  0.75003546  0.25000000  1.0
  Si  Si6  1  0.02407403  0.97592597  0.75000000  1.0
  Si  Si7  1  -0.02407403  0.02407403  0.25000000  1.0
  Si  Si8  1  0.29693621  0.70306379  0.75000000  1.0
  Si  Si9  1  -0.29693621  0.29693621  0.25000000  1.0
  Si  Si10  1  -0.38759032  0.38759032  0.75000000  1.0
  Si  Si11  1  0.38759032  0.61240968  0.25000000  1.0
  Si  Si12  1  -0.11210216  0.11210216  0.75000000  1.0
  Si  Si13  1  0.11210216  0.88789784  0.25000000  1.0
