# generated using pymatgen
data_La2Sc3Si4
_symmetry_space_group_name_H-M   'P 1'
_cell_length_a   7.30316765
_cell_length_b   14.33256056
_cell_length_c   7.61010295
_cell_angle_alpha   90.00000000
_cell_angle_beta   90.00000000
_cell_angle_gamma   90.00000000
_symmetry_Int_Tables_number   1
_chemical_formula_structural   La2Sc3Si4
_chemical_formula_sum   'La8 Sc12 Si16'
_cell_volume   796.57301065
_cell_formula_units_Z   4
loop_
 _symmetry_equiv_pos_site_id
 _symmetry_equiv_pos_as_xyz
  1  'x, y, z'
loop_
 _atom_site_type_symbol
 _atom_site_label
 _atom_site_symmetry_multiplicity
 _atom_site_fract_x
 _atom_site_fract_y
 _atom_site_fract_z
 _atom_site_occupancy
  La  La0  1  0.48829858  0.90227328  0.67146074  1.0
  La  La1  1  0.48829858  0.59772672  0.67146074  1.0
  La  La2  1  0.98829858  0.90227328  0.82853926  1.0
  La  La3  1  0.98829858  0.59772672  0.82853926  1.0
  La  La4  1  0.51170142  0.40227328  0.32853926  1.0
  La  La5  1  0.51170142  0.09772672  0.32853926  1.0
  La  La6  1  0.01170142  0.40227328  0.17146074  1.0
  La  La7  1  0.01170142  0.09772672  0.17146074  1.0
  Sc  Sc8  1  0.33983426  0.25000000  -0.00319723  1.0
  Sc  Sc9  1  0.83983426  0.25000000  0.50319723  1.0
  Sc  Sc10  1  0.66016574  0.75000000  1.00319723  1.0
  Sc  Sc11  1  0.16016574  0.75000000  0.49680277  1.0
  Sc  Sc12  1  0.17128059  0.37474773  0.67527233  1.0
  Sc  Sc13  1  0.17128059  0.12525227  0.67527233  1.0
  Sc  Sc14  1  0.67128059  0.37474773  0.82472767  1.0
  Sc  Sc15  1  0.67128059  0.12525227  0.82472767  1.0
  Sc  Sc16  1  0.82871941  0.87474773  0.32472767  1.0
  Sc  Sc17  1  0.82871941  0.62525227  0.32472767  1.0
  Sc  Sc18  1  0.32871941  0.87474773  0.17527233  1.0
  Sc  Sc19  1  0.32871941  0.62525227  0.17527233  1.0
  Si  Si20  1  0.35051993  0.46016233  0.96282769  1.0
  Si  Si21  1  0.35051993  0.03983767  0.96282769  1.0
  Si  Si22  1  0.85051993  0.46016233  0.53717231  1.0
  Si  Si23  1  0.85051993  0.03983767  0.53717231  1.0
  Si  Si24  1  0.64948007  0.96016233  0.03717231  1.0
  Si  Si25  1  0.64948007  0.53983767  0.03717231  1.0
  Si  Si26  1  0.14948007  0.96016233  0.46282769  1.0
  Si  Si27  1  0.14948007  0.53983767  0.46282769  1.0
  Si  Si28  1  0.46663807  0.25000000  0.62846943  1.0
  Si  Si29  1  0.96663807  0.25000000  0.87153057  1.0
  Si  Si30  1  0.53336193  0.75000000  0.37153057  1.0
  Si  Si31  1  0.03336193  0.75000000  0.12846943  1.0
  Si  Si32  1  0.21065948  0.25000000  0.38602318  1.0
  Si  Si33  1  0.71065948  0.25000000  0.11397682  1.0
  Si  Si34  1  0.78934052  0.75000000  0.61397682  1.0
  Si  Si35  1  0.28934052  0.75000000  0.88602318  1.0
