# generated using pymatgen
data_LuFe4(CuO4)3
_symmetry_space_group_name_H-M   'P 1'
_cell_length_a   7.26664336
_cell_length_b   7.26664336
_cell_length_c   7.26664336
_cell_angle_alpha   90.00000000
_cell_angle_beta   90.00000000
_cell_angle_gamma   90.00000000
_symmetry_Int_Tables_number   1
_chemical_formula_structural   LuFe4(CuO4)3
_chemical_formula_sum   'Lu2 Fe8 Cu6 O24'
_cell_volume   383.70860491
_cell_formula_units_Z   2
loop_
 _symmetry_equiv_pos_site_id
 _symmetry_equiv_pos_as_xyz
  1  'x, y, z'
loop_
 _atom_site_type_symbol
 _atom_site_label
 _atom_site_symmetry_multiplicity
 _atom_site_fract_x
 _atom_site_fract_y
 _atom_site_fract_z
 _atom_site_occupancy
  Lu  Lu0  1  0.00000000  0.00000000  0.00000000  1.0
  Lu  Lu1  1  0.50000000  0.50000000  0.50000000  1.0
  Fe  Fe2  1  0.75000000  0.75000000  0.25000000  1.0
  Fe  Fe3  1  0.75000000  0.25000000  0.75000000  1.0
  Fe  Fe4  1  0.25000000  0.25000000  0.25000000  1.0
  Fe  Fe5  1  0.25000000  0.75000000  0.75000000  1.0
  Fe  Fe6  1  0.25000000  0.25000000  0.75000000  1.0
  Fe  Fe7  1  0.25000000  0.75000000  0.25000000  1.0
  Fe  Fe8  1  0.75000000  0.75000000  0.75000000  1.0
  Fe  Fe9  1  0.75000000  0.25000000  0.25000000  1.0
  Cu  Cu10  1  0.00000000  0.50000000  0.50000000  1.0
  Cu  Cu11  1  0.50000000  0.00000000  0.00000000  1.0
  Cu  Cu12  1  0.50000000  0.50000000  0.00000000  1.0
  Cu  Cu13  1  0.00000000  0.00000000  0.50000000  1.0
  Cu  Cu14  1  0.50000000  0.00000000  0.50000000  1.0
  Cu  Cu15  1  0.00000000  0.50000000  0.00000000  1.0
  O  O16  1  0.17569699  0.00000108  0.29970935  1.0
  O  O17  1  0.17569699  0.99999892  0.70029065  1.0
  O  O18  1  0.67569699  0.50000108  0.20029065  1.0
  O  O19  1  0.67569699  0.49999892  0.79970935  1.0
  O  O20  1  0.00000108  0.70029065  0.82430301  1.0
  O  O21  1  0.00000108  0.29970935  0.17569699  1.0
  O  O22  1  0.50000108  0.20029065  0.67569699  1.0
  O  O23  1  0.50000108  0.79970935  0.32430301  1.0
  O  O24  1  0.70029065  0.17569699  0.99999892  1.0
  O  O25  1  0.70029065  0.82430301  0.00000108  1.0
  O  O26  1  0.20029065  0.67569699  0.50000108  1.0
  O  O27  1  0.20029065  0.32430301  0.49999892  1.0
  O  O28  1  0.32430301  0.50000108  0.79970935  1.0
  O  O29  1  0.32430301  0.49999892  0.20029065  1.0
  O  O30  1  0.82430301  0.00000108  0.70029065  1.0
  O  O31  1  0.82430301  0.99999892  0.29970935  1.0
  O  O32  1  0.49999892  0.20029065  0.32430301  1.0
  O  O33  1  0.49999892  0.79970935  0.67569699  1.0
  O  O34  1  0.99999892  0.70029065  0.17569699  1.0
  O  O35  1  0.99999892  0.29970935  0.82430301  1.0
  O  O36  1  0.79970935  0.67569699  0.49999892  1.0
  O  O37  1  0.79970935  0.32430301  0.50000108  1.0
  O  O38  1  0.29970935  0.17569699  0.00000108  1.0
  O  O39  1  0.29970935  0.82430301  0.99999892  1.0
