# generated using pymatgen
data_EuCu2GeS4
_symmetry_space_group_name_H-M   'P 1'
_cell_length_a   6.15542838
_cell_length_b   6.15542838
_cell_length_c   15.24621946
_cell_angle_alpha   90.00000000
_cell_angle_beta   90.00000000
_cell_angle_gamma   120.00000000
_symmetry_Int_Tables_number   1
_chemical_formula_structural   EuCu2GeS4
_chemical_formula_sum   'Eu3 Cu6 Ge3 S12'
_cell_volume   500.27564930
_cell_formula_units_Z   3
loop_
 _symmetry_equiv_pos_site_id
 _symmetry_equiv_pos_as_xyz
  1  'x, y, z'
loop_
 _atom_site_type_symbol
 _atom_site_label
 _atom_site_symmetry_multiplicity
 _atom_site_fract_x
 _atom_site_fract_y
 _atom_site_fract_z
 _atom_site_occupancy
  Eu  Eu0  1  0.33348067  0.21660089  0.83365728  1.0
  Eu  Eu1  1  0.88312022  0.66651933  0.50032395  1.0
  Eu  Eu2  1  0.78339911  0.11687978  0.16699062  1.0
  Cu  Cu3  1  0.98321170  0.74190657  0.25495113  1.0
  Cu  Cu4  1  0.75869486  0.01678830  0.92161779  1.0
  Cu  Cu5  1  0.25809343  0.24130514  0.58828446  1.0
  Cu  Cu6  1  0.90803913  0.59141976  0.74564215  1.0
  Cu  Cu7  1  0.68338063  0.09196087  0.41230882  1.0
  Cu  Cu8  1  0.40858024  0.31661937  0.07897548  1.0
  Ge  Ge9  1  0.04267387  0.66675382  0.00032284  1.0
  Ge  Ge10  1  0.62407995  0.95732613  0.66698951  1.0
  Ge  Ge11  1  0.33324618  0.37592005  0.33365618  1.0
  S  S12  1  0.23141341  0.90439327  0.66790027  1.0
  S  S13  1  0.67297986  0.76858659  0.33456693  1.0
  S  S14  1  0.09560673  0.32702014  0.00123360  1.0
  S  S15  1  0.82946103  0.69737504  0.88452172  1.0
  S  S16  1  0.86791401  0.17053897  0.55118839  1.0
  S  S17  1  0.30262496  0.13208599  0.21785506  1.0
  S  S18  1  0.79865494  0.63608715  0.11607247  1.0
  S  S19  1  0.83743222  0.20134506  0.78273914  1.0
  S  S20  1  0.36391285  0.16256778  0.44940580  1.0
  S  S21  1  0.57102470  0.56461025  0.66606547  1.0
  S  S22  1  0.99358556  0.42897530  0.33273214  1.0
  S  S23  1  0.43538975  0.00641444  -0.00060119  1.0
