# generated using pymatgen
data_Sm2Te4O11
_symmetry_space_group_name_H-M   'P 1'
_cell_length_a   6.87690344
_cell_length_b   6.87690344
_cell_length_c   16.81404186
_cell_angle_alpha   76.89017426
_cell_angle_beta   103.10982574
_cell_angle_gamma   134.70694337
_symmetry_Int_Tables_number   1
_chemical_formula_structural   Sm2Te4O11
_chemical_formula_sum   'Sm4 Te8 O22'
_cell_volume   547.80261513
_cell_formula_units_Z   2
loop_
 _symmetry_equiv_pos_site_id
 _symmetry_equiv_pos_as_xyz
  1  'x, y, z'
loop_
 _atom_site_type_symbol
 _atom_site_label
 _atom_site_symmetry_multiplicity
 _atom_site_fract_x
 _atom_site_fract_y
 _atom_site_fract_z
 _atom_site_occupancy
  Sm  Sm0  1  1.62342528  -0.12912051  0.45852223  1.0
  Sm  Sm1  1  1.12912051  0.37657472  0.95852223  1.0
  Sm  Sm2  1  0.87087949  -0.37657472  0.04147777  1.0
  Sm  Sm3  1  0.37657472  0.12912051  0.54147777  1.0
  Te  Te4  1  0.66171684  -0.09554023  0.80042358  1.0
  Te  Te5  1  1.09554023  -0.66171684  0.30042358  1.0
  Te  Te6  1  0.90445977  0.66171684  0.69957642  1.0
  Te  Te7  1  1.33828316  0.09554023  0.19957642  1.0
  Te  Te8  1  0.34509623  0.09010541  0.87498590  1.0
  Te  Te9  1  0.90989459  0.65490377  0.37498590  1.0
  Te  Te10  1  1.09010541  -0.65490377  0.62501410  1.0
  Te  Te11  1  1.65490377  -0.09010541  0.12501410  1.0
  O  O12  1  1.91330421  -0.04279320  0.89780036  1.0
  O  O13  1  1.04279320  -0.91330421  0.39780036  1.0
  O  O14  1  0.95720680  0.91330421  0.60219964  1.0
  O  O15  1  0.08669579  0.04279320  0.10219964  1.0
  O  O16  1  1.74952693  0.16258778  0.55202429  1.0
  O  O17  1  0.83741222  -0.74952693  0.05202429  1.0
  O  O18  1  1.16258778  0.74952693  0.94797571  1.0
  O  O19  1  0.25047307  -0.16258778  0.44797571  1.0
  O  O20  1  0.68831430  0.17618098  0.87206550  1.0
  O  O21  1  0.82381902  -0.68831430  0.37206550  1.0
  O  O22  1  1.17618098  0.68831430  0.62793450  1.0
  O  O23  1  1.31168570  -0.17618098  0.12793450  1.0
  O  O24  1  0.59653757  0.29428584  0.66970942  1.0
  O  O25  1  0.70571416  -0.59653757  0.16970942  1.0
  O  O26  1  1.29428584  0.59653757  0.83029058  1.0
  O  O27  1  1.40346243  -0.29428584  0.33029058  1.0
  O  O28  1  0.46472191  0.32935870  0.95425645  1.0
  O  O29  1  0.67064130  0.53527809  0.45425645  1.0
  O  O30  1  1.32935870  -0.53527809  0.54574355  1.0
  O  O31  1  1.53527809  -0.32935870  0.04574355  1.0
  O  O32  1  0.63735842  0.63735842  0.75000000  1.0
  O  O33  1  0.36264158  0.36264158  0.25000000  1.0
