# generated using pymatgen
data_PdPb2F6
_symmetry_space_group_name_H-M   'P 1'
_cell_length_a   8.98633185
_cell_length_b   8.98633185
_cell_length_c   6.00082950
_cell_angle_alpha   90.00000000
_cell_angle_beta   90.00000000
_cell_angle_gamma   39.12737402
_symmetry_Int_Tables_number   1
_chemical_formula_structural   PdPb2F6
_chemical_formula_sum   'Pd2 Pb4 F12'
_cell_volume   305.80005346
_cell_formula_units_Z   2
loop_
 _symmetry_equiv_pos_site_id
 _symmetry_equiv_pos_as_xyz
  1  'x, y, z'
loop_
 _atom_site_type_symbol
 _atom_site_label
 _atom_site_symmetry_multiplicity
 _atom_site_fract_x
 _atom_site_fract_y
 _atom_site_fract_z
 _atom_site_occupancy
  Pd  Pd0  1  -0.50000000  0.50000000  0.50000000  1.0
  Pd  Pd1  1  0.00000000  0.00000000  0.00000000  1.0
  Pb  Pb2  1  0.16218935  1.16218935  0.50000000  1.0
  Pb  Pb3  1  0.66218935  0.66218935  0.00000000  1.0
  Pb  Pb4  1  0.83781065  0.83781065  0.50000000  1.0
  Pb  Pb5  1  0.33781065  1.33781065  0.00000000  1.0
  F  F6  1  0.57861846  1.25130276  0.33535862  1.0
  F  F7  1  0.07861846  1.75130276  0.16464138  1.0
  F  F8  1  0.25130276  1.57861846  0.66464138  1.0
  F  F9  1  0.75130276  1.07861846  0.83535862  1.0
  F  F10  1  -0.25130276  1.42138154  0.33535862  1.0
  F  F11  1  0.24869724  0.92138154  0.16464138  1.0
  F  F12  1  0.42138154  0.74869724  0.66464138  1.0
  F  F13  1  -0.07861846  1.24869724  0.83535862  1.0
  F  F14  1  0.51274453  0.98725547  0.25000000  1.0
  F  F15  1  0.01274453  1.48725547  0.25000000  1.0
  F  F16  1  -0.01274453  1.51274453  0.75000000  1.0
  F  F17  1  0.48725547  1.01274453  0.75000000  1.0
