# generated using pymatgen
data_GeSe
_symmetry_space_group_name_H-M   'P 1'
_cell_length_a   11.18889309
_cell_length_b   3.88587609
_cell_length_c   4.51092758
_cell_angle_alpha   90.00000000
_cell_angle_beta   90.00000000
_cell_angle_gamma   90.00000000
_symmetry_Int_Tables_number   1
_chemical_formula_structural   GeSe
_chemical_formula_sum   'Ge4 Se4'
_cell_volume   196.12905067
_cell_formula_units_Z   4
loop_
 _symmetry_equiv_pos_site_id
 _symmetry_equiv_pos_as_xyz
  1  'x, y, z'
loop_
 _atom_site_type_symbol
 _atom_site_label
 _atom_site_symmetry_multiplicity
 _atom_site_fract_x
 _atom_site_fract_y
 _atom_site_fract_z
 _atom_site_occupancy
  Ge  Ge0  1  0.37306264  0.75000000  0.87994197  1.0
  Ge  Ge1  1  0.87306264  0.75000000  0.62005803  1.0
  Ge  Ge2  1  0.62693736  0.25000000  0.12005803  1.0
  Ge  Ge3  1  0.12693736  0.25000000  0.37994197  1.0
  Se  Se4  1  0.14691032  0.75000000  -0.00224092  1.0
  Se  Se5  1  0.64691032  0.75000000  0.50224092  1.0
  Se  Se6  1  0.85308968  0.25000000  1.00224092  1.0
  Se  Se7  1  0.35308968  0.25000000  0.49775908  1.0
