# generated using pymatgen
data_VCdO3
_symmetry_space_group_name_H-M   'P 1'
_cell_length_a   14.49203835
_cell_length_b   3.59626950
_cell_length_c   5.36237198
_cell_angle_alpha   90.00000000
_cell_angle_beta   90.00000000
_cell_angle_gamma   90.00000000
_symmetry_Int_Tables_number   1
_chemical_formula_structural   VCdO3
_chemical_formula_sum   'V4 Cd4 O12'
_cell_volume   279.47221825
_cell_formula_units_Z   4
loop_
 _symmetry_equiv_pos_site_id
 _symmetry_equiv_pos_as_xyz
  1  'x, y, z'
loop_
 _atom_site_type_symbol
 _atom_site_label
 _atom_site_symmetry_multiplicity
 _atom_site_fract_x
 _atom_site_fract_y
 _atom_site_fract_z
 _atom_site_occupancy
  V  V0  1  0.41818074  0.75000000  0.56876504  1.0
  V  V1  1  0.91818074  0.75000000  0.93123496  1.0
  V  V2  1  0.58181926  0.25000000  0.43123496  1.0
  V  V3  1  0.08181926  0.25000000  0.06876504  1.0
  Cd  Cd4  1  0.18151273  0.75000000  0.61118060  1.0
  Cd  Cd5  1  0.68151273  0.75000000  0.88881940  1.0
  Cd  Cd6  1  0.81848727  0.25000000  0.38881940  1.0
  Cd  Cd7  1  0.31848727  0.25000000  0.11118060  1.0
  O  O8  1  0.38524106  0.75000000  0.86953050  1.0
  O  O9  1  0.88524106  0.75000000  0.63046950  1.0
  O  O10  1  0.61475894  0.25000000  0.13046950  1.0
  O  O11  1  0.11475894  0.25000000  0.36953050  1.0
  O  O12  1  0.05465979  0.75000000  0.95710895  1.0
  O  O13  1  0.55465979  0.75000000  0.54289105  1.0
  O  O14  1  0.94534021  0.25000000  0.04289105  1.0
  O  O15  1  0.44534021  0.25000000  0.45710895  1.0
  O  O16  1  0.80952528  0.75000000  0.12867127  1.0
  O  O17  1  0.30952528  0.75000000  0.37132873  1.0
  O  O18  1  0.19047472  0.25000000  0.87132873  1.0
  O  O19  1  0.69047472  0.25000000  0.62867127  1.0
