# generated using pymatgen
data_CdSn2H12(OF)6
_symmetry_space_group_name_H-M   'P 1'
_cell_length_a   6.98628213
_cell_length_b   7.38170286
_cell_length_c   7.25142381
_cell_angle_alpha   74.24125582
_cell_angle_beta   72.43646780
_cell_angle_gamma   79.00267237
_symmetry_Int_Tables_number   1
_chemical_formula_structural   CdSn2H12(OF)6
_chemical_formula_sum   'Cd1 Sn2 H12 O6 F6'
_cell_volume   340.70605993
_cell_formula_units_Z   1
loop_
 _symmetry_equiv_pos_site_id
 _symmetry_equiv_pos_as_xyz
  1  'x, y, z'
loop_
 _atom_site_type_symbol
 _atom_site_label
 _atom_site_symmetry_multiplicity
 _atom_site_fract_x
 _atom_site_fract_y
 _atom_site_fract_z
 _atom_site_occupancy
  Cd  Cd0  1  0.00000000  0.00000000  0.00000000  1.0
  Sn  Sn1  1  0.65998064  0.65008547  0.69038146  1.0
  Sn  Sn2  1  0.34001936  0.34991453  0.30961854  1.0
  H  H3  1  0.91224773  0.62203949  0.21064122  1.0
  H  H4  1  0.08775227  0.37796051  0.78935878  1.0
  H  H5  1  0.73388427  0.71604161  0.11031596  1.0
  H  H6  1  0.26611573  0.28395839  0.88968404  1.0
  H  H7  1  0.63581481  0.19364007  0.90309501  1.0
  H  H8  1  0.36418519  0.80635993  0.09690499  1.0
  H  H9  1  0.73751707  0.06636247  0.74435139  1.0
  H  H10  1  0.26248293  0.93363753  0.25564861  1.0
  H  H11  1  0.22375154  0.92222462  0.62340422  1.0
  H  H12  1  0.77624846  0.07777538  0.37659578  1.0
  H  H13  1  0.10435230  0.74491144  0.73854408  1.0
  H  H14  1  0.89564770  0.25508856  0.26145592  1.0
  O  O15  1  0.82198792  0.74168108  0.18257329  1.0
  O  O16  1  0.17801208  0.25831892  0.81742671  1.0
  O  O17  1  0.76714065  0.14400955  0.82250352  1.0
  O  O18  1  0.23285935  0.85599045  0.17749648  1.0
  O  O19  1  0.18729336  0.83195241  0.75460003  1.0
  O  O20  1  0.81270664  0.16804759  0.24539997  1.0
  F  F21  1  0.95857628  0.59062551  0.72374721  1.0
  F  F22  1  0.04142372  0.40937449  0.27625279  1.0
  F  F23  1  0.70635917  0.93857900  0.60181804  1.0
  F  F24  1  0.29364083  0.06142100  0.39818196  1.0
  F  F25  1  0.57574145  0.68914284  0.98544703  1.0
  F  F26  1  0.42425855  0.31085716  0.01455297  1.0
