# generated using pymatgen
data_Nb2Hg3S(O2F5)2
_symmetry_space_group_name_H-M   'P 1'
_cell_length_a   10.68479682
_cell_length_b   9.30295393
_cell_length_c   12.24194562
_cell_angle_alpha   57.54078660
_cell_angle_beta   47.27766568
_cell_angle_gamma   75.18154771
_symmetry_Int_Tables_number   1
_chemical_formula_structural   Nb2Hg3S(O2F5)2
_chemical_formula_sum   'Nb4 Hg6 S2 O8 F20'
_cell_volume   742.68481681
_cell_formula_units_Z   2
loop_
 _symmetry_equiv_pos_site_id
 _symmetry_equiv_pos_as_xyz
  1  'x, y, z'
loop_
 _atom_site_type_symbol
 _atom_site_label
 _atom_site_symmetry_multiplicity
 _atom_site_fract_x
 _atom_site_fract_y
 _atom_site_fract_z
 _atom_site_occupancy
  Nb  Nb0  1  0.22180898  0.49165182  1.39650673  1.0
  Nb  Nb1  1  0.85349327  0.35996753  1.02819102  1.0
  Nb  Nb2  1  1.49165182  0.22180898  -0.10996753  1.0
  Nb  Nb3  1  0.35996753  -0.14650673  0.75834818  1.0
  Hg  Hg4  1  -0.12949961  0.44126920  1.33587541  1.0
  Hg  Hg5  1  0.91412459  -0.10235499  0.37949961  1.0
  Hg  Hg6  1  1.44126920  -0.12949961  0.35235499  1.0
  Hg  Hg7  1  0.89764501  -0.08587541  0.80873080  1.0
  Hg  Hg8  1  0.62679411  -0.37320589  0.37320589  1.0
  Hg  Hg9  1  0.87679411  -0.12320589  0.62320589  1.0
  S  S10  1  0.99682672  -0.00317328  0.00317328  1.0
  S  S11  1  0.24682672  0.24682672  1.25317328  1.0
  O  O12  1  0.30940103  0.36571870  1.26115318  1.0
  O  O13  1  0.98884682  -0.81372708  0.94059897  1.0
  O  O14  1  0.36571870  0.30940103  1.06372708  1.0
  O  O15  1  0.18627292  0.98884682  0.88428130  1.0
  O  O16  1  0.06520048  0.25585570  1.32816001  1.0
  O  O17  1  0.92183999  -0.10078381  0.18479952  1.0
  O  O18  1  0.25585570  0.06520048  1.35078381  1.0
  O  O19  1  0.89921619  -0.07816001  0.99414430  1.0
  F  F20  1  0.61880860  1.13705984  0.73661058  1.0
  F  F21  1  0.51338942  -0.25752097  0.63119140  1.0
  F  F22  1  1.13705984  -0.38119140  0.50752097  1.0
  F  F23  1  0.74247903  0.51338942  1.11294016  1.0
  F  F24  1  0.07308170  0.58641556  1.34503962  1.0
  F  F25  1  -0.09503962  0.25453687  1.17691830  1.0
  F  F26  1  1.58641556  0.07308170  -0.00453687  1.0
  F  F27  1  1.25453687  -0.09503962  0.66358444  1.0
  F  F28  1  0.36305369  0.39409252  1.45182687  1.0
  F  F29  1  0.79817313  -0.54102692  0.88694631  1.0
  F  F30  1  1.39409252  0.36305369  -0.20897308  1.0
  F  F31  1  0.45897308  -0.20182687  0.85590748  1.0
  F  F32  1  0.51022872  1.06964630  0.58058925  1.0
  F  F33  1  0.66941075  -0.58953573  0.73977128  1.0
  F  F34  1  1.06964630  -0.48977128  0.83953573  1.0
  F  F35  1  0.41046427  0.66941075  1.18035370  1.0
  F  F36  1  1.18130181  0.65548412  -0.03728492  1.0
  F  F37  1  0.28728492  0.04950101  1.06869819  1.0
  F  F38  1  0.65548412  0.18130181  1.20049899  1.0
  F  F39  1  0.04950101  0.28728492  1.59451588  1.0
