# generated using pymatgen
data_CrSiH8(O2F3)2
_symmetry_space_group_name_H-M   'P 1'
_cell_length_a   5.65581747
_cell_length_b   9.77840620
_cell_length_c   7.49538474
_cell_angle_alpha   90.00000000
_cell_angle_beta   101.17931907
_cell_angle_gamma   90.00000000
_symmetry_Int_Tables_number   1
_chemical_formula_structural   CrSiH8(O2F3)2
_chemical_formula_sum   'Cr2 Si2 H16 O8 F12'
_cell_volume   406.66570895
_cell_formula_units_Z   2
loop_
 _symmetry_equiv_pos_site_id
 _symmetry_equiv_pos_as_xyz
  1  'x, y, z'
loop_
 _atom_site_type_symbol
 _atom_site_label
 _atom_site_symmetry_multiplicity
 _atom_site_fract_x
 _atom_site_fract_y
 _atom_site_fract_z
 _atom_site_occupancy
  Cr  Cr0  1  0.50000000  0.50000000  0.00000000  1.0
  Cr  Cr1  1  0.50000000  0.00000000  0.50000000  1.0
  Si  Si2  1  0.00000000  0.50000000  0.50000000  1.0
  Si  Si3  1  0.00000000  0.00000000  0.00000000  1.0
  H  H4  1  0.74595293  0.86753327  0.27860049  1.0
  H  H5  1  0.74595293  0.63246673  0.77860049  1.0
  H  H6  1  0.25404707  0.36753327  0.22139951  1.0
  H  H7  1  0.25404707  0.13246673  0.72139951  1.0
  H  H8  1  0.72542699  0.23471374  0.45828832  1.0
  H  H9  1  0.72542699  0.26528626  0.95828832  1.0
  H  H10  1  0.27457301  0.73471374  0.04171168  1.0
  H  H11  1  0.27457301  0.76528626  0.54171168  1.0
  H  H12  1  0.74067703  0.77140136  0.45083441  1.0
  H  H13  1  0.74067703  0.72859864  0.95083441  1.0
  H  H14  1  0.25932297  0.27140136  0.04916559  1.0
  H  H15  1  0.25932297  0.22859864  0.54916559  1.0
  H  H16  1  0.73192021  0.14434320  0.28316836  1.0
  H  H17  1  0.73192021  0.35565680  0.78316836  1.0
  H  H18  1  0.26807979  0.64434320  0.21683164  1.0
  H  H19  1  0.26807979  0.85565680  0.71683164  1.0
  O  O20  1  0.72050893  0.86612486  0.40514740  1.0
  O  O21  1  0.72050893  0.63387514  0.90514740  1.0
  O  O22  1  0.27949107  0.36612486  0.09485260  1.0
  O  O23  1  0.27949107  0.13387514  0.59485260  1.0
  O  O24  1  0.64238064  0.16005604  0.38205212  1.0
  O  O25  1  0.64238064  0.33994396  0.88205212  1.0
  O  O26  1  0.35761936  0.66005604  0.11794788  1.0
  O  O27  1  0.35761936  0.83994396  0.61794788  1.0
  F  F28  1  0.86003497  0.13314065  0.09454805  1.0
  F  F29  1  0.86003497  0.36685935  0.59454805  1.0
  F  F30  1  0.13996503  0.63314065  0.40545195  1.0
  F  F31  1  0.13996503  0.86685935  0.90545195  1.0
  F  F32  1  0.81468833  0.47341650  0.29791522  1.0
  F  F33  1  0.81468833  0.02658350  0.79791522  1.0
  F  F34  1  0.18531167  0.97341650  0.20208478  1.0
  F  F35  1  0.18531167  0.52658350  0.70208478  1.0
  F  F36  1  0.20421010  0.38381213  0.43999938  1.0
  F  F37  1  0.20421010  0.11618787  0.93999938  1.0
  F  F38  1  0.79578990  0.88381213  0.06000062  1.0
  F  F39  1  0.79578990  0.61618787  0.56000062  1.0
