# generated using pymatgen
data_La3BeSbS7
_symmetry_space_group_name_H-M   'P 1'
_cell_length_a   10.24709448
_cell_length_b   10.24709448
_cell_length_c   6.37415139
_cell_angle_alpha   90.00000000
_cell_angle_beta   90.00000000
_cell_angle_gamma   120.00000000
_symmetry_Int_Tables_number   1
_chemical_formula_structural   La3BeSbS7
_chemical_formula_sum   'La6 Be2 Sb2 S14'
_cell_volume   579.63484698
_cell_formula_units_Z   2
loop_
 _symmetry_equiv_pos_site_id
 _symmetry_equiv_pos_as_xyz
  1  'x, y, z'
loop_
 _atom_site_type_symbol
 _atom_site_label
 _atom_site_symmetry_multiplicity
 _atom_site_fract_x
 _atom_site_fract_y
 _atom_site_fract_z
 _atom_site_occupancy
  La  La0  1  0.74462545  0.60207053  0.22214349  1.0
  La  La1  1  0.60207053  0.85744507  0.72214349  1.0
  La  La2  1  0.85744507  0.25537455  0.22214349  1.0
  La  La3  1  0.39792947  0.14255493  0.22214349  1.0
  La  La4  1  0.25537455  0.39792947  0.72214349  1.0
  La  La5  1  0.14255493  0.74462545  0.72214349  1.0
  Be  Be6  1  0.33333333  0.66666667  0.13359727  1.0
  Be  Be7  1  0.66666667  0.33333333  0.63359727  1.0
  Sb  Sb8  1  0.00000000  0.00000000  -0.02138221  1.0
  Sb  Sb9  1  -0.00000000  -0.00000000  0.47861779  1.0
  S  S10  1  0.40674303  0.88514511  0.00325309  1.0
  S  S11  1  0.88514511  0.47840209  0.50325309  1.0
  S  S12  1  0.47840209  0.59325697  0.00325309  1.0
  S  S13  1  0.11485489  0.52159791  0.00325309  1.0
  S  S14  1  0.59325697  0.11485489  0.50325309  1.0
  S  S15  1  0.52159791  0.40674303  0.50325309  1.0
  S  S16  1  0.09747165  0.84552019  0.28783674  1.0
  S  S17  1  0.84552019  0.74804854  0.78783674  1.0
  S  S18  1  0.74804854  0.90252835  0.28783674  1.0
  S  S19  1  0.15447981  0.25195146  0.28783674  1.0
  S  S20  1  0.90252835  0.15447981  0.78783674  1.0
  S  S21  1  0.25195146  0.09747165  0.78783674  1.0
  S  S22  1  0.33333333  0.66666667  0.47908496  1.0
  S  S23  1  0.66666667  0.33333333  -0.02091504  1.0
