# generated using pymatgen
data_Li4CO4
_symmetry_space_group_name_H-M   'P 1'
_cell_length_a   5.04962329
_cell_length_b   5.04962329
_cell_length_c   6.43714859
_cell_angle_alpha   50.40291443
_cell_angle_beta   129.59708557
_cell_angle_gamma   128.72041513
_symmetry_Int_Tables_number   1
_chemical_formula_structural   Li4CO4
_chemical_formula_sum   'Li4 C1 O4'
_cell_volume   90.56725338
_cell_formula_units_Z   1
loop_
 _symmetry_equiv_pos_site_id
 _symmetry_equiv_pos_as_xyz
  1  'x, y, z'
loop_
 _atom_site_type_symbol
 _atom_site_label
 _atom_site_symmetry_multiplicity
 _atom_site_fract_x
 _atom_site_fract_y
 _atom_site_fract_z
 _atom_site_occupancy
  Li  Li0  1  1.24810295  -0.41015613  0.15825265  1.0
  Li  Li1  1  0.58984387  0.24810295  0.84174735  1.0
  Li  Li2  1  1.50591477  -0.15229304  0.49996010  1.0
  Li  Li3  1  0.84770696  0.50591477  0.50003990  1.0
  C  C4  1  0.04788685  0.04788685  0.50000000  1.0
  O  O5  1  0.98104332  0.73073256  0.75032774  1.0
  O  O6  1  1.73073256  -0.01895668  0.24967226  1.0
  O  O7  1  0.36500924  0.11475949  0.49992107  1.0
  O  O8  1  1.11475949  -0.63499076  0.50007893  1.0
