# generated using pymatgen
data_BaFe2Se2O
_symmetry_space_group_name_H-M   'P 1'
_cell_length_a   4.05375095
_cell_length_b   9.77380788
_cell_length_c   6.90744246
_cell_angle_alpha   90.00000000
_cell_angle_beta   90.00000000
_cell_angle_gamma   90.00000000
_symmetry_Int_Tables_number   1
_chemical_formula_structural   BaFe2Se2O
_chemical_formula_sum   'Ba2 Fe4 Se4 O2'
_cell_volume   273.67689684
_cell_formula_units_Z   2
loop_
 _symmetry_equiv_pos_site_id
 _symmetry_equiv_pos_as_xyz
  1  'x, y, z'
loop_
 _atom_site_type_symbol
 _atom_site_label
 _atom_site_symmetry_multiplicity
 _atom_site_fract_x
 _atom_site_fract_y
 _atom_site_fract_z
 _atom_site_occupancy
  Ba  Ba0  1  0.50000000  0.00000000  0.52451123  1.0
  Ba  Ba1  1  0.00000000  0.50000000  0.47548877  1.0
  Fe  Fe2  1  0.50000000  0.67936267  0.10964150  1.0
  Fe  Fe3  1  0.50000000  0.32063733  0.10964150  1.0
  Fe  Fe4  1  0.00000000  0.17936267  0.89035850  1.0
  Fe  Fe5  1  0.00000000  0.82063733  0.89035850  1.0
  Se  Se6  1  0.50000000  0.70027519  0.75356401  1.0
  Se  Se7  1  0.50000000  0.29972481  0.75356401  1.0
  Se  Se8  1  0.00000000  0.20027519  0.24643599  1.0
  Se  Se9  1  0.00000000  0.79972481  0.24643599  1.0
  O  O10  1  0.50000000  0.50000000  0.22378765  1.0
  O  O11  1  0.00000000  0.00000000  0.77621235  1.0
