# generated using pymatgen
data_SrGd2O4
_symmetry_space_group_name_H-M   'P 1'
_cell_length_a   10.25323016
_cell_length_b   3.48735853
_cell_length_c   12.15563480
_cell_angle_alpha   90.00000000
_cell_angle_beta   90.00000000
_cell_angle_gamma   90.00000000
_symmetry_Int_Tables_number   1
_chemical_formula_structural   SrGd2O4
_chemical_formula_sum   'Sr4 Gd8 O16'
_cell_volume   434.64526113
_cell_formula_units_Z   4
loop_
 _symmetry_equiv_pos_site_id
 _symmetry_equiv_pos_as_xyz
  1  'x, y, z'
loop_
 _atom_site_type_symbol
 _atom_site_label
 _atom_site_symmetry_multiplicity
 _atom_site_fract_x
 _atom_site_fract_y
 _atom_site_fract_z
 _atom_site_occupancy
  Sr  Sr0  1  0.75291794  0.75000000  0.64815154  1.0
  Sr  Sr1  1  0.25291794  0.75000000  0.85184846  1.0
  Sr  Sr2  1  0.24708206  0.25000000  0.35184846  1.0
  Sr  Sr3  1  0.74708206  0.25000000  0.14815154  1.0
  Gd  Gd4  1  0.92362684  0.75000000  0.38827599  1.0
  Gd  Gd5  1  0.42362684  0.75000000  0.11172401  1.0
  Gd  Gd6  1  0.07637316  0.25000000  0.61172401  1.0
  Gd  Gd7  1  0.57637316  0.25000000  0.88827599  1.0
  Gd  Gd8  1  0.42071580  0.75000000  0.61206351  1.0
  Gd  Gd9  1  0.92071580  0.75000000  0.88793649  1.0
  Gd  Gd10  1  0.57928420  0.25000000  0.38793649  1.0
  Gd  Gd11  1  0.07928420  0.25000000  0.11206351  1.0
  O  O12  1  0.92525127  0.75000000  0.07853343  1.0
  O  O13  1  0.42525127  0.75000000  0.42146657  1.0
  O  O14  1  0.07474873  0.25000000  0.92146657  1.0
  O  O15  1  0.57474873  0.25000000  0.57853343  1.0
  O  O16  1  0.71269442  0.75000000  0.32073934  1.0
  O  O17  1  0.21269442  0.75000000  0.17926066  1.0
  O  O18  1  0.28730558  0.25000000  0.67926066  1.0
  O  O19  1  0.78730558  0.25000000  0.82073934  1.0
  O  O20  1  0.62830830  0.75000000  0.02036518  1.0
  O  O21  1  0.12830830  0.75000000  0.47963482  1.0
  O  O22  1  0.37169170  0.25000000  0.97963482  1.0
  O  O23  1  0.87169170  0.25000000  0.52036518  1.0
  O  O24  1  0.51166283  0.75000000  0.78436668  1.0
  O  O25  1  0.01166283  0.75000000  0.71563332  1.0
  O  O26  1  0.48833717  0.25000000  0.21563332  1.0
  O  O27  1  0.98833717  0.25000000  0.28436668  1.0
