# generated using pymatgen
data_Ba2SiS4
_symmetry_space_group_name_H-M   'P 1'
_cell_length_a   8.97049334
_cell_length_b   6.81025430
_cell_length_c   12.40875052
_cell_angle_alpha   90.00000000
_cell_angle_beta   90.00000000
_cell_angle_gamma   90.00000000
_symmetry_Int_Tables_number   1
_chemical_formula_structural   Ba2SiS4
_chemical_formula_sum   'Ba8 Si4 S16'
_cell_volume   758.06720708
_cell_formula_units_Z   4
loop_
 _symmetry_equiv_pos_site_id
 _symmetry_equiv_pos_as_xyz
  1  'x, y, z'
loop_
 _atom_site_type_symbol
 _atom_site_label
 _atom_site_symmetry_multiplicity
 _atom_site_fract_x
 _atom_site_fract_y
 _atom_site_fract_z
 _atom_site_occupancy
  Ba  Ba0  1  0.87052490  0.75000000  0.42234511  1.0
  Ba  Ba1  1  0.37052490  0.75000000  0.07765489  1.0
  Ba  Ba2  1  0.12947510  0.25000000  0.57765489  1.0
  Ba  Ba3  1  0.62947510  0.25000000  0.92234511  1.0
  Ba  Ba4  1  0.51740566  0.75000000  0.67038432  1.0
  Ba  Ba5  1  0.01740566  0.75000000  0.82961568  1.0
  Ba  Ba6  1  0.48259434  0.25000000  0.32961568  1.0
  Ba  Ba7  1  0.98259434  0.25000000  0.17038432  1.0
  Si  Si8  1  0.77035143  0.75000000  0.07566702  1.0
  Si  Si9  1  0.27035143  0.75000000  0.42433298  1.0
  Si  Si10  1  0.22964857  0.25000000  0.92433298  1.0
  Si  Si11  1  0.72964857  0.25000000  0.57566702  1.0
  S  S12  1  0.67671181  0.00538209  0.14671705  1.0
  S  S13  1  0.67671181  0.49461791  0.14671705  1.0
  S  S14  1  0.17671181  0.00538209  0.35328295  1.0
  S  S15  1  0.17671181  0.49461791  0.35328295  1.0
  S  S16  1  0.32328819  0.50538209  0.85328295  1.0
  S  S17  1  0.32328819  0.99461791  0.85328295  1.0
  S  S18  1  0.82328819  0.50538209  0.64671705  1.0
  S  S19  1  0.82328819  0.99461791  0.64671705  1.0
  S  S20  1  0.00611030  0.75000000  0.09217074  1.0
  S  S21  1  0.50611030  0.75000000  0.40782926  1.0
  S  S22  1  0.99388970  0.25000000  0.90782926  1.0
  S  S23  1  0.49388970  0.25000000  0.59217074  1.0
  S  S24  1  0.18934064  0.75000000  0.58710549  1.0
  S  S25  1  0.68934064  0.75000000  0.91289451  1.0
  S  S26  1  0.81065936  0.25000000  0.41289451  1.0
  S  S27  1  0.31065936  0.25000000  0.08710549  1.0
