# generated using pymatgen
data_BiPdSe
_symmetry_space_group_name_H-M   'P 1'
_cell_length_a   6.52853468
_cell_length_b   6.52853468
_cell_length_c   6.52853468
_cell_angle_alpha   90.00000000
_cell_angle_beta   90.00000000
_cell_angle_gamma   90.00000000
_symmetry_Int_Tables_number   1
_chemical_formula_structural   BiPdSe
_chemical_formula_sum   'Bi4 Pd4 Se4'
_cell_volume   278.25767116
_cell_formula_units_Z   4
loop_
 _symmetry_equiv_pos_site_id
 _symmetry_equiv_pos_as_xyz
  1  'x, y, z'
loop_
 _atom_site_type_symbol
 _atom_site_label
 _atom_site_symmetry_multiplicity
 _atom_site_fract_x
 _atom_site_fract_y
 _atom_site_fract_z
 _atom_site_occupancy
  Bi  Bi0  1  0.13007680  0.63007680  0.86992320  1.0
  Bi  Bi1  1  0.63007680  0.86992320  0.13007680  1.0
  Bi  Bi2  1  0.86992320  0.13007680  0.63007680  1.0
  Bi  Bi3  1  0.36992320  0.36992320  0.36992320  1.0
  Pd  Pd4  1  0.48649729  0.98649729  0.51350271  1.0
  Pd  Pd5  1  0.98649729  0.51350271  0.48649729  1.0
  Pd  Pd6  1  0.51350271  0.48649729  0.98649729  1.0
  Pd  Pd7  1  0.01350271  0.01350271  0.01350271  1.0
  Se  Se8  1  0.88187986  0.38187986  0.11812014  1.0
  Se  Se9  1  0.38187986  0.11812014  0.88187986  1.0
  Se  Se10  1  0.11812014  0.88187986  0.38187986  1.0
  Se  Se11  1  0.61812014  0.61812014  0.61812014  1.0
