# generated using pymatgen
data_SrFeSn(PO4)3
_symmetry_space_group_name_H-M   'P 1'
_cell_length_a   9.05840573
_cell_length_b   9.05840573
_cell_length_c   9.05840573
_cell_angle_alpha   55.27167942
_cell_angle_beta   55.27167942
_cell_angle_gamma   55.27167942
_symmetry_Int_Tables_number   1
_chemical_formula_structural   SrFeSn(PO4)3
_chemical_formula_sum   'Sr2 Fe2 Sn2 P6 O24'
_cell_volume   467.82569856
_cell_formula_units_Z   2
loop_
 _symmetry_equiv_pos_site_id
 _symmetry_equiv_pos_as_xyz
  1  'x, y, z'
loop_
 _atom_site_type_symbol
 _atom_site_label
 _atom_site_symmetry_multiplicity
 _atom_site_fract_x
 _atom_site_fract_y
 _atom_site_fract_z
 _atom_site_occupancy
  Sr  Sr0  1  0.50000000  0.50000000  -0.50000000  1.0
  Sr  Sr1  1  0.00000000  0.00000000  0.00000000  1.0
  Fe  Fe2  1  0.34891638  0.34891638  -0.65108362  1.0
  Fe  Fe3  1  0.65108362  0.65108362  -0.34891638  1.0
  Sn  Sn4  1  0.14815238  0.14815238  0.14815238  1.0
  Sn  Sn5  1  0.85184762  -0.14815238  -0.14815238  1.0
  P  P6  1  0.53724103  0.26133326  -0.03779184  1.0
  P  P7  1  1.03779184  -0.53724103  -0.26133326  1.0
  P  P8  1  0.73866674  0.03779184  -0.53724103  1.0
  P  P9  1  0.46275897  -0.26133326  0.03779184  1.0
  P  P10  1  0.96220816  -0.46275897  0.26133326  1.0
  P  P11  1  1.26133326  -0.03779184  -0.46275897  1.0
  O  O12  1  0.21996907  0.97096391  -0.61385142  1.0
  O  O13  1  0.61385142  -0.21996907  0.02903609  1.0
  O  O14  1  1.02903609  -0.38614858  -0.21996907  1.0
  O  O15  1  0.78003093  0.02903609  -0.38614858  1.0
  O  O16  1  0.38614858  0.21996907  -0.02903609  1.0
  O  O17  1  0.97096391  0.38614858  -0.78003093  1.0
  O  O18  1  0.53778155  0.19985104  -0.52690435  1.0
  O  O19  1  0.52690435  0.46221845  -0.19985104  1.0
  O  O20  1  0.80014896  0.52690435  -0.53778155  1.0
  O  O21  1  0.46221845  0.80014896  -0.47309565  1.0
  O  O22  1  0.47309565  0.53778155  -0.80014896  1.0
  O  O23  1  0.19985104  0.47309565  -0.46221845  1.0
  O  O24  1  0.26002257  -0.10760430  0.10764103  1.0
  O  O25  1  0.89235897  -0.26002257  0.10760430  1.0
  O  O26  1  1.10760430  -0.10764103  -0.26002257  1.0
  O  O27  1  0.73997743  0.10760430  -0.10764103  1.0
  O  O28  1  1.10764103  -0.73997743  -0.10760430  1.0
  O  O29  1  0.89239570  0.10764103  -0.73997743  1.0
  O  O30  1  0.51847637  0.23434216  0.15508680  1.0
  O  O31  1  0.84491320  -0.51847637  -0.23434216  1.0
  O  O32  1  0.76565784  -0.15508680  -0.51847637  1.0
  O  O33  1  0.48152363  -0.23434216  -0.15508680  1.0
  O  O34  1  1.15508680  -0.48152363  0.23434216  1.0
  O  O35  1  1.23434216  0.15508680  -0.48152363  1.0
