# generated using pymatgen
data_CsMnCl3O2
_symmetry_space_group_name_H-M   'P 1'
_cell_length_a   8.40120476
_cell_length_b   7.16323486
_cell_length_c   11.77603712
_cell_angle_alpha   90.00000000
_cell_angle_beta   90.00000000
_cell_angle_gamma   90.00000000
_symmetry_Int_Tables_number   1
_chemical_formula_structural   CsMnCl3O2
_chemical_formula_sum   'Cs4 Mn4 Cl12 O8'
_cell_volume   708.67959216
_cell_formula_units_Z   4
loop_
 _symmetry_equiv_pos_site_id
 _symmetry_equiv_pos_as_xyz
  1  'x, y, z'
loop_
 _atom_site_type_symbol
 _atom_site_label
 _atom_site_symmetry_multiplicity
 _atom_site_fract_x
 _atom_site_fract_y
 _atom_site_fract_z
 _atom_site_occupancy
  Mn  Mn0  1  0.00000000  1.00845305  0.25000000  1.0
  Mn  Mn1  1  0.00000000  -0.00845305  0.75000000  1.0
  Mn  Mn2  1  0.50000000  1.00845305  0.75000000  1.0
  Mn  Mn3  1  0.50000000  -0.00845305  0.25000000  1.0
  Cs  Cs4  1  0.75000000  0.50000000  0.39086224  1.0
  Cs  Cs5  1  0.75000000  0.50000000  0.89086224  1.0
  Cs  Cs6  1  0.25000000  0.50000000  0.60913776  1.0
  Cs  Cs7  1  0.25000000  0.50000000  0.10913776  1.0
  O  O8  1  0.56388244  0.86764995  0.14774931  1.0
  O  O9  1  0.56388244  0.13235005  0.64774931  1.0
  O  O10  1  0.06388244  0.86764995  0.85225069  1.0
  O  O11  1  0.06388244  0.13235005  0.35225069  1.0
  O  O12  1  0.43611756  0.86764995  0.35225069  1.0
  O  O13  1  0.43611756  0.13235005  0.85225069  1.0
  O  O14  1  0.93611756  0.86764995  0.64774931  1.0
  O  O15  1  0.93611756  0.13235005  0.14774931  1.0
  Cl  Cl16  1  0.89821942  0.74149831  0.13917662  1.0
  Cl  Cl17  1  0.89821942  0.25850169  0.63917662  1.0
  Cl  Cl18  1  0.39821942  0.74149831  0.86082338  1.0
  Cl  Cl19  1  0.39821942  0.25850169  0.36082338  1.0
  Cl  Cl20  1  0.10178058  0.74149831  0.36082338  1.0
  Cl  Cl21  1  0.10178058  0.25850169  0.86082338  1.0
  Cl  Cl22  1  0.60178058  0.74149831  0.63917662  1.0
  Cl  Cl23  1  0.60178058  0.25850169  0.13917662  1.0
  Cl  Cl24  1  0.75000000  0.00000000  0.34859816  1.0
  Cl  Cl25  1  0.75000000  0.00000000  0.84859816  1.0
  Cl  Cl26  1  0.25000000  0.00000000  0.65140184  1.0
  Cl  Cl27  1  0.25000000  0.00000000  0.15140184  1.0
