# generated using pymatgen
data_Tl6Ge2O7
_symmetry_space_group_name_H-M   'P 1'
_cell_length_a   10.15483383
_cell_length_b   10.15483383
_cell_length_c   8.42948811
_cell_angle_alpha   90.00000000
_cell_angle_beta   90.00000000
_cell_angle_gamma   120.00000000
_symmetry_Int_Tables_number   1
_chemical_formula_structural   Tl6Ge2O7
_chemical_formula_sum   'Tl12 Ge4 O14'
_cell_volume   752.79630149
_cell_formula_units_Z   2
loop_
 _symmetry_equiv_pos_site_id
 _symmetry_equiv_pos_as_xyz
  1  'x, y, z'
loop_
 _atom_site_type_symbol
 _atom_site_label
 _atom_site_symmetry_multiplicity
 _atom_site_fract_x
 _atom_site_fract_y
 _atom_site_fract_z
 _atom_site_occupancy
  Tl  Tl0  1  0.32487669  0.96083857  0.36831231  1.0
  Tl  Tl1  1  0.96083857  0.63596188  0.63168769  1.0
  Tl  Tl2  1  0.63596188  0.67512331  0.36831231  1.0
  Tl  Tl3  1  0.03916143  0.36403812  0.36831231  1.0
  Tl  Tl4  1  0.67512331  0.03916143  0.63168769  1.0
  Tl  Tl5  1  0.36403812  0.32487669  0.63168769  1.0
  Tl  Tl6  1  0.95429541  0.63955305  0.12006356  1.0
  Tl  Tl7  1  0.63955305  0.68525764  0.87993644  1.0
  Tl  Tl8  1  0.68525764  0.04570459  0.12006356  1.0
  Tl  Tl9  1  0.36044695  0.31474236  0.12006356  1.0
  Tl  Tl10  1  0.04570459  0.36044695  0.87993644  1.0
  Tl  Tl11  1  0.31474236  0.95429541  0.87993644  1.0
  Ge  Ge12  1  0.33333333  0.66666667  0.16083681  1.0
  Ge  Ge13  1  0.66666667  0.33333333  0.83916319  1.0
  Ge  Ge14  1  0.33333333  0.66666667  0.59107427  1.0
  Ge  Ge15  1  0.66666667  0.33333333  0.40892573  1.0
  O  O16  1  0.40290487  0.85923732  0.10927108  1.0
  O  O17  1  0.85923732  0.45633246  0.89072892  1.0
  O  O18  1  0.45633246  0.59709513  0.10927108  1.0
  O  O19  1  0.14076268  0.54366754  0.10927108  1.0
  O  O20  1  0.59709513  0.14076268  0.89072892  1.0
  O  O21  1  0.54366754  0.40290487  0.89072892  1.0
  O  O22  1  0.53976510  0.39822812  0.35654568  1.0
  O  O23  1  0.39822812  0.85846302  0.64345432  1.0
  O  O24  1  0.85846302  0.46023490  0.35654568  1.0
  O  O25  1  0.60177188  0.14153698  0.35654568  1.0
  O  O26  1  0.46023490  0.60177188  0.64345432  1.0
  O  O27  1  0.14153698  0.53976510  0.64345432  1.0
  O  O28  1  0.33333333  0.66666667  0.37608379  1.0
  O  O29  1  0.66666667  0.33333333  0.62391621  1.0
