# generated using pymatgen
data_Na3Lu(SeO4)2
_symmetry_space_group_name_H-M   'P 1'
_cell_length_a   11.33429997
_cell_length_b   11.33429997
_cell_length_c   11.33429997
_cell_angle_alpha   112.52542572
_cell_angle_beta   112.52542572
_cell_angle_gamma   103.52167793
_symmetry_Int_Tables_number   1
_chemical_formula_structural   Na3Lu(SeO4)2
_chemical_formula_sum   'Na12 Lu4 Se8 O32'
_cell_volume   1111.95153257
_cell_formula_units_Z   4
loop_
 _symmetry_equiv_pos_site_id
 _symmetry_equiv_pos_as_xyz
  1  'x, y, z'
loop_
 _atom_site_type_symbol
 _atom_site_label
 _atom_site_symmetry_multiplicity
 _atom_site_fract_x
 _atom_site_fract_y
 _atom_site_fract_z
 _atom_site_occupancy
  O  O0  1  1.27033024  1.01253444  1.32738896  1.0
  O  O1  1  1.06485452  1.30705872  0.82738896  1.0
  O  O2  1  0.05705872  0.72966976  0.74220420  1.0
  O  O3  1  0.76253444  0.93514548  1.24220420  1.0
  O  O4  1  1.68514548  1.94294128  1.67261104  1.0
  O  O5  1  0.47966976  1.23746556  1.17261104  1.0
  O  O6  1  0.98746556  1.31485452  1.25779580  1.0
  O  O7  1  1.69294128  1.52033024  1.75779580  1.0
  O  O8  1  1.24061680  0.93597869  1.51141504  1.0
  O  O9  1  1.32543635  0.52079824  1.01141504  1.0
  O  O10  1  1.27079824  0.75938320  0.69536189  1.0
  O  O11  1  0.68597869  0.67456365  0.19536189  1.0
  O  O12  1  1.42456365  1.72920176  1.48858496  1.0
  O  O13  1  0.50938320  1.31402131  0.98858496  1.0
  O  O14  1  1.06402131  0.57543635  1.30463811  1.0
  O  O15  1  1.47920176  1.49061680  1.80463811  1.0
  O  O16  1  1.44386635  1.53215389  1.58267314  1.0
  O  O17  1  0.80051925  0.38880680  1.08267314  1.0
  O  O18  1  1.13880680  1.55613365  1.08828754  1.0
  O  O19  1  1.28215389  1.19948075  1.58828754  1.0
  O  O20  1  0.94948075  0.86119320  1.41732686  1.0
  O  O21  1  1.30613365  0.71784611  0.91732686  1.0
  O  O22  1  0.46784611  1.05051925  0.91171246  1.0
  O  O23  1  1.61119320  1.69386635  1.41171246  1.0
  O  O24  1  1.49899909  1.31375076  1.46716564  1.0
  O  O25  1  0.90341488  1.21816655  0.96716564  1.0
  O  O26  1  0.96816655  1.50100091  0.81475167  1.0
  O  O27  1  1.06375076  1.09658512  1.31475167  1.0
  O  O28  1  0.84658512  1.03183345  1.53283436  1.0
  O  O29  1  1.25100091  0.93624924  1.03283436  1.0
  O  O30  1  0.68624924  1.15341488  1.18524833  1.0
  O  O31  1  0.78183345  0.74899909  0.68524833  1.0
  Lu  Lu32  1  1.37500000  1.12500000  1.25000000  1.0
  Lu  Lu33  1  0.87500000  1.12500000  0.75000000  1.0
  Lu  Lu34  1  0.87500000  0.62500000  0.75000000  1.0
  Lu  Lu35  1  0.87500000  1.12500000  1.25000000  1.0
  Se  Se36  1  1.18176638  1.03793488  1.42611347  1.0
  Se  Se37  1  1.13817859  1.49434709  0.92611347  1.0
  Se  Se38  1  1.24434709  0.81823362  0.85616850  1.0
  Se  Se39  1  0.78793488  0.86182141  1.35616850  1.0
  Se  Se40  1  1.61182141  1.75565291  1.57388653  1.0
  Se  Se41  1  0.56823362  1.21206512  1.07388653  1.0
  Se  Se42  1  0.96206512  0.38817859  1.14383150  1.0
  Se  Se43  1  1.50565291  1.43176638  1.64383150  1.0
  Na  Na44  1  1.65467722  1.45741647  1.94698684  1.0
  Na  Na45  1  1.23957038  1.54230962  1.44698684  1.0
  Na  Na46  1  1.29230962  0.34532278  0.80273925  1.0
  Na  Na47  1  1.20741647  0.76042962  1.30273925  1.0
  Na  Na48  1  0.51042962  0.70769038  0.05301316  1.0
  Na  Na49  1  0.09532278  0.79258353  0.55301316  1.0
  Na  Na50  1  0.54258353  1.48957038  1.19726075  1.0
  Na  Na51  1  1.45769038  1.90467722  1.69726075  1.0
  Na  Na52  1  0.87500000  0.62500000  1.25000000  1.0
  Na  Na53  1  1.37500000  0.62500000  0.75000000  1.0
  Na  Na54  1  0.37500000  1.12500000  0.75000000  1.0
  Na  Na55  1  1.37500000  1.62500000  1.25000000  1.0
