# generated using pymatgen
data_ZrAu3
_symmetry_space_group_name_H-M   'P 1'
_cell_length_a   4.85516518
_cell_length_b   6.16214799
_cell_length_c   4.94240207
_cell_angle_alpha   90.00000000
_cell_angle_beta   90.00000000
_cell_angle_gamma   90.00000000
_symmetry_Int_Tables_number   1
_chemical_formula_structural   ZrAu3
_chemical_formula_sum   'Zr2 Au6'
_cell_volume   147.86800298
_cell_formula_units_Z   2
loop_
 _symmetry_equiv_pos_site_id
 _symmetry_equiv_pos_as_xyz
  1  'x, y, z'
loop_
 _atom_site_type_symbol
 _atom_site_label
 _atom_site_symmetry_multiplicity
 _atom_site_fract_x
 _atom_site_fract_y
 _atom_site_fract_z
 _atom_site_occupancy
  Zr  Zr0  1  0.50000000  0.00000000  0.16227359  1.0
  Zr  Zr1  1  0.00000000  0.50000000  0.83772641  1.0
  Au  Au2  1  0.50000000  0.74674591  0.66662602  1.0
  Au  Au3  1  0.50000000  0.25325409  0.66662602  1.0
  Au  Au4  1  0.00000000  0.24674591  0.33337398  1.0
  Au  Au5  1  0.00000000  0.75325409  0.33337398  1.0
  Au  Au6  1  0.50000000  0.50000000  0.16134863  1.0
  Au  Au7  1  0.00000000  0.00000000  0.83865137  1.0
