# generated using pymatgen
data_CoSeO4
_symmetry_space_group_name_H-M   'P 1'
_cell_length_a   9.11190395
_cell_length_b   6.80253706
_cell_length_c   4.95746596
_cell_angle_alpha   90.00000000
_cell_angle_beta   90.00000000
_cell_angle_gamma   90.00000000
_symmetry_Int_Tables_number   1
_chemical_formula_structural   CoSeO4
_chemical_formula_sum   'Co4 Se4 O16'
_cell_volume   307.28388874
_cell_formula_units_Z   4
loop_
 _symmetry_equiv_pos_site_id
 _symmetry_equiv_pos_as_xyz
  1  'x, y, z'
loop_
 _atom_site_type_symbol
 _atom_site_label
 _atom_site_symmetry_multiplicity
 _atom_site_fract_x
 _atom_site_fract_y
 _atom_site_fract_z
 _atom_site_occupancy
  Co  Co0  1  0.00000000  0.50000000  0.00000000  1.0
  Co  Co1  1  0.00000000  0.00000000  0.00000000  1.0
  Co  Co2  1  0.50000000  0.50000000  0.50000000  1.0
  Co  Co3  1  0.50000000  0.00000000  0.50000000  1.0
  Se  Se4  1  0.67852613  0.25000000  0.03195613  1.0
  Se  Se5  1  0.17852613  0.25000000  0.46804387  1.0
  Se  Se6  1  0.32147387  0.75000000  0.96804387  1.0
  Se  Se7  1  0.82147387  0.75000000  0.53195613  1.0
  O  O8  1  0.62117233  0.45784952  0.18169189  1.0
  O  O9  1  0.62117233  0.04215048  0.18169189  1.0
  O  O10  1  0.12117233  0.45784952  0.31830811  1.0
  O  O11  1  0.12117233  0.04215048  0.31830811  1.0
  O  O12  1  0.37882767  0.95784952  0.81830811  1.0
  O  O13  1  0.37882767  0.54215048  0.81830811  1.0
  O  O14  1  0.87882767  0.95784952  0.68169189  1.0
  O  O15  1  0.87882767  0.54215048  0.68169189  1.0
  O  O16  1  0.86581026  0.25000000  0.06816086  1.0
  O  O17  1  0.36581026  0.25000000  0.43183914  1.0
  O  O18  1  0.13418974  0.75000000  0.93183914  1.0
  O  O19  1  0.63418974  0.75000000  0.56816086  1.0
  O  O20  1  0.61705781  0.25000000  0.70901313  1.0
  O  O21  1  0.11705781  0.25000000  0.79098687  1.0
  O  O22  1  0.38294219  0.75000000  0.29098687  1.0
  O  O23  1  0.88294219  0.75000000  0.20901313  1.0
