# generated using pymatgen
data_Cu2SnSe3
_symmetry_space_group_name_H-M   'P 1'
_cell_length_a   7.06499720
_cell_length_b   7.06499720
_cell_length_c   26.85430473
_cell_angle_alpha   87.60301549
_cell_angle_beta   92.39698451
_cell_angle_gamma   59.97787057
_symmetry_Int_Tables_number   1
_chemical_formula_structural   Cu2SnSe3
_chemical_formula_sum   'Cu16 Sn8 Se24'
_cell_volume   1156.50089293
_cell_formula_units_Z   8
loop_
 _symmetry_equiv_pos_site_id
 _symmetry_equiv_pos_as_xyz
  1  'x, y, z'
loop_
 _atom_site_type_symbol
 _atom_site_label
 _atom_site_symmetry_multiplicity
 _atom_site_fract_x
 _atom_site_fract_y
 _atom_site_fract_z
 _atom_site_occupancy
  Cu  Cu0  1  0.50916335  -0.34564731  0.21642599  1.0
  Cu  Cu1  1  1.34564731  0.49083665  0.71642599  1.0
  Cu  Cu2  1  1.20448703  0.61500707  0.34148754  1.0
  Cu  Cu3  1  0.38499293  -0.20448703  0.84148754  1.0
  Cu  Cu4  1  1.70078078  0.13619491  0.84120409  1.0
  Cu  Cu5  1  0.86380509  -0.70078078  0.34120409  1.0
  Cu  Cu6  1  1.57322660  0.24354429  0.46640996  1.0
  Cu  Cu7  1  0.75645571  -0.57322660  0.96640996  1.0
  Cu  Cu8  1  1.41413338  0.08367327  0.96681244  1.0
  Cu  Cu9  1  0.91632673  -0.41413338  0.46681244  1.0
  Cu  Cu10  1  0.79841191  -0.30285034  0.09159827  1.0
  Cu  Cu11  1  1.30285034  0.20158809  0.59159827  1.0
  Cu  Cu12  1  1.13841446  0.04151136  0.09111100  1.0
  Cu  Cu13  1  0.95848864  -0.13841446  0.59111100  1.0
  Cu  Cu14  1  1.16765312  0.33978073  0.21678246  1.0
  Cu  Cu15  1  0.66021927  -0.16765312  0.71678246  1.0
  Sn  Sn16  1  1.85597293  -0.00332588  0.22011646  1.0
  Sn  Sn17  1  1.00332588  -0.85597293  0.72011646  1.0
  Sn  Sn18  1  0.55487816  -0.04371429  0.34572078  1.0
  Sn  Sn19  1  1.04371429  0.44512184  0.84572078  1.0
  Sn  Sn20  1  0.22964381  -0.06937238  0.47015438  1.0
  Sn  Sn21  1  1.06937238  0.77035619  0.97015438  1.0
  Sn  Sn22  1  1.45113922  0.38819114  0.09569879  1.0
  Sn  Sn23  1  0.61180886  -0.45113922  0.59569879  1.0
  Se  Se24  1  0.89685309  -0.09229124  0.50080182  1.0
  Se  Se25  1  1.09229124  0.10314691  0.00080182  1.0
  Se  Se26  1  0.73669878  -0.25316058  0.00118014  1.0
  Se  Se27  1  1.25316058  0.26330122  0.50118014  1.0
  Se  Se28  1  1.82875511  0.00929616  0.11972587  1.0
  Se  Se29  1  0.99070384  -0.82875511  0.61972587  1.0
  Se  Se30  1  0.47496102  -0.27854132  0.12602082  1.0
  Se  Se31  1  1.27854132  0.52503898  0.62602082  1.0
  Se  Se32  1  1.20814498  0.63116842  0.25109713  1.0
  Se  Se33  1  0.36883158  -0.20814498  0.75109713  1.0
  Se  Se34  1  1.65682835  0.14762358  0.75085673  1.0
  Se  Se35  1  0.85237642  -0.65682835  0.25085673  1.0
  Se  Se36  1  0.49461295  -0.01179582  0.24521972  1.0
  Se  Se37  1  1.01179582  0.50538705  0.74521972  1.0
  Se  Se38  1  1.41143478  0.09361108  0.87630720  1.0
  Se  Se39  1  0.90638892  -0.41143478  0.37630720  1.0
  Se  Se40  1  0.19243139  -0.05195168  0.36974962  1.0
  Se  Se41  1  1.05195168  0.80756861  0.86974962  1.0
  Se  Se42  1  1.54968127  0.30435575  0.37586886  1.0
  Se  Se43  1  0.69564425  -0.54968127  0.87586886  1.0
  Se  Se44  1  1.44732651  0.39280629  0.99516580  1.0
  Se  Se45  1  0.60719371  -0.44732651  0.49516580  1.0
  Se  Se46  1  1.11918310  0.36190285  0.12618412  1.0
  Se  Se47  1  0.63809715  -0.11918310  0.62618412  1.0
