# generated using pymatgen
data_CrRe4(Ni2Mo3)2
_symmetry_space_group_name_H-M   'P 1'
_cell_length_a   9.21309727
_cell_length_b   9.21309727
_cell_length_c   4.91497439
_cell_angle_alpha   90.00000000
_cell_angle_beta   90.00000000
_cell_angle_gamma   90.00000000
_symmetry_Int_Tables_number   1
_chemical_formula_structural   CrRe4(Ni2Mo3)2
_chemical_formula_sum   'Cr2 Re8 Ni8 Mo12'
_cell_volume   417.18873445
_cell_formula_units_Z   2
loop_
 _symmetry_equiv_pos_site_id
 _symmetry_equiv_pos_as_xyz
  1  'x, y, z'
loop_
 _atom_site_type_symbol
 _atom_site_label
 _atom_site_symmetry_multiplicity
 _atom_site_fract_x
 _atom_site_fract_y
 _atom_site_fract_z
 _atom_site_occupancy
  Cr  Cr0  1  0.50000000  0.50000000  0.50000000  1.0
  Cr  Cr1  1  0.00000000  0.00000000  0.00000000  1.0
  Re  Re2  1  0.31813855  0.68186145  0.25138177  1.0
  Re  Re3  1  0.68186145  0.31813855  0.25138177  1.0
  Re  Re4  1  0.18186145  0.18186145  0.75138177  1.0
  Re  Re5  1  0.81813855  0.81813855  0.75138177  1.0
  Re  Re6  1  0.68186145  0.31813855  0.74861823  1.0
  Re  Re7  1  0.31813855  0.68186145  0.74861823  1.0
  Re  Re8  1  0.81813855  0.81813855  0.24861823  1.0
  Re  Re9  1  0.18186145  0.18186145  0.24861823  1.0
  Ni  Ni10  1  0.43190142  0.24526937  0.50000000  1.0
  Ni  Ni11  1  0.56809858  0.75473063  0.50000000  1.0
  Ni  Ni12  1  0.06809858  0.74526937  0.00000000  1.0
  Ni  Ni13  1  0.93190142  0.25473063  0.00000000  1.0
  Ni  Ni14  1  0.24526937  0.43190142  0.50000000  1.0
  Ni  Ni15  1  0.75473063  0.56809858  0.50000000  1.0
  Ni  Ni16  1  0.74526937  0.06809858  0.00000000  1.0
  Ni  Ni17  1  0.25473063  0.93190142  0.00000000  1.0
  Mo  Mo18  1  0.10458192  0.89541808  0.50000000  1.0
  Mo  Mo19  1  0.89541808  0.10458192  0.50000000  1.0
  Mo  Mo20  1  0.39541808  0.39541808  0.00000000  1.0
  Mo  Mo21  1  0.60458192  0.60458192  0.00000000  1.0
  Mo  Mo22  1  0.37071133  0.96295865  0.50000000  1.0
  Mo  Mo23  1  0.62928867  0.03704135  0.50000000  1.0
  Mo  Mo24  1  0.12928867  0.46295865  0.00000000  1.0
  Mo  Mo25  1  0.87071133  0.53704135  0.00000000  1.0
  Mo  Mo26  1  0.96295865  0.37071133  0.50000000  1.0
  Mo  Mo27  1  0.03704135  0.62928867  0.50000000  1.0
  Mo  Mo28  1  0.46295865  0.12928867  0.00000000  1.0
  Mo  Mo29  1  0.53704135  0.87071133  0.00000000  1.0
