# generated using pymatgen
data_Ca2AuO4
_symmetry_space_group_name_H-M   'P 1'
_cell_length_a   6.29372965
_cell_length_b   6.29372965
_cell_length_c   6.29372965
_cell_angle_alpha   112.77079387
_cell_angle_beta   112.77079387
_cell_angle_gamma   103.05632195
_symmetry_Int_Tables_number   1
_chemical_formula_structural   Ca2AuO4
_chemical_formula_sum   'Ca4 Au2 O8'
_cell_volume   190.13561646
_cell_formula_units_Z   2
loop_
 _symmetry_equiv_pos_site_id
 _symmetry_equiv_pos_as_xyz
  1  'x, y, z'
loop_
 _atom_site_type_symbol
 _atom_site_label
 _atom_site_symmetry_multiplicity
 _atom_site_fract_x
 _atom_site_fract_y
 _atom_site_fract_z
 _atom_site_occupancy
  Ca  Ca0  1  0.37500000  0.62500000  0.75000000  1.0
  Ca  Ca1  1  0.87500000  0.62500000  1.25000000  1.0
  Ca  Ca2  1  0.37500000  1.12500000  0.75000000  1.0
  Ca  Ca3  1  0.37500000  0.62500000  0.25000000  1.0
  Au  Au4  1  0.00000000  0.00000000  0.00000000  1.0
  Au  Au5  1  0.75000000  0.25000000  0.50000000  1.0
  O  O6  1  1.07223006  0.78856226  1.71633413  1.0
  O  O7  1  0.67777187  0.89410408  1.21633413  1.0
  O  O8  1  1.21143774  0.92777187  1.28366779  1.0
  O  O9  1  1.10589592  1.32223006  1.78366779  1.0
  O  O10  1  0.07222813  0.35589592  0.28366587  1.0
  O  O11  1  0.67776994  0.46143774  0.78366587  1.0
  O  O12  1  0.64410408  0.92776994  0.71633221  1.0
  O  O13  1  0.53856226  0.32222813  0.21633221  1.0
