# generated using pymatgen
data_CuHOF
_symmetry_space_group_name_H-M   'P 1'
_cell_length_a   5.11280115
_cell_length_b   6.48412930
_cell_length_c   5.41128632
_cell_angle_alpha   90.00000000
_cell_angle_beta   114.53415538
_cell_angle_gamma   90.00000000
_symmetry_Int_Tables_number   1
_chemical_formula_structural   CuHOF
_chemical_formula_sum   'Cu4 H4 O4 F4'
_cell_volume   163.19840612
_cell_formula_units_Z   4
loop_
 _symmetry_equiv_pos_site_id
 _symmetry_equiv_pos_as_xyz
  1  'x, y, z'
loop_
 _atom_site_type_symbol
 _atom_site_label
 _atom_site_symmetry_multiplicity
 _atom_site_fract_x
 _atom_site_fract_y
 _atom_site_fract_z
 _atom_site_occupancy
  Cu  Cu0  1  0.98704648  0.12130255  0.25933606  1.0
  Cu  Cu1  1  0.98704648  0.37869745  0.75933606  1.0
  Cu  Cu2  1  0.01295352  0.62130255  0.24066394  1.0
  Cu  Cu3  1  0.01295352  0.87869745  0.74066394  1.0
  H  H4  1  0.38630494  0.36344204  0.25310837  1.0
  H  H5  1  0.38630494  0.13655796  0.75310837  1.0
  H  H6  1  0.61369506  0.86344204  0.24689163  1.0
  H  H7  1  0.61369506  0.63655796  0.74689163  1.0
  O  O8  1  0.83080933  0.86083608  0.33516691  1.0
  O  O9  1  0.83080933  0.63916392  0.83516691  1.0
  O  O10  1  0.16919067  0.36083608  0.16483309  1.0
  O  O11  1  0.16919067  0.13916392  0.66483309  1.0
  F  F12  1  0.71996592  0.38728034  0.37232015  1.0
  F  F13  1  0.71996592  0.11271966  0.87232015  1.0
  F  F14  1  0.28003408  0.88728034  0.12767985  1.0
  F  F15  1  0.28003408  0.61271966  0.62767985  1.0
