# generated using pymatgen
data_Zr3PH
_symmetry_space_group_name_H-M   'P 1'
_cell_length_a   10.88334657
_cell_length_b   10.88334657
_cell_length_c   5.45928413
_cell_angle_alpha   90.00000000
_cell_angle_beta   90.00000000
_cell_angle_gamma   90.00000000
_symmetry_Int_Tables_number   1
_chemical_formula_structural   Zr3PH
_chemical_formula_sum   'Zr24 P8 H8'
_cell_volume   646.63709616
_cell_formula_units_Z   8
loop_
 _symmetry_equiv_pos_site_id
 _symmetry_equiv_pos_as_xyz
  1  'x, y, z'
loop_
 _atom_site_type_symbol
 _atom_site_label
 _atom_site_symmetry_multiplicity
 _atom_site_fract_x
 _atom_site_fract_y
 _atom_site_fract_z
 _atom_site_occupancy
  Zr  Zr0  1  0.41469815  1.10892380  0.03866278  1.0
  Zr  Zr1  1  0.91469815  0.60892380  0.46133722  1.0
  Zr  Zr2  1  1.10892380  0.58530185  0.96133722  1.0
  Zr  Zr3  1  0.60892380  0.08530185  0.53866278  1.0
  Zr  Zr4  1  0.58530185  -0.10892380  0.03866278  1.0
  Zr  Zr5  1  0.08530185  0.39107620  0.46133722  1.0
  Zr  Zr6  1  -0.10892380  0.41469815  0.96133722  1.0
  Zr  Zr7  1  0.39107620  0.91469815  0.53866278  1.0
  Zr  Zr8  1  0.36279395  0.47269303  1.22429373  1.0
  Zr  Zr9  1  0.86279395  0.97269303  0.27570627  1.0
  Zr  Zr10  1  0.47269303  0.63720605  -0.22429373  1.0
  Zr  Zr11  1  0.97269303  0.13720605  0.72429373  1.0
  Zr  Zr12  1  0.63720605  0.52730697  1.22429373  1.0
  Zr  Zr13  1  0.13720605  0.02730697  0.27570627  1.0
  Zr  Zr14  1  0.52730697  0.36279395  -0.22429373  1.0
  Zr  Zr15  1  0.02730697  0.86279395  0.72429373  1.0
  Zr  Zr16  1  0.78367060  0.31769718  0.48318360  1.0
  Zr  Zr17  1  0.28367060  0.81769718  0.01681640  1.0
  Zr  Zr18  1  0.31769718  0.21632940  0.51681640  1.0
  Zr  Zr19  1  0.81769718  0.71632940  0.98318360  1.0
  Zr  Zr20  1  0.21632940  0.68230282  0.48318360  1.0
  Zr  Zr21  1  0.71632940  0.18230282  0.01681640  1.0
  Zr  Zr22  1  0.68230282  0.78367060  0.51681640  1.0
  Zr  Zr23  1  0.18230282  0.28367060  0.98318360  1.0
  P  P24  1  0.29524511  0.46004304  0.70701290  1.0
  P  P25  1  0.79524511  0.96004304  -0.20701290  1.0
  P  P26  1  0.46004304  0.70475489  0.29298710  1.0
  P  P27  1  0.96004304  0.20475489  1.20701290  1.0
  P  P28  1  0.70475489  0.53995696  0.70701290  1.0
  P  P29  1  0.20475489  0.03995696  -0.20701290  1.0
  P  P30  1  0.53995696  0.29524511  0.29298710  1.0
  P  P31  1  0.03995696  0.79524511  1.20701290  1.0
  H  H32  1  0.94589374  0.31920667  0.66779912  1.0
  H  H33  1  0.44589374  0.81920667  -0.16779912  1.0
  H  H34  1  0.31920667  0.05410626  0.33220088  1.0
  H  H35  1  0.81920667  0.55410626  1.16779912  1.0
  H  H36  1  0.05410626  0.68079333  0.66779912  1.0
  H  H37  1  0.55410626  0.18079333  -0.16779912  1.0
  H  H38  1  0.68079333  0.94589374  0.33220088  1.0
  H  H39  1  0.18079333  0.44589374  1.16779912  1.0
