# generated using pymatgen
data_Rb2CrO4
_symmetry_space_group_name_H-M   'P 1'
_cell_length_a   8.12602340
_cell_length_b   6.21437066
_cell_length_c   10.96423778
_cell_angle_alpha   90.00000000
_cell_angle_beta   90.00000000
_cell_angle_gamma   90.00000000
_symmetry_Int_Tables_number   1
_chemical_formula_structural   Rb2CrO4
_chemical_formula_sum   'Rb8 Cr4 O16'
_cell_volume   553.67341091
_cell_formula_units_Z   4
loop_
 _symmetry_equiv_pos_site_id
 _symmetry_equiv_pos_as_xyz
  1  'x, y, z'
loop_
 _atom_site_type_symbol
 _atom_site_label
 _atom_site_symmetry_multiplicity
 _atom_site_fract_x
 _atom_site_fract_y
 _atom_site_fract_z
 _atom_site_occupancy
  Rb  Rb0  1  0.83004825  0.75000000  0.41766953  1.0
  Rb  Rb1  1  0.33004825  0.75000000  0.08233047  1.0
  Rb  Rb2  1  0.16995175  0.25000000  0.58233047  1.0
  Rb  Rb3  1  0.66995175  0.25000000  0.91766953  1.0
  Rb  Rb4  1  0.50738701  0.75000000  0.69863364  1.0
  Rb  Rb5  1  0.00738701  0.75000000  0.80136636  1.0
  Rb  Rb6  1  0.49261299  0.25000000  0.30136636  1.0
  Rb  Rb7  1  0.99261299  0.25000000  0.19863364  1.0
  Cr  Cr8  1  0.77082886  0.75000000  0.08040341  1.0
  Cr  Cr9  1  0.27082886  0.75000000  0.41959659  1.0
  Cr  Cr10  1  0.22917114  0.25000000  0.91959659  1.0
  Cr  Cr11  1  0.72917114  0.25000000  0.58040341  1.0
  O  O12  1  0.70323521  0.96820330  0.15157459  1.0
  O  O13  1  0.70323521  0.53179670  0.15157459  1.0
  O  O14  1  0.20323521  0.96820330  0.34842541  1.0
  O  O15  1  0.20323521  0.53179670  0.34842541  1.0
  O  O16  1  0.29676479  0.46820330  0.84842541  1.0
  O  O17  1  0.29676479  0.03179670  0.84842541  1.0
  O  O18  1  0.79676479  0.46820330  0.65157459  1.0
  O  O19  1  0.79676479  0.03179670  0.65157459  1.0
  O  O20  1  0.97383520  0.75000000  0.07883893  1.0
  O  O21  1  0.47383520  0.75000000  0.42116107  1.0
  O  O22  1  0.02616480  0.25000000  0.92116107  1.0
  O  O23  1  0.52616480  0.25000000  0.57883893  1.0
  O  O24  1  0.19904379  0.75000000  0.56167888  1.0
  O  O25  1  0.69904379  0.75000000  0.93832112  1.0
  O  O26  1  0.80095621  0.25000000  0.43832112  1.0
  O  O27  1  0.30095621  0.25000000  0.06167888  1.0
