# generated using pymatgen
data_Ti3Te4
_symmetry_space_group_name_H-M   'P 1'
_cell_length_a   7.43774699
_cell_length_b   7.43774699
_cell_length_c   7.09343716
_cell_angle_alpha   61.77972510
_cell_angle_beta   118.22027490
_cell_angle_gamma   150.21764480
_symmetry_Int_Tables_number   1
_chemical_formula_structural   Ti3Te4
_chemical_formula_sum   'Ti3 Te4'
_cell_volume   169.98668130
_cell_formula_units_Z   1
loop_
 _symmetry_equiv_pos_site_id
 _symmetry_equiv_pos_as_xyz
  1  'x, y, z'
loop_
 _atom_site_type_symbol
 _atom_site_label
 _atom_site_symmetry_multiplicity
 _atom_site_fract_x
 _atom_site_fract_y
 _atom_site_fract_z
 _atom_site_occupancy
  Ti  Ti0  1  0.75304095  -0.75304095  0.70505716  1.0
  Ti  Ti1  1  1.24695905  -0.24695905  0.29494284  1.0
  Ti  Ti2  1  0.00000000  0.00000000  0.00000000  1.0
  Te  Te3  1  0.89314541  -0.89314541  0.55109568  1.0
  Te  Te4  1  1.10685459  -0.10685459  0.44890432  1.0
  Te  Te5  1  0.63471401  -0.63471401  0.95839304  1.0
  Te  Te6  1  1.36528599  -0.36528599  0.04160696  1.0
