# generated using pymatgen
data_YbH2ClO2
_symmetry_space_group_name_H-M   'P 1'
_cell_length_a   12.82237682
_cell_length_b   3.58139336
_cell_length_c   6.32239295
_cell_angle_alpha   90.00000000
_cell_angle_beta   90.00000000
_cell_angle_gamma   90.00000000
_symmetry_Int_Tables_number   1
_chemical_formula_structural   YbH2ClO2
_chemical_formula_sum   'Yb4 H8 Cl4 O8'
_cell_volume   290.33677267
_cell_formula_units_Z   4
loop_
 _symmetry_equiv_pos_site_id
 _symmetry_equiv_pos_as_xyz
  1  'x, y, z'
loop_
 _atom_site_type_symbol
 _atom_site_label
 _atom_site_symmetry_multiplicity
 _atom_site_fract_x
 _atom_site_fract_y
 _atom_site_fract_z
 _atom_site_occupancy
  Yb  Yb0  1  0.44908940  0.75000000  0.25323194  1.0
  Yb  Yb1  1  0.94908940  0.75000000  0.24676806  1.0
  Yb  Yb2  1  0.55091060  0.25000000  0.74676806  1.0
  Yb  Yb3  1  0.05091060  0.25000000  0.75323194  1.0
  H  H4  1  0.38181517  0.75000000  0.81514709  1.0
  H  H5  1  0.88181517  0.75000000  0.68485291  1.0
  H  H6  1  0.61818483  0.25000000  0.18485291  1.0
  H  H7  1  0.11818483  0.25000000  0.31514709  1.0
  H  H8  1  0.15538878  0.75000000  0.04162751  1.0
  H  H9  1  0.65538878  0.75000000  0.45837249  1.0
  H  H10  1  0.84461122  0.25000000  0.95837249  1.0
  H  H11  1  0.34461122  0.25000000  0.54162751  1.0
  Cl  Cl12  1  0.21053350  0.75000000  0.61590669  1.0
  Cl  Cl13  1  0.71053350  0.75000000  0.88409331  1.0
  Cl  Cl14  1  0.78946650  0.25000000  0.38409331  1.0
  Cl  Cl15  1  0.28946650  0.25000000  0.11590669  1.0
  O  O16  1  0.45333470  0.75000000  0.86957653  1.0
  O  O17  1  0.95333470  0.75000000  0.63042347  1.0
  O  O18  1  0.54666530  0.25000000  0.13042347  1.0
  O  O19  1  0.04666530  0.25000000  0.36957653  1.0
  O  O20  1  0.08190633  0.75000000  0.99975855  1.0
  O  O21  1  0.58190633  0.75000000  0.50024145  1.0
  O  O22  1  0.91809367  0.25000000  0.00024145  1.0
  O  O23  1  0.41809367  0.25000000  0.49975855  1.0
