# generated using pymatgen
data_K3GaTe3
_symmetry_space_group_name_H-M   'P 1'
_cell_length_a   8.69693765
_cell_length_b   14.95086967
_cell_length_c   10.71888249
_cell_angle_alpha   90.00000000
_cell_angle_beta   126.05314831
_cell_angle_gamma   90.00000000
_symmetry_Int_Tables_number   1
_chemical_formula_structural   K3GaTe3
_chemical_formula_sum   'K12 Ga4 Te12'
_cell_volume   1126.80038835
_cell_formula_units_Z   4
loop_
 _symmetry_equiv_pos_site_id
 _symmetry_equiv_pos_as_xyz
  1  'x, y, z'
loop_
 _atom_site_type_symbol
 _atom_site_label
 _atom_site_symmetry_multiplicity
 _atom_site_fract_x
 _atom_site_fract_y
 _atom_site_fract_z
 _atom_site_occupancy
  K  K0  1  0.70239448  0.10392715  0.41555837  1.0
  K  K1  1  0.70239448  0.39607285  0.91555837  1.0
  K  K2  1  0.29760552  0.60392715  0.08444163  1.0
  K  K3  1  0.29760552  0.89607285  0.58444163  1.0
  K  K4  1  0.80818642  0.70897477  0.04300031  1.0
  K  K5  1  0.80818642  0.79102523  0.54300031  1.0
  K  K6  1  0.19181358  0.20897477  0.45699969  1.0
  K  K7  1  0.19181358  0.29102523  0.95699969  1.0
  K  K8  1  0.67345997  0.39242864  0.49466982  1.0
  K  K9  1  0.67345997  0.10757136  0.99466982  1.0
  K  K10  1  0.32654003  0.89242864  0.00533018  1.0
  K  K11  1  0.32654003  0.60757136  0.50533018  1.0
  Ga  Ga12  1  0.96057248  0.42343388  0.34723860  1.0
  Ga  Ga13  1  0.96057248  0.07656612  0.84723860  1.0
  Ga  Ga14  1  0.03942752  0.92343388  0.15276140  1.0
  Ga  Ga15  1  0.03942752  0.57656612  0.65276140  1.0
  Te  Te16  1  0.82656350  0.92526797  0.25363607  1.0
  Te  Te17  1  0.82656350  0.57473203  0.75363607  1.0
  Te  Te18  1  0.17343650  0.42526797  0.24636393  1.0
  Te  Te19  1  0.17343650  0.07473203  0.74636393  1.0
  Te  Te20  1  0.80947271  0.91600187  0.83572535  1.0
  Te  Te21  1  0.80947271  0.58399813  0.33572535  1.0
  Te  Te22  1  0.19052729  0.41600187  0.66427465  1.0
  Te  Te23  1  0.19052729  0.08399813  0.16427465  1.0
  Te  Te24  1  0.70438307  0.29435111  0.21649595  1.0
  Te  Te25  1  0.70438307  0.20564889  0.71649595  1.0
  Te  Te26  1  0.29561693  0.79435111  0.28350405  1.0
  Te  Te27  1  0.29561693  0.70564889  0.78350405  1.0
