# generated using pymatgen
data_Ni(NO2)4
_symmetry_space_group_name_H-M   'P 1'
_cell_length_a   7.34315243
_cell_length_b   7.34315243
_cell_length_c   8.07962825
_cell_angle_alpha   91.69760870
_cell_angle_beta   88.30239130
_cell_angle_gamma   117.60276300
_symmetry_Int_Tables_number   1
_chemical_formula_structural   Ni(NO2)4
_chemical_formula_sum   'Ni2 N8 O16'
_cell_volume   385.84990633
_cell_formula_units_Z   2
loop_
 _symmetry_equiv_pos_site_id
 _symmetry_equiv_pos_as_xyz
  1  'x, y, z'
loop_
 _atom_site_type_symbol
 _atom_site_label
 _atom_site_symmetry_multiplicity
 _atom_site_fract_x
 _atom_site_fract_y
 _atom_site_fract_z
 _atom_site_occupancy
  O  O0  1  1.65207284  0.04718529  0.29147432  1.0
  O  O1  1  0.95281471  -0.65207284  0.79147432  1.0
  O  O2  1  1.04718529  0.65207284  0.20852568  1.0
  O  O3  1  0.34792716  -0.04718529  0.70852568  1.0
  O  O4  1  0.23734668  -0.15527569  0.39317748  1.0
  O  O5  1  1.15527569  0.76265332  0.89317748  1.0
  O  O6  1  0.84472431  -0.76265332  0.10682252  1.0
  O  O7  1  1.76265332  0.15527569  0.60682252  1.0
  O  O8  1  0.62091465  -0.23556606  0.94910297  1.0
  O  O9  1  1.23556606  0.37908535  0.44910297  1.0
  O  O10  1  0.76443394  -0.37908535  0.55089703  1.0
  O  O11  1  1.37908535  0.23556606  0.05089703  1.0
  O  O12  1  1.46428004  0.27612412  0.49111187  1.0
  O  O13  1  0.72387588  -0.46428004  0.99111187  1.0
  O  O14  1  1.27612412  0.46428004  0.00888813  1.0
  O  O15  1  0.53571996  -0.27612412  0.50888813  1.0
  Ni  Ni16  1  1.50000000  0.00000000  0.50000000  1.0
  Ni  Ni17  1  1.00000000  -0.50000000  0.00000000  1.0
  N  N18  1  1.74457143  0.22929612  0.23910653  1.0
  N  N19  1  0.77070388  -0.74457143  0.73910653  1.0
  N  N20  1  1.22929612  0.74457143  0.26089347  1.0
  N  N21  1  0.25542857  -0.22929612  0.76089347  1.0
  N  N22  1  0.71324963  -0.24608484  0.53937712  1.0
  N  N23  1  1.24608484  0.28675037  1.03937712  1.0
  N  N24  1  0.75391516  -0.28675037  -0.03937712  1.0
  N  N25  1  1.28675037  0.24608484  0.46062288  1.0
