# generated using pymatgen
data_SiAg6SO8
_symmetry_space_group_name_H-M   'P 1'
_cell_length_a   10.40508167
_cell_length_b   10.40508167
_cell_length_c   10.40508167
_cell_angle_alpha   140.48896411
_cell_angle_beta   140.48896411
_cell_angle_gamma   57.11162362
_symmetry_Int_Tables_number   1
_chemical_formula_structural   SiAg6SO8
_chemical_formula_sum   'Si2 Ag12 S2 O16'
_cell_volume   452.18621919
_cell_formula_units_Z   2
loop_
 _symmetry_equiv_pos_site_id
 _symmetry_equiv_pos_as_xyz
  1  'x, y, z'
loop_
 _atom_site_type_symbol
 _atom_site_label
 _atom_site_symmetry_multiplicity
 _atom_site_fract_x
 _atom_site_fract_y
 _atom_site_fract_z
 _atom_site_occupancy
  Si  Si0  1  -0.00000000  -0.00000000  -0.00000000  1.0
  Si  Si1  1  0.75000000  1.25000000  0.50000000  1.0
  Ag  Ag2  1  1.66984499  1.12500000  1.04484499  1.0
  Ag  Ag3  1  1.08015501  1.12500000  0.45515501  1.0
  Ag  Ag4  1  0.87500000  0.91984499  0.54484499  1.0
  Ag  Ag5  1  1.37500000  0.91984499  1.04484499  1.0
  Ag  Ag6  1  1.66984499  1.62500000  1.54484499  1.0
  Ag  Ag7  1  1.08015501  1.62500000  0.95515501  1.0
  Ag  Ag8  1  0.87500000  1.33015501  0.95515501  1.0
  Ag  Ag9  1  1.37500000  1.33015501  1.45515501  1.0
  Ag  Ag10  1  1.23518529  1.23518529  1.00000000  1.0
  Ag  Ag11  1  0.98518529  1.48518529  0.50000000  1.0
  Ag  Ag12  1  0.51481471  0.01481471  0.50000000  1.0
  Ag  Ag13  1  0.76481471  0.76481471  0.00000000  1.0
  S  S14  1  0.50000000  0.50000000  1.00000000  1.0
  S  S15  1  1.25000000  0.75000000  0.50000000  1.0
  O  O16  1  0.05158135  0.85657186  0.80499052  1.0
  O  O17  1  1.60657186  1.30158135  1.30499052  1.0
  O  O18  1  0.99659083  1.30158135  0.69500948  1.0
  O  O19  1  0.05158135  0.24659083  0.19500948  1.0
  O  O20  1  0.69841865  1.39342814  0.69500948  1.0
  O  O21  1  1.14342814  0.94841865  0.19500948  1.0
  O  O22  1  1.75340917  0.94841865  0.80499052  1.0
  O  O23  1  0.69841865  1.00340917  0.30499052  1.0
  O  O24  1  1.45263457  1.27810427  0.82546970  1.0
  O  O25  1  1.02810427  0.70263457  0.32546970  1.0
  O  O26  1  1.37716487  0.70263457  0.67453030  1.0
  O  O27  1  1.45263457  1.62716487  1.17453030  1.0
  O  O28  1  1.29736543  0.97189573  0.67453030  1.0
  O  O29  1  0.72189573  0.54736543  1.17453030  1.0
  O  O30  1  0.37283513  0.54736543  0.82546970  1.0
  O  O31  1  1.29736543  1.62283513  1.32546970  1.0
