# generated using pymatgen
data_RbSmTa2O7
_symmetry_space_group_name_H-M   'P 1'
_cell_length_a   3.89974747
_cell_length_b   3.89974747
_cell_length_c   11.29027038
_cell_angle_alpha   90.00000000
_cell_angle_beta   90.00000000
_cell_angle_gamma   90.00000000
_symmetry_Int_Tables_number   1
_chemical_formula_structural   RbSmTa2O7
_chemical_formula_sum   'Rb1 Sm1 Ta2 O7'
_cell_volume   171.70277467
_cell_formula_units_Z   1
loop_
 _symmetry_equiv_pos_site_id
 _symmetry_equiv_pos_as_xyz
  1  'x, y, z'
loop_
 _atom_site_type_symbol
 _atom_site_label
 _atom_site_symmetry_multiplicity
 _atom_site_fract_x
 _atom_site_fract_y
 _atom_site_fract_z
 _atom_site_occupancy
  Sm  Sm0  1  0.50000000  0.50000000  0.00000000  1.0
  Ta  Ta1  1  0.00000000  0.00000000  0.80151639  1.0
  Ta  Ta2  1  0.00000000  0.00000000  0.19848361  1.0
  Rb  Rb3  1  0.50000000  0.50000000  0.50000000  1.0
  O  O4  1  0.00000000  0.50000000  0.84017182  1.0
  O  O5  1  0.00000000  0.50000000  0.15982818  1.0
  O  O6  1  0.50000000  0.00000000  0.84017182  1.0
  O  O7  1  0.50000000  0.00000000  0.15982818  1.0
  O  O8  1  0.00000000  0.00000000  0.64166169  1.0
  O  O9  1  0.00000000  0.00000000  0.35833831  1.0
  O  O10  1  0.00000000  0.00000000  0.00000000  1.0
