# generated using pymatgen
data_Na3H5(SeO4)4
_symmetry_space_group_name_H-M   'P 1'
_cell_length_a   6.01804442
_cell_length_b   9.23347937
_cell_length_c   7.39077820
_cell_angle_alpha   105.12392375
_cell_angle_beta   105.47809803
_cell_angle_gamma   92.98353864
_symmetry_Int_Tables_number   1
_chemical_formula_structural   Na3H5(SeO4)4
_chemical_formula_sum   'Na3 H5 Se4 O16'
_cell_volume   378.80177477
_cell_formula_units_Z   1
loop_
 _symmetry_equiv_pos_site_id
 _symmetry_equiv_pos_as_xyz
  1  'x, y, z'
loop_
 _atom_site_type_symbol
 _atom_site_label
 _atom_site_symmetry_multiplicity
 _atom_site_fract_x
 _atom_site_fract_y
 _atom_site_fract_z
 _atom_site_occupancy
  Na  Na0  1  -0.69335308  -0.91935797  -0.36929072  1.0
  Na  Na1  1  -0.30664692  -0.08064203  -0.63070928  1.0
  Na  Na2  1  -0.50000000  -0.50000000  -0.00000000  1.0
  H  H3  1  -0.35001874  -0.62642224  -0.61086297  1.0
  H  H4  1  -0.64998126  -0.37357776  -0.38913703  1.0
  H  H5  1  -0.08362522  -0.87365587  -0.87595905  1.0
  H  H6  1  -0.91637478  -0.12634413  -0.12404095  1.0
  H  H7  1  -0.00000000  -0.50000000  0.00000000  1.0
  Se  Se8  1  -0.83415530  -0.32183327  -0.67755849  1.0
  Se  Se9  1  -0.16584470  -0.67816673  -0.32244151  1.0
  Se  Se10  1  -0.70296288  -0.84343805  -0.85338912  1.0
  Se  Se11  1  -0.29703712  -0.15656195  -0.14661088  1.0
  O  O12  1  -0.96776664  -0.77903370  -0.83970551  1.0
  O  O13  1  -0.03223336  -0.22096630  -0.16029449  1.0
  O  O14  1  -0.94045011  -0.56587952  -0.14125244  1.0
  O  O15  1  -0.05954989  -0.43412048  -0.85874756  1.0
  O  O16  1  -0.92579247  -0.16695726  -0.57304122  1.0
  O  O17  1  -0.07420753  -0.83304274  -0.42695878  1.0
  O  O18  1  -0.76915632  -0.43294217  -0.51888177  1.0
  O  O19  1  -0.23084368  -0.56705783  -0.48111823  1.0
  O  O20  1  -0.75473940  -0.96378124  -0.07475624  1.0
  O  O21  1  -0.24526060  -0.03621876  -0.92524376  1.0
  O  O22  1  -0.60940611  -0.91989009  -0.67436366  1.0
  O  O23  1  -0.39059389  -0.08010991  -0.32563634  1.0
  O  O24  1  -0.61192886  -0.30071139  -0.76229860  1.0
  O  O25  1  -0.38807114  -0.69928861  -0.23770140  1.0
  O  O26  1  -0.53176069  -0.68830270  -0.82553988  1.0
  O  O27  1  -0.46823931  -0.31169730  -0.17446012  1.0
