# generated using pymatgen
data_TeO3
_symmetry_space_group_name_H-M   'P 1'
_cell_length_a   9.92023891
_cell_length_b   8.25698755
_cell_length_c   5.26336400
_cell_angle_alpha   90.00000000
_cell_angle_beta   90.00000000
_cell_angle_gamma   90.00000000
_symmetry_Int_Tables_number   1
_chemical_formula_structural   TeO3
_chemical_formula_sum   'Te8 O24'
_cell_volume   431.12893112
_cell_formula_units_Z   8
loop_
 _symmetry_equiv_pos_site_id
 _symmetry_equiv_pos_as_xyz
  1  'x, y, z'
loop_
 _atom_site_type_symbol
 _atom_site_label
 _atom_site_symmetry_multiplicity
 _atom_site_fract_x
 _atom_site_fract_y
 _atom_site_fract_z
 _atom_site_occupancy
  O  O0  1  0.53014411  0.08060432  0.98738366  1.0
  O  O1  1  1.03014411  0.41939568  0.98738366  1.0
  O  O2  1  0.46985589  0.91939568  0.48738366  1.0
  O  O3  1  -0.03014411  0.58060432  0.48738366  1.0
  O  O4  1  0.49957598  0.42421032  0.11211135  1.0
  O  O5  1  0.99957598  0.07578968  0.11211135  1.0
  O  O6  1  0.50042402  0.57578968  0.61211135  1.0
  O  O7  1  0.00042402  0.92421032  0.61211135  1.0
  O  O8  1  0.07132396  0.24268755  0.56346755  1.0
  O  O9  1  0.57132396  0.25731245  0.56346755  1.0
  O  O10  1  0.92867604  0.75731245  1.06346755  1.0
  O  O11  1  0.42867604  0.74268755  1.06346755  1.0
  O  O12  1  0.20621113  0.85895606  0.27343140  1.0
  O  O13  1  0.70621113  0.64104394  0.27343140  1.0
  O  O14  1  0.79378887  0.14104394  0.77343140  1.0
  O  O15  1  0.29378887  0.35895606  0.77343140  1.0
  O  O16  1  0.24408667  0.50565963  0.34766398  1.0
  O  O17  1  0.74408667  -0.00565963  0.34766398  1.0
  O  O18  1  0.75591333  0.49434037  0.84766398  1.0
  O  O19  1  0.25591333  1.00565963  0.84766398  1.0
  O  O20  1  0.31654291  0.18822409  0.28856166  1.0
  O  O21  1  0.81654291  0.31177591  0.28856166  1.0
  O  O22  1  0.68345709  0.81177591  0.78856166  1.0
  O  O23  1  0.18345709  0.68822409  0.78856166  1.0
  Te  Te24  1  0.41082456  0.38066594  0.44967166  1.0
  Te  Te25  1  0.91082456  0.11933406  0.44967166  1.0
  Te  Te26  1  0.58917544  0.61933406  -0.05032834  1.0
  Te  Te27  1  0.08917544  0.88066594  -0.05032834  1.0
  Te  Te28  1  0.37532386  0.97178570  0.15770873  1.0
  Te  Te29  1  0.87532386  0.52821430  0.15770873  1.0
  Te  Te30  1  0.62467614  0.02821430  0.65770873  1.0
  Te  Te31  1  0.12467614  0.47178570  0.65770873  1.0
