# generated using pymatgen
data_Nd4Re6O19
_symmetry_space_group_name_H-M   'P 1'
_cell_length_a   7.87208491
_cell_length_b   7.87208491
_cell_length_c   7.87208491
_cell_angle_alpha   109.47122063
_cell_angle_beta   109.47122063
_cell_angle_gamma   109.47122063
_symmetry_Int_Tables_number   1
_chemical_formula_structural   Nd4Re6O19
_chemical_formula_sum   'Nd4 Re6 O19'
_cell_volume   375.53240488
_cell_formula_units_Z   1
loop_
 _symmetry_equiv_pos_site_id
 _symmetry_equiv_pos_as_xyz
  1  'x, y, z'
loop_
 _atom_site_type_symbol
 _atom_site_label
 _atom_site_symmetry_multiplicity
 _atom_site_fract_x
 _atom_site_fract_y
 _atom_site_fract_z
 _atom_site_occupancy
  Nd  Nd0  1  0.69294768  0.69294768  0.69294768  1.0
  Nd  Nd1  1  1.00000000  1.00000000  0.30705232  1.0
  Nd  Nd2  1  1.00000000  0.30705232  1.00000000  1.0
  Nd  Nd3  1  0.30705232  1.00000000  1.00000000  1.0
  Re  Re4  1  0.36717517  0.86717517  0.50000000  1.0
  Re  Re5  1  0.50000000  0.36717517  0.86717517  1.0
  Re  Re6  1  0.50000000  0.63282483  0.13282483  1.0
  Re  Re7  1  0.86717517  0.50000000  0.36717517  1.0
  Re  Re8  1  0.13282483  0.50000000  0.63282483  1.0
  Re  Re9  1  0.63282483  0.13282483  0.50000000  1.0
  O  O10  1  0.34959215  0.62696167  0.29024031  1.0
  O  O11  1  1.33672136  1.05935184  0.70975969  1.0
  O  O12  1  0.29024031  0.34959215  0.62696167  1.0
  O  O13  1  0.72263048  0.66327864  0.37303833  1.0
  O  O14  1  0.62696167  0.29024031  0.34959215  1.0
  O  O15  1  0.94064816  1.27736952  1.65040785  1.0
  O  O16  1  0.66327864  0.37303833  0.72263048  1.0
  O  O17  1  1.65040785  0.94064816  1.27736952  1.0
  O  O18  1  1.27736952  1.65040785  0.94064816  1.0
  O  O19  1  0.70975969  1.33672136  1.05935184  1.0
  O  O20  1  1.05935184  0.70975969  1.33672136  1.0
  O  O21  1  0.37303833  0.72263048  0.66327864  1.0
  O  O22  1  0.67869806  0.67869806  -0.00000000  1.0
  O  O23  1  -0.00000000  0.67869806  0.67869806  1.0
  O  O24  1  0.00000000  0.32130194  0.32130194  1.0
  O  O25  1  0.67869806  -0.00000000  0.67869806  1.0
  O  O26  1  0.32130194  -0.00000000  0.32130194  1.0
  O  O27  1  0.32130194  0.32130194  0.00000000  1.0
  O  O28  1  0.00000000  0.00000000  0.00000000  1.0
