# generated using pymatgen
data_CaZr(PO4)2
_symmetry_space_group_name_H-M   'P 1'
_cell_length_a   6.31420634
_cell_length_b   14.91684401
_cell_length_c   6.78267704
_cell_angle_alpha   90.00000000
_cell_angle_beta   90.00000000
_cell_angle_gamma   90.00000000
_symmetry_Int_Tables_number   1
_chemical_formula_structural   CaZr(PO4)2
_chemical_formula_sum   'Ca4 Zr4 P8 O32'
_cell_volume   638.84699519
_cell_formula_units_Z   4
loop_
 _symmetry_equiv_pos_site_id
 _symmetry_equiv_pos_as_xyz
  1  'x, y, z'
loop_
 _atom_site_type_symbol
 _atom_site_label
 _atom_site_symmetry_multiplicity
 _atom_site_fract_x
 _atom_site_fract_y
 _atom_site_fract_z
 _atom_site_occupancy
  Ca  Ca0  1  0.56274645  0.65494467  0.49542304  1.0
  Ca  Ca1  1  0.06274645  0.84505533  0.49542304  1.0
  Ca  Ca2  1  0.43725355  0.34505533  -0.00457696  1.0
  Ca  Ca3  1  0.93725355  0.15494467  -0.00457696  1.0
  Zr  Zr4  1  0.82819414  0.61026712  0.99544908  1.0
  Zr  Zr5  1  0.32819414  0.88973288  0.99544908  1.0
  Zr  Zr6  1  0.17180586  0.38973288  0.49544908  1.0
  Zr  Zr7  1  0.67180586  0.11026712  0.49544908  1.0
  P  P8  1  0.54580903  0.88606580  0.49543600  1.0
  P  P9  1  0.04580903  0.61393420  0.49543600  1.0
  P  P10  1  0.45419097  0.11393420  0.99543600  1.0
  P  P11  1  0.95419097  0.38606580  0.99543600  1.0
  P  P12  1  0.87289401  0.85022715  0.99549264  1.0
  P  P13  1  0.37289401  0.64977285  0.99549264  1.0
  P  P14  1  0.12710599  0.14977285  0.49549264  1.0
  P  P15  1  0.62710599  0.35022715  0.49549264  1.0
  O  O16  1  0.52057474  0.62172359  0.16952346  1.0
  O  O17  1  0.02057474  0.87827641  0.16952346  1.0
  O  O18  1  0.47942526  0.37827641  0.66952346  1.0
  O  O19  1  0.97942526  0.12172359  0.66952346  1.0
  O  O20  1  0.52062197  0.62186323  0.82138637  1.0
  O  O21  1  0.02062197  0.87813677  0.82138637  1.0
  O  O22  1  0.47937803  0.37813677  0.32138637  1.0
  O  O23  1  0.97937803  0.12186323  0.32138637  1.0
  O  O24  1  0.60738899  0.11401977  0.17637345  1.0
  O  O25  1  0.10738899  0.38598023  0.17637345  1.0
  O  O26  1  0.39261101  0.88598023  0.67637345  1.0
  O  O27  1  0.89261101  0.61401977  0.67637345  1.0
  O  O28  1  0.66093843  0.90001297  -0.00460954  1.0
  O  O29  1  0.16093843  0.59998703  -0.00460954  1.0
  O  O30  1  0.33906157  0.09998703  0.49539046  1.0
  O  O31  1  0.83906157  0.40001297  0.49539046  1.0
  O  O32  1  0.69117907  0.80264275  0.49539049  1.0
  O  O33  1  0.19117907  0.69735725  0.49539049  1.0
  O  O34  1  0.30882093  0.19735725  0.99539049  1.0
  O  O35  1  0.80882093  0.30264275  0.99539049  1.0
  O  O36  1  0.69112657  0.97090737  0.49545851  1.0
  O  O37  1  0.19112657  0.52909263  0.49545851  1.0
  O  O38  1  0.30887343  0.02909263  0.99545851  1.0
  O  O39  1  0.80887343  0.47090737  0.99545851  1.0
  O  O40  1  0.83558757  0.74775521  -0.00433465  1.0
  O  O41  1  0.33558757  0.75224479  -0.00433465  1.0
  O  O42  1  0.16441243  0.25224479  0.49566535  1.0
  O  O43  1  0.66441243  0.24775521  0.49566535  1.0
  O  O44  1  0.89260365  0.61397685  0.31451114  1.0
  O  O45  1  0.39260365  0.88602315  0.31451114  1.0
  O  O46  1  0.10739635  0.38602315  0.81451114  1.0
  O  O47  1  0.60739635  0.11397685  0.81451114  1.0
