# generated using pymatgen
data_Ce(TeO3)2
_symmetry_space_group_name_H-M   'P 1'
_cell_length_a   7.13900659
_cell_length_b   11.39560122
_cell_length_c   8.60672396
_cell_angle_alpha   90.00000000
_cell_angle_beta   125.98212445
_cell_angle_gamma   90.00000000
_symmetry_Int_Tables_number   1
_chemical_formula_structural   Ce(TeO3)2
_chemical_formula_sum   'Ce4 Te8 O24'
_cell_volume   566.59006509
_cell_formula_units_Z   4
loop_
 _symmetry_equiv_pos_site_id
 _symmetry_equiv_pos_as_xyz
  1  'x, y, z'
loop_
 _atom_site_type_symbol
 _atom_site_label
 _atom_site_symmetry_multiplicity
 _atom_site_fract_x
 _atom_site_fract_y
 _atom_site_fract_z
 _atom_site_occupancy
  Ce  Ce0  1  0.73508183  0.41027799  -0.00419118  1.0
  Ce  Ce1  1  0.73508183  0.08972201  0.49580882  1.0
  Ce  Ce2  1  0.26491817  0.91027799  0.50419118  1.0
  Ce  Ce3  1  0.26491817  0.58972201  1.00419118  1.0
  Te  Te4  1  0.74580984  0.41553258  0.47122412  1.0
  Te  Te5  1  0.74580984  0.08446742  0.97122412  1.0
  Te  Te6  1  0.25419016  0.91553258  0.02877588  1.0
  Te  Te7  1  0.25419016  0.58446742  0.52877588  1.0
  Te  Te8  1  0.19472954  0.22788629  0.44384524  1.0
  Te  Te9  1  0.19472954  0.27211371  0.94384524  1.0
  Te  Te10  1  0.80527046  0.72788629  0.05615476  1.0
  Te  Te11  1  0.80527046  0.77211371  0.55615476  1.0
  O  O12  1  0.88721402  0.40252807  0.33026088  1.0
  O  O13  1  0.88721402  0.09747193  0.83026088  1.0
  O  O14  1  0.11278598  0.90252807  0.16973912  1.0
  O  O15  1  0.11278598  0.59747193  0.66973912  1.0
  O  O16  1  0.55193404  0.27491052  0.36444476  1.0
  O  O17  1  0.55193404  0.22508948  0.86444476  1.0
  O  O18  1  0.44806596  0.77491052  0.13555524  1.0
  O  O19  1  0.44806596  0.72508948  0.63555524  1.0
  O  O20  1  0.50679268  0.02986482  0.19424531  1.0
  O  O21  1  0.50679268  0.47013518  0.69424531  1.0
  O  O22  1  0.49320732  0.52986482  0.30575469  1.0
  O  O23  1  0.49320732  0.97013518  0.80575469  1.0
  O  O24  1  0.39733535  0.09772722  0.47264027  1.0
  O  O25  1  0.39733535  0.40227278  0.97264027  1.0
  O  O26  1  0.60266465  0.59772722  0.02735973  1.0
  O  O27  1  0.60266465  0.90227278  0.52735973  1.0
  O  O28  1  0.99447351  0.09738877  0.41386512  1.0
  O  O29  1  0.99447351  0.40261123  0.91386512  1.0
  O  O30  1  0.00552649  0.59738877  0.08613488  1.0
  O  O31  1  0.00552649  0.90261123  0.58613488  1.0
  O  O32  1  0.97735327  0.74720140  0.33658433  1.0
  O  O33  1  0.97735327  0.75279860  0.83658433  1.0
  O  O34  1  0.02264673  0.24720140  0.16341567  1.0
  O  O35  1  0.02264673  0.25279860  0.66341567  1.0
