# generated using pymatgen
data_BaZnCl4
_symmetry_space_group_name_H-M   'P 1'
_cell_length_a   7.31454714
_cell_length_b   10.10697306
_cell_length_c   9.74378672
_cell_angle_alpha   90.00000000
_cell_angle_beta   90.00000000
_cell_angle_gamma   90.00000000
_symmetry_Int_Tables_number   1
_chemical_formula_structural   BaZnCl4
_chemical_formula_sum   'Ba4 Zn4 Cl16'
_cell_volume   720.33799109
_cell_formula_units_Z   4
loop_
 _symmetry_equiv_pos_site_id
 _symmetry_equiv_pos_as_xyz
  1  'x, y, z'
loop_
 _atom_site_type_symbol
 _atom_site_label
 _atom_site_symmetry_multiplicity
 _atom_site_fract_x
 _atom_site_fract_y
 _atom_site_fract_z
 _atom_site_occupancy
  Ba  Ba0  1  0.68144558  0.25000000  0.75000000  1.0
  Ba  Ba1  1  0.18144558  0.25000000  0.25000000  1.0
  Ba  Ba2  1  0.31855442  0.75000000  0.25000000  1.0
  Ba  Ba3  1  0.81855442  0.75000000  0.75000000  1.0
  Zn  Zn4  1  0.75000000  0.50000000  0.17287039  1.0
  Zn  Zn5  1  0.75000000  0.00000000  0.32712961  1.0
  Zn  Zn6  1  0.25000000  0.50000000  0.82712961  1.0
  Zn  Zn7  1  0.25000000  0.00000000  0.67287039  1.0
  Cl  Cl8  1  0.99373629  0.46554663  0.69400888  1.0
  Cl  Cl9  1  0.99373629  0.03445337  0.80599112  1.0
  Cl  Cl10  1  0.49373629  0.46554663  0.30599112  1.0
  Cl  Cl11  1  0.49373629  0.03445337  0.19400888  1.0
  Cl  Cl12  1  0.00626371  0.96554663  0.19400888  1.0
  Cl  Cl13  1  0.00626371  0.53445337  0.30599112  1.0
  Cl  Cl14  1  0.50626371  0.96554663  0.80599112  1.0
  Cl  Cl15  1  0.50626371  0.53445337  0.69400888  1.0
  Cl  Cl16  1  0.83511480  0.31614057  0.05142481  1.0
  Cl  Cl17  1  0.83511480  0.18385943  0.44857519  1.0
  Cl  Cl18  1  0.33511480  0.31614057  0.94857519  1.0
  Cl  Cl19  1  0.33511480  0.18385943  0.55142481  1.0
  Cl  Cl20  1  0.16488520  0.81614057  0.55142481  1.0
  Cl  Cl21  1  0.16488520  0.68385943  0.94857519  1.0
  Cl  Cl22  1  0.66488520  0.81614057  0.44857519  1.0
  Cl  Cl23  1  0.66488520  0.68385943  0.05142481  1.0
