# generated using pymatgen
data_Ca3Fe2Cl2O5
_symmetry_space_group_name_H-M   'P 1'
_cell_length_a   12.53928554
_cell_length_b   12.53928554
_cell_length_c   12.53928554
_cell_angle_alpha   162.45999286
_cell_angle_beta   162.45999286
_cell_angle_gamma   24.90415255
_symmetry_Int_Tables_number   1
_chemical_formula_structural   Ca3Fe2Cl2O5
_chemical_formula_sum   'Ca3 Fe2 Cl2 O5'
_cell_volume   179.01943283
_cell_formula_units_Z   1
loop_
 _symmetry_equiv_pos_site_id
 _symmetry_equiv_pos_as_xyz
  1  'x, y, z'
loop_
 _atom_site_type_symbol
 _atom_site_label
 _atom_site_symmetry_multiplicity
 _atom_site_fract_x
 _atom_site_fract_y
 _atom_site_fract_z
 _atom_site_occupancy
  Ca  Ca0  1  0.64612267  0.64612267  1.00000000  1.0
  Ca  Ca1  1  0.35387733  0.35387733  0.00000000  1.0
  Ca  Ca2  1  0.50000000  0.50000000  1.00000000  1.0
  Fe  Fe3  1  0.92139757  0.92139757  1.00000000  1.0
  Fe  Fe4  1  0.07860243  0.07860243  0.00000000  1.0
  Cl  Cl5  1  0.80376128  0.80376128  1.00000000  1.0
  Cl  Cl6  1  0.19623872  0.19623872  -0.00000000  1.0
  O  O7  1  0.41347684  0.91347684  0.50000000  1.0
  O  O8  1  0.58652316  0.08652316  0.50000000  1.0
  O  O9  1  0.91347684  0.41347684  0.50000000  1.0
  O  O10  1  0.08652316  0.58652316  0.50000000  1.0
  O  O11  1  0.00000000  0.00000000  0.00000000  1.0
