# generated using pymatgen
data_La(SbO3)3
_symmetry_space_group_name_H-M   'P 1'
_cell_length_a   5.60027352
_cell_length_b   5.60027352
_cell_length_c   11.93238629
_cell_angle_alpha   90.00000000
_cell_angle_beta   90.00000000
_cell_angle_gamma   107.06866106
_symmetry_Int_Tables_number   1
_chemical_formula_structural   La(SbO3)3
_chemical_formula_sum   'La2 Sb6 O18'
_cell_volume   357.75246977
_cell_formula_units_Z   2
loop_
 _symmetry_equiv_pos_site_id
 _symmetry_equiv_pos_as_xyz
  1  'x, y, z'
loop_
 _atom_site_type_symbol
 _atom_site_label
 _atom_site_symmetry_multiplicity
 _atom_site_fract_x
 _atom_site_fract_y
 _atom_site_fract_z
 _atom_site_occupancy
  La  La0  1  0.25468847  0.74531153  0.25000000  1.0
  La  La1  1  -0.25468847  1.25468847  0.75000000  1.0
  Sb  Sb2  1  -0.37816220  1.37816220  0.40819259  1.0
  Sb  Sb3  1  -0.37816220  1.37816220  0.09180741  1.0
  Sb  Sb4  1  0.37816220  0.62183780  0.90819259  1.0
  Sb  Sb5  1  0.37816220  0.62183780  0.59180741  1.0
  Sb  Sb6  1  0.00000000  0.00000000  0.50000000  1.0
  Sb  Sb7  1  0.00000000  0.00000000  0.00000000  1.0
  O  O8  1  -0.08172216  1.69237172  0.39995426  1.0
  O  O9  1  -0.08172216  1.69237172  0.10004574  1.0
  O  O10  1  0.69237172  0.91827784  0.89995426  1.0
  O  O11  1  0.69237172  0.91827784  0.60004574  1.0
  O  O12  1  -0.69237172  1.08172216  0.39995426  1.0
  O  O13  1  -0.69237172  1.08172216  0.10004574  1.0
  O  O14  1  0.08172216  0.30762828  0.89995426  1.0
  O  O15  1  0.08172216  0.30762828  0.60004574  1.0
  O  O16  1  0.16360244  0.83639756  0.88282802  1.0
  O  O17  1  0.16360244  0.83639756  0.61717198  1.0
  O  O18  1  -0.16360244  1.16360244  0.38282802  1.0
  O  O19  1  -0.16360244  1.16360244  0.11717198  1.0
  O  O20  1  0.39576245  0.60423755  0.42542748  1.0
  O  O21  1  0.39576245  0.60423755  0.07457252  1.0
  O  O22  1  -0.39576245  1.39576245  0.92542748  1.0
  O  O23  1  -0.39576245  1.39576245  0.57457252  1.0
  O  O24  1  -0.44432752  1.44432752  0.25000000  1.0
  O  O25  1  0.44432752  0.55567248  0.75000000  1.0
