# generated using pymatgen
data_La5(GeC)2
_symmetry_space_group_name_H-M   'P 1'
_cell_length_a   8.30146018
_cell_length_b   12.93096660
_cell_length_c   4.33075625
_cell_angle_alpha   90.00000000
_cell_angle_beta   90.00000000
_cell_angle_gamma   90.00000000
_symmetry_Int_Tables_number   1
_chemical_formula_structural   La5(GeC)2
_chemical_formula_sum   'La10 Ge4 C4'
_cell_volume   464.88894600
_cell_formula_units_Z   2
loop_
 _symmetry_equiv_pos_site_id
 _symmetry_equiv_pos_as_xyz
  1  'x, y, z'
loop_
 _atom_site_type_symbol
 _atom_site_label
 _atom_site_symmetry_multiplicity
 _atom_site_fract_x
 _atom_site_fract_y
 _atom_site_fract_z
 _atom_site_occupancy
  La  La0  1  0.33594748  0.93813627  0.50000000  1.0
  La  La1  1  0.83594748  0.56186373  0.50000000  1.0
  La  La2  1  0.66405252  0.06186373  0.50000000  1.0
  La  La3  1  0.16405252  0.43813627  0.50000000  1.0
  La  La4  1  0.17735460  0.71182909  -0.00000000  1.0
  La  La5  1  0.67735460  0.78817091  0.00000000  1.0
  La  La6  1  0.82264540  0.28817091  -0.00000000  1.0
  La  La7  1  0.32264540  0.21182909  0.00000000  1.0
  La  La8  1  0.50000000  0.50000000  0.00000000  1.0
  La  La9  1  0.00000000  0.00000000  0.00000000  1.0
  Ge  Ge10  1  0.45782346  0.67275657  0.50000000  1.0
  Ge  Ge11  1  0.95782346  0.82724343  0.50000000  1.0
  Ge  Ge12  1  0.54217654  0.32724343  0.50000000  1.0
  Ge  Ge13  1  0.04217654  0.17275657  0.50000000  1.0
  C  C14  1  0.04148808  0.54603234  -0.00000000  1.0
  C  C15  1  0.54148808  0.95396766  -0.00000000  1.0
  C  C16  1  0.95851192  0.45396766  -0.00000000  1.0
  C  C17  1  0.45851192  0.04603234  0.00000000  1.0
