# generated using pymatgen
data_La3GaI3
_symmetry_space_group_name_H-M   'P 1'
_cell_length_a   11.11700209
_cell_length_b   11.11700209
_cell_length_c   11.11700209
_cell_angle_alpha   109.47122063
_cell_angle_beta   109.47122063
_cell_angle_gamma   109.47122063
_symmetry_Int_Tables_number   1
_chemical_formula_structural   La3GaI3
_chemical_formula_sum   'La12 Ga4 I12'
_cell_volume   1057.64804684
_cell_formula_units_Z   4
loop_
 _symmetry_equiv_pos_site_id
 _symmetry_equiv_pos_as_xyz
  1  'x, y, z'
loop_
 _atom_site_type_symbol
 _atom_site_label
 _atom_site_symmetry_multiplicity
 _atom_site_fract_x
 _atom_site_fract_y
 _atom_site_fract_z
 _atom_site_occupancy
  La  La0  1  1.75000000  1.23686972  1.26313028  1.0
  La  La1  1  0.75000000  1.01313028  0.48686972  1.0
  La  La2  1  1.02626055  0.26313028  1.01313028  1.0
  La  La3  1  0.47373945  0.48686972  0.23686972  1.0
  La  La4  1  1.26313028  1.01313028  1.02626055  1.0
  La  La5  1  1.23686972  1.26313028  0.75000000  1.0
  La  La6  1  1.01313028  1.02626055  0.26313028  1.0
  La  La7  1  1.48686972  0.75000000  1.01313028  1.0
  La  La8  1  1.01313028  1.48686972  0.75000000  1.0
  La  La9  1  1.48686972  1.23686972  1.47373945  1.0
  La  La10  1  0.23686972  0.47373945  0.48686972  1.0
  La  La11  1  1.26313028  0.75000000  1.23686972  1.0
  Ga  Ga12  1  1.50000000  1.00000000  1.25000000  1.0
  Ga  Ga13  1  1.00000000  1.25000000  0.50000000  1.0
  Ga  Ga14  1  0.25000000  0.25000000  0.25000000  1.0
  Ga  Ga15  1  1.25000000  0.50000000  1.00000000  1.0
  I  I16  1  0.51441298  0.50720649  0.75720649  1.0
  I  I17  1  0.98558702  0.74279351  0.99279351  1.0
  I  I18  1  1.25000000  0.75720649  0.74279351  1.0
  I  I19  1  1.25000000  0.99279351  0.50720649  1.0
  I  I20  1  0.99279351  1.50720649  1.25000000  1.0
  I  I21  1  1.50720649  1.75720649  1.51441298  1.0
  I  I22  1  0.74279351  0.25000000  0.75720649  1.0
  I  I23  1  0.75720649  0.51441298  0.50720649  1.0
  I  I24  1  0.99279351  0.98558702  0.74279351  1.0
  I  I25  1  1.50720649  1.25000000  0.99279351  1.0
  I  I26  1  0.75720649  0.74279351  0.25000000  1.0
  I  I27  1  1.74279351  0.99279351  0.98558702  1.0
