# generated using pymatgen
data_LiMnPO4
_symmetry_space_group_name_H-M   'P 1'
_cell_length_a   10.27950814
_cell_length_b   6.43472025
_cell_length_c   4.82579711
_cell_angle_alpha   90.00000000
_cell_angle_beta   90.00000000
_cell_angle_gamma   90.00000000
_symmetry_Int_Tables_number   1
_chemical_formula_structural   LiMnPO4
_chemical_formula_sum   'Li4 Mn4 P4 O16'
_cell_volume   319.20601314
_cell_formula_units_Z   4
loop_
 _symmetry_equiv_pos_site_id
 _symmetry_equiv_pos_as_xyz
  1  'x, y, z'
loop_
 _atom_site_type_symbol
 _atom_site_label
 _atom_site_symmetry_multiplicity
 _atom_site_fract_x
 _atom_site_fract_y
 _atom_site_fract_z
 _atom_site_occupancy
  Li  Li0  1  0.78567787  0.25000000  0.49909016  1.0
  Li  Li1  1  0.28567787  0.25000000  1.00090984  1.0
  Li  Li2  1  0.21432213  0.75000000  0.50090984  1.0
  Li  Li3  1  0.71432213  0.75000000  -0.00090984  1.0
  Mn  Mn4  1  -0.00000000  0.50000000  0.00000000  1.0
  Mn  Mn5  1  -0.00000000  0.00000000  0.00000000  1.0
  Mn  Mn6  1  0.50000000  0.50000000  0.50000000  1.0
  Mn  Mn7  1  0.50000000  -0.00000000  0.50000000  1.0
  P  P8  1  0.59712786  0.25000000  0.07894191  1.0
  P  P9  1  0.09712786  0.25000000  0.42105809  1.0
  P  P10  1  0.40287214  0.75000000  0.92105809  1.0
  P  P11  1  0.90287214  0.75000000  0.57894191  1.0
  O  O12  1  0.58963043  0.25000000  0.75565168  1.0
  O  O13  1  0.08963043  0.25000000  0.74434832  1.0
  O  O14  1  0.41036957  0.75000000  0.24434832  1.0
  O  O15  1  0.91036957  0.75000000  0.25565168  1.0
  O  O16  1  0.66244392  0.44859641  0.19895021  1.0
  O  O17  1  0.66244392  0.05140359  0.19895021  1.0
  O  O18  1  0.16244392  0.44859641  0.30104979  1.0
  O  O19  1  0.16244392  0.05140359  0.30104979  1.0
  O  O20  1  0.33755608  0.94859641  0.80104979  1.0
  O  O21  1  0.33755608  0.55140359  0.80104979  1.0
  O  O22  1  0.83755608  0.94859641  0.69895021  1.0
  O  O23  1  0.83755608  0.55140359  0.69895021  1.0
  O  O24  1  0.95414558  0.25000000  0.28845973  1.0
  O  O25  1  0.45414558  0.25000000  0.21154027  1.0
  O  O26  1  0.04585442  0.75000000  0.71154027  1.0
  O  O27  1  0.54585442  0.75000000  0.78845973  1.0
