# generated using pymatgen
data_CaCu2Se2(ClO3)2
_symmetry_space_group_name_H-M   'P 1'
_cell_length_a   7.96052137
_cell_length_b   7.96052137
_cell_length_c   7.14022453
_cell_angle_alpha   87.75701784
_cell_angle_beta   92.24298216
_cell_angle_gamma   108.76418693
_symmetry_Int_Tables_number   1
_chemical_formula_structural   CaCu2Se2(ClO3)2
_chemical_formula_sum   'Ca2 Cu4 Se4 Cl4 O12'
_cell_volume   427.92967742
_cell_formula_units_Z   2
loop_
 _symmetry_equiv_pos_site_id
 _symmetry_equiv_pos_as_xyz
  1  'x, y, z'
loop_
 _atom_site_type_symbol
 _atom_site_label
 _atom_site_symmetry_multiplicity
 _atom_site_fract_x
 _atom_site_fract_y
 _atom_site_fract_z
 _atom_site_occupancy
  Ca  Ca0  1  1.34256780  0.34256780  0.25000000  1.0
  Ca  Ca1  1  0.65743220  -0.34256780  0.75000000  1.0
  Cu  Cu2  1  0.88255527  -0.11744473  0.25000000  1.0
  Cu  Cu3  1  1.11744473  0.11744473  0.75000000  1.0
  Cu  Cu4  1  1.50000000  0.00000000  0.50000000  1.0
  Cu  Cu5  1  1.00000000  -0.50000000  0.00000000  1.0
  Se  Se6  1  1.73186246  0.07051346  0.90575668  1.0
  Se  Se7  1  0.92948654  -0.73186246  0.40575668  1.0
  Se  Se8  1  1.07051346  0.73186246  0.59424332  1.0
  Se  Se9  1  0.26813754  -0.07051346  0.09424332  1.0
  Cl  Cl10  1  0.45832487  -0.30435841  0.41055002  1.0
  Cl  Cl11  1  1.30435841  0.54167513  0.91055002  1.0
  Cl  Cl12  1  0.69564159  -0.54167513  0.08944998  1.0
  Cl  Cl13  1  1.54167513  0.30435841  0.58944998  1.0
  O  O14  1  0.79492917  -0.10749197  0.99579531  1.0
  O  O15  1  1.10749197  0.20507083  0.49579531  1.0
  O  O16  1  0.89250803  -0.20507083  0.50420469  1.0
  O  O17  1  1.20507083  0.10749197  0.00420469  1.0
  O  O18  1  1.78559990  0.07182152  0.32133388  1.0
  O  O19  1  0.92817848  -0.78559990  0.82133388  1.0
  O  O20  1  1.07182152  0.78559990  0.17866612  1.0
  O  O21  1  0.21440010  -0.07182152  0.67866612  1.0
  O  O22  1  1.37200885  0.05565533  0.28583451  1.0
  O  O23  1  0.94434467  -0.37200885  0.78583451  1.0
  O  O24  1  1.05565533  0.37200885  0.21416549  1.0
  O  O25  1  0.62799115  -0.05565533  0.71416549  1.0
