# generated using pymatgen
data_CSeN
_symmetry_space_group_name_H-M   'P 1'
_cell_length_a   5.60181731
_cell_length_b   6.68613511
_cell_length_c   15.82692479
_cell_angle_alpha   90.00000000
_cell_angle_beta   90.00000000
_cell_angle_gamma   90.00000000
_symmetry_Int_Tables_number   1
_chemical_formula_structural   CSeN
_chemical_formula_sum   'C8 Se8 N8'
_cell_volume   592.78967164
_cell_formula_units_Z   8
loop_
 _symmetry_equiv_pos_site_id
 _symmetry_equiv_pos_as_xyz
  1  'x, y, z'
loop_
 _atom_site_type_symbol
 _atom_site_label
 _atom_site_symmetry_multiplicity
 _atom_site_fract_x
 _atom_site_fract_y
 _atom_site_fract_z
 _atom_site_occupancy
  C  C0  1  0.43420275  0.83310302  0.71142392  1.0
  C  C1  1  0.93420275  0.66689698  0.28857608  1.0
  C  C2  1  0.56579725  0.33310302  0.78857608  1.0
  C  C3  1  0.06579725  0.16689698  0.21142392  1.0
  C  C4  1  0.28335411  0.96774593  0.00945406  1.0
  C  C5  1  0.78335411  0.53225407  0.99054594  1.0
  C  C6  1  0.71664589  0.46774593  0.49054594  1.0
  C  C7  1  0.21664589  0.03225407  0.50945406  1.0
  Se  Se8  1  0.18409670  0.70452396  0.65756911  1.0
  Se  Se9  1  0.68409670  0.79547604  0.34243089  1.0
  Se  Se10  1  0.81590330  0.20452396  0.84243089  1.0
  Se  Se11  1  0.31590330  0.29547604  0.15756911  1.0
  Se  Se12  1  1.01596795  1.00761018  0.60152201  1.0
  Se  Se13  1  0.51596795  0.49238982  0.39847799  1.0
  Se  Se14  1  -0.01596795  0.50761018  0.89847799  1.0
  Se  Se15  1  0.48403205  -0.00761018  0.10152201  1.0
  N  N16  1  0.40131457  0.41017246  0.75677607  1.0
  N  N17  1  0.90131457  0.08982754  0.24322393  1.0
  N  N18  1  0.59868543  0.91017246  0.74322393  1.0
  N  N19  1  0.09868543  0.58982754  0.25677607  1.0
  N  N20  1  0.15795978  0.94743219  0.95087558  1.0
  N  N21  1  0.65795978  0.55256781  0.04912442  1.0
  N  N22  1  0.84204022  0.44743219  0.54912442  1.0
  N  N23  1  0.34204022  0.05256781  0.45087558  1.0
