# generated using pymatgen
data_Hf2Co4P3
_symmetry_space_group_name_H-M   'P 1'
_cell_length_a   12.04558394
_cell_length_b   12.04558394
_cell_length_c   3.63736488
_cell_angle_alpha   90.00000000
_cell_angle_beta   90.00000000
_cell_angle_gamma   120.00000000
_symmetry_Int_Tables_number   1
_chemical_formula_structural   Hf2Co4P3
_chemical_formula_sum   'Hf8 Co16 P12'
_cell_volume   457.06000227
_cell_formula_units_Z   4
loop_
 _symmetry_equiv_pos_site_id
 _symmetry_equiv_pos_as_xyz
  1  'x, y, z'
loop_
 _atom_site_type_symbol
 _atom_site_label
 _atom_site_symmetry_multiplicity
 _atom_site_fract_x
 _atom_site_fract_y
 _atom_site_fract_z
 _atom_site_occupancy
  Hf  Hf0  1  0.17569164  0.17569164  0.50000000  1.0
  Hf  Hf1  1  0.00000000  0.82430836  0.50000000  1.0
  Hf  Hf2  1  0.82430836  0.00000000  0.50000000  1.0
  Hf  Hf3  1  0.55545855  0.55545855  0.00000000  1.0
  Hf  Hf4  1  0.00000000  0.44454145  0.00000000  1.0
  Hf  Hf5  1  0.44454145  0.00000000  0.00000000  1.0
  Hf  Hf6  1  0.33333333  0.66666667  0.00000000  1.0
  Hf  Hf7  1  0.66666667  0.33333333  0.00000000  1.0
  Co  Co8  1  0.12708898  0.64532750  0.50000000  1.0
  Co  Co9  1  0.64532750  0.12708898  0.50000000  1.0
  Co  Co10  1  0.51823852  0.87291102  0.50000000  1.0
  Co  Co11  1  0.35467250  0.48176148  0.50000000  1.0
  Co  Co12  1  0.87291102  0.51823852  0.50000000  1.0
  Co  Co13  1  0.48176148  0.35467250  0.50000000  1.0
  Co  Co14  1  0.19316664  0.82163719  0.00000000  1.0
  Co  Co15  1  0.82163719  0.19316664  0.00000000  1.0
  Co  Co16  1  0.62847054  0.80683336  0.00000000  1.0
  Co  Co17  1  0.17836281  0.37152946  0.00000000  1.0
  Co  Co18  1  0.80683336  0.62847054  0.00000000  1.0
  Co  Co19  1  0.37152946  0.17836281  0.00000000  1.0
  Co  Co20  1  0.72189285  0.72189285  0.50000000  1.0
  Co  Co21  1  -0.00000000  0.27810715  0.50000000  1.0
  Co  Co22  1  0.27810715  0.00000000  0.50000000  1.0
  Co  Co23  1  0.00000000  0.00000000  0.00000000  1.0
  P  P24  1  0.30957568  0.82674695  0.50000000  1.0
  P  P25  1  0.82674695  0.30957568  0.50000000  1.0
  P  P26  1  0.51717127  0.69042432  0.50000000  1.0
  P  P27  1  0.17325305  0.48282873  0.50000000  1.0
  P  P28  1  0.69042432  0.51717127  0.50000000  1.0
  P  P29  1  0.48282873  0.17325305  0.50000000  1.0
  P  P30  1  0.82502524  0.82502524  0.00000000  1.0
  P  P31  1  -0.00000000  0.17497476  0.00000000  1.0
  P  P32  1  0.17497476  0.00000000  0.00000000  1.0
  P  P33  1  0.34485522  0.34485522  0.00000000  1.0
  P  P34  1  0.00000000  0.65514478  0.00000000  1.0
  P  P35  1  0.65514478  0.00000000  0.00000000  1.0
