# generated using pymatgen
data_LiAlSe2
_symmetry_space_group_name_H-M   'P 1'
_cell_length_a   6.91257796
_cell_length_b   8.33827535
_cell_length_c   6.60708959
_cell_angle_alpha   90.00000000
_cell_angle_beta   90.00000000
_cell_angle_gamma   90.00000000
_symmetry_Int_Tables_number   1
_chemical_formula_structural   LiAlSe2
_chemical_formula_sum   'Li4 Al4 Se8'
_cell_volume   380.82589453
_cell_formula_units_Z   4
loop_
 _symmetry_equiv_pos_site_id
 _symmetry_equiv_pos_as_xyz
  1  'x, y, z'
loop_
 _atom_site_type_symbol
 _atom_site_label
 _atom_site_symmetry_multiplicity
 _atom_site_fract_x
 _atom_site_fract_y
 _atom_site_fract_z
 _atom_site_occupancy
  Li  Li0  1  0.41245593  0.12186837  0.60986256  1.0
  Li  Li1  1  0.91245593  0.37813163  0.60986256  1.0
  Li  Li2  1  0.58754407  0.87813163  0.10986256  1.0
  Li  Li3  1  0.08754407  0.62186837  0.10986256  1.0
  Al  Al4  1  0.42694878  0.62606253  0.61344378  1.0
  Al  Al5  1  0.92694878  0.87393747  0.61344378  1.0
  Al  Al6  1  0.57305122  0.37393747  0.11344378  1.0
  Al  Al7  1  0.07305122  0.12606253  0.11344378  1.0
  Se  Se8  1  0.43533255  0.61698957  0.97998796  1.0
  Se  Se9  1  0.93533255  0.88301043  0.97998796  1.0
  Se  Se10  1  0.56466745  0.38301043  0.47998796  1.0
  Se  Se11  1  0.06466745  0.11698957  0.47998796  1.0
  Se  Se12  1  0.09422823  0.63604789  0.49930570  1.0
  Se  Se13  1  0.59422823  0.86395211  0.49930570  1.0
  Se  Se14  1  0.90577177  0.36395211  -0.00069430  1.0
  Se  Se15  1  0.40577177  0.13604789  -0.00069430  1.0
