# generated using pymatgen
data_H3ClO
_symmetry_space_group_name_H-M   'P 1'
_cell_length_a   4.51645682
_cell_length_b   4.51645682
_cell_length_c   4.51645682
_cell_angle_alpha   63.71812277
_cell_angle_beta   63.71812277
_cell_angle_gamma   63.71812277
_symmetry_Int_Tables_number   1
_chemical_formula_structural   H3ClO
_chemical_formula_sum   'H3 Cl1 O1'
_cell_volume   70.49142398
_cell_formula_units_Z   1
loop_
 _symmetry_equiv_pos_site_id
 _symmetry_equiv_pos_as_xyz
  1  'x, y, z'
loop_
 _atom_site_type_symbol
 _atom_site_label
 _atom_site_symmetry_multiplicity
 _atom_site_fract_x
 _atom_site_fract_y
 _atom_site_fract_z
 _atom_site_occupancy
  H  H0  1  0.79437156  0.14591801  -0.85408199  1.0
  H  H1  1  0.14591801  0.79437156  -0.85408199  1.0
  H  H2  1  0.14591801  0.14591801  -0.20562844  1.0
  Cl  Cl3  1  0.42704030  0.42704030  -0.57295970  1.0
  O  O4  1  -0.00394788  -0.00394788  -0.00394788  1.0
