# generated using pymatgen
data_Zr2CoP
_symmetry_space_group_name_H-M   'P 1'
_cell_length_a   5.25837257
_cell_length_b   3.64455415
_cell_length_c   7.46285497
_cell_angle_alpha   90.00000000
_cell_angle_beta   111.04985042
_cell_angle_gamma   90.00000000
_symmetry_Int_Tables_number   1
_chemical_formula_structural   Zr2CoP
_chemical_formula_sum   'Zr4 Co2 P2'
_cell_volume   133.47725442
_cell_formula_units_Z   2
loop_
 _symmetry_equiv_pos_site_id
 _symmetry_equiv_pos_as_xyz
  1  'x, y, z'
loop_
 _atom_site_type_symbol
 _atom_site_label
 _atom_site_symmetry_multiplicity
 _atom_site_fract_x
 _atom_site_fract_y
 _atom_site_fract_z
 _atom_site_occupancy
  Zr  Zr0  1  0.71098688  0.25000000  0.93643805  1.0
  Zr  Zr1  1  0.28901312  0.75000000  0.06356195  1.0
  Zr  Zr2  1  0.71261875  0.25000000  0.41914869  1.0
  Zr  Zr3  1  0.28738125  0.75000000  0.58085131  1.0
  Co  Co4  1  0.14439146  0.25000000  0.79038826  1.0
  Co  Co5  1  0.85560854  0.75000000  0.20961174  1.0
  P  P6  1  0.14767011  0.25000000  0.28926686  1.0
  P  P7  1  0.85232989  0.75000000  0.71073314  1.0
