# generated using pymatgen
data_RbAg3Te2
_symmetry_space_group_name_H-M   'P 1'
_cell_length_a   9.18302211
_cell_length_b   9.18302211
_cell_length_c   9.36248940
_cell_angle_alpha   67.94640224
_cell_angle_beta   112.05359776
_cell_angle_gamma   150.66563740
_symmetry_Int_Tables_number   1
_chemical_formula_structural   RbAg3Te2
_chemical_formula_sum   'Rb2 Ag6 Te4'
_cell_volume   356.46848681
_cell_formula_units_Z   2
loop_
 _symmetry_equiv_pos_site_id
 _symmetry_equiv_pos_as_xyz
  1  'x, y, z'
loop_
 _atom_site_type_symbol
 _atom_site_label
 _atom_site_symmetry_multiplicity
 _atom_site_fract_x
 _atom_site_fract_y
 _atom_site_fract_z
 _atom_site_occupancy
  Rb  Rb0  1  0.86381131  0.13618869  0.94982869  1.0
  Rb  Rb1  1  0.13618869  -0.13618869  0.05017131  1.0
  Ag  Ag2  1  0.93968730  0.06031270  0.59090712  1.0
  Ag  Ag3  1  0.06031270  -0.06031270  0.40909288  1.0
  Ag  Ag4  1  0.69090844  0.30909156  0.45607724  1.0
  Ag  Ag5  1  0.30909156  -0.30909156  0.54392276  1.0
  Ag  Ag6  1  0.58621658  0.41378342  0.62412457  1.0
  Ag  Ag7  1  0.41378342  -0.41378342  0.37587543  1.0
  Te  Te8  1  0.79980776  0.20019224  0.30338984  1.0
  Te  Te9  1  0.20019224  -0.20019224  0.69661016  1.0
  Te  Te10  1  0.47968838  -0.47968838  0.77735218  1.0
  Te  Te11  1  0.52031162  0.47968838  0.22264782  1.0
