# generated using pymatgen
data_BaCu2Ge2O7
_symmetry_space_group_name_H-M   'P 1'
_cell_length_a   7.15842459
_cell_length_b   13.35967097
_cell_length_c   7.23358728
_cell_angle_alpha   90.00000000
_cell_angle_beta   90.00000000
_cell_angle_gamma   90.00000000
_symmetry_Int_Tables_number   1
_chemical_formula_structural   BaCu2Ge2O7
_chemical_formula_sum   'Ba4 Cu8 Ge8 O28'
_cell_volume   691.77831202
_cell_formula_units_Z   4
loop_
 _symmetry_equiv_pos_site_id
 _symmetry_equiv_pos_as_xyz
  1  'x, y, z'
loop_
 _atom_site_type_symbol
 _atom_site_label
 _atom_site_symmetry_multiplicity
 _atom_site_fract_x
 _atom_site_fract_y
 _atom_site_fract_z
 _atom_site_occupancy
  Ba  Ba0  1  0.47366129  0.75000000  0.04696989  1.0
  Ba  Ba1  1  0.97366129  0.75000000  0.45303011  1.0
  Ba  Ba2  1  0.52633871  0.25000000  0.95303011  1.0
  Ba  Ba3  1  0.02633871  0.25000000  0.54696989  1.0
  Cu  Cu4  1  0.28287126  0.49535088  0.79358323  1.0
  Cu  Cu5  1  0.28287126  0.00464912  0.79358323  1.0
  Cu  Cu6  1  0.78287126  0.49535088  0.70641677  1.0
  Cu  Cu7  1  0.78287126  0.00464912  0.70641677  1.0
  Cu  Cu8  1  0.71712874  0.99535088  0.20641677  1.0
  Cu  Cu9  1  0.71712874  0.50464912  0.20641677  1.0
  Cu  Cu10  1  0.21712874  0.99535088  0.29358323  1.0
  Cu  Cu11  1  0.21712874  0.50464912  0.29358323  1.0
  Ge  Ge12  1  0.48637832  0.87132352  0.52384969  1.0
  Ge  Ge13  1  0.48637832  0.62867648  0.52384969  1.0
  Ge  Ge14  1  0.98637832  0.87132352  0.97615031  1.0
  Ge  Ge15  1  0.98637832  0.62867648  0.97615031  1.0
  Ge  Ge16  1  0.51362168  0.37132352  0.47615031  1.0
  Ge  Ge17  1  0.51362168  0.12867648  0.47615031  1.0
  Ge  Ge18  1  0.01362168  0.37132352  0.02384969  1.0
  Ge  Ge19  1  0.01362168  0.12867648  0.02384969  1.0
  O  O20  1  0.41428103  0.88192212  0.75617171  1.0
  O  O21  1  0.41428103  0.61807788  0.75617171  1.0
  O  O22  1  0.91428103  0.88192212  0.74382829  1.0
  O  O23  1  0.91428103  0.61807788  0.74382829  1.0
  O  O24  1  0.58571897  0.38192212  0.24382829  1.0
  O  O25  1  0.58571897  0.11807788  0.24382829  1.0
  O  O26  1  0.08571897  0.38192212  0.25617171  1.0
  O  O27  1  0.08571897  0.11807788  0.25617171  1.0
  O  O28  1  0.32227004  0.45507151  0.53178061  1.0
  O  O29  1  0.32227004  0.04492849  0.53178061  1.0
  O  O30  1  0.82227004  0.45507151  0.96821939  1.0
  O  O31  1  0.82227004  0.04492849  0.96821939  1.0
  O  O32  1  0.67772996  0.95507151  0.46821939  1.0
  O  O33  1  0.67772996  0.54492849  0.46821939  1.0
  O  O34  1  0.17772996  0.95507151  0.03178061  1.0
  O  O35  1  0.17772996  0.54492849  0.03178061  1.0
  O  O36  1  0.18902641  0.36476855  0.85004442  1.0
  O  O37  1  0.18902641  0.13523145  0.85004442  1.0
  O  O38  1  0.68902641  0.36476855  0.64995558  1.0
  O  O39  1  0.68902641  0.13523145  0.64995558  1.0
  O  O40  1  0.81097359  0.86476855  0.14995558  1.0
  O  O41  1  0.81097359  0.63523145  0.14995558  1.0
  O  O42  1  0.31097359  0.86476855  0.35004442  1.0
  O  O43  1  0.31097359  0.63523145  0.35004442  1.0
  O  O44  1  0.09988715  0.75000000  0.99992913  1.0
  O  O45  1  0.59988715  0.75000000  0.50007087  1.0
  O  O46  1  0.90011285  0.25000000  0.00007087  1.0
  O  O47  1  0.40011285  0.25000000  0.49992913  1.0
