# generated using pymatgen
data_Bi2(SO4)3
_symmetry_space_group_name_H-M   'P 1'
_cell_length_a   9.49826043
_cell_length_b   9.49826043
_cell_length_c   8.78972688
_cell_angle_alpha   78.25015059
_cell_angle_beta   101.74984941
_cell_angle_gamma   137.32573040
_symmetry_Int_Tables_number   1
_chemical_formula_structural   Bi2(SO4)3
_chemical_formula_sum   'Bi4 S6 O24'
_cell_volume   524.50407326
_cell_formula_units_Z   2
loop_
 _symmetry_equiv_pos_site_id
 _symmetry_equiv_pos_as_xyz
  1  'x, y, z'
loop_
 _atom_site_type_symbol
 _atom_site_label
 _atom_site_symmetry_multiplicity
 _atom_site_fract_x
 _atom_site_fract_y
 _atom_site_fract_z
 _atom_site_occupancy
  Bi  Bi0  1  1.53080140  0.22985319  0.06823829  1.0
  Bi  Bi1  1  0.77014681  -0.53080140  0.56823829  1.0
  Bi  Bi2  1  1.22985319  -0.46919860  0.43176171  1.0
  Bi  Bi3  1  1.46919860  -0.22985319  0.93176171  1.0
  S  S4  1  1.70177919  0.07745208  0.30692799  1.0
  S  S5  1  0.92254792  -0.70177919  0.80692799  1.0
  S  S6  1  1.07745208  -0.29822081  0.19307201  1.0
  S  S7  1  1.29822081  -0.07745208  0.69307201  1.0
  S  S8  1  0.53655779  0.53655779  0.25000000  1.0
  S  S9  1  0.46344221  0.46344221  0.75000000  1.0
  O  O10  1  1.63322509  -0.31440634  0.10891916  1.0
  O  O11  1  1.31440634  -0.63322509  0.60891916  1.0
  O  O12  1  0.68559366  -0.36677491  0.39108084  1.0
  O  O13  1  1.36677491  0.31440634  0.89108084  1.0
  O  O14  1  1.58162969  -0.12022568  0.40680497  1.0
  O  O15  1  1.12022568  -0.58162969  0.90680497  1.0
  O  O16  1  0.87977432  -0.41837031  0.09319503  1.0
  O  O17  1  1.41837031  0.12022568  0.59319503  1.0
  O  O18  1  1.64483329  0.04161881  0.13551212  1.0
  O  O19  1  0.95838119  -0.64483329  0.63551212  1.0
  O  O20  1  1.04161881  -0.35516671  0.36448788  1.0
  O  O21  1  1.35516671  -0.04161881  0.86448788  1.0
  O  O22  1  1.65305778  0.19163761  0.32918089  1.0
  O  O23  1  0.80836239  -0.65305778  0.82918089  1.0
  O  O24  1  1.19163761  -0.34694222  0.17081911  1.0
  O  O25  1  1.34694222  -0.19163761  0.67081911  1.0
  O  O26  1  1.20800634  -0.07172365  0.15591537  1.0
  O  O27  1  1.07172365  -0.20800634  0.65591537  1.0
  O  O28  1  0.92827635  -0.79199366  0.34408463  1.0
  O  O29  1  1.79199366  0.07172365  0.84408463  1.0
  O  O30  1  1.47441853  0.34164309  0.23371790  1.0
  O  O31  1  0.65835691  -0.47441853  0.73371790  1.0
  O  O32  1  1.34164309  -0.52558147  0.26628210  1.0
  O  O33  1  1.52558147  -0.34164309  0.76628210  1.0
