# generated using pymatgen
data_NaZnMoO5
_symmetry_space_group_name_H-M   'P 1'
_cell_length_a   8.66220998
_cell_length_b   9.29607880
_cell_length_c   6.21558598
_cell_angle_alpha   90.00000000
_cell_angle_beta   90.00000000
_cell_angle_gamma   90.00000000
_symmetry_Int_Tables_number   1
_chemical_formula_structural   NaZnMoO5
_chemical_formula_sum   'Na4 Zn4 Mo4 O20'
_cell_volume   500.50749142
_cell_formula_units_Z   4
loop_
 _symmetry_equiv_pos_site_id
 _symmetry_equiv_pos_as_xyz
  1  'x, y, z'
loop_
 _atom_site_type_symbol
 _atom_site_label
 _atom_site_symmetry_multiplicity
 _atom_site_fract_x
 _atom_site_fract_y
 _atom_site_fract_z
 _atom_site_occupancy
  O  O0  1  0.66702431  0.17350599  0.91871449  1.0
  O  O1  1  0.33297569  0.82649401  0.41871449  1.0
  O  O2  1  0.83297569  0.67350599  0.41871449  1.0
  O  O3  1  0.16702431  0.32649401  0.91871449  1.0
  O  O4  1  0.66090191  0.18409207  0.39156170  1.0
  O  O5  1  0.33909809  0.81590793  0.89156170  1.0
  O  O6  1  0.83909809  0.68409207  0.89156170  1.0
  O  O7  1  0.16090191  0.31590793  0.39156170  1.0
  O  O8  1  1.03829685  0.07894112  0.14538301  1.0
  O  O9  1  -0.03829685  0.92105888  0.64538301  1.0
  O  O10  1  0.46170315  0.57894112  0.64538301  1.0
  O  O11  1  0.53829685  0.42105888  0.14538301  1.0
  O  O12  1  0.86421076  0.37976143  0.15648328  1.0
  O  O13  1  0.13578924  0.62023857  0.65648328  1.0
  O  O14  1  0.63578924  0.87976143  0.65648328  1.0
  O  O15  1  0.36421076  0.12023857  0.15648328  1.0
  O  O16  1  0.41573843  0.09477298  0.65878858  1.0
  O  O17  1  0.58426157  0.90522702  0.15878858  1.0
  O  O18  1  0.08426157  0.59477298  0.15878858  1.0
  O  O19  1  0.91573843  0.40522702  0.65878858  1.0
  Mo  Mo20  1  0.68078624  0.28790529  0.15272267  1.0
  Mo  Mo21  1  0.31921376  0.71209471  0.65272267  1.0
  Mo  Mo22  1  0.81921376  0.78790529  0.65272267  1.0
  Mo  Mo23  1  0.18078624  0.21209471  0.15272267  1.0
  Zn  Zn24  1  -0.00993066  0.50077975  0.40269185  1.0
  Zn  Zn25  1  1.00993066  0.49922025  0.90269185  1.0
  Zn  Zn26  1  0.50993066  1.00077975  0.90269185  1.0
  Zn  Zn27  1  0.49006934  -0.00077975  0.40269185  1.0
  Na  Na28  1  0.86722382  0.15922184  0.64874441  1.0
  Na  Na29  1  0.13277618  0.84077816  0.14874441  1.0
  Na  Na30  1  0.63277618  0.65922184  0.14874441  1.0
  Na  Na31  1  0.36722382  0.34077816  0.64874441  1.0
