# generated using pymatgen
data_Na3Te(PO7)2
_symmetry_space_group_name_H-M   'P 1'
_cell_length_a   8.32095826
_cell_length_b   8.32095826
_cell_length_c   10.93167365
_cell_angle_alpha   90.00000000
_cell_angle_beta   90.00000000
_cell_angle_gamma   120.00000000
_symmetry_Int_Tables_number   1
_chemical_formula_structural   Na3Te(PO7)2
_chemical_formula_sum   'Na6 Te2 P4 O28'
_cell_volume   655.48683956
_cell_formula_units_Z   2
loop_
 _symmetry_equiv_pos_site_id
 _symmetry_equiv_pos_as_xyz
  1  'x, y, z'
loop_
 _atom_site_type_symbol
 _atom_site_label
 _atom_site_symmetry_multiplicity
 _atom_site_fract_x
 _atom_site_fract_y
 _atom_site_fract_z
 _atom_site_occupancy
  Na  Na0  1  0.52864916  0.47135084  0.25000000  1.0
  Na  Na1  1  0.52864916  0.05729832  0.25000000  1.0
  Na  Na2  1  0.47135084  0.52864916  0.75000000  1.0
  Na  Na3  1  0.47135084  0.94270168  0.75000000  1.0
  Na  Na4  1  0.94270168  0.47135084  0.25000000  1.0
  Na  Na5  1  0.05729832  0.52864916  0.75000000  1.0
  Te  Te6  1  0.00000000  0.00000000  0.25000000  1.0
  Te  Te7  1  0.00000000  0.00000000  0.75000000  1.0
  P  P8  1  0.33333333  0.66666667  0.02045242  1.0
  P  P9  1  0.33333333  0.66666667  0.47954758  1.0
  P  P10  1  0.66666667  0.33333333  0.97954758  1.0
  P  P11  1  0.66666667  0.33333333  0.52045242  1.0
  O  O12  1  0.39089197  0.85937258  0.07814289  1.0
  O  O13  1  0.39089197  0.53151939  0.42185711  1.0
  O  O14  1  0.85937258  0.39089197  0.92185711  1.0
  O  O15  1  0.85937258  0.46848061  0.57814289  1.0
  O  O16  1  0.46848061  0.85937258  0.42185711  1.0
  O  O17  1  0.46848061  0.60910803  0.07814289  1.0
  O  O18  1  0.14062742  0.60910803  0.42185711  1.0
  O  O19  1  0.14062742  0.53151939  0.07814289  1.0
  O  O20  1  0.60910803  0.46848061  0.92185711  1.0
  O  O21  1  0.60910803  0.14062742  0.57814289  1.0
  O  O22  1  0.53151939  0.39089197  0.57814289  1.0
  O  O23  1  0.53151939  0.14062742  0.92185711  1.0
  O  O24  1  0.97589447  0.77650340  0.16821115  1.0
  O  O25  1  0.97589447  0.19939107  0.33178885  1.0
  O  O26  1  0.77650340  0.97589447  0.83178885  1.0
  O  O27  1  0.77650340  0.80060893  0.66821115  1.0
  O  O28  1  0.80060893  0.77650340  0.33178885  1.0
  O  O29  1  0.80060893  0.02410553  0.16821115  1.0
  O  O30  1  0.22349660  0.02410553  0.33178885  1.0
  O  O31  1  0.22349660  0.19939107  0.16821115  1.0
  O  O32  1  0.02410553  0.80060893  0.83178885  1.0
  O  O33  1  0.02410553  0.22349660  0.66821115  1.0
  O  O34  1  0.19939107  0.97589447  0.66821115  1.0
  O  O35  1  0.19939107  0.22349660  0.83178885  1.0
  O  O36  1  0.33333333  0.66666667  0.61844705  1.0
  O  O37  1  0.33333333  0.66666667  0.88155295  1.0
  O  O38  1  0.66666667  0.33333333  0.38155295  1.0
  O  O39  1  0.66666667  0.33333333  0.11844705  1.0
