# generated using pymatgen
data_Zr6Be15Ni8
_symmetry_space_group_name_H-M   'P 1'
_cell_length_a   7.81352521
_cell_length_b   7.81352521
_cell_length_c   7.81352521
_cell_angle_alpha   60.00000000
_cell_angle_beta   60.00000000
_cell_angle_gamma   60.00000000
_symmetry_Int_Tables_number   1
_chemical_formula_structural   Zr6Be15Ni8
_chemical_formula_sum   'Zr6 Be15 Ni8'
_cell_volume   337.30754441
_cell_formula_units_Z   1
loop_
 _symmetry_equiv_pos_site_id
 _symmetry_equiv_pos_as_xyz
  1  'x, y, z'
loop_
 _atom_site_type_symbol
 _atom_site_label
 _atom_site_symmetry_multiplicity
 _atom_site_fract_x
 _atom_site_fract_y
 _atom_site_fract_z
 _atom_site_occupancy
  Zr  Zr0  1  -0.71084893  0.71084893  0.71084893  1.0
  Zr  Zr1  1  -0.28915107  0.28915107  0.71084893  1.0
  Zr  Zr2  1  0.71084893  0.71084893  -0.71084893  1.0
  Zr  Zr3  1  0.28915107  1.28915107  -0.28915107  1.0
  Zr  Zr4  1  0.28915107  -0.28915107  1.28915107  1.0
  Zr  Zr5  1  -0.28915107  0.28915107  0.28915107  1.0
  Be  Be6  1  0.67745970  0.67745970  -0.32254030  1.0
  Be  Be7  1  1.32254030  0.32254030  0.03237909  1.0
  Be  Be8  1  1.32254030  0.03237909  0.32254030  1.0
  Be  Be9  1  0.96762091  0.67745970  -0.32254030  1.0
  Be  Be10  1  1.03237909  0.32254030  0.32254030  1.0
  Be  Be11  1  0.67745970  0.96762091  -0.32254030  1.0
  Be  Be12  1  0.67745970  0.67745970  -0.03237909  1.0
  Be  Be13  1  1.32254030  0.32254030  0.32254030  1.0
  Be  Be14  1  1.50000000  -0.00000000  0.00000000  1.0
  Be  Be15  1  1.00000000  0.50000000  -0.50000000  1.0
  Be  Be16  1  -0.00000000  1.50000000  0.00000000  1.0
  Be  Be17  1  0.50000000  1.00000000  -0.50000000  1.0
  Be  Be18  1  0.00000000  -0.00000000  0.50000000  1.0
  Be  Be19  1  0.50000000  -0.50000000  1.00000000  1.0
  Be  Be20  1  0.00000000  0.00000000  0.00000000  1.0
  Ni  Ni21  1  0.87562534  0.87562534  -0.12437466  1.0
  Ni  Ni22  1  1.12437466  0.12437466  0.62687603  1.0
  Ni  Ni23  1  1.12437466  0.62687603  0.12437466  1.0
  Ni  Ni24  1  0.37312397  0.87562534  -0.12437466  1.0
  Ni  Ni25  1  1.62687603  0.12437466  0.12437466  1.0
  Ni  Ni26  1  0.87562534  0.37312397  -0.12437466  1.0
  Ni  Ni27  1  0.87562534  0.87562534  -0.62687603  1.0
  Ni  Ni28  1  1.12437466  0.12437466  0.12437466  1.0
