# generated using pymatgen
data_Ca2Sn5Pt3
_symmetry_space_group_name_H-M   'P 1'
_cell_length_a   7.48020166
_cell_length_b   4.50501011
_cell_length_c   26.81680494
_cell_angle_alpha   90.00000000
_cell_angle_beta   90.00000000
_cell_angle_gamma   90.00000000
_symmetry_Int_Tables_number   1
_chemical_formula_structural   Ca2Sn5Pt3
_chemical_formula_sum   'Ca8 Sn20 Pt12'
_cell_volume   903.68299379
_cell_formula_units_Z   4
loop_
 _symmetry_equiv_pos_site_id
 _symmetry_equiv_pos_as_xyz
  1  'x, y, z'
loop_
 _atom_site_type_symbol
 _atom_site_label
 _atom_site_symmetry_multiplicity
 _atom_site_fract_x
 _atom_site_fract_y
 _atom_site_fract_z
 _atom_site_occupancy
  Ca  Ca0  1  0.78769461  0.75000000  0.72656889  1.0
  Ca  Ca1  1  0.28769461  0.75000000  0.77343111  1.0
  Ca  Ca2  1  0.21230539  0.25000000  0.27343111  1.0
  Ca  Ca3  1  0.71230539  0.25000000  0.22656889  1.0
  Ca  Ca4  1  0.75248899  0.75000000  0.42307525  1.0
  Ca  Ca5  1  0.25248899  0.75000000  0.07692475  1.0
  Ca  Ca6  1  0.24751101  0.25000000  0.57692475  1.0
  Ca  Ca7  1  0.74751101  0.25000000  0.92307525  1.0
  Sn  Sn8  1  0.96099119  0.75000000  0.54342971  1.0
  Sn  Sn9  1  0.46099119  0.75000000  0.95657029  1.0
  Sn  Sn10  1  0.03900881  0.25000000  0.45657029  1.0
  Sn  Sn11  1  0.53900881  0.25000000  0.04342971  1.0
  Sn  Sn12  1  0.90931749  0.75000000  0.84703086  1.0
  Sn  Sn13  1  0.40931749  0.75000000  0.65296914  1.0
  Sn  Sn14  1  0.09068251  0.25000000  0.15296914  1.0
  Sn  Sn15  1  0.59068251  0.25000000  0.34703086  1.0
  Sn  Sn16  1  0.87610532  0.75000000  0.29807525  1.0
  Sn  Sn17  1  0.37610532  0.75000000  0.20192475  1.0
  Sn  Sn18  1  0.12389468  0.25000000  0.70192475  1.0
  Sn  Sn19  1  0.62389468  0.25000000  0.79807525  1.0
  Sn  Sn20  1  0.70979240  0.75000000  0.13097165  1.0
  Sn  Sn21  1  0.20979240  0.75000000  0.36902835  1.0
  Sn  Sn22  1  0.29020760  0.25000000  0.86902835  1.0
  Sn  Sn23  1  0.79020760  0.25000000  0.63097165  1.0
  Sn  Sn24  1  0.53594722  0.75000000  0.54322551  1.0
  Sn  Sn25  1  0.03594722  0.75000000  0.95677449  1.0
  Sn  Sn26  1  0.46405278  0.25000000  0.45677449  1.0
  Sn  Sn27  1  0.96405278  0.25000000  0.04322551  1.0
  Pt  Pt28  1  -0.00228170  0.75000000  0.20041297  1.0
  Pt  Pt29  1  0.49771830  0.75000000  0.29958703  1.0
  Pt  Pt30  1  1.00228170  0.25000000  0.79958703  1.0
  Pt  Pt31  1  0.50228170  0.25000000  0.70041297  1.0
  Pt  Pt32  1  0.75561660  0.75000000  0.02741623  1.0
  Pt  Pt33  1  0.25561660  0.75000000  0.47258377  1.0
  Pt  Pt34  1  0.24438340  0.25000000  0.97258377  1.0
  Pt  Pt35  1  0.74438340  0.25000000  0.52741623  1.0
  Pt  Pt36  1  0.54182396  0.75000000  0.85735378  1.0
  Pt  Pt37  1  0.04182396  0.75000000  0.64264622  1.0
  Pt  Pt38  1  0.45817604  0.25000000  0.14264622  1.0
  Pt  Pt39  1  0.95817604  0.25000000  0.35735378  1.0
