# generated using pymatgen
data_Mg3Ge
_symmetry_space_group_name_H-M   'P 1'
_cell_length_a   6.57755487
_cell_length_b   6.57755487
_cell_length_c   4.52108511
_cell_angle_alpha   90.00000000
_cell_angle_beta   90.00000000
_cell_angle_gamma   120.00000000
_symmetry_Int_Tables_number   1
_chemical_formula_structural   Mg3Ge
_chemical_formula_sum   'Mg6 Ge2'
_cell_volume   169.39565772
_cell_formula_units_Z   2
loop_
 _symmetry_equiv_pos_site_id
 _symmetry_equiv_pos_as_xyz
  1  'x, y, z'
loop_
 _atom_site_type_symbol
 _atom_site_label
 _atom_site_symmetry_multiplicity
 _atom_site_fract_x
 _atom_site_fract_y
 _atom_site_fract_z
 _atom_site_occupancy
  Mg  Mg0  1  0.64958132  0.74987809  0.74999172  1.0
  Mg  Mg1  1  0.25012191  0.89970322  0.74999172  1.0
  Mg  Mg2  1  0.10029678  0.35041868  0.74999172  1.0
  Mg  Mg3  1  0.35041868  0.25012191  0.25000828  1.0
  Mg  Mg4  1  0.74987809  0.10029678  0.25000828  1.0
  Mg  Mg5  1  0.89970322  0.64958132  0.25000828  1.0
  Ge  Ge6  1  0.66666667  0.33333333  0.74999013  1.0
  Ge  Ge7  1  0.33333333  0.66666667  0.25000987  1.0
