# generated using pymatgen
data_C3F4
_symmetry_space_group_name_H-M   'P 1'
_cell_length_a   8.98761267
_cell_length_b   5.45640899
_cell_length_c   8.91472096
_cell_angle_alpha   90.00000000
_cell_angle_beta   90.00000000
_cell_angle_gamma   90.00000000
_symmetry_Int_Tables_number   1
_chemical_formula_structural   C3F4
_chemical_formula_sum   'C12 F16'
_cell_volume   437.17872336
_cell_formula_units_Z   4
loop_
 _symmetry_equiv_pos_site_id
 _symmetry_equiv_pos_as_xyz
  1  'x, y, z'
loop_
 _atom_site_type_symbol
 _atom_site_label
 _atom_site_symmetry_multiplicity
 _atom_site_fract_x
 _atom_site_fract_y
 _atom_site_fract_z
 _atom_site_occupancy
  C  C0  1  0.00000000  0.91040233  0.75000000  1.0
  C  C1  1  0.50000000  0.58959767  0.25000000  1.0
  C  C2  1  0.00000000  0.08959767  0.25000000  1.0
  C  C3  1  0.50000000  0.41040233  0.75000000  1.0
  C  C4  1  0.94860770  0.67077377  0.69745141  1.0
  C  C5  1  0.55139230  0.82922623  0.19745141  1.0
  C  C6  1  0.05139230  0.67077377  0.80254859  1.0
  C  C7  1  0.44860770  0.82922623  0.30254859  1.0
  C  C8  1  0.05139230  0.32922623  0.30254859  1.0
  C  C9  1  0.44860770  0.17077377  0.80254859  1.0
  C  C10  1  0.94860770  0.32922623  0.19745141  1.0
  C  C11  1  0.55139230  0.17077377  0.69745141  1.0
  F  F12  1  0.08677511  0.06572621  0.66382024  1.0
  F  F13  1  0.41322489  0.43427379  0.16382024  1.0
  F  F14  1  0.91322489  0.06572621  0.83617976  1.0
  F  F15  1  0.58677511  0.43427379  0.33617976  1.0
  F  F16  1  0.91322489  0.93427379  0.33617976  1.0
  F  F17  1  0.58677511  0.56572621  0.83617976  1.0
  F  F18  1  0.08677511  0.93427379  0.16382024  1.0
  F  F19  1  0.41322489  0.56572621  0.66382024  1.0
  F  F20  1  0.85928286  0.55082755  0.60584672  1.0
  F  F21  1  0.64071714  0.94917245  0.10584672  1.0
  F  F22  1  0.14071714  0.55082755  0.89415328  1.0
  F  F23  1  0.35928286  0.94917245  0.39415328  1.0
  F  F24  1  0.14071714  0.44917245  0.39415328  1.0
  F  F25  1  0.35928286  0.05082755  0.89415328  1.0
  F  F26  1  0.85928286  0.44917245  0.10584672  1.0
  F  F27  1  0.64071714  0.05082755  0.60584672  1.0
