# generated using pymatgen
data_La2ZnGa2S6O
_symmetry_space_group_name_H-M   'P 1'
_cell_length_a   9.41755748
_cell_length_b   9.41755748
_cell_length_c   6.12295665
_cell_angle_alpha   90.00000000
_cell_angle_beta   90.00000000
_cell_angle_gamma   90.00000000
_symmetry_Int_Tables_number   1
_chemical_formula_structural   La2ZnGa2S6O
_chemical_formula_sum   'La4 Zn2 Ga4 S12 O2'
_cell_volume   543.04740648
_cell_formula_units_Z   2
loop_
 _symmetry_equiv_pos_site_id
 _symmetry_equiv_pos_as_xyz
  1  'x, y, z'
loop_
 _atom_site_type_symbol
 _atom_site_label
 _atom_site_symmetry_multiplicity
 _atom_site_fract_x
 _atom_site_fract_y
 _atom_site_fract_z
 _atom_site_occupancy
  La  La0  1  0.84447266  0.34447266  0.50747336  1.0
  La  La1  1  0.65552734  0.84447266  0.49252664  1.0
  La  La2  1  0.15552734  0.65552734  0.50747336  1.0
  La  La3  1  0.34447266  0.15552734  0.49252664  1.0
  Zn  Zn4  1  0.50000000  0.50000000  0.00000000  1.0
  Zn  Zn5  1  0.00000000  0.00000000  0.00000000  1.0
  Ga  Ga6  1  0.37173208  0.87173208  0.08642418  1.0
  Ga  Ga7  1  0.12826792  0.37173208  0.91357582  1.0
  Ga  Ga8  1  0.62826792  0.12826792  0.08642418  1.0
  Ga  Ga9  1  0.87173208  0.62826792  0.91357582  1.0
  S  S10  1  0.33197077  0.43566374  0.74120822  1.0
  S  S11  1  0.16802923  0.93566374  0.25879178  1.0
  S  S12  1  0.56433626  0.33197077  0.25879178  1.0
  S  S13  1  0.93566374  0.83197077  0.74120822  1.0
  S  S14  1  0.66802923  0.56433626  0.74120822  1.0
  S  S15  1  0.83197077  0.06433626  0.25879178  1.0
  S  S16  1  0.43566374  0.66802923  0.25879178  1.0
  S  S17  1  0.06433626  0.16802923  0.74120822  1.0
  S  S18  1  0.36834812  0.86834812  0.71959737  1.0
  S  S19  1  0.13165188  0.36834812  0.28040263  1.0
  S  S20  1  0.63165188  0.13165188  0.71959737  1.0
  S  S21  1  0.86834812  0.63165188  0.28040263  1.0
  O  O22  1  0.00000000  0.50000000  0.76385412  1.0
  O  O23  1  0.50000000  0.00000000  0.23614588  1.0
