# generated using pymatgen
data_Cu2PbSe2(BrO3)2
_symmetry_space_group_name_H-M   'P 1'
_cell_length_a   6.28019390
_cell_length_b   6.28019390
_cell_length_c   12.45029687
_cell_angle_alpha   90.00000000
_cell_angle_beta   90.00000000
_cell_angle_gamma   96.53252546
_symmetry_Int_Tables_number   1
_chemical_formula_structural   Cu2PbSe2(BrO3)2
_chemical_formula_sum   'Cu4 Pb2 Se4 Br4 O12'
_cell_volume   487.86193353
_cell_formula_units_Z   2
loop_
 _symmetry_equiv_pos_site_id
 _symmetry_equiv_pos_as_xyz
  1  'x, y, z'
loop_
 _atom_site_type_symbol
 _atom_site_label
 _atom_site_symmetry_multiplicity
 _atom_site_fract_x
 _atom_site_fract_y
 _atom_site_fract_z
 _atom_site_occupancy
  Cu  Cu0  1  0.18809064  0.18809064  0.00000000  1.0
  Cu  Cu1  1  0.81190936  0.81190936  0.50000000  1.0
  Cu  Cu2  1  0.81190936  0.81190936  0.00000000  1.0
  Cu  Cu3  1  0.18809064  0.18809064  0.50000000  1.0
  Pb  Pb4  1  -0.33211862  1.33211862  0.75000000  1.0
  Pb  Pb5  1  0.33211862  0.66788138  0.25000000  1.0
  Se  Se6  1  -0.31451414  1.31451414  0.03834070  1.0
  Se  Se7  1  0.31451414  0.68548586  0.53834070  1.0
  Se  Se8  1  -0.31451414  1.31451414  0.46165930  1.0
  Se  Se9  1  0.31451414  0.68548586  0.96165930  1.0
  Br  Br10  1  0.14605650  0.33000616  0.75000000  1.0
  Br  Br11  1  -0.14605650  1.66999384  0.25000000  1.0
  Br  Br12  1  0.66999384  0.85394350  0.75000000  1.0
  Br  Br13  1  -0.66999384  1.14605650  0.25000000  1.0
  O  O14  1  -0.20854340  1.51459717  0.95146779  1.0
  O  O15  1  0.20854340  0.48540283  0.45146779  1.0
  O  O16  1  -0.51459717  1.20854340  0.54853221  1.0
  O  O17  1  0.51459717  0.79145660  0.04853221  1.0
  O  O18  1  0.20854340  0.48540283  0.04853221  1.0
  O  O19  1  -0.20854340  1.51459717  0.54853221  1.0
  O  O20  1  0.51459717  0.79145660  0.45146779  1.0
  O  O21  1  -0.51459717  1.20854340  0.95146779  1.0
  O  O22  1  -0.12538794  1.12538794  0.01688440  1.0
  O  O23  1  0.12538794  0.87461206  0.51688440  1.0
  O  O24  1  -0.12538794  1.12538794  0.48311560  1.0
  O  O25  1  0.12538794  0.87461206  0.98311560  1.0
