# generated using pymatgen
data_ScP3(HO2)6
_symmetry_space_group_name_H-M   'P 1'
_cell_length_a   9.93860202
_cell_length_b   9.93860202
_cell_length_c   9.93860202
_cell_angle_alpha   50.24261377
_cell_angle_beta   50.24261377
_cell_angle_gamma   50.24261377
_symmetry_Int_Tables_number   1
_chemical_formula_structural   ScP3(HO2)6
_chemical_formula_sum   'Sc2 P6 H12 O24'
_cell_volume   534.21327985
_cell_formula_units_Z   2
loop_
 _symmetry_equiv_pos_site_id
 _symmetry_equiv_pos_as_xyz
  1  'x, y, z'
loop_
 _atom_site_type_symbol
 _atom_site_label
 _atom_site_symmetry_multiplicity
 _atom_site_fract_x
 _atom_site_fract_y
 _atom_site_fract_z
 _atom_site_occupancy
  Sc  Sc0  1  0.00077228  0.00077228  0.00077228  1.0
  Sc  Sc1  1  0.50077228  0.50077228  -0.49922772  1.0
  P  P2  1  0.59287418  0.90957730  -0.74842526  1.0
  P  P3  1  0.09287418  0.75157474  -0.59042270  1.0
  P  P4  1  0.75157474  0.40957730  -0.90712582  1.0
  P  P5  1  0.25157474  0.59287418  -0.09042270  1.0
  P  P6  1  0.40957730  0.09287418  -0.24842526  1.0
  P  P7  1  0.90957730  0.25157474  -0.40712582  1.0
  H  H8  1  0.96491379  -0.48949199  -0.18500165  1.0
  H  H9  1  0.46491379  0.31499835  0.01050801  1.0
  H  H10  1  0.31499835  1.01050801  -0.53508621  1.0
  H  H11  1  0.81499835  -0.03508621  -0.48949199  1.0
  H  H12  1  1.01050801  0.46491379  -0.68500165  1.0
  H  H13  1  0.51050801  -0.18500165  -0.03508621  1.0
  H  H14  1  1.02971513  -0.49568874  0.02275116  1.0
  H  H15  1  0.52971513  0.52275116  -0.99568874  1.0
  H  H16  1  0.52275116  0.00431126  -0.47028487  1.0
  H  H17  1  1.02275116  0.02971513  -0.49568874  1.0
  H  H18  1  0.00431126  0.52971513  -0.47724884  1.0
  H  H19  1  0.50431126  0.02275116  0.02971513  1.0
  O  O20  1  0.78136561  -0.09518966  0.18318432  1.0
  O  O21  1  0.28136561  0.68318432  -0.59518966  1.0
  O  O22  1  0.68318432  0.40481034  -0.71863439  1.0
  O  O23  1  1.18318432  -0.21863439  -0.09518966  1.0
  O  O24  1  0.40481034  0.28136561  -0.31681568  1.0
  O  O25  1  0.90481034  0.18318432  -0.21863439  1.0
  O  O26  1  0.59369685  0.72303328  -0.68047980  1.0
  O  O27  1  0.09369685  0.81952020  -0.77696672  1.0
  O  O28  1  0.81952020  0.22303328  -0.90630315  1.0
  O  O29  1  0.31952020  0.59369685  -0.27696672  1.0
  O  O30  1  0.22303328  0.09369685  -0.18047980  1.0
  O  O31  1  0.72303328  0.31952020  -0.40630315  1.0
  O  O32  1  0.91532214  -0.50760691  -0.05255755  1.0
  O  O33  1  0.41532214  0.44744245  -0.00760691  1.0
  O  O34  1  0.44744245  0.99239309  -0.58467786  1.0
  O  O35  1  0.94744245  -0.08467786  -0.50760691  1.0
  O  O36  1  0.99239309  0.41532214  -0.55255755  1.0
  O  O37  1  0.49239309  -0.05255755  -0.08467786  1.0
  O  O38  1  1.09066651  -0.49443966  0.07120865  1.0
  O  O39  1  0.59066651  -0.42879135  0.00556034  1.0
  O  O40  1  0.57120865  0.00556034  -0.40933349  1.0
  O  O41  1  1.07120865  0.09066651  -0.49443966  1.0
  O  O42  1  1.00556034  -0.40933349  -0.42879135  1.0
  O  O43  1  0.50556034  0.07120865  0.09066651  1.0
