# generated using pymatgen
data_Y7Co6Sn23
_symmetry_space_group_name_H-M   'P 1'
_cell_length_a   9.73216414
_cell_length_b   9.73216414
_cell_length_c   9.94451160
_cell_angle_alpha   90.00000000
_cell_angle_beta   90.00000000
_cell_angle_gamma   120.00000000
_symmetry_Int_Tables_number   1
_chemical_formula_structural   Y7Co6Sn23
_chemical_formula_sum   'Y7 Co6 Sn23'
_cell_volume   815.70465504
_cell_formula_units_Z   1
loop_
 _symmetry_equiv_pos_site_id
 _symmetry_equiv_pos_as_xyz
  1  'x, y, z'
loop_
 _atom_site_type_symbol
 _atom_site_label
 _atom_site_symmetry_multiplicity
 _atom_site_fract_x
 _atom_site_fract_y
 _atom_site_fract_z
 _atom_site_occupancy
  Y  Y0  1  0.04433471  0.52216735  0.30748327  1.0
  Y  Y1  1  0.52216735  0.04433471  0.69251673  1.0
  Y  Y2  1  0.52216735  0.47783265  0.69251673  1.0
  Y  Y3  1  0.47783265  0.52216735  0.30748327  1.0
  Y  Y4  1  0.47783265  0.95566529  0.30748327  1.0
  Y  Y5  1  0.95566529  0.47783265  0.69251673  1.0
  Y  Y6  1  0.00000000  0.00000000  0.00000000  1.0
  Co  Co7  1  0.33537285  0.16768643  0.19710350  1.0
  Co  Co8  1  0.16768643  0.33537285  0.80289650  1.0
  Co  Co9  1  0.16768643  0.83231357  0.80289650  1.0
  Co  Co10  1  0.83231357  0.16768643  0.19710350  1.0
  Co  Co11  1  0.83231357  0.66462715  0.19710350  1.0
  Co  Co12  1  0.66462715  0.83231357  0.80289650  1.0
  Sn  Sn13  1  0.76577994  0.88288997  0.27399231  1.0
  Sn  Sn14  1  0.88288997  0.76577994  0.72600769  1.0
  Sn  Sn15  1  0.88288997  0.11711003  0.72600769  1.0
  Sn  Sn16  1  0.11711003  0.88288997  0.27399231  1.0
  Sn  Sn17  1  0.11711003  0.23422006  0.27399231  1.0
  Sn  Sn18  1  0.23422006  0.11711003  0.72600769  1.0
  Sn  Sn19  1  0.43604986  0.21802493  0.45149517  1.0
  Sn  Sn20  1  0.21802493  0.43604986  0.54850483  1.0
  Sn  Sn21  1  0.21802493  0.78197507  0.54850483  1.0
  Sn  Sn22  1  0.78197507  0.21802493  0.45149517  1.0
  Sn  Sn23  1  0.78197507  0.56395014  0.45149517  1.0
  Sn  Sn24  1  0.56395014  0.78197507  0.54850483  1.0
  Sn  Sn25  1  0.65338512  0.65338512  0.00000000  1.0
  Sn  Sn26  1  0.65338512  0.00000000  0.00000000  1.0
  Sn  Sn27  1  0.00000000  0.65338512  -0.00000000  1.0
  Sn  Sn28  1  0.00000000  0.34661488  0.00000000  1.0
  Sn  Sn29  1  0.34661488  0.34661488  -0.00000000  1.0
  Sn  Sn30  1  0.34661488  -0.00000000  -0.00000000  1.0
  Sn  Sn31  1  0.33333333  0.66666667  0.11443830  1.0
  Sn  Sn32  1  0.66666667  0.33333333  0.88556170  1.0
  Sn  Sn33  1  0.33333333  0.66666667  0.81985313  1.0
  Sn  Sn34  1  0.66666667  0.33333333  0.18014687  1.0
  Sn  Sn35  1  -0.00000000  0.00000000  0.50000000  1.0
