# generated using pymatgen
data_Na4Si17
_symmetry_space_group_name_H-M   'P 1'
_cell_length_a   10.60940577
_cell_length_b   10.60940577
_cell_length_c   10.60940577
_cell_angle_alpha   58.87933663
_cell_angle_beta   58.87933663
_cell_angle_gamma   58.87933662
_symmetry_Int_Tables_number   1
_chemical_formula_structural   Na4Si17
_chemical_formula_sum   'Na8 Si34'
_cell_volume   822.81844636
_cell_formula_units_Z   2
loop_
 _symmetry_equiv_pos_site_id
 _symmetry_equiv_pos_as_xyz
  1  'x, y, z'
loop_
 _atom_site_type_symbol
 _atom_site_label
 _atom_site_symmetry_multiplicity
 _atom_site_fract_x
 _atom_site_fract_y
 _atom_site_fract_z
 _atom_site_occupancy
  Na  Na0  1  1.17662113  1.17662113  0.17662113  1.0
  Na  Na1  1  0.82337887  0.82337887  0.82337887  1.0
  Na  Na2  1  -0.00000000  0.50000000  -0.50000000  1.0
  Na  Na3  1  0.50000000  -0.00000000  -0.50000000  1.0
  Na  Na4  1  0.50000000  -0.50000000  0.00000000  1.0
  Na  Na5  1  1.50000000  0.50000000  0.50000000  1.0
  Na  Na6  1  0.92974386  0.92974386  0.92974386  1.0
  Na  Na7  1  1.07025614  1.07025614  0.07025614  1.0
  Si  Si8  1  1.73861899  0.12760714  0.50637001  1.0
  Si  Si9  1  1.73861899  0.50637001  0.12760714  1.0
  Si  Si10  1  1.50637001  0.73861899  0.12760714  1.0
  Si  Si11  1  1.12760714  0.73861899  0.50637001  1.0
  Si  Si12  1  1.12760714  0.50637001  0.73861899  1.0
  Si  Si13  1  1.50637001  0.12760714  0.73861899  1.0
  Si  Si14  1  1.26138101  0.87239286  0.49362999  1.0
  Si  Si15  1  1.26138101  0.49362999  0.87239286  1.0
  Si  Si16  1  1.49362999  0.26138101  0.87239286  1.0
  Si  Si17  1  1.87239286  0.26138101  0.49362999  1.0
  Si  Si18  1  1.87239286  0.49362999  0.26138101  1.0
  Si  Si19  1  1.49362999  0.87239286  0.26138101  1.0
  Si  Si20  1  1.37741162  0.37741162  0.37741162  1.0
  Si  Si21  1  1.62258838  0.62258838  0.62258838  1.0
  Si  Si22  1  1.28674106  1.28674106  0.28674106  1.0
  Si  Si23  1  0.71325894  0.71325894  0.71325894  1.0
  Si  Si24  1  1.65627467  0.28316074  0.28316074  1.0
  Si  Si25  1  1.28316074  0.65627467  0.28316074  1.0
  Si  Si26  1  1.28316074  0.28316074  0.65627467  1.0
  Si  Si27  1  1.34372533  0.71683926  0.71683926  1.0
  Si  Si28  1  1.71683926  0.34372533  0.71683926  1.0
  Si  Si29  1  1.71683926  0.71683926  0.34372533  1.0
  Si  Si30  1  1.13016866  1.50814302  0.13016866  1.0
  Si  Si31  1  1.13016866  1.13016866  0.50814302  1.0
  Si  Si32  1  1.50814302  1.13016866  0.13016866  1.0
  Si  Si33  1  0.86983134  1.49185698  -0.13016866  1.0
  Si  Si34  1  0.86983134  0.86983134  0.49185698  1.0
  Si  Si35  1  1.49185698  0.86983134  -0.13016866  1.0
  Si  Si36  1  1.13337599  1.73096709  0.13337599  1.0
  Si  Si37  1  1.13337599  1.13337599  0.73096709  1.0
  Si  Si38  1  1.73096709  1.13337599  0.13337599  1.0
  Si  Si39  1  0.86662401  1.26903291  -0.13337599  1.0
  Si  Si40  1  0.86662401  0.86662401  0.26903291  1.0
  Si  Si41  1  1.26903291  0.86662401  -0.13337599  1.0
