# generated using pymatgen
data_C4S3N4
_symmetry_space_group_name_H-M   'P 1'
_cell_length_a   5.09570244
_cell_length_b   17.24840079
_cell_length_c   10.40746942
_cell_angle_alpha   90.00000000
_cell_angle_beta   90.00000000
_cell_angle_gamma   90.00000000
_symmetry_Int_Tables_number   1
_chemical_formula_structural   C4S3N4
_chemical_formula_sum   'C16 S12 N16'
_cell_volume   914.74077567
_cell_formula_units_Z   4
loop_
 _symmetry_equiv_pos_site_id
 _symmetry_equiv_pos_as_xyz
  1  'x, y, z'
loop_
 _atom_site_type_symbol
 _atom_site_label
 _atom_site_symmetry_multiplicity
 _atom_site_fract_x
 _atom_site_fract_y
 _atom_site_fract_z
 _atom_site_occupancy
  C  C0  1  0.41150780  0.42410384  0.30149426  1.0
  C  C1  1  0.08849220  0.07589616  0.80149426  1.0
  C  C2  1  0.91150780  0.07589616  0.69850574  1.0
  C  C3  1  0.58849220  0.42410384  0.19850574  1.0
  C  C4  1  0.58849220  0.57589616  0.69850574  1.0
  C  C5  1  0.91150780  0.92410384  0.19850574  1.0
  C  C6  1  0.08849220  0.92410384  0.30149426  1.0
  C  C7  1  0.41150780  0.57589616  0.80149426  1.0
  C  C8  1  0.32488604  0.49662577  0.35138409  1.0
  C  C9  1  0.17511396  0.00337423  0.85138409  1.0
  C  C10  1  0.82488604  0.00337423  0.64861591  1.0
  C  C11  1  0.67511396  0.49662577  0.14861591  1.0
  C  C12  1  0.67511396  0.50337423  0.64861591  1.0
  C  C13  1  0.82488604  0.99662577  0.14861591  1.0
  C  C14  1  0.17511396  0.99662577  0.35138409  1.0
  C  C15  1  0.32488604  0.50337423  0.85138409  1.0
  S  S16  1  0.26082323  0.35228157  0.39112380  1.0
  S  S17  1  0.23917677  0.14771843  0.89112380  1.0
  S  S18  1  0.76082323  0.14771843  0.60887620  1.0
  S  S19  1  0.73917677  0.35228157  0.10887620  1.0
  S  S20  1  0.73917677  0.64771843  0.60887620  1.0
  S  S21  1  0.76082323  0.85228157  0.10887620  1.0
  S  S22  1  0.23917677  0.85228157  0.39112380  1.0
  S  S23  1  0.26082323  0.64771843  0.89112380  1.0
  S  S24  1  0.50000000  0.21926786  0.25000000  1.0
  S  S25  1  0.00000000  0.28073214  0.75000000  1.0
  S  S26  1  0.50000000  0.78073214  0.75000000  1.0
  S  S27  1  0.00000000  0.71926786  0.25000000  1.0
  N  N28  1  0.32986445  0.26541339  0.35061890  1.0
  N  N29  1  0.17013555  0.23458661  0.85061890  1.0
  N  N30  1  0.82986445  0.23458661  0.64938110  1.0
  N  N31  1  0.67013555  0.26541339  0.14938110  1.0
  N  N32  1  0.67013555  0.73458661  0.64938110  1.0
  N  N33  1  0.82986445  0.76541339  0.14938110  1.0
  N  N34  1  0.17013555  0.76541339  0.35061890  1.0
  N  N35  1  0.32986445  0.73458661  0.85061890  1.0
  N  N36  1  0.24888683  0.55489841  0.39480476  1.0
  N  N37  1  0.25111317  0.94510159  0.89480476  1.0
  N  N38  1  0.74888683  0.94510159  0.60519524  1.0
  N  N39  1  0.75111317  0.55489841  0.10519524  1.0
  N  N40  1  0.75111317  0.44510159  0.60519524  1.0
  N  N41  1  0.74888683  0.05489841  0.10519524  1.0
  N  N42  1  0.25111317  0.05489841  0.39480476  1.0
  N  N43  1  0.24888683  0.44510159  0.89480476  1.0
