# generated using pymatgen
data_Sr8Fe8O23
_symmetry_space_group_name_H-M   'P 1'
_cell_length_a   8.63151674
_cell_length_b   8.63151674
_cell_length_c   8.63151674
_cell_angle_alpha   101.41338992
_cell_angle_beta   101.41338992
_cell_angle_gamma   127.17324900
_symmetry_Int_Tables_number   1
_chemical_formula_structural   Sr8Fe8O23
_chemical_formula_sum   'Sr8 Fe8 O23'
_cell_volume   458.91812776
_cell_formula_units_Z   1
loop_
 _symmetry_equiv_pos_site_id
 _symmetry_equiv_pos_as_xyz
  1  'x, y, z'
loop_
 _atom_site_type_symbol
 _atom_site_label
 _atom_site_symmetry_multiplicity
 _atom_site_fract_x
 _atom_site_fract_y
 _atom_site_fract_z
 _atom_site_occupancy
  Sr  Sr0  1  0.50000000  0.75875646  0.25875646  1.0
  Sr  Sr1  1  0.75875646  0.50000000  1.25875646  1.0
  Sr  Sr2  1  0.24124354  0.50000000  0.74124354  1.0
  Sr  Sr3  1  0.50000000  1.24124354  0.74124354  1.0
  Sr  Sr4  1  0.00000000  0.74648312  0.74648312  1.0
  Sr  Sr5  1  0.74648312  1.00000000  0.74648312  1.0
  Sr  Sr6  1  1.25351688  1.00000000  1.25351688  1.0
  Sr  Sr7  1  0.00000000  0.25351688  0.25351688  1.0
  Fe  Fe8  1  0.50000000  0.50000000  0.50000000  1.0
  Fe  Fe9  1  1.00000000  1.00000000  0.50000000  1.0
  Fe  Fe10  1  1.00000000  0.50000000  1.00000000  1.0
  Fe  Fe11  1  1.50000000  1.00000000  1.00000000  1.0
  Fe  Fe12  1  0.75985492  0.75985492  -0.00000000  1.0
  Fe  Fe13  1  0.24014508  0.24014508  -0.00000000  1.0
  Fe  Fe14  1  0.25000000  0.75000000  0.50000000  1.0
  Fe  Fe15  1  0.75000000  1.25000000  0.50000000  1.0
  O  O16  1  0.60756780  0.60756780  0.75964931  1.0
  O  O17  1  1.15208151  1.15208151  0.75964931  1.0
  O  O18  1  0.84791849  0.60756780  1.00000000  1.0
  O  O19  1  1.39243220  1.15208151  1.00000000  1.0
  O  O20  1  1.60756780  0.84791849  1.00000000  1.0
  O  O21  1  1.15208151  0.39243220  1.00000000  1.0
  O  O22  1  0.84791849  0.84791849  0.24035069  1.0
  O  O23  1  0.39243220  0.39243220  0.24035069  1.0
  O  O24  1  1.12452538  0.62452538  1.24905075  1.0
  O  O25  1  1.62452538  1.12452538  1.24905075  1.0
  O  O26  1  0.37547462  0.62452538  0.50000000  1.0
  O  O27  1  0.87547462  1.12452538  0.50000000  1.0
  O  O28  1  1.12452538  0.87547462  1.50000000  1.0
  O  O29  1  1.62452538  1.37547462  1.50000000  1.0
  O  O30  1  0.37547462  0.87547462  0.75094925  1.0
  O  O31  1  0.87547462  1.37547462  0.75094925  1.0
  O  O32  1  0.75928869  0.75928869  0.51857738  1.0
  O  O33  1  1.24071131  0.75928869  1.00000000  1.0
  O  O34  1  0.75928869  0.24071131  1.00000000  1.0
  O  O35  1  0.24071131  0.24071131  0.48142262  1.0
  O  O36  1  0.50000000  1.00000000  0.50000000  1.0
  O  O37  1  0.00000000  0.50000000  0.50000000  1.0
  O  O38  1  0.00000000  0.00000000  0.00000000  1.0
