# generated using pymatgen
data_Ca3Ti2O11
_symmetry_space_group_name_H-M   'P 1'
_cell_length_a   6.17881971
_cell_length_b   4.14055712
_cell_length_c   18.81475402
_cell_angle_alpha   90.00000000
_cell_angle_beta   90.00000000
_cell_angle_gamma   90.00000000
_symmetry_Int_Tables_number   1
_chemical_formula_structural   Ca3Ti2O11
_chemical_formula_sum   'Ca3 Ti2 O11'
_cell_volume   481.35207455
_cell_formula_units_Z   1
loop_
 _symmetry_equiv_pos_site_id
 _symmetry_equiv_pos_as_xyz
  1  'x, y, z'
loop_
 _atom_site_type_symbol
 _atom_site_label
 _atom_site_symmetry_multiplicity
 _atom_site_fract_x
 _atom_site_fract_y
 _atom_site_fract_z
 _atom_site_occupancy
  Ca  Ca0  1  0.00000000  0.00000000  0.69688430  1.0
  Ca  Ca1  1  0.00000000  0.00000000  0.30311570  1.0
  Ca  Ca2  1  0.00000000  0.00000000  0.50000000  1.0
  Ti  Ti3  1  0.00000000  0.00000000  0.90072241  1.0
  Ti  Ti4  1  0.00000000  0.00000000  0.09927759  1.0
  O  O5  1  0.76335178  0.65757011  0.90090290  1.0
  O  O6  1  0.76335178  0.65757011  0.09909710  1.0
  O  O7  1  0.76335178  0.34242989  0.90090290  1.0
  O  O8  1  0.76335178  0.34242989  0.09909710  1.0
  O  O9  1  0.23664822  0.65757011  0.90090290  1.0
  O  O10  1  0.23664822  0.65757011  0.09909710  1.0
  O  O11  1  0.23664822  0.34242989  0.90090290  1.0
  O  O12  1  0.23664822  0.34242989  0.09909710  1.0
  O  O13  1  0.00000000  0.00000000  0.80092264  1.0
  O  O14  1  0.00000000  0.00000000  0.19907736  1.0
  O  O15  1  0.00000000  0.00000000  0.00000000  1.0
