# generated using pymatgen
data_LiCaN
_symmetry_space_group_name_H-M   'P 1'
_cell_length_a   8.49451639
_cell_length_b   3.65869696
_cell_length_c   5.53765197
_cell_angle_alpha   90.00000000
_cell_angle_beta   90.00000000
_cell_angle_gamma   90.00000000
_symmetry_Int_Tables_number   1
_chemical_formula_structural   LiCaN
_chemical_formula_sum   'Li4 Ca4 N4'
_cell_volume   172.10391752
_cell_formula_units_Z   4
loop_
 _symmetry_equiv_pos_site_id
 _symmetry_equiv_pos_as_xyz
  1  'x, y, z'
loop_
 _atom_site_type_symbol
 _atom_site_label
 _atom_site_symmetry_multiplicity
 _atom_site_fract_x
 _atom_site_fract_y
 _atom_site_fract_z
 _atom_site_occupancy
  Li  Li0  1  0.45310441  0.75000000  0.07565235  1.0
  Li  Li1  1  0.95310441  0.75000000  0.42434765  1.0
  Li  Li2  1  0.54689559  0.25000000  0.92434765  1.0
  Li  Li3  1  0.04689559  0.25000000  0.57565235  1.0
  Ca  Ca4  1  0.34355985  0.75000000  0.52687217  1.0
  Ca  Ca5  1  0.84355985  0.75000000  0.97312783  1.0
  Ca  Ca6  1  0.65644015  0.25000000  0.47312783  1.0
  Ca  Ca7  1  0.15644015  0.25000000  0.02687217  1.0
  N  N8  1  0.09234114  0.75000000  0.74003521  1.0
  N  N9  1  0.59234114  0.75000000  0.75996479  1.0
  N  N10  1  0.90765886  0.25000000  0.25996479  1.0
  N  N11  1  0.40765886  0.25000000  0.24003521  1.0
