# generated using pymatgen
data_CdBiSe2Br
_symmetry_space_group_name_H-M   'P 1'
_cell_length_a   10.09795182
_cell_length_b   4.18479555
_cell_length_c   13.50775195
_cell_angle_alpha   90.00000000
_cell_angle_beta   90.00000000
_cell_angle_gamma   90.00000000
_symmetry_Int_Tables_number   1
_chemical_formula_structural   CdBiSe2Br
_chemical_formula_sum   'Cd4 Bi4 Se8 Br4'
_cell_volume   570.80874313
_cell_formula_units_Z   4
loop_
 _symmetry_equiv_pos_site_id
 _symmetry_equiv_pos_as_xyz
  1  'x, y, z'
loop_
 _atom_site_type_symbol
 _atom_site_label
 _atom_site_symmetry_multiplicity
 _atom_site_fract_x
 _atom_site_fract_y
 _atom_site_fract_z
 _atom_site_occupancy
  Cd  Cd0  1  0.99828324  0.75000000  0.76313027  1.0
  Cd  Cd1  1  0.49828324  0.75000000  0.73686973  1.0
  Cd  Cd2  1  0.00171676  0.25000000  0.23686973  1.0
  Cd  Cd3  1  0.50171676  0.25000000  0.26313027  1.0
  Bi  Bi4  1  0.68869874  0.75000000  0.02950618  1.0
  Bi  Bi5  1  0.18869874  0.75000000  0.47049382  1.0
  Bi  Bi6  1  0.31130126  0.25000000  0.97049382  1.0
  Bi  Bi7  1  0.81130126  0.25000000  0.52950618  1.0
  Se  Se8  1  0.94120678  0.75000000  0.38765298  1.0
  Se  Se9  1  0.44120678  0.75000000  0.11234702  1.0
  Se  Se10  1  0.05879322  0.25000000  0.61234702  1.0
  Se  Se11  1  0.55879322  0.25000000  0.88765298  1.0
  Se  Se12  1  0.75574911  0.75000000  0.66899865  1.0
  Se  Se13  1  0.25574911  0.75000000  0.83100135  1.0
  Se  Se14  1  0.24425089  0.25000000  0.33100135  1.0
  Se  Se15  1  0.74425089  0.25000000  0.16899865  1.0
  Br  Br16  1  0.57129731  0.75000000  0.39243840  1.0
  Br  Br17  1  0.07129731  0.75000000  0.10756160  1.0
  Br  Br18  1  0.42870269  0.25000000  0.60756160  1.0
  Br  Br19  1  0.92870269  0.25000000  0.89243840  1.0
