# generated using pymatgen
data_GdCuSe2
_symmetry_space_group_name_H-M   'P 1'
_cell_length_a   6.65891768
_cell_length_b   7.37847914
_cell_length_c   7.13926048
_cell_angle_alpha   90.00000000
_cell_angle_beta   96.21788819
_cell_angle_gamma   90.00000000
_symmetry_Int_Tables_number   1
_chemical_formula_structural   GdCuSe2
_chemical_formula_sum   'Gd4 Cu4 Se8'
_cell_volume   348.70752135
_cell_formula_units_Z   4
loop_
 _symmetry_equiv_pos_site_id
 _symmetry_equiv_pos_as_xyz
  1  'x, y, z'
loop_
 _atom_site_type_symbol
 _atom_site_label
 _atom_site_symmetry_multiplicity
 _atom_site_fract_x
 _atom_site_fract_y
 _atom_site_fract_z
 _atom_site_occupancy
  Gd  Gd0  1  0.69460573  0.45583565  0.29876629  1.0
  Gd  Gd1  1  0.69460573  0.04416435  0.79876629  1.0
  Gd  Gd2  1  0.30539427  0.95583565  0.20123371  1.0
  Gd  Gd3  1  0.30539427  0.54416435  0.70123371  1.0
  Cu  Cu4  1  0.92830989  0.83948347  0.45657716  1.0
  Cu  Cu5  1  0.92830989  0.66051653  0.95657716  1.0
  Cu  Cu6  1  0.07169011  0.33948347  0.04342284  1.0
  Cu  Cu7  1  0.07169011  0.16051653  0.54342284  1.0
  Se  Se8  1  0.90131526  0.11207187  0.21882568  1.0
  Se  Se9  1  0.90131526  0.38792813  0.71882568  1.0
  Se  Se10  1  0.09868474  0.61207187  0.28117432  1.0
  Se  Se11  1  0.09868474  0.88792813  0.78117432  1.0
  Se  Se12  1  0.42454778  0.22508580  0.50268018  1.0
  Se  Se13  1  0.42454778  0.27491420  0.00268018  1.0
  Se  Se14  1  0.57545222  0.72508580  0.99731982  1.0
  Se  Se15  1  0.57545222  0.77491420  0.49731982  1.0
