# generated using pymatgen
data_Na2CaP2O11
_symmetry_space_group_name_H-M   'P 1'
_cell_length_a   5.78328194
_cell_length_b   8.97918622
_cell_length_c   9.79208649
_cell_angle_alpha   90.00000000
_cell_angle_beta   99.06878674
_cell_angle_gamma   90.00000000
_symmetry_Int_Tables_number   1
_chemical_formula_structural   Na2CaP2O11
_chemical_formula_sum   'Na4 Ca2 P4 O22'
_cell_volume   502.13860234
_cell_formula_units_Z   2
loop_
 _symmetry_equiv_pos_site_id
 _symmetry_equiv_pos_as_xyz
  1  'x, y, z'
loop_
 _atom_site_type_symbol
 _atom_site_label
 _atom_site_symmetry_multiplicity
 _atom_site_fract_x
 _atom_site_fract_y
 _atom_site_fract_z
 _atom_site_occupancy
  P  P0  1  1.00658876  0.94413218  0.94415222  1.0
  P  P1  1  1.00658876  0.05586782  0.44415222  1.0
  P  P2  1  0.76981567  0.75494575  0.45193770  1.0
  P  P3  1  0.76981567  0.24505425  0.95193770  1.0
  Ca  Ca4  1  0.59782043  0.96933729  0.15876715  1.0
  Ca  Ca5  1  0.59782043  0.03066271  0.65876715  1.0
  O  O6  1  -0.01193739  0.87694299  0.48102047  1.0
  O  O7  1  -0.01193739  0.12305701  -0.01897953  1.0
  O  O8  1  0.32295258  0.44815124  0.37139940  1.0
  O  O9  1  0.32295258  0.55184876  0.87139940  1.0
  O  O10  1  0.79455899  0.48290547  0.30822587  1.0
  O  O11  1  0.79455899  0.51709453  0.80822587  1.0
  O  O12  1  0.35736808  0.55953038  -0.00209649  1.0
  O  O13  1  0.35736808  0.44046962  0.49790351  1.0
  O  O14  1  0.36402408  0.89009934  0.79718144  1.0
  O  O15  1  0.36402408  0.10990066  0.29718144  1.0
  O  O16  1  0.94930362  0.92927282  0.78673369  1.0
  O  O17  1  0.94930362  0.07072718  0.28673369  1.0
  O  O18  1  0.26161912  0.90225664  0.00498593  1.0
  O  O19  1  0.26161912  0.09774336  0.50498593  1.0
  O  O20  1  0.89772586  0.61116043  0.50890912  1.0
  O  O21  1  0.89772586  0.38883957  1.00890912  1.0
  O  O22  1  0.68354042  0.75200669  0.29488148  1.0
  O  O23  1  0.68354042  0.24799331  0.79488148  1.0
  O  O24  1  0.83292643  0.86074326  0.01954479  1.0
  O  O25  1  0.83292643  0.13925674  0.51954479  1.0
  O  O26  1  0.58221020  0.19462083  0.03593194  1.0
  O  O27  1  0.58221020  0.80537917  0.53593194  1.0
  Na  Na28  1  0.82979390  0.61872601  0.10005145  1.0
  Na  Na29  1  0.82979390  0.38127399  0.60005145  1.0
  Na  Na30  1  0.25798925  0.28974691  0.12577385  1.0
  Na  Na31  1  0.25798925  0.71025309  0.62577385  1.0
