# generated using pymatgen
data_K19Pb8O7
_symmetry_space_group_name_H-M   'P 1'
_cell_length_a   11.61050583
_cell_length_b   11.61050583
_cell_length_c   11.61050583
_cell_angle_alpha   60.00000000
_cell_angle_beta   60.00000000
_cell_angle_gamma   60.00000000
_symmetry_Int_Tables_number   1
_chemical_formula_structural   K19Pb8O7
_chemical_formula_sum   'K19 Pb8 O7'
_cell_volume   1106.72169848
_cell_formula_units_Z   1
loop_
 _symmetry_equiv_pos_site_id
 _symmetry_equiv_pos_as_xyz
  1  'x, y, z'
loop_
 _atom_site_type_symbol
 _atom_site_label
 _atom_site_symmetry_multiplicity
 _atom_site_fract_x
 _atom_site_fract_y
 _atom_site_fract_z
 _atom_site_occupancy
  O  O0  1  -0.50000000  0.50000000  0.50000000  1.0
  O  O1  1  -0.82018925  0.82018925  0.82018925  1.0
  O  O2  1  -0.17981075  0.17981075  0.82018925  1.0
  O  O3  1  0.82018925  0.82018925  -0.82018925  1.0
  O  O4  1  0.17981075  1.17981075  -0.17981075  1.0
  O  O5  1  0.17981075  -0.17981075  1.17981075  1.0
  O  O6  1  -0.17981075  0.17981075  0.17981075  1.0
  K  K7  1  1.68423193  0.00000000  -0.00000000  1.0
  K  K8  1  1.00000000  0.31576807  -0.31576807  1.0
  K  K9  1  1.00000000  0.68423193  -0.68423193  1.0
  K  K10  1  1.31576807  0.00000000  -0.00000000  1.0
  K  K11  1  0.00000000  1.68423193  -0.00000000  1.0
  K  K12  1  0.31576807  1.00000000  -0.31576807  1.0
  K  K13  1  -0.00000000  -0.00000000  0.68423193  1.0
  K  K14  1  0.31576807  -0.31576807  1.00000000  1.0
  K  K15  1  0.68423193  1.00000000  -0.68423193  1.0
  K  K16  1  0.00000000  1.31576807  -0.00000000  1.0
  K  K17  1  0.68423193  -0.68423193  1.00000000  1.0
  K  K18  1  0.00000000  -0.00000000  0.31576807  1.0
  K  K19  1  0.00000000  0.00000000  0.00000000  1.0
  K  K20  1  -0.66512550  0.66512550  0.66512550  1.0
  K  K21  1  -0.33487450  0.33487450  0.66512550  1.0
  K  K22  1  0.66512550  0.66512550  -0.66512550  1.0
  K  K23  1  0.33487450  1.33487450  -0.33487450  1.0
  K  K24  1  0.33487450  -0.33487450  1.33487450  1.0
  K  K25  1  -0.33487450  0.33487450  0.33487450  1.0
  Pb  Pb26  1  0.68219446  0.68219446  -0.31780554  1.0
  Pb  Pb27  1  1.31780554  0.31780554  0.04658339  1.0
  Pb  Pb28  1  1.31780554  0.04658339  0.31780554  1.0
  Pb  Pb29  1  0.95341661  0.68219446  -0.31780554  1.0
  Pb  Pb30  1  1.04658339  0.31780554  0.31780554  1.0
  Pb  Pb31  1  0.68219446  0.95341661  -0.31780554  1.0
  Pb  Pb32  1  0.68219446  0.68219446  -0.04658339  1.0
  Pb  Pb33  1  1.31780554  0.31780554  0.31780554  1.0
