# generated using pymatgen
data_C7Cl5
_symmetry_space_group_name_H-M   'P 1'
_cell_length_a   5.83083652
_cell_length_b   18.89698912
_cell_length_c   19.42836048
_cell_angle_alpha   90.00000000
_cell_angle_beta   90.00000000
_cell_angle_gamma   90.00000000
_symmetry_Int_Tables_number   1
_chemical_formula_structural   C7Cl5
_chemical_formula_sum   'C56 Cl40'
_cell_volume   2140.71884172
_cell_formula_units_Z   8
loop_
 _symmetry_equiv_pos_site_id
 _symmetry_equiv_pos_as_xyz
  1  'x, y, z'
loop_
 _atom_site_type_symbol
 _atom_site_label
 _atom_site_symmetry_multiplicity
 _atom_site_fract_x
 _atom_site_fract_y
 _atom_site_fract_z
 _atom_site_occupancy
  C  C0  1  0.31661048  0.38080197  0.61333703  1.0
  C  C1  1  0.31661048  0.61919803  0.11333703  1.0
  C  C2  1  0.81661048  0.88080197  0.88666297  1.0
  C  C3  1  0.81661048  0.11919803  0.38666297  1.0
  C  C4  1  0.68338952  0.38080197  0.88666297  1.0
  C  C5  1  0.68338952  0.61919803  0.38666297  1.0
  C  C6  1  0.18338952  0.88080197  0.61333703  1.0
  C  C7  1  0.18338952  0.11919803  0.11333703  1.0
  C  C8  1  0.18371410  0.26060669  0.63549856  1.0
  C  C9  1  0.18371410  0.73939331  0.13549856  1.0
  C  C10  1  0.68371410  0.76060669  0.86450144  1.0
  C  C11  1  0.68371410  0.23939331  0.36450144  1.0
  C  C12  1  0.81628590  0.26060669  0.86450144  1.0
  C  C13  1  0.81628590  0.73939331  0.36450144  1.0
  C  C14  1  0.31628590  0.76060669  0.63549856  1.0
  C  C15  1  0.31628590  0.23939331  0.13549856  1.0
  C  C16  1  0.16915654  0.32367216  0.59800448  1.0
  C  C17  1  0.16915654  0.67632784  0.09800448  1.0
  C  C18  1  0.66915654  0.82367216  0.90199552  1.0
  C  C19  1  0.66915654  0.17632784  0.40199552  1.0
  C  C20  1  0.83084346  0.32367216  0.90199552  1.0
  C  C21  1  0.83084346  0.67632784  0.40199552  1.0
  C  C22  1  0.33084346  0.82367216  0.59800448  1.0
  C  C23  1  0.33084346  0.17632784  0.09800448  1.0
  C  C24  1  0.45324823  0.37771474  0.67215395  1.0
  C  C25  1  0.45324823  0.62228526  0.17215395  1.0
  C  C26  1  0.95324823  0.87771474  0.82784605  1.0
  C  C27  1  0.95324823  0.12228526  0.32784605  1.0
  C  C28  1  0.54675177  0.37771474  0.82784605  1.0
  C  C29  1  0.54675177  0.62228526  0.32784605  1.0
  C  C30  1  0.04675177  0.87771474  0.67215395  1.0
  C  C31  1  0.04675177  0.12228526  0.17215395  1.0
  C  C32  1  0.44567006  0.31786577  0.71635346  1.0
  C  C33  1  0.44567006  0.68213423  0.21635346  1.0
  C  C34  1  0.94567006  0.81786577  0.78364654  1.0
  C  C35  1  0.94567006  0.18213423  0.28364654  1.0
  C  C36  1  0.55432994  0.31786577  0.78364654  1.0
  C  C37  1  0.55432994  0.68213423  0.28364654  1.0
  C  C38  1  0.05432994  0.81786577  0.71635346  1.0
  C  C39  1  0.05432994  0.18213423  0.21635346  1.0
  C  C40  1  0.41905025  0.18939855  0.72375645  1.0
  C  C41  1  0.41905025  0.81060145  0.22375645  1.0
  C  C42  1  0.91905025  0.68939855  0.77624355  1.0
  C  C43  1  0.91905025  0.31060145  0.27624355  1.0
  C  C44  1  0.58094975  0.18939855  0.77624355  1.0
  C  C45  1  0.58094975  0.81060145  0.27624355  1.0
  C  C46  1  0.08094975  0.68939855  0.72375645  1.0
  C  C47  1  0.08094975  0.31060145  0.22375645  1.0
  C  C48  1  0.34183302  0.25416117  0.69155092  1.0
  C  C49  1  0.34183302  0.74583883  0.19155092  1.0
  C  C50  1  0.84183302  0.75416117  0.80844908  1.0
  C  C51  1  0.84183302  0.24583883  0.30844908  1.0
  C  C52  1  0.65816698  0.25416117  0.80844908  1.0
  C  C53  1  0.65816698  0.74583883  0.30844908  1.0
  C  C54  1  0.15816698  0.75416117  0.69155092  1.0
  C  C55  1  0.15816698  0.24583883  0.19155092  1.0
  Cl  Cl56  1  0.02191181  0.33205208  0.96886845  1.0
  Cl  Cl57  1  0.02191181  0.66794792  0.46886845  1.0
  Cl  Cl58  1  0.52191181  0.83205208  0.53113155  1.0
  Cl  Cl59  1  0.52191181  0.16794792  0.03113155  1.0
  Cl  Cl60  1  0.97808819  0.33205208  0.53113155  1.0
  Cl  Cl61  1  0.97808819  0.66794792  0.03113155  1.0
  Cl  Cl62  1  0.47808819  0.83205208  0.96886845  1.0
  Cl  Cl63  1  0.47808819  0.16794792  0.46886845  1.0
  Cl  Cl64  1  0.00945854  0.19514660  0.88658531  1.0
  Cl  Cl65  1  0.00945854  0.80485340  0.38658531  1.0
  Cl  Cl66  1  0.50945854  0.69514660  0.61341469  1.0
  Cl  Cl67  1  0.50945854  0.30485340  0.11341469  1.0
  Cl  Cl68  1  0.99054146  0.19514660  0.61341469  1.0
  Cl  Cl69  1  0.99054146  0.80485340  0.11341469  1.0
  Cl  Cl70  1  0.49054146  0.69514660  0.88658531  1.0
  Cl  Cl71  1  0.49054146  0.30485340  0.38658531  1.0
  Cl  Cl72  1  0.34541920  0.44361778  0.81572207  1.0
  Cl  Cl73  1  0.34541920  0.55638222  0.31572207  1.0
  Cl  Cl74  1  0.84541920  0.94361778  0.68427793  1.0
  Cl  Cl75  1  0.84541920  0.05638222  0.18427793  1.0
  Cl  Cl76  1  0.65458080  0.44361778  0.68427793  1.0
  Cl  Cl77  1  0.65458080  0.55638222  0.18427793  1.0
  Cl  Cl78  1  0.15458080  0.94361778  0.81572207  1.0
  Cl  Cl79  1  0.15458080  0.05638222  0.31572207  1.0
  Cl  Cl80  1  0.33564516  0.10818529  0.69187051  1.0
  Cl  Cl81  1  0.33564516  0.89181471  0.19187051  1.0
  Cl  Cl82  1  0.83564516  0.60818529  0.80812949  1.0
  Cl  Cl83  1  0.83564516  0.39181471  0.30812949  1.0
  Cl  Cl84  1  0.66435484  0.10818529  0.80812949  1.0
  Cl  Cl85  1  0.66435484  0.89181471  0.30812949  1.0
  Cl  Cl86  1  0.16435484  0.60818529  0.69187051  1.0
  Cl  Cl87  1  0.16435484  0.39181471  0.19187051  1.0
  Cl  Cl88  1  0.32512944  0.45305894  0.55984059  1.0
  Cl  Cl89  1  0.32512944  0.54694106  0.05984059  1.0
  Cl  Cl90  1  0.82512944  0.95305894  0.94015941  1.0
  Cl  Cl91  1  0.82512944  0.04694106  0.44015941  1.0
  Cl  Cl92  1  0.67487056  0.45305894  0.94015941  1.0
  Cl  Cl93  1  0.67487056  0.54694106  0.44015941  1.0
  Cl  Cl94  1  0.17487056  0.95305894  0.55984059  1.0
  Cl  Cl95  1  0.17487056  0.04694106  0.05984059  1.0
