# generated using pymatgen
data_NaAlCdF6
_symmetry_space_group_name_H-M   'P 1'
_cell_length_a   12.66867038
_cell_length_b   3.70193295
_cell_length_c   10.19437194
_cell_angle_alpha   90.00000000
_cell_angle_beta   90.00000000
_cell_angle_gamma   90.00000000
_symmetry_Int_Tables_number   1
_chemical_formula_structural   NaAlCdF6
_chemical_formula_sum   'Na4 Al4 Cd4 F24'
_cell_volume   478.10144942
_cell_formula_units_Z   4
loop_
 _symmetry_equiv_pos_site_id
 _symmetry_equiv_pos_as_xyz
  1  'x, y, z'
loop_
 _atom_site_type_symbol
 _atom_site_label
 _atom_site_symmetry_multiplicity
 _atom_site_fract_x
 _atom_site_fract_y
 _atom_site_fract_z
 _atom_site_occupancy
  Na  Na0  1  0.41377750  0.75000000  0.32174845  1.0
  Na  Na1  1  0.91377750  0.75000000  0.17825155  1.0
  Na  Na2  1  0.58622250  0.25000000  0.67825155  1.0
  Na  Na3  1  0.08622250  0.25000000  0.82174845  1.0
  Al  Al4  1  0.33590071  0.75000000  0.67911870  1.0
  Al  Al5  1  0.83590071  0.75000000  0.82088130  1.0
  Al  Al6  1  0.66409929  0.25000000  0.32088130  1.0
  Al  Al7  1  0.16409929  0.25000000  0.17911870  1.0
  Cd  Cd8  1  0.62129567  0.75000000  0.00242861  1.0
  Cd  Cd9  1  0.12129567  0.75000000  0.49757139  1.0
  Cd  Cd10  1  0.37870433  0.25000000  0.99757139  1.0
  Cd  Cd11  1  0.87870433  0.25000000  0.50242861  1.0
  F  F12  1  0.47424696  0.75000000  0.64804361  1.0
  F  F13  1  0.97424696  0.75000000  0.85195639  1.0
  F  F14  1  0.52575304  0.25000000  0.35195639  1.0
  F  F15  1  0.02575304  0.25000000  0.14804361  1.0
  F  F16  1  0.45680080  0.75000000  0.09469561  1.0
  F  F17  1  0.95680080  0.75000000  0.40530439  1.0
  F  F18  1  0.54319920  0.25000000  0.90530439  1.0
  F  F19  1  0.04319920  0.25000000  0.59469561  1.0
  F  F20  1  0.35413521  0.75000000  0.85910767  1.0
  F  F21  1  0.85413521  0.75000000  0.64089233  1.0
  F  F22  1  0.64586479  0.25000000  0.14089233  1.0
  F  F23  1  0.14586479  0.25000000  0.35910767  1.0
  F  F24  1  0.30243627  0.75000000  0.50440364  1.0
  F  F25  1  0.80243627  0.75000000  0.99559636  1.0
  F  F26  1  0.69756373  0.25000000  0.49559636  1.0
  F  F27  1  0.19756373  0.25000000  0.00440364  1.0
  F  F28  1  0.19226398  0.75000000  0.70981746  1.0
  F  F29  1  0.69226398  0.75000000  0.79018254  1.0
  F  F30  1  0.80773602  0.25000000  0.29018254  1.0
  F  F31  1  0.30773602  0.25000000  0.20981746  1.0
  F  F32  1  0.16587539  0.75000000  0.18564814  1.0
  F  F33  1  0.66587539  0.75000000  0.31435186  1.0
  F  F34  1  0.83412461  0.25000000  0.81435186  1.0
  F  F35  1  0.33412461  0.25000000  0.68564814  1.0
