# generated using pymatgen
data_ScH3Br3N
_symmetry_space_group_name_H-M   'P 1'
_cell_length_a   7.66775533
_cell_length_b   9.79117650
_cell_length_c   9.82435516
_cell_angle_alpha   74.02802841
_cell_angle_beta   77.19518567
_cell_angle_gamma   82.72495009
_symmetry_Int_Tables_number   1
_chemical_formula_structural   ScH3Br3N
_chemical_formula_sum   'Sc4 H12 Br12 N4'
_cell_volume   689.77132197
_cell_formula_units_Z   4
loop_
 _symmetry_equiv_pos_site_id
 _symmetry_equiv_pos_as_xyz
  1  'x, y, z'
loop_
 _atom_site_type_symbol
 _atom_site_label
 _atom_site_symmetry_multiplicity
 _atom_site_fract_x
 _atom_site_fract_y
 _atom_site_fract_z
 _atom_site_occupancy
  Sc  Sc0  1  0.92124233  0.80377438  0.55926620  1.0
  Sc  Sc1  1  0.07875767  0.19622562  0.44073380  1.0
  Sc  Sc2  1  0.60280119  0.69399416  0.94843062  1.0
  Sc  Sc3  1  0.39719881  0.30600584  0.05156938  1.0
  H  H4  1  0.77473387  0.24275524  0.99539354  1.0
  H  H5  1  0.22526613  0.75724476  0.00460646  1.0
  H  H6  1  0.77028013  0.58950354  0.48994029  1.0
  H  H7  1  0.22971987  0.41049646  0.51005971  1.0
  H  H8  1  0.76410715  0.73156611  0.35326731  1.0
  H  H9  1  0.23589285  0.26843389  0.64673269  1.0
  H  H10  1  0.70156333  0.24025218  0.85099626  1.0
  H  H11  1  0.29843667  0.75974782  0.14900374  1.0
  H  H12  1  0.68172887  0.10168953  0.99216083  1.0
  H  H13  1  0.31827113  0.89831047  0.00783917  1.0
  H  H14  1  0.61092696  0.71766493  0.50188399  1.0
  H  H15  1  0.38907304  0.28233507  0.49811601  1.0
  Br  Br16  1  0.90740921  0.59111397  0.79758857  1.0
  Br  Br17  1  0.09259079  0.40888603  0.20241143  1.0
  Br  Br18  1  0.79740890  0.31358909  0.56845448  1.0
  Br  Br19  1  0.20259110  0.68641091  0.43154552  1.0
  Br  Br20  1  0.75629870  0.82421708  0.07449085  1.0
  Br  Br21  1  0.24370130  0.17578292  0.92550915  1.0
  Br  Br22  1  0.60443984  0.90286120  0.70641543  1.0
  Br  Br23  1  0.39556016  0.09713880  0.29358457  1.0
  Br  Br24  1  0.41503680  0.54142540  0.83593786  1.0
  Br  Br25  1  0.58496320  0.45857460  0.16406214  1.0
  Br  Br26  1  0.09951538  0.96463129  0.65993807  1.0
  Br  Br27  1  0.90048462  0.03536871  0.34006193  1.0
  N  N28  1  0.74502244  0.69853997  0.46412835  1.0
  N  N29  1  0.25497756  0.30146003  0.53587165  1.0
  N  N30  1  0.67216922  0.21136147  0.96217453  1.0
  N  N31  1  0.32783078  0.78863853  0.03782547  1.0
