# generated using pymatgen
data_LiYb(CN2)2
_symmetry_space_group_name_H-M   'P 1'
_cell_length_a   9.90586846
_cell_length_b   7.07787287
_cell_length_c   6.01838638
_cell_angle_alpha   90.00000000
_cell_angle_beta   90.00000000
_cell_angle_gamma   90.00000000
_symmetry_Int_Tables_number   1
_chemical_formula_structural   LiYb(CN2)2
_chemical_formula_sum   'Li4 Yb4 C8 N16'
_cell_volume   421.96397997
_cell_formula_units_Z   4
loop_
 _symmetry_equiv_pos_site_id
 _symmetry_equiv_pos_as_xyz
  1  'x, y, z'
loop_
 _atom_site_type_symbol
 _atom_site_label
 _atom_site_symmetry_multiplicity
 _atom_site_fract_x
 _atom_site_fract_y
 _atom_site_fract_z
 _atom_site_occupancy
  C  C0  1  0.74459367  0.88912278  0.57743489  1.0
  C  C1  1  0.74459367  0.11087722  0.07743489  1.0
  C  C2  1  0.24459367  0.38912278  0.92256511  1.0
  C  C3  1  0.24459367  0.61087722  0.42256511  1.0
  C  C4  1  0.25540633  0.88912278  0.92256511  1.0
  C  C5  1  0.25540633  0.11087722  0.42256511  1.0
  C  C6  1  0.75540633  0.38912278  0.57743489  1.0
  C  C7  1  0.75540633  0.61087722  0.07743489  1.0
  N  N8  1  0.62116346  0.87881517  0.58339778  1.0
  N  N9  1  0.62116346  0.12118483  0.08339778  1.0
  N  N10  1  0.12116346  0.37881517  0.91660222  1.0
  N  N11  1  0.12116346  0.62118483  0.41660222  1.0
  N  N12  1  0.37883654  0.87881517  0.91660222  1.0
  N  N13  1  0.37883654  0.12118483  0.41660222  1.0
  N  N14  1  0.87883654  0.37881517  0.58339778  1.0
  N  N15  1  0.87883654  0.62118483  0.08339778  1.0
  N  N16  1  0.86935920  0.89994259  0.57033189  1.0
  N  N17  1  0.86935920  0.10005741  0.07033189  1.0
  N  N18  1  0.36935920  0.39994259  0.92966811  1.0
  N  N19  1  0.36935920  0.60005741  0.42966811  1.0
  N  N20  1  0.13064080  0.89994259  0.92966811  1.0
  N  N21  1  0.13064080  0.10005741  0.42966811  1.0
  N  N22  1  0.63064080  0.39994259  0.57033189  1.0
  N  N23  1  0.63064080  0.60005741  0.07033189  1.0
  Li  Li24  1  0.00000000  0.59081755  0.75000000  1.0
  Li  Li25  1  0.00000000  0.40918245  0.25000000  1.0
  Li  Li26  1  0.50000000  0.09081755  0.75000000  1.0
  Li  Li27  1  0.50000000  0.90918245  0.25000000  1.0
  Yb  Yb28  1  0.00000000  0.13503023  0.75000000  1.0
  Yb  Yb29  1  0.00000000  0.86496977  0.25000000  1.0
  Yb  Yb30  1  0.50000000  0.63503023  0.75000000  1.0
  Yb  Yb31  1  0.50000000  0.36496977  0.25000000  1.0
