# generated using pymatgen
data_Ba2V3P6HO22
_symmetry_space_group_name_H-M   'P 1'
_cell_length_a   4.90799844
_cell_length_b   11.42785219
_cell_length_c   8.03508005
_cell_angle_alpha   88.87489631
_cell_angle_beta   86.99869352
_cell_angle_gamma   88.64864035
_symmetry_Int_Tables_number   1
_chemical_formula_structural   Ba2V3P6HO22
_chemical_formula_sum   'Ba2 V3 P6 H1 O22'
_cell_volume   449.85084495
_cell_formula_units_Z   1
loop_
 _symmetry_equiv_pos_site_id
 _symmetry_equiv_pos_as_xyz
  1  'x, y, z'
loop_
 _atom_site_type_symbol
 _atom_site_label
 _atom_site_symmetry_multiplicity
 _atom_site_fract_x
 _atom_site_fract_y
 _atom_site_fract_z
 _atom_site_occupancy
  Ba  Ba0  1  -0.76752797  -0.32435769  -0.49229388  1.0
  Ba  Ba1  1  -0.23247203  -0.67564231  -0.50770612  1.0
  V  V2  1  -0.21793021  -0.70256778  -0.99397400  1.0
  V  V3  1  -0.78206979  -0.29743222  -0.00602600  1.0
  V  V4  1  -0.50000000  0.00000000  -0.50000000  1.0
  P  P5  1  -0.96508722  -0.07354586  -0.74471002  1.0
  P  P6  1  -0.03491278  -0.92645414  -0.25528998  1.0
  P  P7  1  -0.73086418  -0.84163604  -0.80172349  1.0
  P  P8  1  -0.26913582  -0.15836396  -0.19827651  1.0
  P  P9  1  -0.31599597  -0.44710097  -0.79436957  1.0
  P  P10  1  -0.68400403  -0.55289903  -0.20563043  1.0
  H  H11  1  0.00000000  -0.50000000  -0.00000000  1.0
  O  O12  1  -0.98608247  -0.75913996  -0.80680047  1.0
  O  O13  1  -0.01391753  -0.24086004  -0.19319953  1.0
  O  O14  1  -0.96636226  -0.18361475  -0.84675203  1.0
  O  O15  1  -0.03363774  -0.81638525  -0.15324797  1.0
  O  O16  1  -0.91623474  -0.58666350  -0.06877098  1.0
  O  O17  1  -0.08376526  -0.41333650  -0.93122902  1.0
  O  O18  1  -0.81891892  -0.97071869  -0.85572131  1.0
  O  O19  1  -0.18108108  -0.02928131  -0.14427869  1.0
  O  O20  1  -0.76917758  -0.57211834  -0.38561668  1.0
  O  O21  1  -0.23082242  -0.42788166  -0.61438332  1.0
  O  O22  1  -0.74561936  -0.96960400  -0.30561782  1.0
  O  O23  1  -0.25438064  -0.03039600  -0.69438218  1.0
  O  O24  1  -0.63936448  -0.84790581  -0.62016514  1.0
  O  O25  1  -0.36063552  -0.15209419  -0.37983486  1.0
  O  O26  1  -0.57631915  -0.37011314  -0.82038736  1.0
  O  O27  1  -0.42368085  -0.62988686  -0.17961264  1.0
  O  O28  1  -0.50456196  -0.80989123  -0.93043378  1.0
  O  O29  1  -0.49543804  -0.19010877  -0.06956622  1.0
  O  O30  1  -0.36580486  -0.57931584  -0.81884077  1.0
  O  O31  1  -0.63419514  -0.42068416  -0.18115923  1.0
  O  O32  1  -0.21344531  -0.90403221  -0.40798897  1.0
  O  O33  1  -0.78655469  -0.09596779  -0.59201103  1.0
