# generated using pymatgen
data_Sr(HO)2
_symmetry_space_group_name_H-M   'P 1'
_cell_length_a   13.02606394
_cell_length_b   3.91048032
_cell_length_c   5.14631120
_cell_angle_alpha   90.00000000
_cell_angle_beta   90.00000000
_cell_angle_gamma   90.00000000
_symmetry_Int_Tables_number   1
_chemical_formula_structural   Sr(HO)2
_chemical_formula_sum   'Sr4 H8 O8'
_cell_volume   262.14365794
_cell_formula_units_Z   4
loop_
 _symmetry_equiv_pos_site_id
 _symmetry_equiv_pos_as_xyz
  1  'x, y, z'
loop_
 _atom_site_type_symbol
 _atom_site_label
 _atom_site_symmetry_multiplicity
 _atom_site_fract_x
 _atom_site_fract_y
 _atom_site_fract_z
 _atom_site_occupancy
  Sr  Sr0  1  0.11988646  0.75000000  0.87912434  1.0
  Sr  Sr1  1  0.61988646  0.75000000  0.62087566  1.0
  Sr  Sr2  1  0.88011354  0.25000000  0.12087566  1.0
  Sr  Sr3  1  0.38011354  0.25000000  0.37912434  1.0
  H  H4  1  0.38843536  0.75000000  0.83103618  1.0
  H  H5  1  0.88843536  0.75000000  0.66896382  1.0
  H  H6  1  0.61156464  0.25000000  0.16896382  1.0
  H  H7  1  0.11156464  0.25000000  0.33103618  1.0
  H  H8  1  0.24404221  0.75000000  0.30508465  1.0
  H  H9  1  0.74404221  0.75000000  0.19491535  1.0
  H  H10  1  0.75595779  0.25000000  0.69491535  1.0
  H  H11  1  0.25595779  0.25000000  0.80508465  1.0
  O  O12  1  0.43140075  0.75000000  0.67616011  1.0
  O  O13  1  0.93140075  0.75000000  0.82383989  1.0
  O  O14  1  0.56859925  0.25000000  0.32383989  1.0
  O  O15  1  0.06859925  0.25000000  0.17616011  1.0
  O  O16  1  0.28778059  0.75000000  0.15067865  1.0
  O  O17  1  0.78778059  0.75000000  0.34932135  1.0
  O  O18  1  0.71221941  0.25000000  0.84932135  1.0
  O  O19  1  0.21221941  0.25000000  0.65067865  1.0
