# generated using pymatgen
data_La3Si6N11
_symmetry_space_group_name_H-M   'P 1'
_cell_length_a   10.24891002
_cell_length_b   10.24891002
_cell_length_c   4.89024405
_cell_angle_alpha   90.00000000
_cell_angle_beta   90.00000000
_cell_angle_gamma   90.00000000
_symmetry_Int_Tables_number   1
_chemical_formula_structural   La3Si6N11
_chemical_formula_sum   'La6 Si12 N22'
_cell_volume   513.67200085
_cell_formula_units_Z   2
loop_
 _symmetry_equiv_pos_site_id
 _symmetry_equiv_pos_as_xyz
  1  'x, y, z'
loop_
 _atom_site_type_symbol
 _atom_site_label
 _atom_site_symmetry_multiplicity
 _atom_site_fract_x
 _atom_site_fract_y
 _atom_site_fract_z
 _atom_site_occupancy
  La  La0  1  0.81891029  0.68108971  0.00620833  1.0
  La  La1  1  0.31891029  0.81891029  0.00620833  1.0
  La  La2  1  0.18108971  0.31891029  0.00620833  1.0
  La  La3  1  0.68108971  0.18108971  0.00620833  1.0
  La  La4  1  0.50000000  0.50000000  -0.00495542  1.0
  La  La5  1  0.00000000  0.00000000  -0.00495542  1.0
  Si  Si6  1  0.29100151  0.57884378  0.53194139  1.0
  Si  Si7  1  0.79100151  0.92115622  0.53194139  1.0
  Si  Si8  1  0.42115622  0.29100151  0.53194139  1.0
  Si  Si9  1  0.92115622  0.20899849  0.53194139  1.0
  Si  Si10  1  0.70899849  0.42115622  0.53194139  1.0
  Si  Si11  1  0.20899849  0.07884378  0.53194139  1.0
  Si  Si12  1  0.57884378  0.70899849  0.53194139  1.0
  Si  Si13  1  0.07884378  0.79100151  0.53194139  1.0
  Si  Si14  1  0.38303209  0.11696791  0.04266410  1.0
  Si  Si15  1  0.88303209  0.38303209  0.04266410  1.0
  Si  Si16  1  0.61696791  0.88303209  0.04266410  1.0
  Si  Si17  1  0.11696791  0.61696791  0.04266410  1.0
  N  N18  1  0.42050301  0.67842817  0.64009934  1.0
  N  N19  1  0.92050301  0.82157183  0.64009934  1.0
  N  N20  1  0.32157183  0.42050301  0.64009934  1.0
  N  N21  1  0.82157183  0.07949699  0.64009934  1.0
  N  N22  1  0.57949699  0.32157183  0.64009934  1.0
  N  N23  1  0.07949699  0.17842817  0.64009934  1.0
  N  N24  1  0.67842817  0.57949699  0.64009934  1.0
  N  N25  1  0.17842817  0.92050301  0.64009934  1.0
  N  N26  1  0.26804781  0.57484877  0.17926730  1.0
  N  N27  1  0.76804781  0.92515123  0.17926730  1.0
  N  N28  1  0.42515123  0.26804781  0.17926730  1.0
  N  N29  1  0.92515123  0.23195219  0.17926730  1.0
  N  N30  1  0.73195219  0.42515123  0.17926730  1.0
  N  N31  1  0.23195219  0.07484877  0.17926730  1.0
  N  N32  1  0.57484877  0.73195219  0.17926730  1.0
  N  N33  1  0.07484877  0.76804781  0.17926730  1.0
  N  N34  1  0.34572982  0.15427018  0.69662125  1.0
  N  N35  1  0.84572982  0.34572982  0.69662125  1.0
  N  N36  1  0.65427018  0.84572982  0.69662125  1.0
  N  N37  1  0.15427018  0.65427018  0.69662125  1.0
  N  N38  1  0.00000000  0.50000000  0.06673592  1.0
  N  N39  1  0.50000000  0.00000000  0.06673592  1.0
