# generated using pymatgen
data_GdAlIr
_symmetry_space_group_name_H-M   'P 1'
_cell_length_a   6.97807289
_cell_length_b   4.22321462
_cell_length_c   7.99285625
_cell_angle_alpha   90.00000000
_cell_angle_beta   90.00000000
_cell_angle_gamma   90.00000000
_symmetry_Int_Tables_number   1
_chemical_formula_structural   GdAlIr
_chemical_formula_sum   'Gd4 Al4 Ir4'
_cell_volume   235.54866982
_cell_formula_units_Z   4
loop_
 _symmetry_equiv_pos_site_id
 _symmetry_equiv_pos_as_xyz
  1  'x, y, z'
loop_
 _atom_site_type_symbol
 _atom_site_label
 _atom_site_symmetry_multiplicity
 _atom_site_fract_x
 _atom_site_fract_y
 _atom_site_fract_z
 _atom_site_occupancy
  Gd  Gd0  1  0.96639255  0.75000000  0.68071364  1.0
  Gd  Gd1  1  0.46639255  0.75000000  0.81928636  1.0
  Gd  Gd2  1  0.03360745  0.25000000  0.31928636  1.0
  Gd  Gd3  1  0.53360745  0.25000000  0.18071364  1.0
  Al  Al4  1  0.86135396  0.75000000  0.06151273  1.0
  Al  Al5  1  0.36135396  0.75000000  0.43848727  1.0
  Al  Al6  1  0.13864604  0.25000000  0.93848727  1.0
  Al  Al7  1  0.63864604  0.25000000  0.56151273  1.0
  Ir  Ir8  1  0.72950278  0.75000000  0.38113701  1.0
  Ir  Ir9  1  0.22950278  0.75000000  0.11886299  1.0
  Ir  Ir10  1  0.27049722  0.25000000  0.61886299  1.0
  Ir  Ir11  1  0.77049722  0.25000000  0.88113701  1.0
