# generated using pymatgen
data_BaEu2ZnO5
_symmetry_space_group_name_H-M   'P 1'
_cell_length_a   12.64351543
_cell_length_b   5.83611034
_cell_length_c   7.30575137
_cell_angle_alpha   90.00000000
_cell_angle_beta   90.00000000
_cell_angle_gamma   90.00000000
_symmetry_Int_Tables_number   1
_chemical_formula_structural   BaEu2ZnO5
_chemical_formula_sum   'Ba4 Eu8 Zn4 O20'
_cell_volume   539.08373120
_cell_formula_units_Z   4
loop_
 _symmetry_equiv_pos_site_id
 _symmetry_equiv_pos_as_xyz
  1  'x, y, z'
loop_
 _atom_site_type_symbol
 _atom_site_label
 _atom_site_symmetry_multiplicity
 _atom_site_fract_x
 _atom_site_fract_y
 _atom_site_fract_z
 _atom_site_occupancy
  Ba  Ba0  1  0.10071768  0.75000000  0.57317234  1.0
  Ba  Ba1  1  0.60071768  0.75000000  0.92682766  1.0
  Ba  Ba2  1  0.89928232  0.25000000  0.42682766  1.0
  Ba  Ba3  1  0.39928232  0.25000000  0.07317234  1.0
  Eu  Eu4  1  0.20928234  0.75000000  0.11480377  1.0
  Eu  Eu5  1  0.70928234  0.75000000  0.38519623  1.0
  Eu  Eu6  1  0.79071766  0.25000000  0.88519623  1.0
  Eu  Eu7  1  0.29071766  0.25000000  0.61480377  1.0
  Eu  Eu8  1  0.92622535  0.75000000  0.10640016  1.0
  Eu  Eu9  1  0.42622535  0.75000000  0.39359984  1.0
  Eu  Eu10  1  0.07377465  0.25000000  0.89359984  1.0
  Eu  Eu11  1  0.57377465  0.25000000  0.60640016  1.0
  Zn  Zn12  1  0.35130792  0.75000000  0.80489254  1.0
  Zn  Zn13  1  0.85130792  0.75000000  0.69510746  1.0
  Zn  Zn14  1  0.64869208  0.25000000  0.19510746  1.0
  Zn  Zn15  1  0.14869208  0.25000000  0.30489254  1.0
  O  O16  1  0.43477719  0.99442109  0.66771618  1.0
  O  O17  1  0.43477719  0.50557891  0.66771618  1.0
  O  O18  1  0.93477719  0.99442109  0.83228382  1.0
  O  O19  1  0.93477719  0.50557891  0.83228382  1.0
  O  O20  1  0.56522281  0.49442109  0.33228382  1.0
  O  O21  1  0.56522281  0.00557891  0.33228382  1.0
  O  O22  1  0.06522281  0.49442109  0.16771618  1.0
  O  O23  1  0.06522281  0.00557891  0.16771618  1.0
  O  O24  1  0.22531667  0.99614240  0.85149937  1.0
  O  O25  1  0.22531667  0.50385760  0.85149937  1.0
  O  O26  1  0.72531667  0.99614240  0.64850063  1.0
  O  O27  1  0.72531667  0.50385760  0.64850063  1.0
  O  O28  1  0.77468333  0.49614240  0.14850063  1.0
  O  O29  1  0.77468333  0.00385760  0.14850063  1.0
  O  O30  1  0.27468333  0.49614240  0.35149937  1.0
  O  O31  1  0.27468333  0.00385760  0.35149937  1.0
  O  O32  1  0.40316668  0.75000000  0.06403051  1.0
  O  O33  1  0.90316668  0.75000000  0.43596949  1.0
  O  O34  1  0.59683332  0.25000000  0.93596949  1.0
  O  O35  1  0.09683332  0.25000000  0.56403051  1.0
