# generated using pymatgen
data_InSbS3
_symmetry_space_group_name_H-M   'P 1'
_cell_length_a   9.51261002
_cell_length_b   3.89353779
_cell_length_c   13.59045352
_cell_angle_alpha   90.00000000
_cell_angle_beta   90.00000000
_cell_angle_gamma   90.00000000
_symmetry_Int_Tables_number   1
_chemical_formula_structural   InSbS3
_chemical_formula_sum   'In4 Sb4 S12'
_cell_volume   503.35923036
_cell_formula_units_Z   4
loop_
 _symmetry_equiv_pos_site_id
 _symmetry_equiv_pos_as_xyz
  1  'x, y, z'
loop_
 _atom_site_type_symbol
 _atom_site_label
 _atom_site_symmetry_multiplicity
 _atom_site_fract_x
 _atom_site_fract_y
 _atom_site_fract_z
 _atom_site_occupancy
  In  In0  1  0.85264223  0.75000000  0.04503200  1.0
  In  In1  1  0.35264223  0.75000000  0.45496800  1.0
  In  In2  1  0.14735777  0.25000000  0.95496800  1.0
  In  In3  1  0.64735777  0.25000000  0.54503200  1.0
  Sb  Sb4  1  0.97304534  0.75000000  0.64048649  1.0
  Sb  Sb5  1  0.47304534  0.75000000  0.85951351  1.0
  Sb  Sb6  1  0.02695466  0.25000000  0.35951351  1.0
  Sb  Sb7  1  0.52695466  0.25000000  0.14048649  1.0
  S  S8  1  0.84091607  0.75000000  0.47997235  1.0
  S  S9  1  0.34091607  0.75000000  0.02002765  1.0
  S  S10  1  0.15908393  0.25000000  0.52002765  1.0
  S  S11  1  0.65908393  0.25000000  0.97997235  1.0
  S  S12  1  0.68725551  0.75000000  0.19992928  1.0
  S  S13  1  0.18725551  0.75000000  0.30007072  1.0
  S  S14  1  0.31274449  0.25000000  0.80007072  1.0
  S  S15  1  0.81274449  0.25000000  0.69992928  1.0
  S  S16  1  0.49783728  0.75000000  0.61567089  1.0
  S  S17  1  0.99783728  0.75000000  0.88432911  1.0
  S  S18  1  0.50216272  0.25000000  0.38432911  1.0
  S  S19  1  0.00216272  0.25000000  0.11567089  1.0
