# generated using pymatgen
data_K3SbSe4
_symmetry_space_group_name_H-M   'P 1'
_cell_length_a   8.17235054
_cell_length_b   8.17235054
_cell_length_c   8.17235054
_cell_angle_alpha   92.01635226
_cell_angle_beta   92.01635226
_cell_angle_gamma   92.01635226
_symmetry_Int_Tables_number   1
_chemical_formula_structural   K3SbSe4
_chemical_formula_sum   'K6 Sb2 Se8'
_cell_volume   544.77103629
_cell_formula_units_Z   2
loop_
 _symmetry_equiv_pos_site_id
 _symmetry_equiv_pos_as_xyz
  1  'x, y, z'
loop_
 _atom_site_type_symbol
 _atom_site_label
 _atom_site_symmetry_multiplicity
 _atom_site_fract_x
 _atom_site_fract_y
 _atom_site_fract_z
 _atom_site_occupancy
  K  K0  1  1.20643798  -0.31712181  0.13682810  1.0
  K  K1  1  0.70643798  0.63682810  0.18287819  1.0
  K  K2  1  1.18287819  0.70643798  -0.36317190  1.0
  K  K3  1  0.68287819  0.13682810  0.20643798  1.0
  K  K4  1  0.63682810  1.18287819  -0.29356202  1.0
  K  K5  1  1.13682810  0.20643798  -0.31712181  1.0
  Sb  Sb6  1  0.18386983  0.18386983  0.18386983  1.0
  Sb  Sb7  1  0.68386983  0.68386983  0.68386983  1.0
  Se  Se8  1  0.34217630  1.01080491  -0.61904884  1.0
  Se  Se9  1  0.84217630  0.88095116  0.51080491  1.0
  Se  Se10  1  1.51080491  0.84217630  -0.11904884  1.0
  Se  Se11  1  1.01080491  0.38095116  -0.65782370  1.0
  Se  Se12  1  0.88095116  1.51080491  -0.15782370  1.0
  Se  Se13  1  0.38095116  0.34217630  0.01080491  1.0
  Se  Se14  1  -0.00034647  -0.00034647  -0.00034647  1.0
  Se  Se15  1  0.49965353  0.49965353  0.49965353  1.0
