# generated using pymatgen
data_NaFe3H6(SO7)2
_symmetry_space_group_name_H-M   'P 1'
_cell_length_a   7.09625732
_cell_length_b   7.09625732
_cell_length_c   7.09625732
_cell_angle_alpha   61.91408305
_cell_angle_beta   61.91408305
_cell_angle_gamma   61.91408305
_symmetry_Int_Tables_number   1
_chemical_formula_structural   NaFe3H6(SO7)2
_chemical_formula_sum   'Na1 Fe3 H6 S2 O14'
_cell_volume   263.50614131
_cell_formula_units_Z   1
loop_
 _symmetry_equiv_pos_site_id
 _symmetry_equiv_pos_as_xyz
  1  'x, y, z'
loop_
 _atom_site_type_symbol
 _atom_site_label
 _atom_site_symmetry_multiplicity
 _atom_site_fract_x
 _atom_site_fract_y
 _atom_site_fract_z
 _atom_site_occupancy
  Fe  Fe0  1  0.50000000  1.00000000  -0.50000000  1.0
  Fe  Fe1  1  0.50000000  -0.50000000  -0.00000000  1.0
  Fe  Fe2  1  -0.00000000  0.50000000  -0.50000000  1.0
  S  S3  1  0.81191177  0.81191177  -0.18808823  1.0
  S  S4  1  1.18808823  1.18808823  0.18808823  1.0
  Na  Na5  1  0.50000000  0.50000000  -0.50000000  1.0
  O  O6  1  0.89901743  0.89901743  -0.10098257  1.0
  O  O7  1  1.10098257  1.10098257  0.10098257  1.0
  O  O8  1  0.23879043  0.23879043  -0.38042120  1.0
  O  O9  1  0.23879043  0.61957880  -0.76120957  1.0
  O  O10  1  0.38042120  0.76120957  -0.23879043  1.0
  O  O11  1  0.76120957  0.38042120  -0.23879043  1.0
  O  O12  1  0.76120957  0.76120957  -0.61957880  1.0
  O  O13  1  0.61957880  0.23879043  -0.76120957  1.0
  O  O14  1  0.32888629  0.32888629  -0.00726967  1.0
  O  O15  1  0.32888629  0.99273033  -0.67111371  1.0
  O  O16  1  1.00726967  -0.32888629  -0.32888629  1.0
  O  O17  1  0.67111371  0.00726967  -0.32888629  1.0
  O  O18  1  0.67111371  -0.32888629  0.00726967  1.0
  O  O19  1  0.99273033  0.32888629  -0.67111371  1.0
  H  H20  1  1.19276236  1.19276236  0.78573361  1.0
  H  H21  1  1.19276236  1.78573361  0.19276236  1.0
  H  H22  1  0.21426639  0.80723764  -0.19276236  1.0
  H  H23  1  0.80723764  0.21426639  -0.19276236  1.0
  H  H24  1  0.80723764  0.80723764  -0.78573361  1.0
  H  H25  1  1.78573361  1.19276236  0.19276236  1.0
