# generated using pymatgen
data_Hf6CoSb2
_symmetry_space_group_name_H-M   'P 1'
_cell_length_a   7.73809666
_cell_length_b   7.73809666
_cell_length_c   3.58002154
_cell_angle_alpha   90.00000000
_cell_angle_beta   90.00000000
_cell_angle_gamma   120.00000000
_symmetry_Int_Tables_number   1
_chemical_formula_structural   Hf6CoSb2
_chemical_formula_sum   'Hf6 Co1 Sb2'
_cell_volume   185.64556201
_cell_formula_units_Z   1
loop_
 _symmetry_equiv_pos_site_id
 _symmetry_equiv_pos_as_xyz
  1  'x, y, z'
loop_
 _atom_site_type_symbol
 _atom_site_label
 _atom_site_symmetry_multiplicity
 _atom_site_fract_x
 _atom_site_fract_y
 _atom_site_fract_z
 _atom_site_occupancy
  Hf  Hf0  1  0.76049266  0.76049266  0.50000000  1.0
  Hf  Hf1  1  0.00000000  0.23950734  0.50000000  1.0
  Hf  Hf2  1  0.23950734  0.00000000  0.50000000  1.0
  Hf  Hf3  1  0.39658174  0.39658174  0.00000000  1.0
  Hf  Hf4  1  -0.00000000  0.60341826  0.00000000  1.0
  Hf  Hf5  1  0.60341826  0.00000000  0.00000000  1.0
  Co  Co6  1  0.00000000  0.00000000  0.00000000  1.0
  Sb  Sb7  1  0.33333333  0.66666667  0.50000000  1.0
  Sb  Sb8  1  0.66666667  0.33333333  0.50000000  1.0
