# generated using pymatgen
data_Al6CuP4(H4O7)4
_symmetry_space_group_name_H-M   'P 1'
_cell_length_a   7.50112915
_cell_length_b   9.99797046
_cell_length_c   7.70920367
_cell_angle_alpha   68.34292023
_cell_angle_beta   65.39104864
_cell_angle_gamma   69.64635369
_symmetry_Int_Tables_number   1
_chemical_formula_structural   Al6CuP4(H4O7)4
_chemical_formula_sum   'Al6 Cu1 P4 H16 O28'
_cell_volume   475.47253965
_cell_formula_units_Z   1
loop_
 _symmetry_equiv_pos_site_id
 _symmetry_equiv_pos_as_xyz
  1  'x, y, z'
loop_
 _atom_site_type_symbol
 _atom_site_label
 _atom_site_symmetry_multiplicity
 _atom_site_fract_x
 _atom_site_fract_y
 _atom_site_fract_z
 _atom_site_occupancy
  Al  Al0  1  -0.75520763  -0.75738671  -0.99914263  1.0
  Al  Al1  1  -0.24479237  -0.24261329  -0.00085737  1.0
  Al  Al2  1  -0.75533245  -0.27427519  -0.68593246  1.0
  Al  Al3  1  -0.24466755  -0.72572481  -0.31406754  1.0
  Al  Al4  1  -0.28586126  -0.75125749  -0.67488678  1.0
  Al  Al5  1  -0.71413874  -0.24874251  -0.32511322  1.0
  Cu  Cu6  1  0.00000000  -0.00000000  -0.50000000  1.0
  P  P7  1  -0.83975895  -0.46044330  -0.88812751  1.0
  P  P8  1  -0.16024105  -0.53955670  -0.11187249  1.0
  P  P9  1  -0.35117458  -0.94286812  -0.88491823  1.0
  P  P10  1  -0.64882542  -0.05713188  -0.11508177  1.0
  H  H11  1  -0.98731889  -0.91710072  -0.84260444  1.0
  H  H12  1  -0.01268111  -0.08289928  -0.15739556  1.0
  H  H13  1  -0.87161549  -0.73903227  -0.55852411  1.0
  H  H14  1  -0.12838451  -0.26096773  -0.44147589  1.0
  H  H15  1  -0.82765311  -0.45427195  -0.33752058  1.0
  H  H16  1  -0.17234689  -0.54572805  -0.66247942  1.0
  H  H17  1  -0.85663624  -0.82044060  -0.34015548  1.0
  H  H18  1  -0.14336376  -0.17955940  -0.65984452  1.0
  H  H19  1  -0.64629399  -0.59169559  -0.61897906  1.0
  H  H20  1  -0.35370601  -0.40830441  -0.38102094  1.0
  H  H21  1  -0.58967970  -0.66637812  -0.41785193  1.0
  H  H22  1  -0.41032030  -0.33362188  -0.58214807  1.0
  H  H23  1  -0.42763574  -0.42830449  -0.80195482  1.0
  H  H24  1  -0.57236426  -0.57169551  -0.19804518  1.0
  H  H25  1  -0.34296363  -0.95188448  -0.31530637  1.0
  H  H26  1  -0.65703637  -0.04811552  -0.68469363  1.0
  O  O27  1  -0.98855586  -0.84669663  -0.78066218  1.0
  O  O28  1  -0.01144414  -0.15330337  -0.21933782  1.0
  O  O29  1  -0.93997944  -0.79535065  -0.42475833  1.0
  O  O30  1  -0.06002056  -0.20464935  -0.57524167  1.0
  O  O31  1  -0.93474041  -0.61290385  -0.13697760  1.0
  O  O32  1  -0.06525959  -0.38709615  -0.86302240  1.0
  O  O33  1  -0.80228391  -0.63085257  -0.84373214  1.0
  O  O34  1  -0.19771609  -0.36914743  -0.15626786  1.0
  O  O35  1  -0.78237398  -0.13409071  -0.91112228  1.0
  O  O36  1  -0.21762602  -0.86590929  -0.08887772  1.0
  O  O37  1  -0.78081208  -0.43663641  -0.73127392  1.0
  O  O38  1  -0.21918792  -0.56336359  -0.26872608  1.0
  O  O39  1  -0.76688615  -0.37072401  -0.42637257  1.0
  O  O40  1  -0.23311385  -0.62927599  -0.57362743  1.0
  O  O41  1  -0.73012225  -0.88655026  -0.14490725  1.0
  O  O42  1  -0.26987775  -0.11344974  -0.85509275  1.0
  O  O43  1  -0.57749229  -0.90316522  -0.86655998  1.0
  O  O44  1  -0.42250771  -0.09683478  -0.13344002  1.0
  O  O45  1  -0.57188255  -0.68323097  -0.54443288  1.0
  O  O46  1  -0.42811745  -0.31676903  -0.45556712  1.0
  O  O47  1  -0.46333004  -0.32662251  -0.79064425  1.0
  O  O48  1  -0.53666996  -0.67337749  -0.20935575  1.0
  O  O49  1  -0.33055188  -0.90288705  -0.72071447  1.0
  O  O50  1  -0.66944812  -0.09711295  -0.27928553  1.0
  O  O51  1  -0.29798087  -0.60218220  -0.90106282  1.0
  O  O52  1  -0.70201913  -0.39781780  -0.09893718  1.0
  O  O53  1  -0.26327986  -0.87731308  -0.41446224  1.0
  O  O54  1  -0.73672014  -0.12268692  -0.58553776  1.0
