# generated using pymatgen
data_Cr2ReO6
_symmetry_space_group_name_H-M   'P 1'
_cell_length_a   4.57958054
_cell_length_b   4.57958054
_cell_length_c   8.88555011
_cell_angle_alpha   90.00000000
_cell_angle_beta   90.00000000
_cell_angle_gamma   90.00000000
_symmetry_Int_Tables_number   1
_chemical_formula_structural   Cr2ReO6
_chemical_formula_sum   'Cr4 Re2 O12'
_cell_volume   186.35271407
_cell_formula_units_Z   2
loop_
 _symmetry_equiv_pos_site_id
 _symmetry_equiv_pos_as_xyz
  1  'x, y, z'
loop_
 _atom_site_type_symbol
 _atom_site_label
 _atom_site_symmetry_multiplicity
 _atom_site_fract_x
 _atom_site_fract_y
 _atom_site_fract_z
 _atom_site_occupancy
  Cr  Cr0  1  0.50000000  0.50000000  0.16933813  1.0
  Cr  Cr1  1  0.50000000  0.50000000  0.83066187  1.0
  Cr  Cr2  1  0.00000000  0.00000000  0.66933813  1.0
  Cr  Cr3  1  0.00000000  0.00000000  0.33066187  1.0
  Re  Re4  1  0.50000000  0.50000000  0.50000000  1.0
  Re  Re5  1  0.00000000  0.00000000  0.00000000  1.0
  O  O6  1  0.19912074  0.80087926  0.16303349  1.0
  O  O7  1  0.19912074  0.80087926  0.83696651  1.0
  O  O8  1  0.69912074  0.69912074  0.66303349  1.0
  O  O9  1  0.69912074  0.69912074  0.33696651  1.0
  O  O10  1  0.80087926  0.19912074  0.16303349  1.0
  O  O11  1  0.80087926  0.19912074  0.83696651  1.0
  O  O12  1  0.30087926  0.30087926  0.66303349  1.0
  O  O13  1  0.30087926  0.30087926  0.33696651  1.0
  O  O14  1  0.20216752  0.79783248  0.50000000  1.0
  O  O15  1  0.70216752  0.70216752  0.00000000  1.0
  O  O16  1  0.79783248  0.20216752  0.50000000  1.0
  O  O17  1  0.29783248  0.29783248  0.00000000  1.0
