# generated using pymatgen
data_Rb4Ti3S14
_symmetry_space_group_name_H-M   'P 1'
_cell_length_a   11.55374211
_cell_length_b   11.55374211
_cell_length_c   13.75792192
_cell_angle_alpha   67.52789398
_cell_angle_beta   112.47210602
_cell_angle_gamma   137.74256610
_symmetry_Int_Tables_number   1
_chemical_formula_structural   Rb4Ti3S14
_chemical_formula_sum   'Rb8 Ti6 S28'
_cell_volume   1126.54532835
_cell_formula_units_Z   2
loop_
 _symmetry_equiv_pos_site_id
 _symmetry_equiv_pos_as_xyz
  1  'x, y, z'
loop_
 _atom_site_type_symbol
 _atom_site_label
 _atom_site_symmetry_multiplicity
 _atom_site_fract_x
 _atom_site_fract_y
 _atom_site_fract_z
 _atom_site_occupancy
  Rb  Rb0  1  0.61989729  0.01887799  0.39071689  1.0
  Rb  Rb1  1  0.98112201  0.38010271  0.89071689  1.0
  Rb  Rb2  1  1.01887799  0.61989729  0.10928311  1.0
  Rb  Rb3  1  0.38010271  -0.01887799  0.60928311  1.0
  Rb  Rb4  1  0.33219474  0.19223276  0.14616247  1.0
  Rb  Rb5  1  0.80776724  0.66780526  0.64616247  1.0
  Rb  Rb6  1  1.19223276  0.33219474  0.35383753  1.0
  Rb  Rb7  1  0.66780526  -0.19223276  0.85383753  1.0
  Ti  Ti8  1  0.58946627  -0.07582829  0.08330142  1.0
  Ti  Ti9  1  1.07582829  0.41053373  0.58330142  1.0
  Ti  Ti10  1  0.92417171  0.58946627  0.41669858  1.0
  Ti  Ti11  1  0.41053373  0.07582829  0.91669858  1.0
  Ti  Ti12  1  0.76477781  0.76477781  0.25000000  1.0
  Ti  Ti13  1  0.23522219  0.23522219  0.75000000  1.0
  S  S14  1  0.80659602  -0.11817959  0.39002045  1.0
  S  S15  1  1.11817959  0.19340398  0.89002045  1.0
  S  S16  1  0.88182041  0.80659602  0.10997955  1.0
  S  S17  1  0.19340398  0.11817959  0.60997955  1.0
  S  S18  1  0.52531705  -0.33576464  0.08484038  1.0
  S  S19  1  1.33576464  0.47468295  0.58484038  1.0
  S  S20  1  0.66423536  0.52531705  0.41515962  1.0
  S  S21  1  0.47468295  0.33576464  0.91515962  1.0
  S  S22  1  0.89526756  0.06630665  0.13207675  1.0
  S  S23  1  0.93369335  0.10473244  0.63207675  1.0
  S  S24  1  1.06630665  0.89526756  0.36792325  1.0
  S  S25  1  0.10473244  -0.06630665  0.86792325  1.0
  S  S26  1  0.57003673  -0.23986573  0.28553544  1.0
  S  S27  1  1.23986573  0.42996327  0.78553544  1.0
  S  S28  1  0.76013427  0.57003673  0.21446456  1.0
  S  S29  1  0.42996327  0.23986573  0.71446456  1.0
  S  S30  1  0.43334932  -0.00973273  0.09766010  1.0
  S  S31  1  1.00973273  0.56665068  0.59766010  1.0
  S  S32  1  0.99026727  0.43334932  0.40233990  1.0
  S  S33  1  0.56665068  0.00973273  0.90233990  1.0
  S  S34  1  0.18578113  -0.15894594  0.33917654  1.0
  S  S35  1  1.15894594  0.81421887  0.83917654  1.0
  S  S36  1  0.84105406  0.18578113  0.16082346  1.0
  S  S37  1  0.81421887  0.15894594  0.66082346  1.0
  S  S38  1  0.61058235  0.31711620  0.39753751  1.0
  S  S39  1  0.68288380  0.38941765  0.89753751  1.0
  S  S40  1  1.31711620  0.61058235  0.10246249  1.0
  S  S41  1  0.38941765  -0.31711620  0.60246249  1.0
