# generated using pymatgen
data_Ca2Pb
_symmetry_space_group_name_H-M   'P 1'
_cell_length_a   7.87347679
_cell_length_b   5.17362924
_cell_length_c   9.68362672
_cell_angle_alpha   90.00000000
_cell_angle_beta   90.00000000
_cell_angle_gamma   90.00000000
_symmetry_Int_Tables_number   1
_chemical_formula_structural   Ca2Pb
_chemical_formula_sum   'Ca8 Pb4'
_cell_volume   394.45720614
_cell_formula_units_Z   4
loop_
 _symmetry_equiv_pos_site_id
 _symmetry_equiv_pos_as_xyz
  1  'x, y, z'
loop_
 _atom_site_type_symbol
 _atom_site_label
 _atom_site_symmetry_multiplicity
 _atom_site_fract_x
 _atom_site_fract_y
 _atom_site_fract_z
 _atom_site_occupancy
  Ca  Ca0  1  0.97883853  0.75000000  0.68992419  1.0
  Ca  Ca1  1  0.47883853  0.75000000  0.81007581  1.0
  Ca  Ca2  1  0.02116147  0.25000000  0.31007581  1.0
  Ca  Ca3  1  0.52116147  0.25000000  0.18992419  1.0
  Ca  Ca4  1  0.83666896  0.75000000  0.07066002  1.0
  Ca  Ca5  1  0.33666896  0.75000000  0.42933998  1.0
  Ca  Ca6  1  0.16333104  0.25000000  0.92933998  1.0
  Ca  Ca7  1  0.66333104  0.25000000  0.57066002  1.0
  Pb  Pb8  1  0.75416528  0.75000000  0.39296597  1.0
  Pb  Pb9  1  0.25416528  0.75000000  0.10703403  1.0
  Pb  Pb10  1  0.24583472  0.25000000  0.60703403  1.0
  Pb  Pb11  1  0.74583472  0.25000000  0.89296597  1.0
