# generated using pymatgen
data_YAl
_symmetry_space_group_name_H-M   'P 1'
_cell_length_a   6.09859878
_cell_length_b   6.09859878
_cell_length_c   4.40612962
_cell_angle_alpha   90.00000000
_cell_angle_beta   90.00000000
_cell_angle_gamma   142.85583583
_symmetry_Int_Tables_number   1
_chemical_formula_structural   YAl
_chemical_formula_sum   'Y2 Al2'
_cell_volume   98.95249589
_cell_formula_units_Z   2
loop_
 _symmetry_equiv_pos_site_id
 _symmetry_equiv_pos_as_xyz
  1  'x, y, z'
loop_
 _atom_site_type_symbol
 _atom_site_label
 _atom_site_symmetry_multiplicity
 _atom_site_fract_x
 _atom_site_fract_y
 _atom_site_fract_z
 _atom_site_occupancy
  Y  Y0  1  -0.34876775  1.34876775  0.75000000  1.0
  Y  Y1  1  -0.65123225  0.65123225  0.25000000  1.0
  Al  Al2  1  -0.06891301  1.06891301  0.75000000  1.0
  Al  Al3  1  -0.93108699  0.93108699  0.25000000  1.0
