# generated using pymatgen
data_Nb2SnO6
_symmetry_space_group_name_H-M   'P 1'
_cell_length_a   9.01120016
_cell_length_b   9.01120016
_cell_length_c   5.66757189
_cell_angle_alpha   88.03262402
_cell_angle_beta   91.96737598
_cell_angle_gamma   148.29943644
_symmetry_Int_Tables_number   1
_chemical_formula_structural   Nb2SnO6
_chemical_formula_sum   'Nb4 Sn2 O12'
_cell_volume   241.68059743
_cell_formula_units_Z   2
loop_
 _symmetry_equiv_pos_site_id
 _symmetry_equiv_pos_as_xyz
  1  'x, y, z'
loop_
 _atom_site_type_symbol
 _atom_site_label
 _atom_site_symmetry_multiplicity
 _atom_site_fract_x
 _atom_site_fract_y
 _atom_site_fract_z
 _atom_site_occupancy
  Nb  Nb0  1  1.07143762  -0.58777574  0.32709055  1.0
  Nb  Nb1  1  1.41222426  0.07143762  0.17290945  1.0
  Nb  Nb2  1  0.92856238  -0.41222426  0.67290945  1.0
  Nb  Nb3  1  1.58777574  -0.07143762  0.82709055  1.0
  Sn  Sn4  1  0.77158768  0.77158768  0.25000000  1.0
  Sn  Sn5  1  0.22841232  0.22841232  0.75000000  1.0
  O  O6  1  1.00840393  -0.84446040  0.40620221  1.0
  O  O7  1  1.15553960  0.00840393  0.09379779  1.0
  O  O8  1  0.99159607  -0.15553960  0.59379779  1.0
  O  O9  1  1.84446040  -0.00840393  0.90620221  1.0
  O  O10  1  1.32352188  -0.38984037  0.08281341  1.0
  O  O11  1  1.61015963  0.32352188  0.41718659  1.0
  O  O12  1  0.67647812  -0.61015963  0.91718659  1.0
  O  O13  1  1.38984037  -0.32352188  0.58281341  1.0
  O  O14  1  1.16441636  -0.27467589  0.35262254  1.0
  O  O15  1  1.72532411  0.16441636  0.14737746  1.0
  O  O16  1  0.83558364  -0.72532411  0.64737746  1.0
  O  O17  1  1.27467589  -0.16441636  0.85262254  1.0
