# generated using pymatgen
data_La3(GeRh)2
_symmetry_space_group_name_H-M   'P 1'
_cell_length_a   5.76124768
_cell_length_b   8.28490154
_cell_length_c   13.66421551
_cell_angle_alpha   90.00000000
_cell_angle_beta   90.00000000
_cell_angle_gamma   90.00000000
_symmetry_Int_Tables_number   1
_chemical_formula_structural   La3(GeRh)2
_chemical_formula_sum   'La12 Ge8 Rh8'
_cell_volume   652.21172322
_cell_formula_units_Z   4
loop_
 _symmetry_equiv_pos_site_id
 _symmetry_equiv_pos_as_xyz
  1  'x, y, z'
loop_
 _atom_site_type_symbol
 _atom_site_label
 _atom_site_symmetry_multiplicity
 _atom_site_fract_x
 _atom_site_fract_y
 _atom_site_fract_z
 _atom_site_occupancy
  La  La0  1  0.84692368  0.60548637  0.90275002  1.0
  La  La1  1  0.84692368  0.60548637  0.59724998  1.0
  La  La2  1  0.84692368  0.89451363  0.40275002  1.0
  La  La3  1  0.84692368  0.89451363  0.09724998  1.0
  La  La4  1  0.15307632  0.10548637  0.90275002  1.0
  La  La5  1  0.15307632  0.10548637  0.59724998  1.0
  La  La6  1  0.15307632  0.39451363  0.40275002  1.0
  La  La7  1  0.15307632  0.39451363  0.09724998  1.0
  La  La8  1  0.35302796  0.74675177  0.75000000  1.0
  La  La9  1  0.35302796  0.75324823  0.25000000  1.0
  La  La10  1  0.64697204  0.24675177  0.75000000  1.0
  La  La11  1  0.64697204  0.25324823  0.25000000  1.0
  Ge  Ge12  1  0.84975413  0.89486700  0.75000000  1.0
  Ge  Ge13  1  0.84975413  0.60513300  0.25000000  1.0
  Ge  Ge14  1  0.15024587  0.39486700  0.75000000  1.0
  Ge  Ge15  1  0.15024587  0.10513300  0.25000000  1.0
  Ge  Ge16  1  0.34881739  0.75000000  0.00000000  1.0
  Ge  Ge17  1  0.34881739  0.75000000  0.50000000  1.0
  Ge  Ge18  1  0.65118261  0.25000000  0.00000000  1.0
  Ge  Ge19  1  0.65118261  0.25000000  0.50000000  1.0
  Rh  Rh20  1  0.61660623  0.95963817  0.90866055  1.0
  Rh  Rh21  1  0.61660623  0.95963817  0.59133945  1.0
  Rh  Rh22  1  0.61660623  0.54036183  0.40866055  1.0
  Rh  Rh23  1  0.61660623  0.54036183  0.09133945  1.0
  Rh  Rh24  1  0.38339377  0.45963817  0.90866055  1.0
  Rh  Rh25  1  0.38339377  0.45963817  0.59133945  1.0
  Rh  Rh26  1  0.38339377  0.04036183  0.40866055  1.0
  Rh  Rh27  1  0.38339377  0.04036183  0.09133945  1.0
