# generated using pymatgen
data_BaCu3O4
_symmetry_space_group_name_H-M   'P 1'
_cell_length_a   6.18441005
_cell_length_b   6.18441005
_cell_length_c   5.31022989
_cell_angle_alpha   90.00000000
_cell_angle_beta   90.00000000
_cell_angle_gamma   125.59931625
_symmetry_Int_Tables_number   1
_chemical_formula_structural   BaCu3O4
_chemical_formula_sum   'Ba1 Cu3 O4'
_cell_volume   165.14215813
_cell_formula_units_Z   1
loop_
 _symmetry_equiv_pos_site_id
 _symmetry_equiv_pos_as_xyz
  1  'x, y, z'
loop_
 _atom_site_type_symbol
 _atom_site_label
 _atom_site_symmetry_multiplicity
 _atom_site_fract_x
 _atom_site_fract_y
 _atom_site_fract_z
 _atom_site_occupancy
  Ba  Ba0  1  0.00000000  0.00000000  0.00000000  1.0
  Cu  Cu1  1  0.00000000  0.00000000  0.50000000  1.0
  Cu  Cu2  1  -0.26645852  0.26645852  0.50000000  1.0
  Cu  Cu3  1  0.26645852  0.73354148  0.50000000  1.0
  O  O4  1  0.09070852  0.35820560  0.50000000  1.0
  O  O5  1  -0.09070852  0.64179440  0.50000000  1.0
  O  O6  1  0.64179440  0.90929148  0.50000000  1.0
  O  O7  1  0.35820560  1.09070852  0.50000000  1.0
