# generated using pymatgen
data_Sr3NbGa3(GeO7)2
_symmetry_space_group_name_H-M   'P 1'
_cell_length_a   8.48396052
_cell_length_b   8.48396052
_cell_length_c   5.16756392
_cell_angle_alpha   90.00000000
_cell_angle_beta   90.00000000
_cell_angle_gamma   120.00000000
_symmetry_Int_Tables_number   1
_chemical_formula_structural   Sr3NbGa3(GeO7)2
_chemical_formula_sum   'Sr3 Nb1 Ga3 Ge2 O14'
_cell_volume   322.11709027
_cell_formula_units_Z   1
loop_
 _symmetry_equiv_pos_site_id
 _symmetry_equiv_pos_as_xyz
  1  'x, y, z'
loop_
 _atom_site_type_symbol
 _atom_site_label
 _atom_site_symmetry_multiplicity
 _atom_site_fract_x
 _atom_site_fract_y
 _atom_site_fract_z
 _atom_site_occupancy
  Sr  Sr0  1  0.42256295  0.42256295  -0.00000000  1.0
  Sr  Sr1  1  -0.00000000  0.57743705  -0.00000000  1.0
  Sr  Sr2  1  0.57743705  0.00000000  0.00000000  1.0
  Nb  Nb3  1  -0.00000000  -0.00000000  0.00000000  1.0
  Ga  Ga4  1  0.75080815  0.75080815  0.50000000  1.0
  Ga  Ga5  1  0.00000000  0.24919185  0.50000000  1.0
  Ga  Ga6  1  0.24919185  0.00000000  0.50000000  1.0
  Ge  Ge7  1  0.33333333  0.66666667  0.53129351  1.0
  Ge  Ge8  1  0.66666667  0.33333333  0.46870649  1.0
  O  O9  1  0.09015968  0.87214711  0.23197275  1.0
  O  O10  1  0.87214711  0.09015968  0.76802725  1.0
  O  O11  1  0.78198743  0.90984032  0.23197275  1.0
  O  O12  1  0.12785289  0.21801257  0.23197275  1.0
  O  O13  1  0.90984032  0.78198743  0.76802725  1.0
  O  O14  1  0.21801257  0.12785289  0.76802725  1.0
  O  O15  1  0.69233902  0.53506406  0.31747360  1.0
  O  O16  1  0.53506406  0.69233902  0.68252640  1.0
  O  O17  1  0.84272503  0.30766098  0.31747360  1.0
  O  O18  1  0.46493594  0.15727497  0.31747360  1.0
  O  O19  1  0.30766098  0.84272503  0.68252640  1.0
  O  O20  1  0.15727497  0.46493594  0.68252640  1.0
  O  O21  1  0.33333333  0.66666667  0.19619958  1.0
  O  O22  1  0.66666667  0.33333333  0.80380042  1.0
