# generated using pymatgen
data_BaCu2SnSe4
_symmetry_space_group_name_H-M   'P 1'
_cell_length_a   6.66168638
_cell_length_b   6.66168638
_cell_length_c   11.20905312
_cell_angle_alpha   90.00000000
_cell_angle_beta   90.00000000
_cell_angle_gamma   61.88173063
_symmetry_Int_Tables_number   1
_chemical_formula_structural   BaCu2SnSe4
_chemical_formula_sum   'Ba2 Cu4 Sn2 Se8'
_cell_volume   438.72701099
_cell_formula_units_Z   2
loop_
 _symmetry_equiv_pos_site_id
 _symmetry_equiv_pos_as_xyz
  1  'x, y, z'
loop_
 _atom_site_type_symbol
 _atom_site_label
 _atom_site_symmetry_multiplicity
 _atom_site_fract_x
 _atom_site_fract_y
 _atom_site_fract_z
 _atom_site_occupancy
  Ba  Ba0  1  -0.00739016  0.00739016  0.50000000  1.0
  Ba  Ba1  1  -0.00739016  0.00739016  0.00000000  1.0
  Cu  Cu2  1  -0.19092017  1.63397359  0.36952938  1.0
  Cu  Cu3  1  -0.63397359  1.19092017  0.86952938  1.0
  Cu  Cu4  1  -0.63397359  1.19092017  0.63047062  1.0
  Cu  Cu5  1  -0.19092017  1.63397359  0.13047062  1.0
  Sn  Sn6  1  -0.55723222  1.26070490  0.25000000  1.0
  Sn  Sn7  1  -0.26070490  1.55723222  0.75000000  1.0
  Se  Se8  1  0.00216074  1.50700030  0.93196462  1.0
  Se  Se9  1  -0.50700030  0.99783926  0.43196462  1.0
  Se  Se10  1  -0.50700030  0.99783926  0.06803538  1.0
  Se  Se11  1  0.00216074  1.50700030  0.56803538  1.0
  Se  Se12  1  0.10481866  0.67082143  0.25000000  1.0
  Se  Se13  1  0.32917857  0.89518134  0.75000000  1.0
  Se  Se14  1  -0.19761048  1.32260268  0.25000000  1.0
  Se  Se15  1  -0.32260268  1.19761048  0.75000000  1.0
