# generated using pymatgen
data_Cr3C
_symmetry_space_group_name_H-M   'P 1'
_cell_length_a   5.18488141
_cell_length_b   6.65445635
_cell_length_c   4.51369901
_cell_angle_alpha   90.00000000
_cell_angle_beta   90.00000000
_cell_angle_gamma   90.00000000
_symmetry_Int_Tables_number   1
_chemical_formula_structural   Cr3C
_chemical_formula_sum   'Cr12 C4'
_cell_volume   155.73420256
_cell_formula_units_Z   4
loop_
 _symmetry_equiv_pos_site_id
 _symmetry_equiv_pos_as_xyz
  1  'x, y, z'
loop_
 _atom_site_type_symbol
 _atom_site_label
 _atom_site_symmetry_multiplicity
 _atom_site_fract_x
 _atom_site_fract_y
 _atom_site_fract_z
 _atom_site_occupancy
  Cr  Cr0  1  0.32312989  0.94013656  0.65804853  1.0
  Cr  Cr1  1  0.32312989  0.55986344  0.65804853  1.0
  Cr  Cr2  1  0.82312989  0.94013656  0.84195147  1.0
  Cr  Cr3  1  0.82312989  0.55986344  0.84195147  1.0
  Cr  Cr4  1  0.67687011  0.44013656  0.34195147  1.0
  Cr  Cr5  1  0.67687011  0.05986344  0.34195147  1.0
  Cr  Cr6  1  0.17687011  0.44013656  0.15804853  1.0
  Cr  Cr7  1  0.17687011  0.05986344  0.15804853  1.0
  Cr  Cr8  1  0.47010309  0.75000000  0.15839034  1.0
  Cr  Cr9  1  0.97010309  0.75000000  0.34160966  1.0
  Cr  Cr10  1  0.52989691  0.25000000  0.84160966  1.0
  Cr  Cr11  1  0.02989691  0.25000000  0.65839034  1.0
  C  C12  1  0.12679072  0.75000000  0.93244955  1.0
  C  C13  1  0.62679072  0.75000000  0.56755045  1.0
  C  C14  1  0.87320928  0.25000000  0.06755045  1.0
  C  C15  1  0.37320928  0.25000000  0.43244955  1.0
