# generated using pymatgen
data_LaNbO2
_symmetry_space_group_name_H-M   'P 1'
_cell_length_a   7.56648408
_cell_length_b   7.56648408
_cell_length_c   7.56648408
_cell_angle_alpha   129.96439744
_cell_angle_beta   129.96439744
_cell_angle_gamma   73.46368765
_symmetry_Int_Tables_number   1
_chemical_formula_structural   LaNbO2
_chemical_formula_sum   'La4 Nb4 O8'
_cell_volume   248.36489321
_cell_formula_units_Z   4
loop_
 _symmetry_equiv_pos_site_id
 _symmetry_equiv_pos_as_xyz
  1  'x, y, z'
loop_
 _atom_site_type_symbol
 _atom_site_label
 _atom_site_symmetry_multiplicity
 _atom_site_fract_x
 _atom_site_fract_y
 _atom_site_fract_z
 _atom_site_occupancy
  La  La0  1  0.37500000  0.62500000  0.75000000  1.0
  La  La1  1  0.87500000  0.62500000  1.25000000  1.0
  La  La2  1  0.37500000  1.12500000  0.75000000  1.0
  La  La3  1  0.37500000  0.62500000  0.25000000  1.0
  Nb  Nb4  1  0.87500000  0.12500000  0.75000000  1.0
  Nb  Nb5  1  0.37500000  0.12500000  0.25000000  1.0
  Nb  Nb6  1  0.87500000  0.62500000  0.75000000  1.0
  Nb  Nb7  1  0.87500000  1.12500000  1.25000000  1.0
  O  O8  1  1.17107656  0.96161887  1.79052812  1.0
  O  O9  1  0.57890925  0.86945156  1.29052812  1.0
  O  O10  1  1.03838113  0.82890925  1.20945769  1.0
  O  O11  1  1.13054844  1.42107656  1.70945769  1.0
  O  O12  1  0.17109075  0.38054844  0.20947188  1.0
  O  O13  1  0.57892344  0.28838113  0.70947188  1.0
  O  O14  1  0.61945156  0.82892344  0.79054231  1.0
  O  O15  1  0.71161887  0.42109075  0.29054231  1.0
