# generated using pymatgen
data_H6CN2O3
_symmetry_space_group_name_H-M   'P 1'
_cell_length_a   4.78829040
_cell_length_b   12.78122334
_cell_length_c   7.35665314
_cell_angle_alpha   90.00000000
_cell_angle_beta   90.00000000
_cell_angle_gamma   90.00000000
_symmetry_Int_Tables_number   1
_chemical_formula_structural   H6CN2O3
_chemical_formula_sum   'H24 C4 N8 O12'
_cell_volume   450.22871006
_cell_formula_units_Z   4
loop_
 _symmetry_equiv_pos_site_id
 _symmetry_equiv_pos_as_xyz
  1  'x, y, z'
loop_
 _atom_site_type_symbol
 _atom_site_label
 _atom_site_symmetry_multiplicity
 _atom_site_fract_x
 _atom_site_fract_y
 _atom_site_fract_z
 _atom_site_occupancy
  H  H0  1  0.32997921  0.25952035  0.14005167  1.0
  H  H1  1  0.32997921  0.74047965  0.64005167  1.0
  H  H2  1  0.82997921  0.75952035  0.35994833  1.0
  H  H3  1  0.82997921  0.24047965  0.85994833  1.0
  H  H4  1  0.67002079  0.25952035  0.35994833  1.0
  H  H5  1  0.67002079  0.74047965  0.85994833  1.0
  H  H6  1  0.17002079  0.75952035  0.14005167  1.0
  H  H7  1  0.17002079  0.24047965  0.64005167  1.0
  H  H8  1  0.26173415  0.06219862  0.19144424  1.0
  H  H9  1  0.26173415  0.93780138  0.69144424  1.0
  H  H10  1  0.76173415  0.56219862  0.30855576  1.0
  H  H11  1  0.76173415  0.43780138  0.80855576  1.0
  H  H12  1  0.73826585  0.06219862  0.30855576  1.0
  H  H13  1  0.73826585  0.93780138  0.80855576  1.0
  H  H14  1  0.23826585  0.56219862  0.19144424  1.0
  H  H15  1  0.23826585  0.43780138  0.69144424  1.0
  H  H16  1  0.20652496  0.37780942  0.04774557  1.0
  H  H17  1  0.20652496  0.62219058  0.54774557  1.0
  H  H18  1  0.70652496  0.87780942  0.45225443  1.0
  H  H19  1  0.70652496  0.12219058  0.95225443  1.0
  H  H20  1  0.79347504  0.37780942  0.45225443  1.0
  H  H21  1  0.79347504  0.62219058  0.95225443  1.0
  H  H22  1  0.29347504  0.87780942  0.04774557  1.0
  H  H23  1  0.29347504  0.12219058  0.54774557  1.0
  C  C24  1  0.50000000  0.39380134  0.25000000  1.0
  C  C25  1  0.50000000  0.60619866  0.75000000  1.0
  C  C26  1  0.00000000  0.89380134  0.25000000  1.0
  C  C27  1  0.00000000  0.10619866  0.75000000  1.0
  N  N28  1  0.33238808  0.33959284  0.13738184  1.0
  N  N29  1  0.33238808  0.66040716  0.63738184  1.0
  N  N30  1  0.83238808  0.83959284  0.36261816  1.0
  N  N31  1  0.83238808  0.16040716  0.86261816  1.0
  N  N32  1  0.66761192  0.33959284  0.36261816  1.0
  N  N33  1  0.66761192  0.66040716  0.86261816  1.0
  N  N34  1  0.16761192  0.83959284  0.13738184  1.0
  N  N35  1  0.16761192  0.16040716  0.63738184  1.0
  O  O36  1  0.42429449  0.11120595  0.16349378  1.0
  O  O37  1  0.42429449  0.88879405  0.66349378  1.0
  O  O38  1  0.92429449  0.61120595  0.33650622  1.0
  O  O39  1  0.92429449  0.38879405  0.83650622  1.0
  O  O40  1  0.57570551  0.11120595  0.33650622  1.0
  O  O41  1  0.57570551  0.88879405  0.83650622  1.0
  O  O42  1  0.07570551  0.61120595  0.16349378  1.0
  O  O43  1  0.07570551  0.38879405  0.66349378  1.0
  O  O44  1  0.50000000  0.49394525  0.25000000  1.0
  O  O45  1  0.50000000  0.50605475  0.75000000  1.0
  O  O46  1  0.00000000  0.99394525  0.25000000  1.0
  O  O47  1  0.00000000  0.00605475  0.75000000  1.0
