# generated using pymatgen
data_Ca2Fe3Si3O14
_symmetry_space_group_name_H-M   'P 1'
_cell_length_a   10.53325025
_cell_length_b   10.53325025
_cell_length_c   8.79511878
_cell_angle_alpha   83.84869031
_cell_angle_beta   96.15130969
_cell_angle_gamma   147.21039667
_symmetry_Int_Tables_number   1
_chemical_formula_structural   Ca2Fe3Si3O14
_chemical_formula_sum   'Ca4 Fe6 Si6 O28'
_cell_volume   525.15009779
_cell_formula_units_Z   2
loop_
 _symmetry_equiv_pos_site_id
 _symmetry_equiv_pos_as_xyz
  1  'x, y, z'
loop_
 _atom_site_type_symbol
 _atom_site_label
 _atom_site_symmetry_multiplicity
 _atom_site_fract_x
 _atom_site_fract_y
 _atom_site_fract_z
 _atom_site_occupancy
  Fe  Fe0  1  1.50000000  0.00000000  0.50000000  1.0
  Fe  Fe1  1  1.00000000  -0.50000000  0.50000000  1.0
  Fe  Fe2  1  1.26132179  0.24602820  0.74402901  1.0
  Fe  Fe3  1  0.75397180  -0.26132179  0.74402901  1.0
  Fe  Fe4  1  1.24602820  -0.73867821  0.25597099  1.0
  Fe  Fe5  1  1.73867821  -0.24602820  0.25597099  1.0
  O  O6  1  1.69815255  -0.15896586  0.84890621  1.0
  O  O7  1  1.15896586  -0.69815254  0.84890621  1.0
  O  O8  1  0.84103414  -0.30184745  0.15109379  1.0
  O  O9  1  1.30184746  0.15896586  0.15109379  1.0
  O  O10  1  1.52069254  0.01600847  0.72500705  1.0
  O  O11  1  0.98399153  -0.52069254  0.72500705  1.0
  O  O12  1  1.01600847  -0.47930746  0.27499295  1.0
  O  O13  1  1.47930746  -0.01600847  0.27499295  1.0
  O  O14  1  1.36127149  0.18567937  0.64095592  1.0
  O  O15  1  0.81432063  -0.36127149  0.64095592  1.0
  O  O16  1  1.18567937  -0.63872851  0.35904408  1.0
  O  O17  1  1.63872851  -0.18567937  0.35904408  1.0
  O  O18  1  0.82809883  -0.82809883  0.94272241  1.0
  O  O19  1  1.17190117  -0.17190117  0.05727759  1.0
  O  O20  1  0.69779379  -0.69779379  0.94773801  1.0
  O  O21  1  1.30220621  -0.30220621  0.05226199  1.0
  O  O22  1  0.53498937  -0.53498937  0.85541756  1.0
  O  O23  1  1.46501063  -0.46501063  0.14458244  1.0
  O  O24  1  0.98180904  -0.98180904  0.64001883  1.0
  O  O25  1  1.01819096  -0.01819096  0.35998117  1.0
  O  O26  1  0.80168007  -0.80168007  0.49583354  1.0
  O  O27  1  1.19831993  -0.19831993  0.50416646  1.0
  O  O28  1  1.45826323  -0.45826323  0.61319303  1.0
  O  O29  1  0.54173677  -0.54173677  0.38680697  1.0
  O  O30  1  0.67126651  -0.67126651  0.47099274  1.0
  O  O31  1  1.32873349  -0.32873349  0.52900726  1.0
  O  O32  1  0.94001938  -0.94001938  0.11461377  1.0
  O  O33  1  1.05998062  -0.05998062  0.88538623  1.0
  Si  Si34  1  0.90995144  -0.90995144  0.93316372  1.0
  Si  Si35  1  1.09004856  -0.09004856  0.06683628  1.0
  Si  Si36  1  0.75386803  -0.75386803  0.83463890  1.0
  Si  Si37  1  1.24613197  -0.24613197  0.16536110  1.0
  Si  Si38  1  0.59758014  -0.59758014  0.53905665  1.0
  Si  Si39  1  1.40241986  -0.40241986  0.46094335  1.0
  Ca  Ca40  1  0.84007924  -0.84007924  0.24495560  1.0
  Ca  Ca41  1  1.15992076  -0.15992076  0.75504440  1.0
  Ca  Ca42  1  1.34547604  -0.34547604  0.82754405  1.0
  Ca  Ca43  1  0.65452396  -0.65452396  0.17245595  1.0
