# generated using pymatgen
data_La5CoPb3
_symmetry_space_group_name_H-M   'P 1'
_cell_length_a   9.66636795
_cell_length_b   9.66636795
_cell_length_c   7.16540863
_cell_angle_alpha   90.00000000
_cell_angle_beta   90.00000000
_cell_angle_gamma   120.00000000
_symmetry_Int_Tables_number   1
_chemical_formula_structural   La5CoPb3
_chemical_formula_sum   'La10 Co2 Pb6'
_cell_volume   579.82673920
_cell_formula_units_Z   2
loop_
 _symmetry_equiv_pos_site_id
 _symmetry_equiv_pos_as_xyz
  1  'x, y, z'
loop_
 _atom_site_type_symbol
 _atom_site_label
 _atom_site_symmetry_multiplicity
 _atom_site_fract_x
 _atom_site_fract_y
 _atom_site_fract_z
 _atom_site_occupancy
  La  La0  1  0.77102861  0.77102861  0.25000000  1.0
  La  La1  1  0.77102861  0.00000000  0.75000000  1.0
  La  La2  1  0.00000000  0.77102861  0.75000000  1.0
  La  La3  1  0.00000000  0.22897139  0.25000000  1.0
  La  La4  1  0.22897139  0.22897139  0.75000000  1.0
  La  La5  1  0.22897139  0.00000000  0.25000000  1.0
  La  La6  1  0.33333333  0.66666667  0.50000000  1.0
  La  La7  1  0.33333333  0.66666667  0.00000000  1.0
  La  La8  1  0.66666667  0.33333333  0.50000000  1.0
  La  La9  1  0.66666667  0.33333333  0.00000000  1.0
  Co  Co10  1  0.00000000  0.00000000  0.50000000  1.0
  Co  Co11  1  0.00000000  0.00000000  0.00000000  1.0
  Pb  Pb12  1  0.40838071  0.40838071  0.25000000  1.0
  Pb  Pb13  1  0.40838071  0.00000000  0.75000000  1.0
  Pb  Pb14  1  0.00000000  0.40838071  0.75000000  1.0
  Pb  Pb15  1  -0.00000000  0.59161929  0.25000000  1.0
  Pb  Pb16  1  0.59161929  0.59161929  0.75000000  1.0
  Pb  Pb17  1  0.59161929  0.00000000  0.25000000  1.0
