# generated using pymatgen
data_Hg
_symmetry_space_group_name_H-M   'P 1'
_cell_length_a   5.85909398
_cell_length_b   5.85909398
_cell_length_c   3.58958230
_cell_angle_alpha   90.00000000
_cell_angle_beta   90.00000000
_cell_angle_gamma   90.00000000
_symmetry_Int_Tables_number   1
_chemical_formula_structural   Hg
_chemical_formula_sum   Hg4
_cell_volume   123.22670704
_cell_formula_units_Z   4
loop_
 _symmetry_equiv_pos_site_id
 _symmetry_equiv_pos_as_xyz
  1  'x, y, z'
loop_
 _atom_site_type_symbol
 _atom_site_label
 _atom_site_symmetry_multiplicity
 _atom_site_fract_x
 _atom_site_fract_y
 _atom_site_fract_z
 _atom_site_occupancy
  Hg  Hg0  1  0.20166925  0.79833075  0.50000000  1.0
  Hg  Hg1  1  0.70166925  0.70166925  0.00000000  1.0
  Hg  Hg2  1  0.29833075  0.29833075  0.00000000  1.0
  Hg  Hg3  1  0.79833075  0.20166925  0.50000000  1.0
