# generated using pymatgen
data_Zr9Re4O3
_symmetry_space_group_name_H-M   'P 1'
_cell_length_a   8.52251471
_cell_length_b   8.52251471
_cell_length_c   8.63558043
_cell_angle_alpha   90.00000000
_cell_angle_beta   90.00000000
_cell_angle_gamma   120.00000000
_symmetry_Int_Tables_number   1
_chemical_formula_structural   Zr9Re4O3
_chemical_formula_sum   'Zr18 Re8 O6'
_cell_volume   543.19740200
_cell_formula_units_Z   2
loop_
 _symmetry_equiv_pos_site_id
 _symmetry_equiv_pos_as_xyz
  1  'x, y, z'
loop_
 _atom_site_type_symbol
 _atom_site_label
 _atom_site_symmetry_multiplicity
 _atom_site_fract_x
 _atom_site_fract_y
 _atom_site_fract_z
 _atom_site_occupancy
  Zr  Zr0  1  0.20219599  0.79780401  0.93952336  1.0
  Zr  Zr1  1  0.20219599  0.79780401  0.56047664  1.0
  Zr  Zr2  1  0.20219599  0.40439199  0.93952336  1.0
  Zr  Zr3  1  0.20219599  0.40439199  0.56047664  1.0
  Zr  Zr4  1  0.79780401  0.20219599  0.43952336  1.0
  Zr  Zr5  1  0.79780401  0.20219599  0.06047664  1.0
  Zr  Zr6  1  0.79780401  0.59560801  0.43952336  1.0
  Zr  Zr7  1  0.79780401  0.59560801  0.06047664  1.0
  Zr  Zr8  1  0.59560801  0.79780401  0.93952336  1.0
  Zr  Zr9  1  0.59560801  0.79780401  0.56047664  1.0
  Zr  Zr10  1  0.40439199  0.20219599  0.43952336  1.0
  Zr  Zr11  1  0.40439199  0.20219599  0.06047664  1.0
  Zr  Zr12  1  0.45300602  0.54699398  0.25000000  1.0
  Zr  Zr13  1  0.45300602  0.90601203  0.25000000  1.0
  Zr  Zr14  1  0.54699398  0.45300602  0.75000000  1.0
  Zr  Zr15  1  0.54699398  0.09398797  0.75000000  1.0
  Zr  Zr16  1  0.09398797  0.54699398  0.25000000  1.0
  Zr  Zr17  1  0.90601203  0.45300602  0.75000000  1.0
  Re  Re18  1  0.10737822  0.89262178  0.25000000  1.0
  Re  Re19  1  0.10737822  0.21475645  0.25000000  1.0
  Re  Re20  1  0.89262178  0.10737822  0.75000000  1.0
  Re  Re21  1  0.89262178  0.78524355  0.75000000  1.0
  Re  Re22  1  0.78524355  0.89262178  0.25000000  1.0
  Re  Re23  1  0.21475645  0.10737822  0.75000000  1.0
  Re  Re24  1  0.00000000  0.00000000  0.50000000  1.0
  Re  Re25  1  0.00000000  0.00000000  0.00000000  1.0
  O  O26  1  0.50000000  0.50000000  0.50000000  1.0
  O  O27  1  0.50000000  0.50000000  0.00000000  1.0
  O  O28  1  0.50000000  0.00000000  0.50000000  1.0
  O  O29  1  0.50000000  0.00000000  0.00000000  1.0
  O  O30  1  0.00000000  0.50000000  0.50000000  1.0
  O  O31  1  0.00000000  0.50000000  0.00000000  1.0
