# generated using pymatgen
data_Ge5P6O25
_symmetry_space_group_name_H-M   'P 1'
_cell_length_a   9.63543285
_cell_length_b   9.63543285
_cell_length_c   9.63543285
_cell_angle_alpha   49.97526093
_cell_angle_beta   49.97526093
_cell_angle_gamma   49.97526093
_symmetry_Int_Tables_number   1
_chemical_formula_structural   Ge5P6O25
_chemical_formula_sum   'Ge5 P6 O25'
_cell_volume   482.72361048
_cell_formula_units_Z   1
loop_
 _symmetry_equiv_pos_site_id
 _symmetry_equiv_pos_as_xyz
  1  'x, y, z'
loop_
 _atom_site_type_symbol
 _atom_site_label
 _atom_site_symmetry_multiplicity
 _atom_site_fract_x
 _atom_site_fract_y
 _atom_site_fract_z
 _atom_site_occupancy
  Ge  Ge0  1  0.17718489  0.17718489  0.17718489  1.0
  Ge  Ge1  1  0.82281511  -0.17718489  -0.17718489  1.0
  Ge  Ge2  1  0.43194734  0.43194734  -0.56805266  1.0
  Ge  Ge3  1  0.56805266  0.56805266  -0.43194734  1.0
  Ge  Ge4  1  0.00000000  -0.00000000  -0.00000000  1.0
  P  P5  1  0.38011668  0.06970529  -0.17596346  1.0
  P  P6  1  1.17596346  -0.38011668  -0.06970529  1.0
  P  P7  1  0.93029471  0.17596346  -0.38011668  1.0
  P  P8  1  0.61988332  -0.06970529  0.17596346  1.0
  P  P9  1  0.82403654  -0.61988332  0.06970529  1.0
  P  P10  1  1.06970529  -0.17596346  -0.61988332  1.0
  O  O11  1  0.43383643  0.19193834  -0.40770008  1.0
  O  O12  1  0.40770008  0.56616357  -0.19193834  1.0
  O  O13  1  0.80806166  0.40770008  -0.43383643  1.0
  O  O14  1  0.56616357  0.80806166  -0.59229992  1.0
  O  O15  1  0.59229992  0.43383643  -0.80806166  1.0
  O  O16  1  0.19193834  0.59229992  -0.56616357  1.0
  O  O17  1  0.22177051  0.91205135  -0.73227754  1.0
  O  O18  1  0.73227754  -0.22177051  0.08794865  1.0
  O  O19  1  1.08794865  -0.26772246  -0.22177051  1.0
  O  O20  1  0.77822949  0.08794865  -0.26772246  1.0
  O  O21  1  0.26772246  0.22177051  -0.08794865  1.0
  O  O22  1  0.91205135  0.26772246  -0.77822949  1.0
  O  O23  1  0.43281693  0.09405929  0.13660124  1.0
  O  O24  1  0.86339876  -0.43281693  -0.09405929  1.0
  O  O25  1  0.90594071  -0.13660124  -0.43281693  1.0
  O  O26  1  0.56718307  -0.09405929  -0.13660124  1.0
  O  O27  1  1.13660124  -0.56718307  0.09405929  1.0
  O  O28  1  1.09405929  0.13660124  -0.56718307  1.0
  O  O29  1  0.26118213  -0.03499036  -0.10226142  1.0
  O  O30  1  1.10226142  -0.26118213  0.03499036  1.0
  O  O31  1  1.03499036  0.10226142  -0.26118213  1.0
  O  O32  1  0.73881787  0.03499036  0.10226142  1.0
  O  O33  1  0.89773858  -0.73881787  -0.03499036  1.0
  O  O34  1  0.96500964  -0.10226142  -0.73881787  1.0
  O  O35  1  0.50000000  0.50000000  -0.50000000  1.0
