# generated using pymatgen
data_Lu3Ga5Co
_symmetry_space_group_name_H-M   'P 1'
_cell_length_a   6.79600942
_cell_length_b   6.79600942
_cell_length_c   4.15197022
_cell_angle_alpha   90.00000000
_cell_angle_beta   90.00000000
_cell_angle_gamma   120.00000000
_symmetry_Int_Tables_number   1
_chemical_formula_structural   Lu3Ga5Co
_chemical_formula_sum   'Lu3 Ga5 Co1'
_cell_volume   166.07061951
_cell_formula_units_Z   1
loop_
 _symmetry_equiv_pos_site_id
 _symmetry_equiv_pos_as_xyz
  1  'x, y, z'
loop_
 _atom_site_type_symbol
 _atom_site_label
 _atom_site_symmetry_multiplicity
 _atom_site_fract_x
 _atom_site_fract_y
 _atom_site_fract_z
 _atom_site_occupancy
  Lu  Lu0  1  0.40419398  0.40419398  0.00000000  1.0
  Lu  Lu1  1  -0.00000000  0.59580602  0.00000000  1.0
  Lu  Lu2  1  0.59580602  0.00000000  0.00000000  1.0
  Ga  Ga3  1  0.76719459  0.76719459  0.50000000  1.0
  Ga  Ga4  1  0.00000000  0.23280541  0.50000000  1.0
  Ga  Ga5  1  0.23280541  0.00000000  0.50000000  1.0
  Ga  Ga6  1  0.33333333  0.66666667  0.50000000  1.0
  Ga  Ga7  1  0.66666667  0.33333333  0.50000000  1.0
  Co  Co8  1  0.00000000  0.00000000  0.00000000  1.0
