# generated using pymatgen
data_LaSb(SBr)2
_symmetry_space_group_name_H-M   'P 1'
_cell_length_a   8.78658120
_cell_length_b   9.39595246
_cell_length_c   18.25694178
_cell_angle_alpha   90.00000000
_cell_angle_beta   103.52938247
_cell_angle_gamma   90.00000000
_symmetry_Int_Tables_number   1
_chemical_formula_structural   LaSb(SBr)2
_chemical_formula_sum   'La8 Sb8 S16 Br16'
_cell_volume   1465.43565636
_cell_formula_units_Z   8
loop_
 _symmetry_equiv_pos_site_id
 _symmetry_equiv_pos_as_xyz
  1  'x, y, z'
loop_
 _atom_site_type_symbol
 _atom_site_label
 _atom_site_symmetry_multiplicity
 _atom_site_fract_x
 _atom_site_fract_y
 _atom_site_fract_z
 _atom_site_occupancy
  La  La0  1  0.87792064  0.62585014  0.75528056  1.0
  La  La1  1  0.87792064  0.87414986  0.25528056  1.0
  La  La2  1  0.12207936  0.12585014  0.74471944  1.0
  La  La3  1  0.12207936  0.37414986  0.24471944  1.0
  La  La4  1  0.38531385  0.63093180  0.76239667  1.0
  La  La5  1  0.38531385  0.86906820  0.26239667  1.0
  La  La6  1  0.61468615  0.13093180  0.73760333  1.0
  La  La7  1  0.61468615  0.36906820  0.23760333  1.0
  Sb  Sb8  1  0.72691985  0.45800802  0.94638203  1.0
  Sb  Sb9  1  0.72691985  0.04199198  0.44638203  1.0
  Sb  Sb10  1  0.27308015  0.95800802  0.55361797  1.0
  Sb  Sb11  1  0.27308015  0.54199198  0.05361797  1.0
  Sb  Sb12  1  0.72131832  0.83727301  0.93588754  1.0
  Sb  Sb13  1  0.72131832  0.66272699  0.43588754  1.0
  Sb  Sb14  1  0.27868168  0.33727301  0.56411246  1.0
  Sb  Sb15  1  0.27868168  0.16272699  0.06411246  1.0
  S  S16  1  0.92601239  0.64813901  0.94163149  1.0
  S  S17  1  0.92601239  0.85186099  0.44163149  1.0
  S  S18  1  0.07398761  0.14813901  0.55836851  1.0
  S  S19  1  0.07398761  0.35186099  0.05836851  1.0
  S  S20  1  0.66181057  0.43367364  0.80917705  1.0
  S  S21  1  0.66181057  0.06632636  0.30917705  1.0
  S  S22  1  0.33818943  0.93367364  0.69082295  1.0
  S  S23  1  0.33818943  0.56632636  0.19082295  1.0
  S  S24  1  0.65807603  0.82920207  0.79905749  1.0
  S  S25  1  0.65807603  0.67079793  0.29905749  1.0
  S  S26  1  0.34192397  0.32920207  0.70094251  1.0
  S  S27  1  0.34192397  0.17079793  0.20094251  1.0
  S  S28  1  0.51989317  0.64848572  0.94083569  1.0
  S  S29  1  0.51989317  0.85151428  0.44083569  1.0
  S  S30  1  0.48010683  0.14848572  0.55916431  1.0
  S  S31  1  0.48010683  0.35151428  0.05916431  1.0
  Br  Br32  1  0.91958922  0.12309841  0.86289768  1.0
  Br  Br33  1  0.91958922  0.37690159  0.36289768  1.0
  Br  Br34  1  0.08041078  0.62309841  0.63710232  1.0
  Br  Br35  1  0.08041078  0.87690159  0.13710232  1.0
  Br  Br36  1  0.84439228  0.32106045  0.67141905  1.0
  Br  Br37  1  0.84439228  0.17893955  0.17141905  1.0
  Br  Br38  1  0.15560772  0.82106045  0.82858095  1.0
  Br  Br39  1  0.15560772  0.67893955  0.32858095  1.0
  Br  Br40  1  0.84064185  0.93916295  0.66345492  1.0
  Br  Br41  1  0.84064185  0.56083705  0.16345492  1.0
  Br  Br42  1  0.15935815  0.43916295  0.83654508  1.0
  Br  Br43  1  0.15935815  0.06083705  0.33654508  1.0
  Br  Br44  1  0.55833269  0.62121496  0.63299353  1.0
  Br  Br45  1  0.55833269  0.87878504  0.13299353  1.0
  Br  Br46  1  0.44166731  0.12121496  0.86700647  1.0
  Br  Br47  1  0.44166731  0.37878504  0.36700647  1.0
