# generated using pymatgen
data_Mn2H2SO5
_symmetry_space_group_name_H-M   'P 1'
_cell_length_a   7.43045405
_cell_length_b   10.50317015
_cell_length_c   5.74542005
_cell_angle_alpha   90.00000000
_cell_angle_beta   90.00000000
_cell_angle_gamma   90.00000000
_symmetry_Int_Tables_number   1
_chemical_formula_structural   Mn2H2SO5
_chemical_formula_sum   'Mn8 H8 S4 O20'
_cell_volume   448.39167335
_cell_formula_units_Z   4
loop_
 _symmetry_equiv_pos_site_id
 _symmetry_equiv_pos_as_xyz
  1  'x, y, z'
loop_
 _atom_site_type_symbol
 _atom_site_label
 _atom_site_symmetry_multiplicity
 _atom_site_fract_x
 _atom_site_fract_y
 _atom_site_fract_z
 _atom_site_occupancy
  Mn  Mn0  1  0.09856322  0.94053794  0.76438749  1.0
  Mn  Mn1  1  0.09856322  0.55946206  0.76438749  1.0
  Mn  Mn2  1  0.59856322  0.94053794  0.73561251  1.0
  Mn  Mn3  1  0.59856322  0.55946206  0.73561251  1.0
  Mn  Mn4  1  0.90143678  0.44053794  0.23561251  1.0
  Mn  Mn5  1  0.90143678  0.05946206  0.23561251  1.0
  Mn  Mn6  1  0.40143678  0.44053794  0.26438749  1.0
  Mn  Mn7  1  0.40143678  0.05946206  0.26438749  1.0
  O  O8  1  0.45780939  0.86805862  0.04786986  1.0
  O  O9  1  0.45780939  0.63194138  0.04786986  1.0
  O  O10  1  0.95780939  0.86805862  0.45213014  1.0
  O  O11  1  0.95780939  0.63194138  0.45213014  1.0
  O  O12  1  0.54219061  0.36805862  0.95213014  1.0
  O  O13  1  0.54219061  0.13194138  0.95213014  1.0
  O  O14  1  0.04219061  0.36805862  0.54786986  1.0
  O  O15  1  0.04219061  0.13194138  0.54786986  1.0
  O  O16  1  0.18665125  0.75000000  0.91780756  1.0
  O  O17  1  0.68665125  0.75000000  0.58219244  1.0
  O  O18  1  0.81334875  0.25000000  0.08219244  1.0
  O  O19  1  0.31334875  0.25000000  0.41780756  1.0
  O  O20  1  0.33988203  0.93583757  0.55707320  1.0
  O  O21  1  0.33988203  0.56416243  0.55707320  1.0
  O  O22  1  0.83988203  0.93583757  0.94292680  1.0
  O  O23  1  0.83988203  0.56416243  0.94292680  1.0
  O  O24  1  0.66011797  0.43583757  0.44292680  1.0
  O  O25  1  0.66011797  0.06416243  0.44292680  1.0
  O  O26  1  0.16011797  0.43583757  0.05707320  1.0
  O  O27  1  0.16011797  0.06416243  0.05707320  1.0
  H  H28  1  0.32782771  0.85320514  0.48039798  1.0
  H  H29  1  0.32782771  0.64679486  0.48039798  1.0
  H  H30  1  0.82782771  0.85320514  1.01960202  1.0
  H  H31  1  0.82782771  0.64679486  1.01960202  1.0
  H  H32  1  0.67217229  0.35320514  0.51960202  1.0
  H  H33  1  0.67217229  0.14679486  0.51960202  1.0
  H  H34  1  0.17217229  0.35320514  -0.01960202  1.0
  H  H35  1  0.17217229  0.14679486  -0.01960202  1.0
  S  S36  1  0.34090301  0.75000000  0.10409650  1.0
  S  S37  1  0.84090301  0.75000000  0.39590350  1.0
  S  S38  1  0.65909699  0.25000000  0.89590350  1.0
  S  S39  1  0.15909699  0.25000000  0.60409650  1.0
