# generated using pymatgen
data_KCa12Si4S2O26F
_symmetry_space_group_name_H-M   'P 1'
_cell_length_a   14.48647109
_cell_length_b   14.48647109
_cell_length_c   14.48647109
_cell_angle_alpha   28.90546545
_cell_angle_beta   28.90546545
_cell_angle_gamma   28.90546545
_symmetry_Int_Tables_number   1
_chemical_formula_structural   KCa12Si4S2O26F
_chemical_formula_sum   'K1 Ca12 Si4 S2 O26 F1'
_cell_volume   628.16546086
_cell_formula_units_Z   1
loop_
 _symmetry_equiv_pos_site_id
 _symmetry_equiv_pos_as_xyz
  1  'x, y, z'
loop_
 _atom_site_type_symbol
 _atom_site_label
 _atom_site_symmetry_multiplicity
 _atom_site_fract_x
 _atom_site_fract_y
 _atom_site_fract_z
 _atom_site_occupancy
  K  K0  1  0.00000000  -0.00000000  0.00000000  1.0
  Ca  Ca1  1  0.22458128  0.68832859  -0.31167141  1.0
  Ca  Ca2  1  0.68832859  0.22458128  -0.31167141  1.0
  Ca  Ca3  1  0.31167141  0.31167141  -0.22458128  1.0
  Ca  Ca4  1  0.31167141  0.77541872  -0.68832859  1.0
  Ca  Ca5  1  0.77541872  0.31167141  -0.68832859  1.0
  Ca  Ca6  1  0.68832859  0.68832859  -0.77541872  1.0
  Ca  Ca7  1  0.08329709  0.55604650  -0.44395350  1.0
  Ca  Ca8  1  0.55604650  0.08329709  -0.44395350  1.0
  Ca  Ca9  1  0.44395350  0.44395350  -0.08329709  1.0
  Ca  Ca10  1  0.44395350  0.91670291  -0.55604650  1.0
  Ca  Ca11  1  0.91670291  0.44395350  -0.55604650  1.0
  Ca  Ca12  1  0.55604650  0.55604650  -0.91670291  1.0
  Si  Si13  1  0.08300798  0.08300798  0.08300798  1.0
  Si  Si14  1  0.91699202  -0.08300798  -0.08300798  1.0
  Si  Si15  1  0.20412219  0.20412219  0.20412219  1.0
  Si  Si16  1  0.79587781  -0.20412219  -0.20412219  1.0
  S  S17  1  0.32321985  0.32321985  0.32321985  1.0
  S  S18  1  0.67678015  -0.32321985  -0.32321985  1.0
  O  O19  1  0.46492123  -0.19866684  -0.19866684  1.0
  O  O20  1  0.80133316  -0.53507877  -0.19866684  1.0
  O  O21  1  1.19866684  0.19866684  -0.46492123  1.0
  O  O22  1  1.19866684  -0.46492123  0.19866684  1.0
  O  O23  1  0.53507877  0.19866684  0.19866684  1.0
  O  O24  1  0.80133316  -0.19866684  -0.53507877  1.0
  O  O25  1  1.18049962  -0.19974550  -0.19974550  1.0
  O  O26  1  0.80025450  0.18049962  -0.19974550  1.0
  O  O27  1  0.19974550  0.19974550  -0.18049962  1.0
  O  O28  1  0.19974550  0.81950038  -0.80025450  1.0
  O  O29  1  0.81950038  0.19974550  -0.80025450  1.0
  O  O30  1  0.80025450  -0.19974550  0.18049962  1.0
  O  O31  1  1.05982542  -0.31802717  -0.31802717  1.0
  O  O32  1  0.68197283  0.05982542  -0.31802717  1.0
  O  O33  1  0.31802717  0.31802717  -0.05982542  1.0
  O  O34  1  0.31802717  0.94017458  -0.68197283  1.0
  O  O35  1  0.94017458  0.31802717  -0.68197283  1.0
  O  O36  1  0.68197283  -0.31802717  0.05982542  1.0
  O  O37  1  0.12324434  0.12324434  0.12324434  1.0
  O  O38  1  0.87675566  -0.12324434  -0.12324434  1.0
  O  O39  1  0.24443053  0.24443053  0.24443053  1.0
  O  O40  1  0.75556947  -0.24443053  -0.24443053  1.0
  O  O41  1  0.35952051  0.35952051  -0.64047949  1.0
  O  O42  1  0.64047949  0.64047949  -0.35952051  1.0
  O  O43  1  0.43175520  0.43175520  -0.56824480  1.0
  O  O44  1  0.56824480  0.56824480  -0.43175520  1.0
  F  F45  1  0.50000000  0.50000000  -0.50000000  1.0
