# generated using pymatgen
data_YBr
_symmetry_space_group_name_H-M   'P 1'
_cell_length_a   10.88457744
_cell_length_b   10.88457744
_cell_length_c   10.88457744
_cell_angle_alpha   20.27920504
_cell_angle_beta   20.27920504
_cell_angle_gamma   20.27920504
_symmetry_Int_Tables_number   1
_chemical_formula_structural   YBr
_chemical_formula_sum   'Y2 Br2'
_cell_volume   135.55622718
_cell_formula_units_Z   2
loop_
 _symmetry_equiv_pos_site_id
 _symmetry_equiv_pos_as_xyz
  1  'x, y, z'
loop_
 _atom_site_type_symbol
 _atom_site_label
 _atom_site_symmetry_multiplicity
 _atom_site_fract_x
 _atom_site_fract_y
 _atom_site_fract_z
 _atom_site_occupancy
  Y  Y0  1  1.62317079  0.62317079  0.62317079  1.0
  Y  Y1  1  1.37682921  0.37682921  0.37682921  1.0
  Br  Br2  1  0.89704583  0.89704583  0.89704583  1.0
  Br  Br3  1  1.10295417  1.10295417  0.10295417  1.0
