# generated using pymatgen
data_Al2FeP2(HO)18
_symmetry_space_group_name_H-M   'P 1'
_cell_length_a   5.27505740
_cell_length_b   10.36860174
_cell_length_c   7.17422356
_cell_angle_alpha   75.84663208
_cell_angle_beta   66.61283961
_cell_angle_gamma   78.40652797
_symmetry_Int_Tables_number   1
_chemical_formula_structural   Al2FeP2(HO)18
_chemical_formula_sum   'Al2 Fe1 P2 H18 O18'
_cell_volume   346.83532469
_cell_formula_units_Z   1
loop_
 _symmetry_equiv_pos_site_id
 _symmetry_equiv_pos_as_xyz
  1  'x, y, z'
loop_
 _atom_site_type_symbol
 _atom_site_label
 _atom_site_symmetry_multiplicity
 _atom_site_fract_x
 _atom_site_fract_y
 _atom_site_fract_z
 _atom_site_occupancy
  Al  Al0  1  -0.50000000  -0.00000000  0.50000000  1.0
  Al  Al1  1  0.00000000  0.00000000  0.00000000  1.0
  Fe  Fe2  1  0.00000000  -0.50000000  0.50000000  1.0
  P  P3  1  -0.09454493  -0.83461935  0.58432668  1.0
  P  P4  1  0.09454493  -0.16538065  0.41567332  1.0
  H  H5  1  -0.46629007  -0.62571851  0.50035747  1.0
  H  H6  1  -0.53370993  -0.37428149  0.49964253  1.0
  H  H7  1  0.08915283  -0.17042957  0.79447765  1.0
  H  H8  1  -0.08915283  -0.82957043  0.20552235  1.0
  H  H9  1  -0.08460022  -0.59574075  0.90778681  1.0
  H  H10  1  0.08460022  -0.40425925  0.09221319  1.0
  H  H11  1  -0.17740920  -0.22052230  0.98623173  1.0
  H  H12  1  0.17740920  -0.77947770  0.01376827  1.0
  H  H13  1  0.35897148  -0.70746423  0.44548622  1.0
  H  H14  1  -0.35897148  -0.29253577  0.55451378  1.0
  H  H15  1  -0.21205575  -0.44403826  0.89195892  1.0
  H  H16  1  0.21205575  -0.55596174  0.10804108  1.0
  H  H17  1  -0.43825380  -0.68362826  0.84775874  1.0
  H  H18  1  0.43825380  -0.31637174  0.15224126  1.0
  H  H19  1  -0.51721078  -0.24154170  0.92499432  1.0
  H  H20  1  0.51721078  -0.75845830  0.07500568  1.0
  H  H21  1  -0.49499688  0.01331946  0.82574959  1.0
  H  H22  1  0.49499688  -0.01331946  0.17425041  1.0
  O  O23  1  0.00013754  -0.18130976  0.94990648  1.0
  O  O24  1  -0.00013754  -0.81869024  0.05009352  1.0
  O  O25  1  0.38982253  -0.61481038  0.43978600  1.0
  O  O26  1  -0.38982253  -0.38518962  0.56021400  1.0
  O  O27  1  0.64549829  -0.99627945  0.21010883  1.0
  O  O28  1  -0.64549829  -0.00372055  0.78989117  1.0
  O  O29  1  -0.06304415  -0.50861499  0.81666345  1.0
  O  O30  1  0.06304415  -0.49138501  0.18333655  1.0
  O  O31  1  0.22667496  -0.84968208  0.46581949  1.0
  O  O32  1  -0.22667496  -0.15031792  0.53418051  1.0
  O  O33  1  -0.17478344  -0.92530634  0.80255754  1.0
  O  O34  1  0.17478344  -0.07469366  0.19744246  1.0
  O  O35  1  0.57862104  -0.30593018  0.00690955  1.0
  O  O36  1  -0.57862104  -0.69406982  0.99309045  1.0
  O  O37  1  -0.19949307  -0.68491046  0.60546914  1.0
  O  O38  1  0.19949308  -0.31508954  0.39453086  1.0
  O  O39  1  -0.24174593  -0.87558618  0.45959609  1.0
  O  O40  1  0.24174593  -0.12441382  0.54040391  1.0
