# generated using pymatgen
data_La3MnW(SO2)3
_symmetry_space_group_name_H-M   'P 1'
_cell_length_a   9.50477342
_cell_length_b   9.50477342
_cell_length_c   5.53058587
_cell_angle_alpha   90.00000000
_cell_angle_beta   90.00000000
_cell_angle_gamma   120.00000000
_symmetry_Int_Tables_number   1
_chemical_formula_structural   La3MnW(SO2)3
_chemical_formula_sum   'La6 Mn2 W2 S6 O12'
_cell_volume   432.69841869
_cell_formula_units_Z   2
loop_
 _symmetry_equiv_pos_site_id
 _symmetry_equiv_pos_as_xyz
  1  'x, y, z'
loop_
 _atom_site_type_symbol
 _atom_site_label
 _atom_site_symmetry_multiplicity
 _atom_site_fract_x
 _atom_site_fract_y
 _atom_site_fract_z
 _atom_site_occupancy
  La  La0  1  0.68261850  0.59352885  0.25000000  1.0
  La  La1  1  0.59352885  0.91091035  0.75000000  1.0
  La  La2  1  0.91091035  0.31738150  0.25000000  1.0
  La  La3  1  0.40647115  0.08908965  0.25000000  1.0
  La  La4  1  0.31738150  0.40647115  0.75000000  1.0
  La  La5  1  0.08908965  0.68261850  0.75000000  1.0
  Mn  Mn6  1  0.00000000  0.00000000  0.50000000  1.0
  Mn  Mn7  1  0.00000000  0.00000000  0.00000000  1.0
  W  W8  1  0.33333333  0.66666667  0.25000000  1.0
  W  W9  1  0.66666667  0.33333333  0.75000000  1.0
  S  S10  1  0.04480021  0.82070591  0.25000000  1.0
  S  S11  1  0.82070591  0.77590570  0.75000000  1.0
  S  S12  1  0.77590570  0.95519979  0.25000000  1.0
  S  S13  1  0.17929409  0.22409430  0.25000000  1.0
  S  S14  1  0.95519979  0.17929409  0.75000000  1.0
  S  S15  1  0.22409430  0.04480021  0.75000000  1.0
  O  O16  1  0.36457372  0.83736609  0.47574562  1.0
  O  O17  1  0.36457372  0.83736609  0.02425438  1.0
  O  O18  1  0.83736609  0.47279237  0.97574562  1.0
  O  O19  1  0.83736609  0.47279237  0.52425438  1.0
  O  O20  1  0.47279237  0.63542628  0.47574562  1.0
  O  O21  1  0.47279237  0.63542628  0.02425438  1.0
  O  O22  1  0.16263391  0.52720763  0.47574562  1.0
  O  O23  1  0.16263391  0.52720763  0.02425438  1.0
  O  O24  1  0.63542628  0.16263391  0.97574562  1.0
  O  O25  1  0.63542628  0.16263391  0.52425438  1.0
  O  O26  1  0.52720763  0.36457372  0.97574562  1.0
  O  O27  1  0.52720763  0.36457372  0.52425438  1.0
