# generated using pymatgen
data_Li2MnSiO4
_symmetry_space_group_name_H-M   'P 1'
_cell_length_a   10.83855905
_cell_length_b   6.30731545
_cell_length_c   5.07155498
_cell_angle_alpha   90.00000000
_cell_angle_beta   90.00000000
_cell_angle_gamma   90.00000000
_symmetry_Int_Tables_number   1
_chemical_formula_structural   Li2MnSiO4
_chemical_formula_sum   'Li8 Mn4 Si4 O16'
_cell_volume   346.70271128
_cell_formula_units_Z   4
loop_
 _symmetry_equiv_pos_site_id
 _symmetry_equiv_pos_as_xyz
  1  'x, y, z'
loop_
 _atom_site_type_symbol
 _atom_site_label
 _atom_site_symmetry_multiplicity
 _atom_site_fract_x
 _atom_site_fract_y
 _atom_site_fract_z
 _atom_site_occupancy
  Li  Li0  1  0.91268885  0.50099507  0.18304720  1.0
  Li  Li1  1  0.91268885  0.99900493  0.18304720  1.0
  Li  Li2  1  0.41268885  0.50099507  0.31695280  1.0
  Li  Li3  1  0.41268885  0.99900493  0.31695280  1.0
  Li  Li4  1  0.08731115  0.00099507  0.81695280  1.0
  Li  Li5  1  0.08731115  0.49900493  0.81695280  1.0
  Li  Li6  1  0.58731115  0.00099507  0.68304720  1.0
  Li  Li7  1  0.58731115  0.49900493  0.68304720  1.0
  Mn  Mn8  1  0.66601237  0.25000000  0.18158538  1.0
  Mn  Mn9  1  0.16601237  0.25000000  0.31841462  1.0
  Mn  Mn10  1  0.33398763  0.75000000  0.81841462  1.0
  Mn  Mn11  1  0.83398763  0.75000000  0.68158538  1.0
  Si  Si12  1  0.83790768  0.25000000  0.67608624  1.0
  Si  Si13  1  0.33790768  0.25000000  0.82391376  1.0
  Si  Si14  1  0.16209232  0.75000000  0.32391376  1.0
  Si  Si15  1  0.66209232  0.75000000  0.17608624  1.0
  O  O16  1  0.59160355  0.96426596  0.28885499  1.0
  O  O17  1  0.59160355  0.53573404  0.28885499  1.0
  O  O18  1  0.09160355  0.96426596  0.21114501  1.0
  O  O19  1  0.09160355  0.53573404  0.21114501  1.0
  O  O20  1  0.40839645  0.46426596  0.71114501  1.0
  O  O21  1  0.40839645  0.03573404  0.71114501  1.0
  O  O22  1  0.90839645  0.46426596  0.78885499  1.0
  O  O23  1  0.90839645  0.03573404  0.78885499  1.0
  O  O24  1  0.84048229  0.25000000  0.34992948  1.0
  O  O25  1  0.34048229  0.25000000  0.15007052  1.0
  O  O26  1  0.15951771  0.75000000  0.65007052  1.0
  O  O27  1  0.65951771  0.75000000  0.84992948  1.0
  O  O28  1  0.69171961  0.25000000  0.77645137  1.0
  O  O29  1  0.19171961  0.25000000  0.72354863  1.0
  O  O30  1  0.30828039  0.75000000  0.22354863  1.0
  O  O31  1  0.80828039  0.75000000  0.27645137  1.0
