# generated using pymatgen
data_Lu5Zr3(Ni4As3)4
_symmetry_space_group_name_H-M   'P 1'
_cell_length_a   12.75319099
_cell_length_b   12.75319099
_cell_length_c   3.89702353
_cell_angle_alpha   90.00000000
_cell_angle_beta   90.00000000
_cell_angle_gamma   120.00000000
_symmetry_Int_Tables_number   1
_chemical_formula_structural   Lu5Zr3(Ni4As3)4
_chemical_formula_sum   'Lu5 Zr3 Ni16 As12'
_cell_volume   548.91030856
_cell_formula_units_Z   1
loop_
 _symmetry_equiv_pos_site_id
 _symmetry_equiv_pos_as_xyz
  1  'x, y, z'
loop_
 _atom_site_type_symbol
 _atom_site_label
 _atom_site_symmetry_multiplicity
 _atom_site_fract_x
 _atom_site_fract_y
 _atom_site_fract_z
 _atom_site_occupancy
  Lu  Lu0  1  0.18264049  0.18264049  0.50000000  1.0
  Lu  Lu1  1  -0.00000000  0.81735951  0.50000000  1.0
  Lu  Lu2  1  0.81735951  0.00000000  0.50000000  1.0
  Lu  Lu3  1  0.33333333  0.66666667  0.00000000  1.0
  Lu  Lu4  1  0.66666667  0.33333333  0.00000000  1.0
  Zr  Zr5  1  0.56186579  0.56186579  0.00000000  1.0
  Zr  Zr6  1  0.00000000  0.43813421  0.00000000  1.0
  Zr  Zr7  1  0.43813421  0.00000000  0.00000000  1.0
  Ni  Ni8  1  0.19295324  0.81697304  0.00000000  1.0
  Ni  Ni9  1  0.81697304  0.19295324  0.00000000  1.0
  Ni  Ni10  1  0.62401980  0.80704676  0.00000000  1.0
  Ni  Ni11  1  0.18302696  0.37598020  0.00000000  1.0
  Ni  Ni12  1  0.80704676  0.62401980  0.00000000  1.0
  Ni  Ni13  1  0.37598020  0.18302696  0.00000000  1.0
  Ni  Ni14  1  0.12192398  0.63917768  0.50000000  1.0
  Ni  Ni15  1  0.63917768  0.12192398  0.50000000  1.0
  Ni  Ni16  1  0.51725370  0.87807602  0.50000000  1.0
  Ni  Ni17  1  0.36082232  0.48274630  0.50000000  1.0
  Ni  Ni18  1  0.87807602  0.51725370  0.50000000  1.0
  Ni  Ni19  1  0.48274630  0.36082232  0.50000000  1.0
  Ni  Ni20  1  0.72359076  0.72359076  0.50000000  1.0
  Ni  Ni21  1  -0.00000000  0.27640924  0.50000000  1.0
  Ni  Ni22  1  0.27640924  0.00000000  0.50000000  1.0
  Ni  Ni23  1  0.00000000  0.00000000  0.00000000  1.0
  As  As24  1  0.30829514  0.82705271  0.50000000  1.0
  As  As25  1  0.82705271  0.30829514  0.50000000  1.0
  As  As26  1  0.51875757  0.69170486  0.50000000  1.0
  As  As27  1  0.17294729  0.48124243  0.50000000  1.0
  As  As28  1  0.69170486  0.51875757  0.50000000  1.0
  As  As29  1  0.48124243  0.17294729  0.50000000  1.0
  As  As30  1  0.82267098  0.82267098  0.00000000  1.0
  As  As31  1  -0.00000000  0.17732902  -0.00000000  1.0
  As  As32  1  0.17732902  -0.00000000  -0.00000000  1.0
  As  As33  1  0.35357730  0.35357730  -0.00000000  1.0
  As  As34  1  -0.00000000  0.64642270  -0.00000000  1.0
  As  As35  1  0.64642270  0.00000000  0.00000000  1.0
