# generated using pymatgen
data_NaZr2ZnF11
_symmetry_space_group_name_H-M   'P 1'
_cell_length_a   5.73380010
_cell_length_b   5.73380010
_cell_length_c   7.84998132
_cell_angle_alpha   69.38770011
_cell_angle_beta   110.61229989
_cell_angle_gamma   107.01924897
_symmetry_Int_Tables_number   1
_chemical_formula_structural   NaZr2ZnF11
_chemical_formula_sum   'Na1 Zr2 Zn1 F11'
_cell_volume   221.86024330
_cell_formula_units_Z   1
loop_
 _symmetry_equiv_pos_site_id
 _symmetry_equiv_pos_as_xyz
  1  'x, y, z'
loop_
 _atom_site_type_symbol
 _atom_site_label
 _atom_site_symmetry_multiplicity
 _atom_site_fract_x
 _atom_site_fract_y
 _atom_site_fract_z
 _atom_site_occupancy
  Na  Na0  1  0.00000000  0.00000000  0.00000000  1.0
  Zr  Zr1  1  1.49302070  -0.49302070  0.76306633  1.0
  Zr  Zr2  1  0.50697930  0.49302070  0.23693367  1.0
  Zn  Zn3  1  0.00000000  -0.00000000  0.50000000  1.0
  F  F4  1  1.77731333  -0.19050759  0.68768654  1.0
  F  F5  1  1.19050759  -0.77731333  0.68768654  1.0
  F  F6  1  0.80949241  0.77731333  0.31231346  1.0
  F  F7  1  0.22268667  0.19050759  0.31231346  1.0
  F  F8  1  0.75276748  0.24723252  0.35166547  1.0
  F  F9  1  1.24723252  -0.24723252  0.64833453  1.0
  F  F10  1  0.72944226  0.27055774  0.88743198  1.0
  F  F11  1  1.27055774  -0.27055774  0.11256802  1.0
  F  F12  1  0.67023233  0.67023233  0.00000000  1.0
  F  F13  1  0.32976767  0.32976767  -0.00000000  1.0
  F  F14  1  0.50000000  0.50000000  0.50000000  1.0
