# generated using pymatgen
data_CrSiTe3
_symmetry_space_group_name_H-M   'P 1'
_cell_length_a   8.60832177
_cell_length_b   8.60832177
_cell_length_c   8.60832177
_cell_angle_alpha   46.80004157
_cell_angle_beta   46.80004157
_cell_angle_gamma   46.80004157
_symmetry_Int_Tables_number   1
_chemical_formula_structural   CrSiTe3
_chemical_formula_sum   'Cr2 Si2 Te6'
_cell_volume   309.72894275
_cell_formula_units_Z   2
loop_
 _symmetry_equiv_pos_site_id
 _symmetry_equiv_pos_as_xyz
  1  'x, y, z'
loop_
 _atom_site_type_symbol
 _atom_site_label
 _atom_site_symmetry_multiplicity
 _atom_site_fract_x
 _atom_site_fract_y
 _atom_site_fract_z
 _atom_site_occupancy
  Cr  Cr0  1  0.33354057  0.33354057  -0.66645943  1.0
  Cr  Cr1  1  0.66645943  0.66645943  -0.33354057  1.0
  Si  Si2  1  0.04977016  0.04977016  0.04977016  1.0
  Si  Si3  1  0.95022984  -0.04977016  -0.04977016  1.0
  Te  Te4  1  1.07469548  -0.28719958  -0.56132084  1.0
  Te  Te5  1  0.56132084  0.92530452  -0.71280042  1.0
  Te  Te6  1  0.28719958  0.56132084  -0.07469548  1.0
  Te  Te7  1  0.92530452  0.28719958  -0.43867916  1.0
  Te  Te8  1  0.43867916  0.07469548  -0.28719958  1.0
  Te  Te9  1  0.71280042  -0.56132084  0.07469548  1.0
