# generated using pymatgen
data_Mn9Au31
_symmetry_space_group_name_H-M   'P 1'
_cell_length_a   13.04121862
_cell_length_b   13.04121862
_cell_length_c   4.04606282
_cell_angle_alpha   90.00000000
_cell_angle_beta   90.00000000
_cell_angle_gamma   90.00000000
_symmetry_Int_Tables_number   1
_chemical_formula_structural   Mn9Au31
_chemical_formula_sum   'Mn9 Au31'
_cell_volume   688.12759135
_cell_formula_units_Z   1
loop_
 _symmetry_equiv_pos_site_id
 _symmetry_equiv_pos_as_xyz
  1  'x, y, z'
loop_
 _atom_site_type_symbol
 _atom_site_label
 _atom_site_symmetry_multiplicity
 _atom_site_fract_x
 _atom_site_fract_y
 _atom_site_fract_z
 _atom_site_occupancy
  Mn  Mn0  1  0.00000000  0.00000000  0.00000000  1.0
  Mn  Mn1  1  0.70204683  0.39836066  0.00000000  1.0
  Mn  Mn2  1  0.29795317  0.60163934  0.00000000  1.0
  Mn  Mn3  1  0.39836066  0.29795317  0.00000000  1.0
  Mn  Mn4  1  0.60163934  0.70204683  0.00000000  1.0
  Mn  Mn5  1  0.65151524  0.05003416  0.50000000  1.0
  Mn  Mn6  1  0.34848476  0.94996584  0.50000000  1.0
  Mn  Mn7  1  0.05003416  0.34848476  0.50000000  1.0
  Mn  Mn8  1  0.94996584  0.65151524  0.50000000  1.0
  Au  Au9  1  0.50000000  0.50000000  0.00000000  1.0
  Au  Au10  1  0.50000000  0.00000000  0.00000000  1.0
  Au  Au11  1  0.00000000  0.50000000  0.00000000  1.0
  Au  Au12  1  0.79760550  0.09842133  0.00000000  1.0
  Au  Au13  1  0.20239450  0.90157867  0.00000000  1.0
  Au  Au14  1  0.09842133  0.20239450  0.00000000  1.0
  Au  Au15  1  0.90157867  0.79760550  0.00000000  1.0
  Au  Au16  1  0.90129496  0.30234738  0.00000000  1.0
  Au  Au17  1  0.09870504  0.69765262  0.00000000  1.0
  Au  Au18  1  0.30234738  0.09870504  0.00000000  1.0
  Au  Au19  1  0.69765262  0.90129496  0.00000000  1.0
  Au  Au20  1  0.59962155  0.19926361  0.00000000  1.0
  Au  Au21  1  0.40037845  0.80073639  0.00000000  1.0
  Au  Au22  1  0.19926361  0.40037845  0.00000000  1.0
  Au  Au23  1  0.80073639  0.59962155  0.00000000  1.0
  Au  Au24  1  0.95207387  0.14868132  0.50000000  1.0
  Au  Au25  1  0.04792613  0.85131868  0.50000000  1.0
  Au  Au26  1  0.14868132  0.04792613  0.50000000  1.0
  Au  Au27  1  0.85131868  0.95207387  0.50000000  1.0
  Au  Au28  1  0.74633198  0.25278314  0.50000000  1.0
  Au  Au29  1  0.25366802  0.74721686  0.50000000  1.0
  Au  Au30  1  0.25278314  0.25366802  0.50000000  1.0
  Au  Au31  1  0.74721686  0.74633198  0.50000000  1.0
  Au  Au32  1  0.85002966  0.45056819  0.50000000  1.0
  Au  Au33  1  0.14997034  0.54943181  0.50000000  1.0
  Au  Au34  1  0.45056819  0.14997034  0.50000000  1.0
  Au  Au35  1  0.54943181  0.85002966  0.50000000  1.0
  Au  Au36  1  0.54733367  0.35089763  0.50000000  1.0
  Au  Au37  1  0.45266633  0.64910237  0.50000000  1.0
  Au  Au38  1  0.35089763  0.45266633  0.50000000  1.0
  Au  Au39  1  0.64910237  0.54733367  0.50000000  1.0
