# generated using pymatgen
data_CdI2
_symmetry_space_group_name_H-M   'P 1'
_cell_length_a   4.32803657
_cell_length_b   4.32803657
_cell_length_c   83.43896296
_cell_angle_alpha   90.00000000
_cell_angle_beta   90.00000000
_cell_angle_gamma   120.00000000
_symmetry_Int_Tables_number   1
_chemical_formula_structural   CdI2
_chemical_formula_sum   'Cd11 I22'
_cell_volume   1353.57203659
_cell_formula_units_Z   11
loop_
 _symmetry_equiv_pos_site_id
 _symmetry_equiv_pos_as_xyz
  1  'x, y, z'
loop_
 _atom_site_type_symbol
 _atom_site_label
 _atom_site_symmetry_multiplicity
 _atom_site_fract_x
 _atom_site_fract_y
 _atom_site_fract_z
 _atom_site_occupancy
  Cd  Cd0  1  0.00000000  0.00000000  0.02272630  1.0
  Cd  Cd1  1  0.66666667  0.33333333  0.11363473  1.0
  Cd  Cd2  1  0.00000000  0.00000000  0.20454437  1.0
  Cd  Cd3  1  0.66666667  0.33333333  0.29545202  1.0
  Cd  Cd4  1  0.00000000  0.00000000  0.38637277  1.0
  Cd  Cd5  1  0.00000000  0.00000000  0.47725616  1.0
  Cd  Cd6  1  0.66666667  0.33333333  0.56819158  1.0
  Cd  Cd7  1  0.66666667  0.33333333  0.65907433  1.0
  Cd  Cd8  1  0.00000000  0.00000000  0.74999923  1.0
  Cd  Cd9  1  0.66666667  0.33333333  0.84091920  1.0
  Cd  Cd10  1  0.66666667  0.33333333  0.93180177  1.0
  I  I11  1  0.33333333  0.66666667  0.00212870  1.0
  I  I12  1  0.66666667  0.33333333  0.04333093  1.0
  I  I13  1  0.33333333  0.66666667  0.09303761  1.0
  I  I14  1  0.00000000  0.00000000  0.13423910  1.0
  I  I15  1  0.33333333  0.66666667  0.18394744  1.0
  I  I16  1  0.66666667  0.33333333  0.22514908  1.0
  I  I17  1  0.33333333  0.66666667  0.27485563  1.0
  I  I18  1  0.00000000  0.00000000  0.31605718  1.0
  I  I19  1  0.33333333  0.66666667  0.36577719  1.0
  I  I20  1  0.66666667  0.33333333  0.40697730  1.0
  I  I21  1  0.33333333  0.66666667  0.45665666  1.0
  I  I22  1  0.66666667  0.33333333  0.49786272  1.0
  I  I23  1  0.33333333  0.66666667  0.54759233  1.0
  I  I24  1  0.00000000  0.00000000  0.58879859  1.0
  I  I25  1  0.33333333  0.66666667  0.63847209  1.0
  I  I26  1  0.00000000  0.00000000  0.67968339  1.0
  I  I27  1  0.33333333  0.66666667  0.72939922  1.0
  I  I28  1  0.66666667  0.33333333  0.77060699  1.0
  I  I29  1  0.33333333  0.66666667  0.82032016  1.0
  I  I30  1  0.00000000  0.00000000  0.86152549  1.0
  I  I31  1  0.33333333  0.66666667  0.91119926  1.0
  I  I32  1  0.00000000  0.00000000  0.95241048  1.0
