# generated using pymatgen
data_Rb2NbAgS4
_symmetry_space_group_name_H-M   'P 1'
_cell_length_a   13.91437142
_cell_length_b   12.40696299
_cell_length_c   7.58086614
_cell_angle_alpha   84.57255131
_cell_angle_beta   62.58163288
_cell_angle_gamma   32.84581580
_symmetry_Int_Tables_number   1
_chemical_formula_structural   Rb2NbAgS4
_chemical_formula_sum   'Rb4 Nb2 Ag2 S8'
_cell_volume   500.69252927
_cell_formula_units_Z   2
loop_
 _symmetry_equiv_pos_site_id
 _symmetry_equiv_pos_as_xyz
  1  'x, y, z'
loop_
 _atom_site_type_symbol
 _atom_site_label
 _atom_site_symmetry_multiplicity
 _atom_site_fract_x
 _atom_site_fract_y
 _atom_site_fract_z
 _atom_site_occupancy
  Rb  Rb0  1  1.42899070  0.42899070  0.07100930  1.0
  Rb  Rb1  1  0.07100930  0.07100930  1.42899070  1.0
  Rb  Rb2  1  0.82100930  0.82100930  -0.82100930  1.0
  Rb  Rb3  1  0.17899070  1.17899070  -0.17899070  1.0
  Nb  Nb4  1  0.00000000  0.00000000  0.00000000  1.0
  Nb  Nb5  1  1.25000000  0.25000000  0.25000000  1.0
  Ag  Ag6  1  -0.50000000  0.50000000  0.50000000  1.0
  Ag  Ag7  1  0.75000000  0.75000000  0.75000000  1.0
  S  S8  1  1.06111390  0.82786731  0.74214333  1.0
  S  S9  1  -0.63112454  0.74214333  0.82786731  1.0
  S  S10  1  0.74214333  -0.63112454  1.06111390  1.0
  S  S11  1  0.82786731  1.06111390  -0.63112454  1.0
  S  S12  1  1.18888610  0.42213269  0.50785667  1.0
  S  S13  1  0.88112454  0.50785667  0.42213269  1.0
  S  S14  1  1.50785667  -0.11887546  0.18888610  1.0
  S  S15  1  1.42213269  0.18888610  -0.11887546  1.0
