# generated using pymatgen
data_MoPbO2
_symmetry_space_group_name_H-M   'P 1'
_cell_length_a   7.64995832
_cell_length_b   7.64995832
_cell_length_c   7.64995832
_cell_angle_alpha   130.50947512
_cell_angle_beta   130.50947512
_cell_angle_gamma   72.59358807
_symmetry_Int_Tables_number   1
_chemical_formula_structural   MoPbO2
_chemical_formula_sum   'Mo4 Pb4 O8'
_cell_volume   252.88206648
_cell_formula_units_Z   4
loop_
 _symmetry_equiv_pos_site_id
 _symmetry_equiv_pos_as_xyz
  1  'x, y, z'
loop_
 _atom_site_type_symbol
 _atom_site_label
 _atom_site_symmetry_multiplicity
 _atom_site_fract_x
 _atom_site_fract_y
 _atom_site_fract_z
 _atom_site_occupancy
  Mo  Mo0  1  0.87500000  0.12500000  0.75000000  1.0
  Mo  Mo1  1  0.37500000  0.12500000  0.25000000  1.0
  Mo  Mo2  1  0.87500000  0.62500000  0.75000000  1.0
  Mo  Mo3  1  0.87500000  1.12500000  1.25000000  1.0
  Pb  Pb4  1  0.37500000  0.62500000  0.75000000  1.0
  Pb  Pb5  1  0.87500000  0.62500000  1.25000000  1.0
  Pb  Pb6  1  0.37500000  1.12500000  0.75000000  1.0
  Pb  Pb7  1  0.37500000  0.62500000  0.25000000  1.0
  O  O8  1  1.17217223  0.98750081  1.81531788  1.0
  O  O9  1  0.57781707  0.89314565  1.31531788  1.0
  O  O10  1  1.01249919  0.82781707  1.18467142  1.0
  O  O11  1  1.10685435  1.42217223  1.68467142  1.0
  O  O12  1  0.17218293  0.35685435  0.18468212  1.0
  O  O13  1  0.57782777  0.26249919  0.68468212  1.0
  O  O14  1  0.64314565  0.82782777  0.81532858  1.0
  O  O15  1  0.73750081  0.42218293  0.31532858  1.0
