# generated using pymatgen
data_AgBi(PSe3)2
_symmetry_space_group_name_H-M   'P 1'
_cell_length_a   15.32484661
_cell_length_b   15.32484661
_cell_length_c   15.32484661
_cell_angle_alpha   25.43086616
_cell_angle_beta   25.43086616
_cell_angle_gamma   25.43086616
_symmetry_Int_Tables_number   1
_chemical_formula_structural   AgBi(PSe3)2
_chemical_formula_sum   'Ag2 Bi2 P4 Se12'
_cell_volume   584.18958216
_cell_formula_units_Z   2
loop_
 _symmetry_equiv_pos_site_id
 _symmetry_equiv_pos_as_xyz
  1  'x, y, z'
loop_
 _atom_site_type_symbol
 _atom_site_label
 _atom_site_symmetry_multiplicity
 _atom_site_fract_x
 _atom_site_fract_y
 _atom_site_fract_z
 _atom_site_occupancy
  Ag  Ag0  1  0.09340689  0.09340689  0.09340689  1.0
  Ag  Ag1  1  0.90659311  -0.09340689  -0.09340689  1.0
  Bi  Bi2  1  0.41278670  0.41278670  -0.58721330  1.0
  Bi  Bi3  1  0.58721330  0.58721330  -0.41278670  1.0
  P  P4  1  0.22494265  0.22494265  0.22494265  1.0
  P  P5  1  0.77505735  -0.22494265  -0.22494265  1.0
  P  P6  1  0.27639576  0.27639576  0.27639576  1.0
  P  P7  1  0.72360424  -0.27639576  -0.27639576  1.0
  Se  Se8  1  0.23126811  0.88616036  -0.48992700  1.0
  Se  Se9  1  0.48992700  -0.23126811  0.11383964  1.0
  Se  Se10  1  1.11383964  -0.51007300  -0.23126811  1.0
  Se  Se11  1  0.76873189  0.11383964  -0.51007300  1.0
  Se  Se12  1  0.51007300  0.23126811  -0.11383964  1.0
  Se  Se13  1  0.88616036  0.51007300  -0.76873189  1.0
  Se  Se14  1  0.37594125  0.00223697  -0.24784535  1.0
  Se  Se15  1  1.24784535  -0.37594125  -0.00223697  1.0
  Se  Se16  1  0.99776303  0.24784535  -0.37594125  1.0
  Se  Se17  1  0.62405875  -0.00223697  0.24784535  1.0
  Se  Se18  1  0.75215465  -0.62405875  0.00223697  1.0
  Se  Se19  1  1.00223697  -0.24784535  -0.62405875  1.0
