# generated using pymatgen
data_Fe2H6(SeO4)3
_symmetry_space_group_name_H-M   'P 1'
_cell_length_a   8.83155420
_cell_length_b   8.83155420
_cell_length_c   8.83155420
_cell_angle_alpha   65.34545652
_cell_angle_beta   65.34545652
_cell_angle_gamma   65.34545652
_symmetry_Int_Tables_number   1
_chemical_formula_structural   Fe2H6(SeO4)3
_chemical_formula_sum   'Fe4 H12 Se6 O24'
_cell_volume   543.75761251
_cell_formula_units_Z   2
loop_
 _symmetry_equiv_pos_site_id
 _symmetry_equiv_pos_as_xyz
  1  'x, y, z'
loop_
 _atom_site_type_symbol
 _atom_site_label
 _atom_site_symmetry_multiplicity
 _atom_site_fract_x
 _atom_site_fract_y
 _atom_site_fract_z
 _atom_site_occupancy
  H  H0  1  0.52668541  0.66030971  -0.85840828  1.0
  H  H1  1  1.02668541  -0.35840828  0.16030971  1.0
  H  H2  1  1.16030971  0.02668541  -0.35840828  1.0
  H  H3  1  0.66030971  0.14159172  -0.47331459  1.0
  H  H4  1  0.64159172  0.16030971  0.02668541  1.0
  H  H5  1  0.14159172  0.52668541  -0.33969029  1.0
  H  H6  1  0.46864273  0.20103374  -0.48561136  1.0
  H  H7  1  0.96864273  0.01438864  -0.29896626  1.0
  H  H8  1  0.70103374  -0.03135727  0.01438864  1.0
  H  H9  1  0.20103374  0.51438864  -0.53135727  1.0
  H  H10  1  1.01438864  -0.29896626  -0.03135727  1.0
  H  H11  1  0.51438864  0.46864273  -0.79896626  1.0
  Fe  Fe12  1  0.00179494  0.00179494  0.00179494  1.0
  Fe  Fe13  1  0.50179494  0.50179494  -0.49820506  1.0
  Fe  Fe14  1  1.23104723  1.23104723  0.23104723  1.0
  Fe  Fe15  1  0.73104723  0.73104723  -0.26895277  1.0
  O  O16  1  0.56586787  0.24378179  -0.51356098  1.0
  O  O17  1  1.06586787  -0.01356098  -0.25621821  1.0
  O  O18  1  0.74378179  0.06586787  -0.01356098  1.0
  O  O19  1  0.24378179  0.48643902  -0.43413213  1.0
  O  O20  1  0.98643902  -0.25621821  0.06586787  1.0
  O  O21  1  0.48643902  0.56586787  -0.75621821  1.0
  O  O22  1  0.89534566  0.00786603  -0.75669636  1.0
  O  O23  1  0.39534566  0.74330364  -0.49213397  1.0
  O  O24  1  0.50786603  0.39534566  -0.25669636  1.0
  O  O25  1  1.00786603  -0.75669636  -0.10465434  1.0
  O  O26  1  0.74330364  0.50786603  -0.60465434  1.0
  O  O27  1  0.24330364  -0.10465434  0.00786603  1.0
  O  O28  1  1.02276860  1.14151155  0.36763246  1.0
  O  O29  1  0.52276860  0.86763246  -0.35848845  1.0
  O  O30  1  0.64151155  0.52276860  -0.13236754  1.0
  O  O31  1  1.14151155  1.36763246  0.02276860  1.0
  O  O32  1  0.86763246  0.64151155  -0.47723140  1.0
  O  O33  1  1.36763246  1.02276860  0.14151155  1.0
  O  O34  1  1.33159080  1.08782871  0.44240881  1.0
  O  O35  1  0.83159080  0.94240881  -0.41217129  1.0
  O  O36  1  0.58782871  0.83159080  -0.05759119  1.0
  O  O37  1  1.08782871  1.44240881  0.33159080  1.0
  O  O38  1  0.94240881  0.58782871  -0.16840920  1.0
  O  O39  1  1.44240881  1.33159080  0.08782871  1.0
  Se  Se40  1  1.00318091  -0.05573377  -0.60438620  1.0
  Se  Se41  1  0.50318091  0.89561380  -0.55573377  1.0
  Se  Se42  1  0.44426623  0.50318091  -0.10438620  1.0
  Se  Se43  1  0.94426623  -0.60438620  0.00318091  1.0
  Se  Se44  1  0.89561380  0.44426623  -0.49681909  1.0
  Se  Se45  1  0.39561380  0.00318091  -0.05573377  1.0
