# generated using pymatgen
data_MnSeO3
_symmetry_space_group_name_H-M   'P 1'
_cell_length_a   5.46130656
_cell_length_b   7.86447853
_cell_length_c   5.32049411
_cell_angle_alpha   90.00000000
_cell_angle_beta   90.00000000
_cell_angle_gamma   90.00000000
_symmetry_Int_Tables_number   1
_chemical_formula_structural   MnSeO3
_chemical_formula_sum   'Mn4 Se4 O12'
_cell_volume   228.51696846
_cell_formula_units_Z   4
loop_
 _symmetry_equiv_pos_site_id
 _symmetry_equiv_pos_as_xyz
  1  'x, y, z'
loop_
 _atom_site_type_symbol
 _atom_site_label
 _atom_site_symmetry_multiplicity
 _atom_site_fract_x
 _atom_site_fract_y
 _atom_site_fract_z
 _atom_site_occupancy
  Mn  Mn0  1  0.04530456  0.75000000  0.51079700  1.0
  Mn  Mn1  1  0.54530456  0.75000000  0.98920300  1.0
  Mn  Mn2  1  0.95469544  0.25000000  0.48920300  1.0
  Mn  Mn3  1  0.45469544  0.25000000  0.01079700  1.0
  Se  Se4  1  0.50000000  0.00000000  0.50000000  1.0
  Se  Se5  1  0.50000000  0.50000000  0.50000000  1.0
  Se  Se6  1  0.00000000  0.00000000  -0.00000000  1.0
  Se  Se7  1  0.00000000  0.50000000  0.00000000  1.0
  O  O8  1  0.31208334  0.92988087  0.81649375  1.0
  O  O9  1  0.31208334  0.57011913  0.81649375  1.0
  O  O10  1  0.81208334  0.92988087  0.68350625  1.0
  O  O11  1  0.81208334  0.57011913  0.68350625  1.0
  O  O12  1  0.68791666  0.42988087  0.18350625  1.0
  O  O13  1  0.68791666  0.07011913  0.18350625  1.0
  O  O14  1  0.18791666  0.42988087  0.31649375  1.0
  O  O15  1  0.18791666  0.07011913  0.31649375  1.0
  O  O16  1  0.92132088  0.75000000  0.13304810  1.0
  O  O17  1  0.42132088  0.75000000  0.36695190  1.0
  O  O18  1  0.07867912  0.25000000  0.86695190  1.0
  O  O19  1  0.57867912  0.25000000  0.63304810  1.0
