# generated using pymatgen
data_H8C2NCl
_symmetry_space_group_name_H-M   'P 1'
_cell_length_a   9.67294089
_cell_length_b   9.67294089
_cell_length_c   9.67294089
_cell_angle_alpha   135.20452866
_cell_angle_beta   81.20920362
_cell_angle_gamma   116.30827507
_symmetry_Int_Tables_number   1
_chemical_formula_structural   H8C2NCl
_chemical_formula_sum   'H32 C8 N4 Cl4'
_cell_volume   552.58689921
_cell_formula_units_Z   4
loop_
 _symmetry_equiv_pos_site_id
 _symmetry_equiv_pos_as_xyz
  1  'x, y, z'
loop_
 _atom_site_type_symbol
 _atom_site_label
 _atom_site_symmetry_multiplicity
 _atom_site_fract_x
 _atom_site_fract_y
 _atom_site_fract_z
 _atom_site_occupancy
  H  H0  1  0.85508163  1.06786498  0.92294660  1.0
  H  H1  1  1.14491837  0.93213502  1.07705340  1.0
  H  H2  1  0.64491837  0.56786498  0.21278335  1.0
  H  H3  1  1.35508163  1.43213502  1.78721665  1.0
  H  H4  1  0.77928900  1.23978469  1.01907369  1.0
  H  H5  1  1.22071100  0.76021531  0.98092631  1.0
  H  H6  1  0.72071100  0.73978469  0.46049569  1.0
  H  H7  1  1.27928900  1.26021531  1.53950431  1.0
  H  H8  1  1.65133845  1.01695490  1.08283688  1.0
  H  H9  1  0.93411802  1.56850157  0.91716312  1.0
  H  H10  1  0.84866155  0.93149843  0.36561645  1.0
  H  H11  1  1.56588198  1.48304510  1.63438355  1.0
  H  H12  1  0.34866155  0.98304510  0.91716312  1.0
  H  H13  1  1.06588198  0.43149843  1.08283688  1.0
  H  H14  1  1.15133845  1.06850157  1.63438355  1.0
  H  H15  1  0.43411802  0.51695490  0.36561645  1.0
  H  H16  1  1.76064593  1.31030160  1.31485183  1.0
  H  H17  1  0.99544977  1.44579410  0.68514817  1.0
  H  H18  1  0.73935407  1.05420590  0.54965566  1.0
  H  H19  1  1.50455023  1.18969840  1.45034433  1.0
  H  H20  1  0.23935407  0.68969840  0.68514817  1.0
  H  H21  1  1.00455023  0.55420590  1.31485183  1.0
  H  H22  1  1.26064593  0.94579410  1.45034433  1.0
  H  H23  1  0.49544977  0.81030160  0.54965566  1.0
  H  H24  1  1.84349574  1.13060701  1.21598435  1.0
  H  H25  1  0.91462266  1.62751139  0.78401565  1.0
  H  H26  1  0.65650426  0.87248861  0.28711127  1.0
  H  H27  1  1.58537734  1.36939299  1.71288873  1.0
  H  H28  1  0.15650426  0.86939299  0.78401565  1.0
  H  H29  1  1.08537734  0.37248861  1.21598435  1.0
  H  H30  1  1.34349574  1.12751139  1.71288873  1.0
  H  H31  1  0.41462266  0.63060701  0.28711127  1.0
  C  C32  1  1.77020256  1.16313593  1.17621294  1.0
  C  C33  1  0.98692298  1.59398961  0.82378706  1.0
  C  C34  1  0.72979744  0.90601039  0.39293337  1.0
  C  C35  1  1.51307702  1.33686407  1.60706663  1.0
  C  C36  1  0.22979744  0.83686407  0.82378706  1.0
  C  C37  1  1.01307702  0.40601039  1.17621294  1.0
  C  C38  1  1.27020256  1.09398961  1.60706663  1.0
  C  C39  1  0.48692298  0.66313593  0.39293337  1.0
  N  N40  1  0.84983535  1.21097325  1.06080860  1.0
  N  N41  1  1.15016465  0.78902675  0.93919140  1.0
  N  N42  1  0.65016465  0.71097325  0.36113790  1.0
  N  N43  1  1.34983535  1.28902675  1.63886210  1.0
  Cl  Cl44  1  0.85875925  0.78904825  0.64780750  1.0
  Cl  Cl45  1  1.14124075  1.21095175  1.35219250  1.0
  Cl  Cl46  1  0.64124075  1.28904825  0.93028900  1.0
  Cl  Cl47  1  1.35875925  0.71095175  1.06971100  1.0
