# generated using pymatgen
data_Eu3(AlGe2)2
_symmetry_space_group_name_H-M   'P 1'
_cell_length_a   6.31034141
_cell_length_b   6.31034141
_cell_length_c   8.77351637
_cell_angle_alpha   70.23197554
_cell_angle_beta   109.76802446
_cell_angle_gamma   141.11571020
_symmetry_Int_Tables_number   1
_chemical_formula_structural   Eu3(AlGe2)2
_chemical_formula_sum   'Eu3 Al2 Ge4'
_cell_volume   204.72205348
_cell_formula_units_Z   1
loop_
 _symmetry_equiv_pos_site_id
 _symmetry_equiv_pos_as_xyz
  1  'x, y, z'
loop_
 _atom_site_type_symbol
 _atom_site_label
 _atom_site_symmetry_multiplicity
 _atom_site_fract_x
 _atom_site_fract_y
 _atom_site_fract_z
 _atom_site_occupancy
  Eu  Eu0  1  0.61215218  0.38784782  0.68839281  1.0
  Eu  Eu1  1  0.38784782  -0.38784782  0.31160719  1.0
  Eu  Eu2  1  0.00000000  0.00000000  0.00000000  1.0
  Al  Al3  1  0.69783962  0.30216038  0.34826667  1.0
  Al  Al4  1  0.30216038  -0.30216038  0.65173333  1.0
  Ge  Ge5  1  0.90481412  0.09518588  0.60724870  1.0
  Ge  Ge6  1  0.09518588  -0.09518588  0.39275130  1.0
  Ge  Ge7  1  0.28855946  -0.28855946  0.94337058  1.0
  Ge  Ge8  1  0.71144054  0.28855946  0.05662942  1.0
