# generated using pymatgen
data_Na4SnSe4
_symmetry_space_group_name_H-M   'P 1'
_cell_length_a   8.31459787
_cell_length_b   8.31459787
_cell_length_c   7.33237355
_cell_angle_alpha   90.00000000
_cell_angle_beta   90.00000000
_cell_angle_gamma   90.00000000
_symmetry_Int_Tables_number   1
_chemical_formula_structural   Na4SnSe4
_chemical_formula_sum   'Na8 Sn2 Se8'
_cell_volume   506.90559126
_cell_formula_units_Z   2
loop_
 _symmetry_equiv_pos_site_id
 _symmetry_equiv_pos_as_xyz
  1  'x, y, z'
loop_
 _atom_site_type_symbol
 _atom_site_label
 _atom_site_symmetry_multiplicity
 _atom_site_fract_x
 _atom_site_fract_y
 _atom_site_fract_z
 _atom_site_occupancy
  Na  Na0  1  0.19801274  0.40109097  0.02774109  1.0
  Na  Na1  1  0.30198726  0.90109097  0.47225891  1.0
  Na  Na2  1  0.59890903  0.19801274  0.97225891  1.0
  Na  Na3  1  0.90109097  0.69801274  0.52774109  1.0
  Na  Na4  1  0.80198726  0.59890903  0.02774109  1.0
  Na  Na5  1  0.69801274  0.09890903  0.47225891  1.0
  Na  Na6  1  0.40109097  0.80198726  0.97225891  1.0
  Na  Na7  1  0.09890903  0.30198726  0.52774109  1.0
  Sn  Sn8  1  0.50000000  0.50000000  0.50000000  1.0
  Sn  Sn9  1  0.00000000  0.00000000  0.00000000  1.0
  Se  Se10  1  0.40707125  0.25785844  0.30852616  1.0
  Se  Se11  1  0.09292875  0.75785844  0.19147384  1.0
  Se  Se12  1  0.74214156  0.40707125  0.69147384  1.0
  Se  Se13  1  0.75785844  0.90707125  0.80852616  1.0
  Se  Se14  1  0.59292875  0.74214156  0.30852616  1.0
  Se  Se15  1  0.90707125  0.24214156  0.19147384  1.0
  Se  Se16  1  0.25785844  0.59292875  0.69147384  1.0
  Se  Se17  1  0.24214156  0.09292875  0.80852616  1.0
