# generated using pymatgen
data_NaCaAlH2OF6
_symmetry_space_group_name_H-M   'P 1'
_cell_length_a   5.65749242
_cell_length_b   5.59052509
_cell_length_c   16.39138725
_cell_angle_alpha   90.00000000
_cell_angle_beta   95.41572512
_cell_angle_gamma   90.00000000
_symmetry_Int_Tables_number   1
_chemical_formula_structural   NaCaAlH2OF6
_chemical_formula_sum   'Na4 Ca4 Al4 H8 O4 F24'
_cell_volume   516.11835509
_cell_formula_units_Z   4
loop_
 _symmetry_equiv_pos_site_id
 _symmetry_equiv_pos_as_xyz
  1  'x, y, z'
loop_
 _atom_site_type_symbol
 _atom_site_label
 _atom_site_symmetry_multiplicity
 _atom_site_fract_x
 _atom_site_fract_y
 _atom_site_fract_z
 _atom_site_occupancy
  Na  Na0  1  0.24529752  0.36891136  0.75237429  1.0
  Na  Na1  1  0.24529752  0.13108864  0.25237429  1.0
  Na  Na2  1  0.75470248  0.86891136  0.74762571  1.0
  Na  Na3  1  0.75470248  0.63108864  0.24762571  1.0
  Ca  Ca4  1  0.30774025  0.83507866  0.90230216  1.0
  Ca  Ca5  1  0.30774026  0.66492134  0.40230216  1.0
  Ca  Ca6  1  0.69225974  0.33507866  0.59769784  1.0
  Ca  Ca7  1  0.69225975  0.16492134  0.09769784  1.0
  Al  Al8  1  0.22153002  0.83238133  0.63875569  1.0
  Al  Al9  1  0.22153002  0.66761867  0.13875569  1.0
  Al  Al10  1  0.77846998  0.33238133  0.86124431  1.0
  Al  Al11  1  0.77846998  0.16761867  0.36124431  1.0
  H  H12  1  0.19740280  0.40493870  0.55105004  1.0
  H  H13  1  0.19740280  0.09506130  0.05105004  1.0
  H  H14  1  0.80259720  0.90493870  0.94894996  1.0
  H  H15  1  0.80259720  0.59506130  0.44894996  1.0
  H  H16  1  0.74759745  0.82081651  0.50045899  1.0
  H  H17  1  0.74759745  0.67918349  0.00045899  1.0
  H  H18  1  0.25240255  0.32081651  0.99954101  1.0
  H  H19  1  0.25240255  0.17918349  0.49954101  1.0
  O  O20  1  0.30124893  0.34589322  0.51022249  1.0
  O  O21  1  0.30124893  0.15410678  0.01022249  1.0
  O  O22  1  0.69875107  0.84589322  0.98977751  1.0
  O  O23  1  0.69875107  0.65410678  0.48977751  1.0
  F  F24  1  0.05185815  0.54531732  0.62390008  1.0
  F  F25  1  0.05185815  0.95468268  0.12390008  1.0
  F  F26  1  0.94814185  0.04531732  0.87609992  1.0
  F  F27  1  0.94814185  0.45468268  0.37609992  1.0
  F  F28  1  0.05221897  0.50653201  0.87266657  1.0
  F  F29  1  0.05221897  -0.00653201  0.37266657  1.0
  F  F30  1  0.94778103  1.00653201  0.62733343  1.0
  F  F31  1  0.94778103  0.49346799  0.12733343  1.0
  F  F32  1  0.18391382  0.80842111  0.74884812  1.0
  F  F33  1  0.18391382  0.69157889  0.24884812  1.0
  F  F34  1  0.81608618  0.30842111  0.75115188  1.0
  F  F35  1  0.81608618  0.19157889  0.25115188  1.0
  F  F36  1  0.24939997  0.85023862  0.52898566  1.0
  F  F37  1  0.24939997  0.64976138  0.02898566  1.0
  F  F38  1  0.75060003  0.35023862  0.97101434  1.0
  F  F39  1  0.75060003  0.14976138  0.47101434  1.0
  F  F40  1  0.48989402  0.64187921  0.65573378  1.0
  F  F41  1  0.48989402  0.85812079  0.15573378  1.0
  F  F42  1  0.51010598  0.14187921  0.84426622  1.0
  F  F43  1  0.51010598  0.35812079  0.34426622  1.0
  F  F44  1  0.58766330  0.59466820  0.84105357  1.0
  F  F45  1  0.58766330  0.90533180  0.34105357  1.0
  F  F46  1  0.41233670  0.09466820  0.65894643  1.0
  F  F47  1  0.41233670  0.40533180  0.15894643  1.0
