# generated using pymatgen
data_NaCO2
_symmetry_space_group_name_H-M   'P 1'
_cell_length_a   4.44712794
_cell_length_b   4.44712794
_cell_length_c   6.51709404
_cell_angle_alpha   72.84056416
_cell_angle_beta   107.15943584
_cell_angle_gamma   95.91413192
_symmetry_Int_Tables_number   1
_chemical_formula_structural   NaCO2
_chemical_formula_sum   'Na2 C2 O4'
_cell_volume   117.65125893
_cell_formula_units_Z   2
loop_
 _symmetry_equiv_pos_site_id
 _symmetry_equiv_pos_as_xyz
  1  'x, y, z'
loop_
 _atom_site_type_symbol
 _atom_site_label
 _atom_site_symmetry_multiplicity
 _atom_site_fract_x
 _atom_site_fract_y
 _atom_site_fract_z
 _atom_site_occupancy
  Na  Na0  1  1.19254811  0.19254811  0.25000000  1.0
  Na  Na1  1  0.80745189  -0.19254811  0.75000000  1.0
  C  C2  1  0.69352347  -0.30647653  0.25000000  1.0
  C  C3  1  1.30647653  0.30647653  0.75000000  1.0
  O  O4  1  0.89008145  -0.33267608  0.15386664  1.0
  O  O5  1  0.66732392  -0.10991855  0.34613336  1.0
  O  O6  1  1.10991855  0.33267608  0.84613336  1.0
  O  O7  1  1.33267608  0.10991855  0.65386664  1.0
