# generated using pymatgen
data_K2B10H13O2
_symmetry_space_group_name_H-M   'P 1'
_cell_length_a   7.09729969
_cell_length_b   10.90514832
_cell_length_c   7.96167205
_cell_angle_alpha   103.71787127
_cell_angle_beta   96.63069364
_cell_angle_gamma   93.11887582
_symmetry_Int_Tables_number   1
_chemical_formula_structural   K2B10H13O2
_chemical_formula_sum   'K4 B20 H26 O4'
_cell_volume   592.48909717
_cell_formula_units_Z   2
loop_
 _symmetry_equiv_pos_site_id
 _symmetry_equiv_pos_as_xyz
  1  'x, y, z'
loop_
 _atom_site_type_symbol
 _atom_site_label
 _atom_site_symmetry_multiplicity
 _atom_site_fract_x
 _atom_site_fract_y
 _atom_site_fract_z
 _atom_site_occupancy
  K  K0  1  -0.69640177  -0.91544669  -0.74700139  1.0
  K  K1  1  -0.30359823  -0.08455331  -0.25299861  1.0
  K  K2  1  -0.72455583  -0.35508630  -0.03337575  1.0
  K  K3  1  -0.27544417  -0.64491370  -0.96662425  1.0
  B  B4  1  -0.27653182  -0.33023769  -0.95551165  1.0
  B  B5  1  -0.72346818  -0.66976231  -0.04448835  1.0
  B  B6  1  -0.09966673  -0.21626675  -0.94736987  1.0
  B  B7  1  -0.90033327  -0.78373325  -0.05263013  1.0
  B  B8  1  -0.08522681  -0.32318771  -0.80285367  1.0
  B  B9  1  -0.91477319  -0.67681229  -0.19714633  1.0
  B  B10  1  -0.32060577  -0.28515438  -0.74459780  1.0
  B  B11  1  -0.67939423  -0.71484562  -0.25540220  1.0
  B  B12  1  -0.33416926  -0.17805012  -0.88934768  1.0
  B  B13  1  -0.66583074  -0.82194988  -0.11065232  1.0
  B  B14  1  -0.95321170  -0.16947701  -0.73755748  1.0
  B  B15  1  -0.04678830  -0.83052299  -0.26244252  1.0
  B  B16  1  -0.10887035  -0.21747637  -0.59516075  1.0
  B  B17  1  -0.89112965  -0.78252363  -0.40483925  1.0
  B  B18  1  -0.28408727  -0.11535518  -0.65779343  1.0
  B  B19  1  -0.71591273  -0.88464482  -0.34220657  1.0
  B  B20  1  -0.12820581  -0.06735117  -0.79955116  1.0
  B  B21  1  -0.87179419  -0.93264883  -0.20044884  1.0
  B  B22  1  -0.04989388  -0.06019274  -0.58402192  1.0
  B  B23  1  -0.95010612  -0.93980726  -0.41597808  1.0
  H  H24  1  -0.34699396  -0.41516551  -0.07596756  1.0
  H  H25  1  -0.65300604  -0.58483449  -0.92403244  1.0
  H  H26  1  -0.02762060  -0.21506606  -0.07691958  1.0
  H  H27  1  -0.97237940  -0.78493394  -0.92308042  1.0
  H  H28  1  -0.99627388  -0.41489536  -0.80438362  1.0
  H  H29  1  -0.00372612  -0.58510464  -0.19561638  1.0
  H  H30  1  -0.44309019  -0.34280457  -0.69302612  1.0
  H  H31  1  -0.55690981  -0.65719543  -0.30697388  1.0
  H  H32  1  -0.46764687  -0.14120896  -0.96592610  1.0
  H  H33  1  -0.53235313  -0.85879104  -0.03407390  1.0
  H  H34  1  -0.78242851  -0.16563824  -0.73340871  1.0
  H  H35  1  -0.21757149  -0.83436176  -0.26659129  1.0
  H  H36  1  -0.07748693  -0.25532017  -0.46481223  1.0
  H  H37  1  -0.92251307  -0.74467983  -0.53518777  1.0
  H  H38  1  -0.40827004  -0.06388554  -0.58484119  1.0
  H  H39  1  -0.59172996  -0.93611446  -0.41515881  1.0
  H  H40  1  0.11342377  -1.02646071  -0.14638638  1.0
  H  H41  1  -1.11342377  0.02646071  -0.85361362  1.0
  H  H42  1  -0.75608318  -0.15898587  -0.33772203  1.0
  H  H43  1  -0.24391682  -0.84101413  -0.66227797  1.0
  H  H44  1  -0.71347140  -0.30019070  -0.38236916  1.0
  H  H45  1  -0.28652860  -0.69980930  -0.61763084  1.0
  H  H46  1  -0.08686787  -0.48486246  -0.60589183  1.0
  H  H47  1  -0.91313213  -0.51513754  -0.39410817  1.0
  H  H48  1  -0.29068933  -0.45605375  -0.58260153  1.0
  H  H49  1  -0.70931067  -0.54394625  -0.41739847  1.0
  O  O50  1  -0.33665856  -0.78351578  -0.69027022  1.0
  O  O51  1  -0.66334144  -0.21648422  -0.30972978  1.0
  O  O52  1  -0.79387550  -0.47590598  -0.41524851  1.0
  O  O53  1  -0.20612450  -0.52409402  -0.58475149  1.0
