# generated using pymatgen
data_PbS
_symmetry_space_group_name_H-M   'P 1'
_cell_length_a   7.92694495
_cell_length_b   7.92694495
_cell_length_c   4.08512464
_cell_angle_alpha   90.00000000
_cell_angle_beta   90.00000000
_cell_angle_gamma   88.60904729
_symmetry_Int_Tables_number   1
_chemical_formula_structural   PbS
_chemical_formula_sum   'Pb4 S4'
_cell_volume   256.61911703
_cell_formula_units_Z   4
loop_
 _symmetry_equiv_pos_site_id
 _symmetry_equiv_pos_as_xyz
  1  'x, y, z'
loop_
 _atom_site_type_symbol
 _atom_site_label
 _atom_site_symmetry_multiplicity
 _atom_site_fract_x
 _atom_site_fract_y
 _atom_site_fract_z
 _atom_site_occupancy
  Pb  Pb0  1  0.68037373  0.64430200  -0.00000000  1.0
  Pb  Pb1  1  0.35569800  0.31962627  0.00000000  1.0
  Pb  Pb2  1  0.15134325  0.84865675  0.50000000  1.0
  Pb  Pb3  1  -0.16086793  1.16086793  0.00000000  1.0
  S  S4  1  0.78670614  0.87816338  0.50000000  1.0
  S  S5  1  0.12183662  0.21329386  0.50000000  1.0
  S  S6  1  0.32807909  0.67192091  0.00000000  1.0
  S  S7  1  -0.35866890  1.35866890  0.50000000  1.0
