# generated using pymatgen
data_La3VGeO9
_symmetry_space_group_name_H-M   'P 1'
_cell_length_a   7.24642289
_cell_length_b   12.89396377
_cell_length_c   10.05165612
_cell_angle_alpha   90.00000000
_cell_angle_beta   115.20077062
_cell_angle_gamma   90.00000000
_symmetry_Int_Tables_number   1
_chemical_formula_structural   La3VGeO9
_chemical_formula_sum   'La12 V4 Ge4 O36'
_cell_volume   849.78795524
_cell_formula_units_Z   4
loop_
 _symmetry_equiv_pos_site_id
 _symmetry_equiv_pos_as_xyz
  1  'x, y, z'
loop_
 _atom_site_type_symbol
 _atom_site_label
 _atom_site_symmetry_multiplicity
 _atom_site_fract_x
 _atom_site_fract_y
 _atom_site_fract_z
 _atom_site_occupancy
  La  La0  1  0.95463555  0.13220969  0.12184788  1.0
  La  La1  1  0.95463555  0.36779031  0.62184788  1.0
  La  La2  1  0.04536445  0.63220969  0.37815212  1.0
  La  La3  1  0.04536445  0.86779031  0.87815212  1.0
  La  La4  1  0.60839117  0.13324733  0.34773695  1.0
  La  La5  1  0.60839117  0.36675267  0.84773695  1.0
  La  La6  1  0.39160883  0.63324733  0.15226305  1.0
  La  La7  1  0.39160883  0.86675267  0.65226305  1.0
  La  La8  1  0.36506004  0.39233900  0.37383155  1.0
  La  La9  1  0.36506004  0.10766100  0.87383155  1.0
  La  La10  1  0.63493996  0.89233900  0.12616845  1.0
  La  La11  1  0.63493996  0.60766100  0.62616845  1.0
  V  V12  1  0.78109851  0.83787258  0.48053166  1.0
  V  V13  1  0.78109851  0.66212742  0.98053166  1.0
  V  V14  1  0.21890149  0.33787258  0.01946834  1.0
  V  V15  1  0.21890149  0.16212742  0.51946834  1.0
  Ge  Ge16  1  0.80370853  0.40163288  0.25882643  1.0
  Ge  Ge17  1  0.80370853  0.09836712  0.75882643  1.0
  Ge  Ge18  1  0.19629147  0.90163288  0.24117357  1.0
  Ge  Ge19  1  0.19629147  0.59836712  0.74117357  1.0
  O  O20  1  0.97971155  0.15908970  0.37568647  1.0
  O  O21  1  0.97971155  0.34091030  0.87568647  1.0
  O  O22  1  0.02028845  0.65908970  0.12431353  1.0
  O  O23  1  0.02028845  0.84091030  0.62431353  1.0
  O  O24  1  0.94271144  0.92586506  0.09622480  1.0
  O  O25  1  0.94271144  0.57413494  0.59622480  1.0
  O  O26  1  0.05728856  0.42586506  0.40377520  1.0
  O  O27  1  0.05728856  0.07413494  0.90377520  1.0
  O  O28  1  0.81844857  0.33074215  0.11408778  1.0
  O  O29  1  0.81844857  0.16925785  0.61408778  1.0
  O  O30  1  0.18155143  0.83074215  0.38591222  1.0
  O  O31  1  0.18155143  0.66925785  0.88591222  1.0
  O  O32  1  0.76280334  0.75279065  0.34219247  1.0
  O  O33  1  0.76280334  0.74720935  0.84219247  1.0
  O  O34  1  0.23719666  0.25279065  0.15780753  1.0
  O  O35  1  0.23719666  0.24720935  0.65780753  1.0
  O  O36  1  0.71198793  0.95306107  0.38580026  1.0
  O  O37  1  0.71198793  0.54693893  0.88580026  1.0
  O  O38  1  0.28801207  0.45306107  0.11419974  1.0
  O  O39  1  0.28801207  0.04693893  0.61419974  1.0
  O  O40  1  0.68586437  0.33178195  0.35889190  1.0
  O  O41  1  0.68586437  0.16821805  0.85889190  1.0
  O  O42  1  0.31413563  0.83178195  0.14110810  1.0
  O  O43  1  0.31413563  0.66821805  0.64110810  1.0
  O  O44  1  0.62562178  0.07822429  0.11682209  1.0
  O  O45  1  0.62562178  0.42177571  0.61682209  1.0
  O  O46  1  0.37437822  0.57822429  0.38317791  1.0
  O  O47  1  0.37437822  0.92177571  0.88317791  1.0
  O  O48  1  0.38918615  0.20901297  0.45843951  1.0
  O  O49  1  0.38918615  0.29098703  0.95843951  1.0
  O  O50  1  0.61081385  0.70901297  0.04156049  1.0
  O  O51  1  0.61081385  0.79098703  0.54156049  1.0
  O  O52  1  0.28436623  0.03176102  0.27403159  1.0
  O  O53  1  0.28436623  0.46823898  0.77403159  1.0
  O  O54  1  0.71563377  0.53176102  0.22596841  1.0
  O  O55  1  0.71563377  0.96823898  0.72596841  1.0
