# generated using pymatgen
data_BaNb2O6
_symmetry_space_group_name_H-M   'P 1'
_cell_length_a   7.34878586
_cell_length_b   7.34878586
_cell_length_c   10.42544526
_cell_angle_alpha   90.00000000
_cell_angle_beta   90.00000000
_cell_angle_gamma   114.57184492
_symmetry_Int_Tables_number   1
_chemical_formula_structural   BaNb2O6
_chemical_formula_sum   'Ba4 Nb8 O24'
_cell_volume   512.03555202
_cell_formula_units_Z   4
loop_
 _symmetry_equiv_pos_site_id
 _symmetry_equiv_pos_as_xyz
  1  'x, y, z'
loop_
 _atom_site_type_symbol
 _atom_site_label
 _atom_site_symmetry_multiplicity
 _atom_site_fract_x
 _atom_site_fract_y
 _atom_site_fract_z
 _atom_site_occupancy
  Ba  Ba0  1  -0.13335864  1.13335864  0.25000000  1.0
  Ba  Ba1  1  0.13335864  0.86664136  0.75000000  1.0
  Ba  Ba2  1  0.42436165  0.57563835  0.25000000  1.0
  Ba  Ba3  1  -0.42436165  1.42436165  0.75000000  1.0
  Nb  Nb4  1  -0.08763034  1.63568352  0.42791373  1.0
  Nb  Nb5  1  0.63568352  0.91236966  0.57208627  1.0
  Nb  Nb6  1  -0.63568352  1.08763034  0.07208627  1.0
  Nb  Nb7  1  0.08763034  0.36431648  0.92791373  1.0
  Nb  Nb8  1  -0.12626484  1.58708853  0.07745417  1.0
  Nb  Nb9  1  0.58708853  0.87373516  0.92254583  1.0
  Nb  Nb10  1  -0.58708853  1.12626484  0.42254583  1.0
  Nb  Nb11  1  0.12626484  0.41291147  0.57745417  1.0
  O  O12  1  0.30499025  0.30499025  0.00000000  1.0
  O  O13  1  0.69500975  0.69500975  0.50000000  1.0
  O  O14  1  0.12229873  0.87884799  0.03713265  1.0
  O  O15  1  -0.12115201  1.12229873  0.96286735  1.0
  O  O16  1  0.12115201  0.87770127  0.46286735  1.0
  O  O17  1  -0.12229873  1.12115201  0.53713265  1.0
  O  O18  1  0.07740605  0.47921882  0.10902859  1.0
  O  O19  1  -0.52078118  1.07740605  0.89097141  1.0
  O  O20  1  0.52078118  0.92259395  0.39097141  1.0
  O  O21  1  -0.07740605  1.52078118  0.60902859  1.0
  O  O22  1  -0.13416552  1.70081192  0.25016072  1.0
  O  O23  1  0.70081192  0.86583448  0.74983928  1.0
  O  O24  1  -0.70081192  1.13416552  0.24983928  1.0
  O  O25  1  0.13416552  0.29918808  0.75016072  1.0
  O  O26  1  0.07560782  0.48250500  0.39215414  1.0
  O  O27  1  -0.51749500  1.07560782  0.60784586  1.0
  O  O28  1  0.51749500  0.92439218  0.10784586  1.0
  O  O29  1  -0.07560782  1.51749500  0.89215414  1.0
  O  O30  1  0.70287646  0.70287646  0.00000000  1.0
  O  O31  1  0.29712354  0.29712354  0.50000000  1.0
  O  O32  1  -0.33966257  1.34553127  0.11233256  1.0
  O  O33  1  0.34553127  0.66033743  0.88766744  1.0
  O  O34  1  -0.34553127  1.33966257  0.38766744  1.0
  O  O35  1  0.33966257  0.65446873  0.61233256  1.0
