# generated using pymatgen
data_ZnS
_symmetry_space_group_name_H-M   'P 1'
_cell_length_a   3.84971538
_cell_length_b   3.84971538
_cell_length_c   50.34629529
_cell_angle_alpha   90.00000000
_cell_angle_beta   90.00000000
_cell_angle_gamma   120.00000000
_symmetry_Int_Tables_number   1
_chemical_formula_structural   ZnS
_chemical_formula_sum   'Zn16 S16'
_cell_volume   646.18280225
_cell_formula_units_Z   16
loop_
 _symmetry_equiv_pos_site_id
 _symmetry_equiv_pos_as_xyz
  1  'x, y, z'
loop_
 _atom_site_type_symbol
 _atom_site_label
 _atom_site_symmetry_multiplicity
 _atom_site_fract_x
 _atom_site_fract_y
 _atom_site_fract_z
 _atom_site_occupancy
  Zn  Zn0  1  0.00000000  0.00000000  0.06248142  1.0
  Zn  Zn1  1  -0.00000000  -0.00000000  0.24997591  1.0
  Zn  Zn2  1  0.00000000  0.00000000  0.49998545  1.0
  Zn  Zn3  1  0.00000000  0.00000000  0.68748066  1.0
  Zn  Zn4  1  0.00000000  0.00000000  0.87498188  1.0
  Zn  Zn5  1  0.66666667  0.33333333  0.18748668  1.0
  Zn  Zn6  1  0.66666667  0.33333333  0.37498153  1.0
  Zn  Zn7  1  0.66666667  0.33333333  0.56247637  1.0
  Zn  Zn8  1  0.66666667  0.33333333  0.81244005  1.0
  Zn  Zn9  1  0.66666667  0.33333333  0.93751761  1.0
  Zn  Zn10  1  0.33333333  0.66666667  -0.00006078  1.0
  Zn  Zn11  1  0.33333333  0.66666667  0.12502315  1.0
  Zn  Zn12  1  0.33333333  0.66666667  0.31243410  1.0
  Zn  Zn13  1  0.33333333  0.66666667  0.43752219  1.0
  Zn  Zn14  1  0.33333333  0.66666667  0.62493480  1.0
  Zn  Zn15  1  0.33333333  0.66666667  0.75001675  1.0
  S  S16  1  -0.00000000  -0.00000000  0.01556021  1.0
  S  S17  1  0.00000000  0.00000000  0.20311971  1.0
  S  S18  1  -0.00000000  -0.00000000  0.45313572  1.0
  S  S19  1  -0.00000000  -0.00000000  0.64055807  1.0
  S  S20  1  0.00000000  0.00000000  0.82806102  1.0
  S  S21  1  0.66666667  0.33333333  0.14063677  1.0
  S  S22  1  0.66666667  0.33333333  0.32805876  1.0
  S  S23  1  0.66666667  0.33333333  0.51562057  1.0
  S  S24  1  0.66666667  0.33333333  0.76561764  1.0
  S  S25  1  0.66666667  0.33333333  0.89068290  1.0
  S  S26  1  0.33333333  0.66666667  0.07818529  1.0
  S  S27  1  0.33333333  0.66666667  0.26560094  1.0
  S  S28  1  0.33333333  0.66666667  0.39068424  1.0
  S  S29  1  0.33333333  0.66666667  0.57810199  1.0
  S  S30  1  0.33333333  0.66666667  0.70318176  1.0
  S  S31  1  0.33333333  0.66666667  0.95311664  1.0
