# generated using pymatgen
data_Na3Zr(GeO4)2
_symmetry_space_group_name_H-M   'P 1'
_cell_length_a   9.09530616
_cell_length_b   9.09530616
_cell_length_c   9.39518666
_cell_angle_alpha   57.46087849
_cell_angle_beta   122.53912151
_cell_angle_gamma   143.16394023
_symmetry_Int_Tables_number   1
_chemical_formula_structural   Na3Zr(GeO4)2
_chemical_formula_sum   'Na6 Zr2 Ge4 O16'
_cell_volume   383.84734648
_cell_formula_units_Z   2
loop_
 _symmetry_equiv_pos_site_id
 _symmetry_equiv_pos_as_xyz
  1  'x, y, z'
loop_
 _atom_site_type_symbol
 _atom_site_label
 _atom_site_symmetry_multiplicity
 _atom_site_fract_x
 _atom_site_fract_y
 _atom_site_fract_z
 _atom_site_occupancy
  O  O0  1  0.64782477  -0.14051760  0.85210444  1.0
  O  O1  1  1.14051760  0.35217523  0.85210444  1.0
  O  O2  1  0.85948240  -0.35217523  0.14789556  1.0
  O  O3  1  1.35217523  0.14051760  0.14789556  1.0
  O  O4  1  0.35953646  0.14784738  0.64774328  1.0
  O  O5  1  0.85215262  0.64046354  0.64774328  1.0
  O  O6  1  1.14784738  -0.64046354  0.35225672  1.0
  O  O7  1  1.64046354  -0.14784738  0.35225672  1.0
  O  O8  1  0.96516318  -0.96516318  0.67746365  1.0
  O  O9  1  0.03483682  -0.03483682  0.32253635  1.0
  O  O10  1  0.53498566  0.46501434  0.82272653  1.0
  O  O11  1  1.46501434  -0.46501434  0.17727347  1.0
  O  O12  1  0.73354534  0.26645466  0.97360889  1.0
  O  O13  1  1.26645466  -0.26645466  0.02639111  1.0
  O  O14  1  0.76654639  -0.76654639  0.52618899  1.0
  O  O15  1  0.23345361  -0.23345361  0.47381101  1.0
  Ge  Ge16  1  0.87925369  -0.87925369  0.72421012  1.0
  Ge  Ge17  1  0.12074631  -0.12074631  0.27578988  1.0
  Ge  Ge18  1  0.62078303  0.37921697  0.77568659  1.0
  Ge  Ge19  1  1.37921697  -0.37921697  0.22431341  1.0
  Na  Na20  1  0.61494574  0.38505426  0.44181741  1.0
  Na  Na21  1  1.38505426  -0.38505426  0.55818259  1.0
  Na  Na22  1  0.24999926  -0.24999926  0.75011373  1.0
  Na  Na23  1  0.75000074  -0.75000074  0.24988627  1.0
  Na  Na24  1  0.11488581  -0.11488581  0.94204894  1.0
  Na  Na25  1  0.88511419  -0.88511419  0.05795106  1.0
  Zr  Zr26  1  0.00000000  -0.00000000  0.50000000  1.0
  Zr  Zr27  1  0.50000000  0.50000000  -0.00000000  1.0
