# generated using pymatgen
data_BaSnS2
_symmetry_space_group_name_H-M   'P 1'
_cell_length_a   6.18496179
_cell_length_b   12.51346727
_cell_length_c   6.33722524
_cell_angle_alpha   90.00000000
_cell_angle_beta   94.66673440
_cell_angle_gamma   90.00000000
_symmetry_Int_Tables_number   1
_chemical_formula_structural   BaSnS2
_chemical_formula_sum   'Ba4 Sn4 S8'
_cell_volume   488.84554036
_cell_formula_units_Z   4
loop_
 _symmetry_equiv_pos_site_id
 _symmetry_equiv_pos_as_xyz
  1  'x, y, z'
loop_
 _atom_site_type_symbol
 _atom_site_label
 _atom_site_symmetry_multiplicity
 _atom_site_fract_x
 _atom_site_fract_y
 _atom_site_fract_z
 _atom_site_occupancy
  Ba  Ba0  1  0.95785913  0.12362301  0.24167225  1.0
  Ba  Ba1  1  0.95785913  0.37637699  0.74167225  1.0
  Ba  Ba2  1  0.04214087  0.62362301  0.25832775  1.0
  Ba  Ba3  1  0.04214087  0.87637699  0.75832775  1.0
  Sn  Sn4  1  0.47921878  0.36711653  0.21958373  1.0
  Sn  Sn5  1  0.47921878  0.13288347  0.71958373  1.0
  Sn  Sn6  1  0.52078122  0.86711653  0.28041627  1.0
  Sn  Sn7  1  0.52078122  0.63288347  0.78041627  1.0
  S  S8  1  0.89922831  0.37661220  0.23808435  1.0
  S  S9  1  0.89922831  0.12338780  0.73808435  1.0
  S  S10  1  0.10077169  0.87661220  0.26191565  1.0
  S  S11  1  0.10077169  0.62338780  0.76191565  1.0
  S  S12  1  0.45227491  0.16176563  0.12992698  1.0
  S  S13  1  0.45227491  0.33823437  0.62992698  1.0
  S  S14  1  0.54772509  0.66176563  0.37007302  1.0
  S  S15  1  0.54772509  0.83823437  0.87007302  1.0
