# generated using pymatgen
data_Ba9Sc2(SiO4)6
_symmetry_space_group_name_H-M   'P 1'
_cell_length_a   9.38116973
_cell_length_b   9.38116973
_cell_length_c   9.38116973
_cell_angle_alpha   64.32451454
_cell_angle_beta   64.32451454
_cell_angle_gamma   64.32451454
_symmetry_Int_Tables_number   1
_chemical_formula_structural   Ba9Sc2(SiO4)6
_chemical_formula_sum   'Ba9 Sc2 Si6 O24'
_cell_volume   639.24002594
_cell_formula_units_Z   1
loop_
 _symmetry_equiv_pos_site_id
 _symmetry_equiv_pos_as_xyz
  1  'x, y, z'
loop_
 _atom_site_type_symbol
 _atom_site_label
 _atom_site_symmetry_multiplicity
 _atom_site_fract_x
 _atom_site_fract_y
 _atom_site_fract_z
 _atom_site_occupancy
  Ba  Ba0  1  0.75181600  0.43584580  -0.86299384  1.0
  Ba  Ba1  1  0.56415420  0.86299384  -0.75181600  1.0
  Ba  Ba2  1  0.86299384  0.24818400  -0.43584580  1.0
  Ba  Ba3  1  0.24818400  0.56415420  -0.13700616  1.0
  Ba  Ba4  1  0.43584580  0.13700616  -0.24818400  1.0
  Ba  Ba5  1  0.13700616  0.75181600  -0.56415420  1.0
  Ba  Ba6  1  0.66320376  0.66320376  -0.33679624  1.0
  Ba  Ba7  1  0.33679624  0.33679624  -0.66320376  1.0
  Ba  Ba8  1  0.00000000  0.00000000  0.00000000  1.0
  Sc  Sc9  1  0.83572471  0.83572471  -0.16427529  1.0
  Sc  Sc10  1  1.16427529  1.16427529  0.16427529  1.0
  Si  Si11  1  0.58359710  0.23659274  -0.04986025  1.0
  Si  Si12  1  0.76340726  0.04986025  -0.58359710  1.0
  Si  Si13  1  1.04986025  -0.58359710  -0.23659274  1.0
  Si  Si14  1  0.41640290  -0.23659274  0.04986025  1.0
  Si  Si15  1  1.23659274  -0.04986025  -0.41640290  1.0
  Si  Si16  1  0.95013975  -0.41640290  0.23659274  1.0
  O  O17  1  0.56823702  0.37906953  -0.22753940  1.0
  O  O18  1  0.62093047  0.22753940  -0.56823702  1.0
  O  O19  1  0.22753940  0.43176298  -0.37906953  1.0
  O  O20  1  0.43176298  0.62093047  -0.77246060  1.0
  O  O21  1  0.37906953  0.77246060  -0.43176298  1.0
  O  O22  1  0.77246060  0.56823702  -0.62093047  1.0
  O  O23  1  0.71870684  0.06117658  -0.09418025  1.0
  O  O24  1  0.93882342  0.09418025  -0.71870684  1.0
  O  O25  1  1.09418025  -0.71870684  -0.06117658  1.0
  O  O26  1  0.28129316  -0.06117658  0.09418025  1.0
  O  O27  1  1.06117658  -0.09418025  -0.28129316  1.0
  O  O28  1  0.90581975  -0.28129316  0.06117658  1.0
  O  O29  1  0.60496657  0.79176436  -0.05004432  1.0
  O  O30  1  1.20823564  1.05004432  0.39503343  1.0
  O  O31  1  1.05004432  1.39503343  0.20823564  1.0
  O  O32  1  1.39503343  1.20823564  0.05004432  1.0
  O  O33  1  0.79176436  0.94995568  -0.39503343  1.0
  O  O34  1  0.94995568  0.60496657  -0.20823564  1.0
  O  O35  1  1.63185426  1.27653781  0.07211735  1.0
  O  O36  1  0.72346219  0.92788265  -0.63185426  1.0
  O  O37  1  0.92788265  0.36814574  -0.27653781  1.0
  O  O38  1  0.36814574  0.72346219  -0.07211735  1.0
  O  O39  1  1.27653781  1.07211735  0.63185426  1.0
  O  O40  1  1.07211735  1.63185426  0.27653781  1.0
