# generated using pymatgen
data_CaMg2Pt
_symmetry_space_group_name_H-M   'P 1'
_cell_length_a   7.94537481
_cell_length_b   8.02090663
_cell_length_c   5.67425183
_cell_angle_alpha   90.00000000
_cell_angle_beta   90.00000000
_cell_angle_gamma   90.00000000
_symmetry_Int_Tables_number   1
_chemical_formula_structural   CaMg2Pt
_chemical_formula_sum   'Ca4 Mg8 Pt4'
_cell_volume   361.61501628
_cell_formula_units_Z   4
loop_
 _symmetry_equiv_pos_site_id
 _symmetry_equiv_pos_as_xyz
  1  'x, y, z'
loop_
 _atom_site_type_symbol
 _atom_site_label
 _atom_site_symmetry_multiplicity
 _atom_site_fract_x
 _atom_site_fract_y
 _atom_site_fract_z
 _atom_site_occupancy
  Ca  Ca0  1  0.46817664  0.75000000  0.09713753  1.0
  Ca  Ca1  1  0.96817664  0.75000000  0.40286247  1.0
  Ca  Ca2  1  0.53182336  0.25000000  0.90286247  1.0
  Ca  Ca3  1  0.03182336  0.25000000  0.59713753  1.0
  Mg  Mg4  1  0.33387670  0.94239530  0.60470958  1.0
  Mg  Mg5  1  0.33387670  0.55760470  0.60470958  1.0
  Mg  Mg6  1  0.83387670  0.94239530  0.89529042  1.0
  Mg  Mg7  1  0.83387670  0.55760470  0.89529042  1.0
  Mg  Mg8  1  0.66612330  0.44239530  0.39529042  1.0
  Mg  Mg9  1  0.66612330  0.05760470  0.39529042  1.0
  Mg  Mg10  1  0.16612330  0.44239530  0.10470958  1.0
  Mg  Mg11  1  0.16612330  0.05760470  0.10470958  1.0
  Pt  Pt12  1  0.12591270  0.75000000  0.89025314  1.0
  Pt  Pt13  1  0.62591270  0.75000000  0.60974686  1.0
  Pt  Pt14  1  0.87408730  0.25000000  0.10974686  1.0
  Pt  Pt15  1  0.37408730  0.25000000  0.39025314  1.0
