# generated using pymatgen
data_La3AsI3
_symmetry_space_group_name_H-M   'P 1'
_cell_length_a   10.98421565
_cell_length_b   10.98421565
_cell_length_c   10.98421565
_cell_angle_alpha   109.47122063
_cell_angle_beta   109.47122063
_cell_angle_gamma   109.47122063
_symmetry_Int_Tables_number   1
_chemical_formula_structural   La3AsI3
_chemical_formula_sum   'La12 As4 I12'
_cell_volume   1020.19986268
_cell_formula_units_Z   4
loop_
 _symmetry_equiv_pos_site_id
 _symmetry_equiv_pos_as_xyz
  1  'x, y, z'
loop_
 _atom_site_type_symbol
 _atom_site_label
 _atom_site_symmetry_multiplicity
 _atom_site_fract_x
 _atom_site_fract_y
 _atom_site_fract_z
 _atom_site_occupancy
  La  La0  1  0.98446852  0.96893705  0.73446852  1.0
  La  La1  1  0.76553148  0.53106295  0.51553148  1.0
  La  La2  1  1.51553148  1.25000000  0.98446852  1.0
  La  La3  1  0.73446852  0.25000000  0.76553148  1.0
  La  La4  1  1.73446852  0.98446852  0.96893705  1.0
  La  La5  1  1.51553148  1.76553148  1.53106295  1.0
  La  La6  1  0.98446852  1.51553148  1.25000000  1.0
  La  La7  1  0.76553148  0.73446852  0.25000000  1.0
  La  La8  1  0.96893705  0.73446852  0.98446852  1.0
  La  La9  1  0.53106295  0.51553148  0.76553148  1.0
  La  La10  1  1.25000000  0.98446852  0.51553148  1.0
  La  La11  1  1.25000000  0.76553148  0.73446852  1.0
  As  As12  1  1.50000000  1.00000000  0.75000000  1.0
  As  As13  1  0.75000000  1.50000000  1.00000000  1.0
  As  As14  1  1.00000000  0.75000000  0.50000000  1.0
  As  As15  1  0.75000000  0.75000000  0.75000000  1.0
  I  I16  1  1.49170884  0.75000000  1.00829116  1.0
  I  I17  1  1.25829116  0.75000000  1.24170884  1.0
  I  I18  1  1.00829116  1.01658232  0.25829116  1.0
  I  I19  1  0.24170884  0.48341768  0.49170884  1.0
  I  I20  1  1.00829116  1.49170884  0.75000000  1.0
  I  I21  1  1.24170884  1.25829116  0.75000000  1.0
  I  I22  1  1.25829116  1.00829116  1.01658232  1.0
  I  I23  1  1.49170884  1.24170884  1.48341768  1.0
  I  I24  1  0.75000000  1.00829116  0.49170884  1.0
  I  I25  1  1.75000000  1.24170884  1.25829116  1.0
  I  I26  1  1.01658232  0.25829116  1.00829116  1.0
  I  I27  1  0.48341768  0.49170884  0.24170884  1.0
