# generated using pymatgen
data_Na2GeF6
_symmetry_space_group_name_H-M   'P 1'
_cell_length_a   9.60169443
_cell_length_b   9.60169443
_cell_length_c   4.68574146
_cell_angle_alpha   90.00000000
_cell_angle_beta   90.00000000
_cell_angle_gamma   120.00000000
_symmetry_Int_Tables_number   1
_chemical_formula_structural   Na2GeF6
_chemical_formula_sum   'Na6 Ge3 F18'
_cell_volume   374.11465016
_cell_formula_units_Z   3
loop_
 _symmetry_equiv_pos_site_id
 _symmetry_equiv_pos_as_xyz
  1  'x, y, z'
loop_
 _atom_site_type_symbol
 _atom_site_label
 _atom_site_symmetry_multiplicity
 _atom_site_fract_x
 _atom_site_fract_y
 _atom_site_fract_z
 _atom_site_occupancy
  Na  Na0  1  0.65724505  0.65724505  0.00000000  1.0
  Na  Na1  1  0.65724505  -0.00000000  0.00000000  1.0
  Na  Na2  1  -0.00000000  0.65724505  -0.00000000  1.0
  Na  Na3  1  0.00000000  0.34275495  0.00000000  1.0
  Na  Na4  1  0.34275495  0.34275495  0.00000000  1.0
  Na  Na5  1  0.34275495  0.00000000  -0.00000000  1.0
  Ge  Ge6  1  0.33333333  0.66666667  0.50043385  1.0
  Ge  Ge7  1  0.66666667  0.33333333  0.49956615  1.0
  Ge  Ge8  1  0.00000000  -0.00000000  0.00000000  1.0
  F  F9  1  0.81480671  0.90740336  0.21337307  1.0
  F  F10  1  0.90740336  0.81480671  0.78662693  1.0
  F  F11  1  0.90740336  0.09259664  0.78662693  1.0
  F  F12  1  0.09259664  0.90740336  0.21337307  1.0
  F  F13  1  0.09259664  0.18519329  0.21337307  1.0
  F  F14  1  0.18519329  0.09259664  0.78662693  1.0
  F  F15  1  0.15136535  0.57568268  0.27595512  1.0
  F  F16  1  0.57568268  0.15136535  0.72404488  1.0
  F  F17  1  0.57568268  0.42431732  0.72404488  1.0
  F  F18  1  0.42431732  0.57568268  0.27595512  1.0
  F  F19  1  0.42431732  0.84863465  0.27595512  1.0
  F  F20  1  0.84863465  0.42431732  0.72404488  1.0
  F  F21  1  0.48486640  0.24243320  0.27679738  1.0
  F  F22  1  0.24243320  0.48486640  0.72320262  1.0
  F  F23  1  0.24243320  0.75756680  0.72320262  1.0
  F  F24  1  0.75756680  0.24243320  0.27679738  1.0
  F  F25  1  0.75756680  0.51513360  0.27679738  1.0
  F  F26  1  0.51513360  0.75756680  0.72320262  1.0
