# generated using pymatgen
data_SiH12C2(NF3)2
_symmetry_space_group_name_H-M   'P 1'
_cell_length_a   6.93647046
_cell_length_b   6.93647046
_cell_length_c   9.86805271
_cell_angle_alpha   85.68086720
_cell_angle_beta   94.31913280
_cell_angle_gamma   89.95728977
_symmetry_Int_Tables_number   1
_chemical_formula_structural   SiH12C2(NF3)2
_chemical_formula_sum   'Si2 H24 C4 N4 F12'
_cell_volume   472.09481539
_cell_formula_units_Z   2
loop_
 _symmetry_equiv_pos_site_id
 _symmetry_equiv_pos_as_xyz
  1  'x, y, z'
loop_
 _atom_site_type_symbol
 _atom_site_label
 _atom_site_symmetry_multiplicity
 _atom_site_fract_x
 _atom_site_fract_y
 _atom_site_fract_z
 _atom_site_occupancy
  Si  Si0  1  0.77730859  -0.22269141  0.25000000  1.0
  Si  Si1  1  1.22269141  0.22269141  0.75000000  1.0
  H  H2  1  1.11859146  0.60913499  0.64543232  1.0
  H  H3  1  1.60913499  0.11859146  0.85456768  1.0
  H  H4  1  0.88140854  -0.60913499  0.35456768  1.0
  H  H5  1  0.39086501  -0.11859146  0.14543232  1.0
  H  H6  1  0.12389817  -0.14961221  0.65158718  1.0
  H  H7  1  0.85038779  -0.87610183  0.84841282  1.0
  H  H8  1  1.87610183  0.14961221  0.34841282  1.0
  H  H9  1  1.14961221  0.87610183  0.15158718  1.0
  H  H10  1  1.00971673  0.75338195  0.51842442  1.0
  H  H11  1  1.75338195  0.00971673  0.98157558  1.0
  H  H12  1  0.99028327  -0.75338195  0.48157558  1.0
  H  H13  1  0.24661805  -0.00971673  0.01842442  1.0
  H  H14  1  1.31219678  0.63361468  0.44560502  1.0
  H  H15  1  1.63361468  0.31219678  0.05439498  1.0
  H  H16  1  0.68780322  -0.63361468  0.55439498  1.0
  H  H17  1  0.36638532  -0.31219678  0.94560502  1.0
  H  H18  1  0.32426655  -0.11071893  0.46148036  1.0
  H  H19  1  0.88928107  -0.67573345  0.03851964  1.0
  H  H20  1  1.67573345  0.11071893  0.53851964  1.0
  H  H21  1  1.11071893  0.67573345  0.96148036  1.0
  H  H22  1  0.43622007  -0.27498143  0.59235297  1.0
  H  H23  1  0.72501857  -0.56377993  0.90764703  1.0
  H  H24  1  1.56377993  0.27498143  0.40764703  1.0
  H  H25  1  1.27498143  0.56377993  0.09235297  1.0
  C  C26  1  0.31385329  -0.25260488  0.51648908  1.0
  C  C27  1  0.74739512  -0.68614671  -0.01648908  1.0
  C  C28  1  1.68614671  0.25260488  0.48351092  1.0
  C  C29  1  1.25260488  0.68614671  1.01648908  1.0
  N  N30  1  1.13147364  0.73943814  0.58727773  1.0
  N  N31  1  1.73943814  0.13147364  0.91272227  1.0
  N  N32  1  0.86852636  -0.73943814  0.41272227  1.0
  N  N33  1  0.26056186  -0.13147364  0.08727773  1.0
  F  F34  1  0.95684193  -0.04315807  0.25000000  1.0
  F  F35  1  1.04315807  0.04315807  0.75000000  1.0
  F  F36  1  0.60578975  -0.39421025  0.25000000  1.0
  F  F37  1  1.39421025  0.39421025  0.75000000  1.0
  F  F38  1  0.78679640  -0.21951324  0.42498832  1.0
  F  F39  1  0.78048676  -0.21320360  0.07501168  1.0
  F  F40  1  1.21320360  0.21951324  0.57501168  1.0
  F  F41  1  1.21951324  0.21320360  0.92498832  1.0
  F  F42  1  0.95862412  -0.39489079  0.26661883  1.0
  F  F43  1  0.60510921  -0.04137588  0.23338117  1.0
  F  F44  1  1.04137588  0.39489079  0.73338117  1.0
  F  F45  1  1.39489079  0.04137588  0.76661883  1.0
