# generated using pymatgen
data_Ba3Co10O17
_symmetry_space_group_name_H-M   'P 1'
_cell_length_a   12.42831948
_cell_length_b   12.42831948
_cell_length_c   12.42831948
_cell_angle_alpha   26.53976486
_cell_angle_beta   26.53976486
_cell_angle_gamma   26.53976486
_symmetry_Int_Tables_number   1
_chemical_formula_structural   Ba3Co10O17
_chemical_formula_sum   'Ba3 Co10 O17'
_cell_volume   337.84743504
_cell_formula_units_Z   1
loop_
 _symmetry_equiv_pos_site_id
 _symmetry_equiv_pos_as_xyz
  1  'x, y, z'
loop_
 _atom_site_type_symbol
 _atom_site_label
 _atom_site_symmetry_multiplicity
 _atom_site_fract_x
 _atom_site_fract_y
 _atom_site_fract_z
 _atom_site_occupancy
  O  O0  1  1.34968978  1.34968978  -0.10977802  1.0
  O  O1  1  1.34968978  0.89022198  0.34968978  1.0
  O  O2  1  1.10977802  0.65031022  0.65031022  1.0
  O  O3  1  1.65031022  0.10977802  0.65031022  1.0
  O  O4  1  1.65031022  0.65031022  0.10977802  1.0
  O  O5  1  0.89022198  1.34968978  0.34968978  1.0
  O  O6  1  0.86052761  0.86052761  0.86052761  1.0
  O  O7  1  1.13947239  1.13947239  0.13947239  1.0
  O  O8  1  1.11038895  1.11038895  0.57240978  1.0
  O  O9  1  1.11038895  1.57240978  0.11038895  1.0
  O  O10  1  1.42759022  0.88961105  -0.11038895  1.0
  O  O11  1  0.88961105  1.42759022  -0.11038895  1.0
  O  O12  1  0.88961105  0.88961105  0.42759022  1.0
  O  O13  1  1.57240978  1.11038895  0.11038895  1.0
  O  O14  1  0.50000000  -0.00000000  -0.50000000  1.0
  O  O15  1  0.50000000  -0.50000000  0.00000000  1.0
  O  O16  1  -0.00000000  0.50000000  -0.50000000  1.0
  Ba  Ba17  1  1.60009711  0.60009711  0.60009711  1.0
  Ba  Ba18  1  1.39990289  0.39990289  0.39990289  1.0
  Ba  Ba19  1  0.00000000  0.00000000  -0.00000000  1.0
  Co  Co20  1  1.00000000  1.50000000  -0.00000000  1.0
  Co  Co21  1  1.00000000  1.00000000  0.50000000  1.0
  Co  Co22  1  1.50000000  1.00000000  -0.00000000  1.0
  Co  Co23  1  0.76781232  0.76781232  0.76781232  1.0
  Co  Co24  1  1.23218768  1.23218768  0.23218768  1.0
  Co  Co25  1  1.50000000  0.50000000  0.50000000  1.0
  Co  Co26  1  0.91331419  0.91331419  0.91331419  1.0
  Co  Co27  1  1.08668581  1.08668581  0.08668581  1.0
  Co  Co28  1  0.69428335  0.69428335  0.69428335  1.0
  Co  Co29  1  1.30571665  1.30571665  0.30571665  1.0
