# generated using pymatgen
data_Cs2PtS6(O3F)6
_symmetry_space_group_name_H-M   'P 1'
_cell_length_a   9.45789937
_cell_length_b   9.45789937
_cell_length_c   8.69668227
_cell_angle_alpha   90.00000000
_cell_angle_beta   90.00000000
_cell_angle_gamma   120.00000000
_symmetry_Int_Tables_number   1
_chemical_formula_structural   Cs2PtS6(O3F)6
_chemical_formula_sum   'Cs2 Pt1 S6 O18 F6'
_cell_volume   673.71096014
_cell_formula_units_Z   1
loop_
 _symmetry_equiv_pos_site_id
 _symmetry_equiv_pos_as_xyz
  1  'x, y, z'
loop_
 _atom_site_type_symbol
 _atom_site_label
 _atom_site_symmetry_multiplicity
 _atom_site_fract_x
 _atom_site_fract_y
 _atom_site_fract_z
 _atom_site_occupancy
  Cs  Cs0  1  0.33333333  0.66666667  0.39413698  1.0
  Cs  Cs1  1  0.66666667  0.33333333  0.60586302  1.0
  Pt  Pt2  1  0.00000000  0.00000000  0.00000000  1.0
  S  S3  1  0.77401807  0.67604863  0.21800074  1.0
  S  S4  1  0.67604863  0.77401807  0.78199926  1.0
  S  S5  1  0.90203055  0.22598193  0.21800074  1.0
  S  S6  1  0.32395137  0.09796945  0.21800074  1.0
  S  S7  1  0.22598193  0.90203055  0.78199926  1.0
  S  S8  1  0.09796945  0.32395137  0.78199926  1.0
  O  O9  1  0.27552202  0.92971321  0.24480535  1.0
  O  O10  1  0.92971321  0.27552202  0.75519465  1.0
  O  O11  1  0.65419119  0.72447798  0.24480535  1.0
  O  O12  1  0.07028679  0.34580881  0.24480535  1.0
  O  O13  1  0.72447798  0.65419119  0.75519465  1.0
  O  O14  1  0.34580881  0.07028679  0.75519465  1.0
  O  O15  1  0.93296490  0.80591427  0.14464607  1.0
  O  O16  1  0.80591427  0.93296490  0.85535393  1.0
  O  O17  1  0.87294937  0.06703510  0.14464607  1.0
  O  O18  1  0.19408573  0.12705063  0.14464607  1.0
  O  O19  1  0.06703510  0.87294937  0.85535393  1.0
  O  O20  1  0.12705063  0.19408573  0.85535393  1.0
  O  O21  1  0.81688881  0.60009836  0.33890304  1.0
  O  O22  1  0.60009836  0.81688881  0.66109696  1.0
  O  O23  1  0.78320955  0.18311119  0.33890304  1.0
  O  O24  1  0.39990164  0.21679045  0.33890304  1.0
  O  O25  1  0.18311119  0.78320955  0.66109696  1.0
  O  O26  1  0.21679045  0.39990164  0.66109696  1.0
  F  F27  1  0.69940959  0.54223739  0.08378543  1.0
  F  F28  1  0.54223739  0.69940959  0.91621457  1.0
  F  F29  1  0.84282780  0.30059041  0.08378543  1.0
  F  F30  1  0.45776261  0.15717220  0.08378543  1.0
  F  F31  1  0.30059041  0.84282780  0.91621457  1.0
  F  F32  1  0.15717220  0.45776261  0.91621457  1.0
