# generated using pymatgen
data_Cs(MoO3)3
_symmetry_space_group_name_H-M   'P 1'
_cell_length_a   6.50584485
_cell_length_b   7.64710350
_cell_length_c   8.65675740
_cell_angle_alpha   90.00000000
_cell_angle_beta   94.56750438
_cell_angle_gamma   90.00000000
_symmetry_Int_Tables_number   1
_chemical_formula_structural   Cs(MoO3)3
_chemical_formula_sum   'Cs2 Mo6 O18'
_cell_volume   429.31344663
_cell_formula_units_Z   2
loop_
 _symmetry_equiv_pos_site_id
 _symmetry_equiv_pos_as_xyz
  1  'x, y, z'
loop_
 _atom_site_type_symbol
 _atom_site_label
 _atom_site_symmetry_multiplicity
 _atom_site_fract_x
 _atom_site_fract_y
 _atom_site_fract_z
 _atom_site_occupancy
  Cs  Cs0  1  0.18556863  0.75000000  0.59588629  1.0
  Cs  Cs1  1  0.81443137  0.25000000  0.40411371  1.0
  Mo  Mo2  1  0.73239880  0.99564393  0.89795064  1.0
  Mo  Mo3  1  0.73239880  0.50435607  0.89795064  1.0
  Mo  Mo4  1  0.26760120  0.49564393  0.10204936  1.0
  Mo  Mo5  1  0.26760120  0.00435607  0.10204936  1.0
  Mo  Mo6  1  0.64436438  0.75000000  0.21926361  1.0
  Mo  Mo7  1  0.35563562  0.25000000  0.78073639  1.0
  O  O8  1  0.78645811  0.96205298  0.71213599  1.0
  O  O9  1  0.78645811  0.53794702  0.71213599  1.0
  O  O10  1  0.21354189  0.46205298  0.28786401  1.0
  O  O11  1  0.21354189  0.03794702  0.28786401  1.0
  O  O12  1  0.41248503  0.48587779  0.85522033  1.0
  O  O13  1  0.41248503  0.01412221  0.85522033  1.0
  O  O14  1  0.58751497  0.98587779  0.14477967  1.0
  O  O15  1  0.58751497  0.51412221  0.14477967  1.0
  O  O16  1  0.90314059  0.75000000  0.27603607  1.0
  O  O17  1  0.09685941  0.25000000  0.72396393  1.0
  O  O18  1  0.69914945  0.75000000  0.95509850  1.0
  O  O19  1  0.30085055  0.25000000  0.04490150  1.0
  O  O20  1  0.52944854  0.75000000  0.39161349  1.0
  O  O21  1  0.47055146  0.25000000  0.60838651  1.0
  O  O22  1  0.29356670  0.75000000  0.08870938  1.0
  O  O23  1  0.70643330  0.25000000  0.91129062  1.0
  O  O24  1  0.00000000  0.00000000  0.00000000  1.0
  O  O25  1  0.00000000  0.50000000  0.00000000  1.0
