# generated using pymatgen
data_Nb7(BC)4
_symmetry_space_group_name_H-M   'P 1'
_cell_length_a   16.35412135
_cell_length_b   16.35412135
_cell_length_c   16.35412135
_cell_angle_alpha   168.95655910
_cell_angle_beta   168.67615428
_cell_angle_gamma   15.84260597
_symmetry_Int_Tables_number   1
_chemical_formula_structural   Nb7(BC)4
_chemical_formula_sum   'Nb7 B4 C4'
_cell_volume   164.50965884
_cell_formula_units_Z   1
loop_
 _symmetry_equiv_pos_site_id
 _symmetry_equiv_pos_as_xyz
  1  'x, y, z'
loop_
 _atom_site_type_symbol
 _atom_site_label
 _atom_site_symmetry_multiplicity
 _atom_site_fract_x
 _atom_site_fract_y
 _atom_site_fract_z
 _atom_site_occupancy
  Nb  Nb0  1  0.85230922  0.85230922  1.00000000  1.0
  Nb  Nb1  1  0.14769078  0.14769078  0.00000000  1.0
  Nb  Nb2  1  0.71441807  0.71441807  1.00000000  1.0
  Nb  Nb3  1  0.28558193  0.28558193  0.00000000  1.0
  Nb  Nb4  1  0.58159534  0.58159534  1.00000000  1.0
  Nb  Nb5  1  0.41840466  0.41840466  0.00000000  1.0
  Nb  Nb6  1  0.50000000  0.00000000  0.50000000  1.0
  B  B7  1  0.97163274  0.47163274  0.50000000  1.0
  B  B8  1  0.02836726  0.52836726  0.50000000  1.0
  B  B9  1  0.94273165  0.94273165  1.00000000  1.0
  B  B10  1  0.05726835  0.05726835  0.00000000  1.0
  C  C11  1  0.78473455  0.78473455  1.00000000  1.0
  C  C12  1  0.21526545  0.21526545  0.00000000  1.0
  C  C13  1  0.64724053  0.64724053  1.00000000  1.0
  C  C14  1  0.35275947  0.35275947  0.00000000  1.0
