# generated using pymatgen
data_Sr2Mn2SeO4
_symmetry_space_group_name_H-M   'P 1'
_cell_length_a   9.56629509
_cell_length_b   10.36924490
_cell_length_c   6.32721667
_cell_angle_alpha   90.00000000
_cell_angle_beta   90.00000000
_cell_angle_gamma   90.00000000
_symmetry_Int_Tables_number   1
_chemical_formula_structural   Sr2Mn2SeO4
_chemical_formula_sum   'Sr8 Mn8 Se4 O16'
_cell_volume   627.62988012
_cell_formula_units_Z   4
loop_
 _symmetry_equiv_pos_site_id
 _symmetry_equiv_pos_as_xyz
  1  'x, y, z'
loop_
 _atom_site_type_symbol
 _atom_site_label
 _atom_site_symmetry_multiplicity
 _atom_site_fract_x
 _atom_site_fract_y
 _atom_site_fract_z
 _atom_site_occupancy
  Sr  Sr0  1  0.12908005  0.44989929  0.73228102  1.0
  Sr  Sr1  1  0.12908005  0.05010071  0.73228102  1.0
  Sr  Sr2  1  0.62908005  0.44989929  0.76771898  1.0
  Sr  Sr3  1  0.62908005  0.05010071  0.76771898  1.0
  Sr  Sr4  1  0.87091995  0.94989929  0.26771898  1.0
  Sr  Sr5  1  0.87091995  0.55010071  0.26771898  1.0
  Sr  Sr6  1  0.37091995  0.94989929  0.23228102  1.0
  Sr  Sr7  1  0.37091995  0.55010071  0.23228102  1.0
  Mn  Mn8  1  0.38030961  0.75000000  0.72385771  1.0
  Mn  Mn9  1  0.88030961  0.75000000  0.77614229  1.0
  Mn  Mn10  1  0.61969039  0.25000000  0.27614229  1.0
  Mn  Mn11  1  0.11969039  0.25000000  0.22385771  1.0
  Mn  Mn12  1  0.12083304  0.75000000  0.53571372  1.0
  Mn  Mn13  1  0.62083304  0.75000000  0.96428628  1.0
  Mn  Mn14  1  0.87916696  0.25000000  0.46428628  1.0
  Mn  Mn15  1  0.37916696  0.25000000  0.03571372  1.0
  Se  Se16  1  0.11501711  0.75000000  0.09524713  1.0
  Se  Se17  1  0.61501711  0.75000000  0.40475287  1.0
  Se  Se18  1  0.88498289  0.25000000  0.90475287  1.0
  Se  Se19  1  0.38498289  0.25000000  0.59524713  1.0
  O  O20  1  0.47695073  0.87198623  0.89474112  1.0
  O  O21  1  0.47695073  0.62801377  0.89474112  1.0
  O  O22  1  0.97695073  0.87198623  0.60525888  1.0
  O  O23  1  0.97695073  0.62801377  0.60525888  1.0
  O  O24  1  0.52304927  0.37198623  0.10525888  1.0
  O  O25  1  0.52304927  0.12801377  0.10525888  1.0
  O  O26  1  0.02304927  0.37198623  0.39474112  1.0
  O  O27  1  0.02304927  0.12801377  0.39474112  1.0
  O  O28  1  0.26828517  0.87407486  0.57504473  1.0
  O  O29  1  0.26828517  0.62592514  0.57504473  1.0
  O  O30  1  0.76828517  0.87407486  0.92495527  1.0
  O  O31  1  0.76828517  0.62592514  0.92495527  1.0
  O  O32  1  0.73171483  0.37407486  0.42495527  1.0
  O  O33  1  0.73171483  0.12592514  0.42495527  1.0
  O  O34  1  0.23171483  0.37407486  0.07504473  1.0
  O  O35  1  0.23171483  0.12592514  0.07504473  1.0
