# generated using pymatgen
data_Fe2WO6
_symmetry_space_group_name_H-M   'P 1'
_cell_length_a   13.66457561
_cell_length_b   5.56203178
_cell_length_c   4.87626341
_cell_angle_alpha   90.00000000
_cell_angle_beta   90.00000000
_cell_angle_gamma   90.00000000
_symmetry_Int_Tables_number   1
_chemical_formula_structural   Fe2WO6
_chemical_formula_sum   'Fe8 W4 O24'
_cell_volume   370.60969073
_cell_formula_units_Z   4
loop_
 _symmetry_equiv_pos_site_id
 _symmetry_equiv_pos_as_xyz
  1  'x, y, z'
loop_
 _atom_site_type_symbol
 _atom_site_label
 _atom_site_symmetry_multiplicity
 _atom_site_fract_x
 _atom_site_fract_y
 _atom_site_fract_z
 _atom_site_occupancy
  Fe  Fe0  1  0.67815559  0.63595894  0.75239302  1.0
  Fe  Fe1  1  0.67815559  0.36404106  0.25239302  1.0
  Fe  Fe2  1  0.17815559  0.13595894  0.74760698  1.0
  Fe  Fe3  1  0.17815559  0.86404106  0.24760698  1.0
  Fe  Fe4  1  0.32184441  0.63595894  0.74760698  1.0
  Fe  Fe5  1  0.32184441  0.36404106  0.24760698  1.0
  Fe  Fe6  1  0.82184441  0.13595894  0.75239302  1.0
  Fe  Fe7  1  0.82184441  0.86404106  0.25239302  1.0
  W  W8  1  0.00000000  0.67446686  0.75000000  1.0
  W  W9  1  0.00000000  0.32553314  0.25000000  1.0
  W  W10  1  0.50000000  0.17446686  0.75000000  1.0
  W  W11  1  0.50000000  0.82553314  0.25000000  1.0
  O  O12  1  0.91045310  0.87792930  0.59066597  1.0
  O  O13  1  0.91045310  0.12207070  0.09066597  1.0
  O  O14  1  0.41045310  0.37792930  0.90933403  1.0
  O  O15  1  0.41045310  0.62207070  0.40933403  1.0
  O  O16  1  0.08954690  0.87792930  0.90933403  1.0
  O  O17  1  0.08954690  0.12207070  0.40933403  1.0
  O  O18  1  0.58954690  0.37792930  0.59066597  1.0
  O  O19  1  0.58954690  0.62207070  0.09066597  1.0
  O  O20  1  0.57540111  0.88285761  0.57727181  1.0
  O  O21  1  0.57540111  0.11714239  0.07727181  1.0
  O  O22  1  0.07540111  0.38285761  0.92272819  1.0
  O  O23  1  0.07540111  0.61714239  0.42272819  1.0
  O  O24  1  0.42459889  0.88285761  0.92272819  1.0
  O  O25  1  0.42459889  0.11714239  0.42272819  1.0
  O  O26  1  0.92459889  0.38285761  0.57727181  1.0
  O  O27  1  0.92459889  0.61714239  0.07727181  1.0
  O  O28  1  0.75458690  0.87258276  0.91530598  1.0
  O  O29  1  0.75458690  0.12741724  0.41530598  1.0
  O  O30  1  0.25458690  0.37258276  0.58469402  1.0
  O  O31  1  0.25458690  0.62741724  0.08469402  1.0
  O  O32  1  0.24541310  0.87258276  0.58469402  1.0
  O  O33  1  0.24541310  0.12741724  0.08469402  1.0
  O  O34  1  0.74541310  0.37258276  0.91530598  1.0
  O  O35  1  0.74541310  0.62741724  0.41530598  1.0
