# generated using pymatgen
data_BrF5
_symmetry_space_group_name_H-M   'P 1'
_cell_length_a   5.85026233
_cell_length_b   5.85026233
_cell_length_c   6.97872976
_cell_angle_alpha   90.00000000
_cell_angle_beta   90.00000000
_cell_angle_gamma   88.54619516
_symmetry_Int_Tables_number   1
_chemical_formula_structural   BrF5
_chemical_formula_sum   'Br2 F10'
_cell_volume   238.77411459
_cell_formula_units_Z   2
loop_
 _symmetry_equiv_pos_site_id
 _symmetry_equiv_pos_as_xyz
  1  'x, y, z'
loop_
 _atom_site_type_symbol
 _atom_site_label
 _atom_site_symmetry_multiplicity
 _atom_site_fract_x
 _atom_site_fract_y
 _atom_site_fract_z
 _atom_site_occupancy
  Br  Br0  1  0.17429607  0.82570393  0.20515229  1.0
  Br  Br1  1  -0.17429607  1.17429607  0.70515229  1.0
  F  F2  1  -0.03605423  1.60025498  0.19031904  1.0
  F  F3  1  0.60025498  0.96394577  0.69031904  1.0
  F  F4  1  -0.60025498  1.03605423  0.19031904  1.0
  F  F5  1  0.03605423  0.39974502  0.69031904  1.0
  F  F6  1  -0.01123782  1.01123782  0.04445674  1.0
  F  F7  1  0.01123782  0.98876218  0.54445674  1.0
  F  F8  1  0.28979056  0.71020944  -0.00851403  1.0
  F  F9  1  -0.28979056  1.28979056  0.49148597  1.0
  F  F10  1  0.36704998  0.63295002  0.33426692  1.0
  F  F11  1  -0.36704998  1.36704998  0.83426692  1.0
