# generated using pymatgen
data_Co2B
_symmetry_space_group_name_H-M   'P 1'
_cell_length_a   4.09658820
_cell_length_b   4.09658820
_cell_length_c   4.09658820
_cell_angle_alpha   105.72552799
_cell_angle_beta   105.72552799
_cell_angle_gamma   117.25434371
_symmetry_Int_Tables_number   1
_chemical_formula_structural   Co2B
_chemical_formula_sum   'Co4 B2'
_cell_volume   52.18132803
_cell_formula_units_Z   2
loop_
 _symmetry_equiv_pos_site_id
 _symmetry_equiv_pos_as_xyz
  1  'x, y, z'
loop_
 _atom_site_type_symbol
 _atom_site_label
 _atom_site_symmetry_multiplicity
 _atom_site_fract_x
 _atom_site_fract_y
 _atom_site_fract_z
 _atom_site_occupancy
  Co  Co0  1  0.83135825  0.33135825  1.16271650  1.0
  Co  Co1  1  0.66864175  0.83135825  0.50000000  1.0
  Co  Co2  1  0.33135825  0.16864175  0.50000000  1.0
  Co  Co3  1  1.16864175  0.66864175  0.83728350  1.0
  B  B4  1  0.25000000  0.25000000  -0.00000000  1.0
  B  B5  1  0.75000000  0.75000000  -0.00000000  1.0
