# generated using pymatgen
data_BaCN2
_symmetry_space_group_name_H-M   'P 1'
_cell_length_a   9.08483464
_cell_length_b   9.08483464
_cell_length_c   9.08483464
_cell_angle_alpha   112.74018260
_cell_angle_beta   112.74018260
_cell_angle_gamma   112.74018260
_symmetry_Int_Tables_number   1
_chemical_formula_structural   BaCN2
_chemical_formula_sum   'Ba6 C6 N12'
_cell_volume   495.22111726
_cell_formula_units_Z   6
loop_
 _symmetry_equiv_pos_site_id
 _symmetry_equiv_pos_as_xyz
  1  'x, y, z'
loop_
 _atom_site_type_symbol
 _atom_site_label
 _atom_site_symmetry_multiplicity
 _atom_site_fract_x
 _atom_site_fract_y
 _atom_site_fract_z
 _atom_site_occupancy
  Ba  Ba0  1  0.53992085  0.75000000  -0.03992085  1.0
  Ba  Ba1  1  1.03992085  0.46007915  0.25000000  1.0
  Ba  Ba2  1  1.25000000  1.03992085  0.46007915  1.0
  Ba  Ba3  1  0.75000000  0.96007915  0.53992085  1.0
  Ba  Ba4  1  0.46007915  0.25000000  0.03992085  1.0
  Ba  Ba5  1  0.96007915  -0.46007915  -0.25000000  1.0
  C  C6  1  0.96623006  0.75000000  0.53376994  1.0
  C  C7  1  1.46623006  0.03376994  0.25000000  1.0
  C  C8  1  0.25000000  0.46623006  0.03376994  1.0
  C  C9  1  0.75000000  0.53376994  -0.03376994  1.0
  C  C10  1  1.03376994  1.25000000  0.46623006  1.0
  C  C11  1  0.53376994  -0.03376994  -0.25000000  1.0
  N  N12  1  0.65145198  0.08255563  -0.05945010  1.0
  N  N13  1  0.15145198  0.44054990  -0.41744437  1.0
  N  N14  1  0.55945010  0.41744437  -0.15145198  1.0
  N  N15  1  1.05945010  -0.65145198  -0.08255563  1.0
  N  N16  1  0.91744437  1.05945010  0.34854802  1.0
  N  N17  1  1.41744437  0.84854802  0.55945010  1.0
  N  N18  1  1.34854802  -0.08255563  0.05945010  1.0
  N  N19  1  0.84854802  0.55945010  0.41744437  1.0
  N  N20  1  0.94054990  0.65145198  0.08255563  1.0
  N  N21  1  0.44054990  0.58255563  0.15145198  1.0
  N  N22  1  1.58255563  0.15145198  0.44054990  1.0
  N  N23  1  1.08255563  0.94054990  0.65145198  1.0
