# generated using pymatgen
data_Y(AsO)2
_symmetry_space_group_name_H-M   'P 1'
_cell_length_a   8.31427048
_cell_length_b   8.31427048
_cell_length_c   8.31427048
_cell_angle_alpha   104.59992608
_cell_angle_beta   104.59992608
_cell_angle_gamma   119.72672515
_symmetry_Int_Tables_number   1
_chemical_formula_structural   Y(AsO)2
_chemical_formula_sum   'Y4 As8 O8'
_cell_volume   431.64175146
_cell_formula_units_Z   4
loop_
 _symmetry_equiv_pos_site_id
 _symmetry_equiv_pos_as_xyz
  1  'x, y, z'
loop_
 _atom_site_type_symbol
 _atom_site_label
 _atom_site_symmetry_multiplicity
 _atom_site_fract_x
 _atom_site_fract_y
 _atom_site_fract_z
 _atom_site_occupancy
  Y  Y0  1  1.37500000  1.12500000  1.25000000  1.0
  Y  Y1  1  0.87500000  1.12500000  0.75000000  1.0
  Y  Y2  1  0.87500000  1.12500000  0.25000000  1.0
  Y  Y3  1  0.87500000  1.62500000  0.75000000  1.0
  As  As4  1  1.17828744  1.48607669  0.69221075  1.0
  As  As5  1  0.95613406  0.76392331  0.19221075  1.0
  As  As6  1  0.79386594  0.48607669  0.30778925  1.0
  As  As7  1  1.57171256  0.76392331  0.80778925  1.0
  As  As8  1  0.51392331  0.20613406  0.69221075  1.0
  As  As9  1  1.23607669  1.42828744  1.19221075  1.0
  As  As10  1  0.51392331  0.82171256  0.30778925  1.0
  As  As11  1  1.23607669  1.04386594  0.80778925  1.0
  O  O12  1  1.19850788  1.36065088  0.83785700  1.0
  O  O13  1  1.22720612  0.88934912  1.33785700  1.0
  O  O14  1  0.52279388  0.36065088  0.16214300  1.0
  O  O15  1  0.55149212  0.88934912  0.66214300  1.0
  O  O16  1  0.63934912  0.47720612  0.83785700  1.0
  O  O17  1  1.11065088  1.44850788  0.33785700  1.0
  O  O18  1  0.63934912  0.80149212  0.16214300  1.0
  O  O19  1  1.11065088  1.77279388  0.66214300  1.0
