# generated using pymatgen
data_Sc
_symmetry_space_group_name_H-M   'P 1'
_cell_length_a   5.13750664
_cell_length_b   5.13750664
_cell_length_c   5.13750664
_cell_angle_alpha   106.06691874
_cell_angle_beta   106.06691874
_cell_angle_gamma   116.51808363
_symmetry_Int_Tables_number   1
_chemical_formula_structural   Sc
_chemical_formula_sum   Sc4
_cell_volume   103.18611445
_cell_formula_units_Z   4
loop_
 _symmetry_equiv_pos_site_id
 _symmetry_equiv_pos_as_xyz
  1  'x, y, z'
loop_
 _atom_site_type_symbol
 _atom_site_label
 _atom_site_symmetry_multiplicity
 _atom_site_fract_x
 _atom_site_fract_y
 _atom_site_fract_z
 _atom_site_occupancy
  Sc  Sc0  1  0.16414173  0.66414173  0.82828347  1.0
  Sc  Sc1  1  0.83585827  0.33585827  1.17171653  1.0
  Sc  Sc2  1  0.66414173  0.83585827  0.50000000  1.0
  Sc  Sc3  1  1.33585827  1.16414173  1.50000000  1.0
