# generated using pymatgen
data_ReS2
_symmetry_space_group_name_H-M   'P 1'
_cell_length_a   6.40654676
_cell_length_b   14.06278034
_cell_length_c   6.50381342
_cell_angle_alpha   75.56530959
_cell_angle_beta   61.15187059
_cell_angle_gamma   77.55045703
_symmetry_Int_Tables_number   1
_chemical_formula_structural   ReS2
_chemical_formula_sum   'Re8 S16'
_cell_volume   493.88886678
_cell_formula_units_Z   8
loop_
 _symmetry_equiv_pos_site_id
 _symmetry_equiv_pos_as_xyz
  1  'x, y, z'
loop_
 _atom_site_type_symbol
 _atom_site_label
 _atom_site_symmetry_multiplicity
 _atom_site_fract_x
 _atom_site_fract_y
 _atom_site_fract_z
 _atom_site_occupancy
  Re  Re0  1  0.81337448  -0.75363414  1.69077605  1.0
  Re  Re1  1  0.18662552  -0.24636586  0.30922395  1.0
  Re  Re2  1  0.68852250  -0.74526272  1.31255257  1.0
  Re  Re3  1  0.31147750  -0.25473728  0.68744743  1.0
  Re  Re4  1  0.26233596  -0.74828067  1.28745289  1.0
  Re  Re5  1  0.73766404  -0.25171933  0.71254711  1.0
  Re  Re6  1  0.23955384  -0.75061260  1.71588059  1.0
  Re  Re7  1  0.76044616  -0.24938740  0.28411941  1.0
  S  S8  1  0.90891762  -0.16316047  0.86618317  1.0
  S  S9  1  0.09108238  -0.83683953  1.13381683  1.0
  S  S10  1  0.90282480  -0.63338740  1.34992361  1.0
  S  S11  1  0.09717520  -0.36661260  0.65007639  1.0
  S  S12  1  0.86996006  -0.64957086  0.89442365  1.0
  S  S13  1  0.13003994  -0.35042914  1.10557635  1.0
  S  S14  1  0.63190483  -0.84931222  1.10890912  1.0
  S  S15  1  0.36809517  -0.15068778  0.89109088  1.0
  S  S16  1  0.59906169  -0.86551911  1.65339449  1.0
  S  S17  1  0.40093831  -0.13448089  0.34660551  1.0
  S  S18  1  0.58918837  -0.33793837  1.13049195  1.0
  S  S19  1  0.41081163  -0.66206163  0.86950805  1.0
  S  S20  1  0.36128855  -0.62007480  1.38951305  1.0
  S  S21  1  0.63871145  -0.37992520  0.61048695  1.0
  S  S22  1  0.14060489  -0.87882714  1.61380857  1.0
  S  S23  1  0.85939511  -0.12117286  0.38619143  1.0
