# generated using pymatgen
data_Cu3SeO8
_symmetry_space_group_name_H-M   'P 1'
_cell_length_a   8.18315025
_cell_length_b   5.90963152
_cell_length_c   13.74383193
_cell_angle_alpha   90.00000000
_cell_angle_beta   90.00000000
_cell_angle_gamma   90.00000000
_symmetry_Int_Tables_number   1
_chemical_formula_structural   Cu3SeO8
_chemical_formula_sum   'Cu12 Se4 O32'
_cell_volume   664.64350223
_cell_formula_units_Z   4
loop_
 _symmetry_equiv_pos_site_id
 _symmetry_equiv_pos_as_xyz
  1  'x, y, z'
loop_
 _atom_site_type_symbol
 _atom_site_label
 _atom_site_symmetry_multiplicity
 _atom_site_fract_x
 _atom_site_fract_y
 _atom_site_fract_z
 _atom_site_occupancy
  O  O0  1  1.00904751  0.99103885  0.34795051  1.0
  O  O1  1  1.00904751  0.50896115  0.34795051  1.0
  O  O2  1  0.50904751  0.99103885  0.15204949  1.0
  O  O3  1  0.50904751  0.50896115  0.15204949  1.0
  O  O4  1  -0.00904751  0.49103885  0.65204949  1.0
  O  O5  1  -0.00904751  0.00896115  0.65204949  1.0
  O  O6  1  0.49095249  0.49103885  0.84795051  1.0
  O  O7  1  0.49095249  0.00896115  0.84795051  1.0
  O  O8  1  0.95103997  0.49376509  0.08184731  1.0
  O  O9  1  0.95103997  0.00623491  0.08184731  1.0
  O  O10  1  0.45103997  0.49376509  0.41815269  1.0
  O  O11  1  0.45103997  0.00623491  0.41815269  1.0
  O  O12  1  0.04896003  0.99376509  0.91815269  1.0
  O  O13  1  0.04896003  0.50623491  0.91815269  1.0
  O  O14  1  0.54896003  0.99376509  0.58184731  1.0
  O  O15  1  0.54896003  0.50623491  0.58184731  1.0
  O  O16  1  0.78982370  0.75000000  0.46101536  1.0
  O  O17  1  0.28982370  0.75000000  0.03898464  1.0
  O  O18  1  0.21017630  0.25000000  0.53898464  1.0
  O  O19  1  0.71017630  0.25000000  0.96101536  1.0
  O  O20  1  0.77091322  0.75000000  0.26222000  1.0
  O  O21  1  0.27091322  0.75000000  0.23778000  1.0
  O  O22  1  0.22908678  0.25000000  0.73778000  1.0
  O  O23  1  0.72908678  0.25000000  0.76222000  1.0
  O  O24  1  0.74503255  0.75000000  0.68496482  1.0
  O  O25  1  0.24503255  0.75000000  0.81503518  1.0
  O  O26  1  0.25496745  0.25000000  0.31503518  1.0
  O  O27  1  0.75496745  0.25000000  0.18496482  1.0
  O  O28  1  0.71302465  0.75000000  0.03869316  1.0
  O  O29  1  0.21302465  0.75000000  0.46130684  1.0
  O  O30  1  0.28697535  0.25000000  0.96130684  1.0
  O  O31  1  0.78697535  0.25000000  0.53869316  1.0
  Cu  Cu32  1  0.72876421  0.99802678  0.11364137  1.0
  Cu  Cu33  1  0.72876421  0.50197322  0.11364137  1.0
  Cu  Cu34  1  0.22876421  0.99802678  0.38635863  1.0
  Cu  Cu35  1  0.22876421  0.50197322  0.38635863  1.0
  Cu  Cu36  1  0.27123579  0.49802678  0.88635863  1.0
  Cu  Cu37  1  0.27123579  0.00197322  0.88635863  1.0
  Cu  Cu38  1  0.77123579  0.49802678  0.61364137  1.0
  Cu  Cu39  1  0.77123579  0.00197322  0.61364137  1.0
  Cu  Cu40  1  1.00162205  0.75000000  0.00232643  1.0
  Cu  Cu41  1  0.50162205  0.75000000  0.49767357  1.0
  Cu  Cu42  1  -0.00162205  0.25000000  0.99767357  1.0
  Cu  Cu43  1  0.49837795  0.25000000  0.50232643  1.0
  Se  Se44  1  0.89282111  0.75000000  0.35666226  1.0
  Se  Se45  1  0.39282111  0.75000000  0.14333774  1.0
  Se  Se46  1  0.10717889  0.25000000  0.64333774  1.0
  Se  Se47  1  0.60717889  0.25000000  0.85666226  1.0
