# generated using pymatgen
data_RbPNO2
_symmetry_space_group_name_H-M   'P 1'
_cell_length_a   8.55293917
_cell_length_b   8.55293917
_cell_length_c   8.55293917
_cell_angle_alpha   101.44278580
_cell_angle_beta   101.44278580
_cell_angle_gamma   101.44278580
_symmetry_Int_Tables_number   1
_chemical_formula_structural   RbPNO2
_chemical_formula_sum   'Rb6 P6 N6 O12'
_cell_volume   582.34780147
_cell_formula_units_Z   6
loop_
 _symmetry_equiv_pos_site_id
 _symmetry_equiv_pos_as_xyz
  1  'x, y, z'
loop_
 _atom_site_type_symbol
 _atom_site_label
 _atom_site_symmetry_multiplicity
 _atom_site_fract_x
 _atom_site_fract_y
 _atom_site_fract_z
 _atom_site_occupancy
  P  P0  1  1.75010462  0.61976853  -0.11919305  1.0
  P  P1  1  0.38023147  1.11919305  -0.75010462  1.0
  P  P2  1  1.11919305  0.24989538  -0.61976853  1.0
  P  P3  1  0.24989538  0.38023147  0.11919305  1.0
  P  P4  1  1.61976853  -0.11919305  0.75010462  1.0
  P  P5  1  0.88080695  0.75010462  0.61976853  1.0
  N  N6  1  1.62945810  0.75039919  -0.12899970  1.0
  N  N7  1  1.24960081  0.12899970  -0.62945810  1.0
  N  N8  1  1.12899970  -0.62945810  0.24960081  1.0
  N  N9  1  0.37054190  0.24960081  0.12899970  1.0
  N  N10  1  0.75039919  0.87100030  0.62945810  1.0
  N  N11  1  0.87100030  1.62945810  -0.24960081  1.0
  O  O12  1  1.63971857  0.44528112  -0.16980006  1.0
  O  O13  1  0.55471888  1.16980006  -0.63971857  1.0
  O  O14  1  1.16980006  0.36028143  -0.44528112  1.0
  O  O15  1  0.36028143  0.55471888  0.16980006  1.0
  O  O16  1  1.44528112  -0.16980006  0.63971857  1.0
  O  O17  1  0.83019994  0.63971857  0.44528112  1.0
  O  O18  1  0.86023090  0.67015573  0.05539173  1.0
  O  O19  1  1.32984427  -0.05539173  0.13976910  1.0
  O  O20  1  0.94460827  0.13976910  0.32984427  1.0
  O  O21  1  1.13976910  0.32984427  -0.05539173  1.0
  O  O22  1  0.67015573  1.05539173  -0.13976910  1.0
  O  O23  1  1.05539173  0.86023090  -0.32984427  1.0
  Rb  Rb24  1  0.65703080  0.84292041  0.25032958  1.0
  Rb  Rb25  1  1.15707959  -0.25032958  0.34296920  1.0
  Rb  Rb26  1  0.74967042  0.34296920  0.15707959  1.0
  Rb  Rb27  1  1.34296920  0.15707959  -0.25032958  1.0
  Rb  Rb28  1  0.84292041  1.25032958  -0.34296920  1.0
  Rb  Rb29  1  1.25032958  0.65703080  -0.15707959  1.0
