# generated using pymatgen
data_Zn2SiO4
_symmetry_space_group_name_H-M   'P 1'
_cell_length_a   5.59343594
_cell_length_b   8.03333942
_cell_length_c   9.09014584
_cell_angle_alpha   90.00000000
_cell_angle_beta   121.83392558
_cell_angle_gamma   90.00000000
_symmetry_Int_Tables_number   1
_chemical_formula_structural   Zn2SiO4
_chemical_formula_sum   'Zn8 Si4 O16'
_cell_volume   347.01654818
_cell_formula_units_Z   4
loop_
 _symmetry_equiv_pos_site_id
 _symmetry_equiv_pos_as_xyz
  1  'x, y, z'
loop_
 _atom_site_type_symbol
 _atom_site_label
 _atom_site_symmetry_multiplicity
 _atom_site_fract_x
 _atom_site_fract_y
 _atom_site_fract_z
 _atom_site_occupancy
  Zn  Zn0  1  0.75783376  0.11902976  0.90103924  1.0
  Zn  Zn1  1  0.75783376  0.38097024  0.40103924  1.0
  Zn  Zn2  1  0.24216624  0.88097024  0.09896076  1.0
  Zn  Zn3  1  0.24216624  0.61902976  0.59896076  1.0
  Zn  Zn4  1  0.14583468  0.50752481  0.19013636  1.0
  Zn  Zn5  1  0.14583468  0.99247519  0.69013636  1.0
  Zn  Zn6  1  0.85416532  0.49247519  0.80986364  1.0
  Zn  Zn7  1  0.85416532  0.00752481  0.30986364  1.0
  Si  Si8  1  0.63362987  0.75990039  0.96355659  1.0
  Si  Si9  1  0.63362987  0.74009961  0.46355659  1.0
  Si  Si10  1  0.36637013  0.24009961  0.03644341  1.0
  Si  Si11  1  0.36637013  0.25990039  0.53644341  1.0
  O  O12  1  0.76628171  0.56964571  0.99830436  1.0
  O  O13  1  0.76628171  0.93035429  0.49830436  1.0
  O  O14  1  0.23371829  0.43035429  0.00169564  1.0
  O  O15  1  0.23371829  0.06964571  0.50169564  1.0
  O  O16  1  0.30693868  0.76447580  0.79282733  1.0
  O  O17  1  0.30693868  0.73552420  0.29282733  1.0
  O  O18  1  0.69306132  0.23552420  0.20717267  1.0
  O  O19  1  0.69306132  0.26447580  0.70717267  1.0
  O  O20  1  0.83453881  0.87484727  0.92190211  1.0
  O  O21  1  0.83453881  0.62515273  0.42190211  1.0
  O  O22  1  0.16546119  0.12515273  0.07809789  1.0
  O  O23  1  0.16546119  0.37484727  0.57809789  1.0
  O  O24  1  0.61653404  0.84941504  0.12222823  1.0
  O  O25  1  0.61653404  0.65058496  0.62222823  1.0
  O  O26  1  0.38346596  0.15058496  0.87777177  1.0
  O  O27  1  0.38346596  0.34941504  0.37777177  1.0
