# generated using pymatgen
data_CsLu2Cl7
_symmetry_space_group_name_H-M   'P 1'
_cell_length_a   14.36740208
_cell_length_b   6.92983960
_cell_length_c   12.50945253
_cell_angle_alpha   90.00000000
_cell_angle_beta   90.00000000
_cell_angle_gamma   90.00000000
_symmetry_Int_Tables_number   1
_chemical_formula_structural   CsLu2Cl7
_chemical_formula_sum   'Cs4 Lu8 Cl28'
_cell_volume   1245.48852938
_cell_formula_units_Z   4
loop_
 _symmetry_equiv_pos_site_id
 _symmetry_equiv_pos_as_xyz
  1  'x, y, z'
loop_
 _atom_site_type_symbol
 _atom_site_label
 _atom_site_symmetry_multiplicity
 _atom_site_fract_x
 _atom_site_fract_y
 _atom_site_fract_z
 _atom_site_occupancy
  Cs  Cs0  1  0.47040937  0.75000000  0.28916257  1.0
  Cs  Cs1  1  0.97040937  0.75000000  0.21083743  1.0
  Cs  Cs2  1  0.52959063  0.25000000  0.71083743  1.0
  Cs  Cs3  1  0.02959063  0.25000000  0.78916257  1.0
  Lu  Lu4  1  0.25512807  0.75000000  0.94475546  1.0
  Lu  Lu5  1  0.75512807  0.75000000  0.55524454  1.0
  Lu  Lu6  1  0.74487193  0.25000000  0.05524454  1.0
  Lu  Lu7  1  0.24487193  0.25000000  0.44475546  1.0
  Lu  Lu8  1  0.25151847  0.75000000  0.64133075  1.0
  Lu  Lu9  1  0.75151847  0.75000000  0.85866925  1.0
  Lu  Lu10  1  0.74848153  0.25000000  0.35866925  1.0
  Lu  Lu11  1  0.24848153  0.25000000  0.14133075  1.0
  Cl  Cl12  1  0.36353840  0.98996241  0.05912569  1.0
  Cl  Cl13  1  0.36353840  0.51003759  0.05912569  1.0
  Cl  Cl14  1  0.86353840  0.98996241  0.44087431  1.0
  Cl  Cl15  1  0.86353840  0.51003759  0.44087431  1.0
  Cl  Cl16  1  0.63646160  0.48996241  0.94087431  1.0
  Cl  Cl17  1  0.63646160  0.01003759  0.94087431  1.0
  Cl  Cl18  1  0.13646160  0.48996241  0.55912569  1.0
  Cl  Cl19  1  0.13646160  0.01003759  0.55912569  1.0
  Cl  Cl20  1  0.36236850  0.99004279  0.52674300  1.0
  Cl  Cl21  1  0.36236850  0.50995721  0.52674300  1.0
  Cl  Cl22  1  0.86236850  0.99004279  0.97325700  1.0
  Cl  Cl23  1  0.86236850  0.50995721  0.97325700  1.0
  Cl  Cl24  1  0.63763150  0.49004279  0.47325700  1.0
  Cl  Cl25  1  0.63763150  0.00995721  0.47325700  1.0
  Cl  Cl26  1  0.13763150  0.49004279  0.02674300  1.0
  Cl  Cl27  1  0.13763150  0.00995721  0.02674300  1.0
  Cl  Cl28  1  0.31564071  0.98821451  0.79254386  1.0
  Cl  Cl29  1  0.31564071  0.51178549  0.79254386  1.0
  Cl  Cl30  1  0.81564071  0.98821451  0.70745614  1.0
  Cl  Cl31  1  0.81564071  0.51178549  0.70745614  1.0
  Cl  Cl32  1  0.68435929  0.48821451  0.20745614  1.0
  Cl  Cl33  1  0.68435929  0.01178549  0.20745614  1.0
  Cl  Cl34  1  0.18435929  0.48821451  0.29254386  1.0
  Cl  Cl35  1  0.18435929  0.01178549  0.29254386  1.0
  Cl  Cl36  1  0.11719221  0.75000000  0.79391413  1.0
  Cl  Cl37  1  0.61719221  0.75000000  0.70608587  1.0
  Cl  Cl38  1  0.88280779  0.25000000  0.20608587  1.0
  Cl  Cl39  1  0.38280779  0.25000000  0.29391413  1.0
