# generated using pymatgen
data_Y10Al3Pd
_symmetry_space_group_name_H-M   'P 1'
_cell_length_a   9.66639255
_cell_length_b   9.66639255
_cell_length_c   9.57750619
_cell_angle_alpha   90.00000000
_cell_angle_beta   90.00000000
_cell_angle_gamma   120.00000000
_symmetry_Int_Tables_number   1
_chemical_formula_structural   Y10Al3Pd
_chemical_formula_sum   'Y20 Al6 Pd2'
_cell_volume   775.01824801
_cell_formula_units_Z   2
loop_
 _symmetry_equiv_pos_site_id
 _symmetry_equiv_pos_as_xyz
  1  'x, y, z'
loop_
 _atom_site_type_symbol
 _atom_site_label
 _atom_site_symmetry_multiplicity
 _atom_site_fract_x
 _atom_site_fract_y
 _atom_site_fract_z
 _atom_site_occupancy
  Y  Y0  1  0.20489988  0.79510012  0.44294408  1.0
  Y  Y1  1  0.20489988  0.40979976  0.44294408  1.0
  Y  Y2  1  0.59020024  0.79510012  0.44294408  1.0
  Y  Y3  1  0.79510012  0.20489988  0.55705592  1.0
  Y  Y4  1  0.79510012  0.59020024  0.55705592  1.0
  Y  Y5  1  0.40979976  0.20489988  0.55705592  1.0
  Y  Y6  1  0.79510012  0.20489988  0.94294408  1.0
  Y  Y7  1  0.79510012  0.59020024  0.94294408  1.0
  Y  Y8  1  0.40979976  0.20489988  0.94294408  1.0
  Y  Y9  1  0.20489988  0.79510012  0.05705592  1.0
  Y  Y10  1  0.20489988  0.40979976  0.05705592  1.0
  Y  Y11  1  0.59020024  0.79510012  0.05705592  1.0
  Y  Y12  1  0.54308329  0.45691671  0.25000000  1.0
  Y  Y13  1  0.54308329  0.08616657  0.25000000  1.0
  Y  Y14  1  0.91383343  0.45691671  0.25000000  1.0
  Y  Y15  1  0.45691671  0.54308329  0.75000000  1.0
  Y  Y16  1  0.45691671  0.91383343  0.75000000  1.0
  Y  Y17  1  0.08616657  0.54308329  0.75000000  1.0
  Y  Y18  1  0.00000000  0.00000000  0.50000000  1.0
  Y  Y19  1  0.00000000  0.00000000  0.00000000  1.0
  Al  Al20  1  0.22776563  0.11388282  0.25000000  1.0
  Al  Al21  1  0.88611718  0.11388282  0.25000000  1.0
  Al  Al22  1  0.88611718  0.77223437  0.25000000  1.0
  Al  Al23  1  0.77223437  0.88611718  0.75000000  1.0
  Al  Al24  1  0.11388282  0.88611718  0.75000000  1.0
  Al  Al25  1  0.11388282  0.22776563  0.75000000  1.0
  Pd  Pd26  1  0.33333333  0.66666667  0.25000000  1.0
  Pd  Pd27  1  0.66666667  0.33333333  0.75000000  1.0
