# generated using pymatgen
data_Ti(ClO4)4
_symmetry_space_group_name_H-M   'P 1'
_cell_length_a   7.96073103
_cell_length_b   7.96073103
_cell_length_c   13.86064116
_cell_angle_alpha   73.96531563
_cell_angle_beta   106.03468437
_cell_angle_gamma   115.13597932
_symmetry_Int_Tables_number   1
_chemical_formula_structural   Ti(ClO4)4
_chemical_formula_sum   'Ti2 Cl8 O32'
_cell_volume   751.42212942
_cell_formula_units_Z   2
loop_
 _symmetry_equiv_pos_site_id
 _symmetry_equiv_pos_as_xyz
  1  'x, y, z'
loop_
 _atom_site_type_symbol
 _atom_site_label
 _atom_site_symmetry_multiplicity
 _atom_site_fract_x
 _atom_site_fract_y
 _atom_site_fract_z
 _atom_site_occupancy
  Ti  Ti0  1  0.54918840  0.54918840  0.75000000  1.0
  Ti  Ti1  1  0.45081160  0.45081160  0.25000000  1.0
  Cl  Cl2  1  1.70429894  -0.17872525  0.59059695  1.0
  Cl  Cl3  1  1.17872525  -0.70429894  0.09059695  1.0
  Cl  Cl4  1  0.82127475  0.70429894  0.90940305  1.0
  Cl  Cl5  1  0.29570106  0.17872525  0.40940305  1.0
  Cl  Cl6  1  0.49865530  0.17446981  0.82979706  1.0
  Cl  Cl7  1  0.82553019  0.50134470  0.32979706  1.0
  Cl  Cl8  1  1.17446981  -0.50134470  0.67020294  1.0
  Cl  Cl9  1  1.50134470  -0.17446981  0.17020294  1.0
  O  O10  1  1.89708205  -0.05257271  0.60281724  1.0
  O  O11  1  1.05257271  -0.89708205  0.10281724  1.0
  O  O12  1  0.94742729  0.89708205  0.89718276  1.0
  O  O13  1  0.10291795  0.05257271  0.39718276  1.0
  O  O14  1  1.61592446  -0.31303904  0.87534320  1.0
  O  O15  1  1.31303904  -0.61592446  0.37534320  1.0
  O  O16  1  0.68696096  0.61592446  0.62465680  1.0
  O  O17  1  0.38407554  0.31303904  0.12465680  1.0
  O  O18  1  1.60886328  -0.17441998  0.67264343  1.0
  O  O19  1  1.17441998  -0.60886328  0.17264343  1.0
  O  O20  1  0.82558002  0.60886328  0.82735657  1.0
  O  O21  1  0.39113672  0.17441998  0.32735657  1.0
  O  O22  1  1.59542380  -0.14954803  0.49130356  1.0
  O  O23  1  1.14954803  -0.59542380  0.99130356  1.0
  O  O24  1  0.85045197  0.59542380  0.00869644  1.0
  O  O25  1  0.40457620  0.14954803  0.50869644  1.0
  O  O26  1  0.63494186  0.12109716  0.90895323  1.0
  O  O27  1  0.87890284  0.36505814  0.40895323  1.0
  O  O28  1  1.12109716  -0.36505814  0.59104677  1.0
  O  O29  1  1.36505814  -0.12109716  0.09104677  1.0
  O  O30  1  1.33281136  0.02100307  0.79820413  1.0
  O  O31  1  0.97899693  -0.33281136  0.29820413  1.0
  O  O32  1  1.02100307  0.33281136  0.70179587  1.0
  O  O33  1  0.66718864  -0.02100307  0.20179587  1.0
  O  O34  1  0.58806782  0.30648598  0.73886346  1.0
  O  O35  1  0.69351402  0.41193218  0.23886346  1.0
  O  O36  1  1.30648598  -0.41193218  0.76113654  1.0
  O  O37  1  1.41193218  -0.30648598  0.26113654  1.0
  O  O38  1  0.44603057  0.31556000  0.86093500  1.0
  O  O39  1  0.68444000  0.55396943  0.36093500  1.0
  O  O40  1  1.31556000  -0.55396943  0.63906500  1.0
  O  O41  1  1.55396943  -0.31556000  0.13906500  1.0
