# generated using pymatgen
data_Gd2SO6
_symmetry_space_group_name_H-M   'P 1'
_cell_length_a   8.19532783
_cell_length_b   13.12322114
_cell_length_c   4.22305077
_cell_angle_alpha   90.00000000
_cell_angle_beta   90.00000000
_cell_angle_gamma   90.00000000
_symmetry_Int_Tables_number   1
_chemical_formula_structural   Gd2SO6
_chemical_formula_sum   'Gd8 S4 O24'
_cell_volume   454.18530762
_cell_formula_units_Z   4
loop_
 _symmetry_equiv_pos_site_id
 _symmetry_equiv_pos_as_xyz
  1  'x, y, z'
loop_
 _atom_site_type_symbol
 _atom_site_label
 _atom_site_symmetry_multiplicity
 _atom_site_fract_x
 _atom_site_fract_y
 _atom_site_fract_z
 _atom_site_occupancy
  Gd  Gd0  1  0.12502802  0.92073165  0.24256177  1.0
  Gd  Gd1  1  0.62502802  0.57926835  0.25743823  1.0
  Gd  Gd2  1  0.87497198  0.42073165  0.75743823  1.0
  Gd  Gd3  1  0.37497198  0.07926835  0.74256177  1.0
  Gd  Gd4  1  0.87497198  0.07926835  0.75743823  1.0
  Gd  Gd5  1  0.37497198  0.42073165  0.74256177  1.0
  Gd  Gd6  1  0.12502802  0.57926835  0.24256177  1.0
  Gd  Gd7  1  0.62502802  0.92073165  0.25743823  1.0
  S  S8  1  0.37792251  0.75000000  0.80839578  1.0
  S  S9  1  0.87792251  0.75000000  0.69160422  1.0
  S  S10  1  0.62207749  0.25000000  0.19160422  1.0
  S  S11  1  0.12207749  0.25000000  0.30839578  1.0
  O  O12  1  0.12537547  0.99627188  0.73296716  1.0
  O  O13  1  0.62537547  0.50372812  0.76703284  1.0
  O  O14  1  0.87462453  0.49627188  0.26703284  1.0
  O  O15  1  0.37462453  0.00372812  0.23296716  1.0
  O  O16  1  0.87462453  0.00372812  0.26703284  1.0
  O  O17  1  0.37462453  0.49627188  0.23296716  1.0
  O  O18  1  0.12537547  0.50372812  0.73296716  1.0
  O  O19  1  0.62537547  0.99627188  0.76703284  1.0
  O  O20  1  0.37808036  0.65641523  0.61081654  1.0
  O  O21  1  0.87808036  0.84358477  0.88918346  1.0
  O  O22  1  0.62191964  0.15641523  0.38918346  1.0
  O  O23  1  0.12191964  0.34358477  0.11081654  1.0
  O  O24  1  0.62191964  0.34358477  0.38918346  1.0
  O  O25  1  0.12191964  0.15641523  0.11081654  1.0
  O  O26  1  0.37808036  0.84358477  0.61081654  1.0
  O  O27  1  0.87808036  0.65641523  0.88918346  1.0
  O  O28  1  0.22909852  0.75000000  1.01678965  1.0
  O  O29  1  0.72909852  0.75000000  0.48321035  1.0
  O  O30  1  0.77090148  0.25000000  -0.01678965  1.0
  O  O31  1  0.27090148  0.25000000  0.51678965  1.0
  O  O32  1  0.52572138  0.75000000  0.01957232  1.0
  O  O33  1  0.02572138  0.75000000  0.48042768  1.0
  O  O34  1  0.47427862  0.25000000  0.98042768  1.0
  O  O35  1  0.97427862  0.25000000  0.51957232  1.0
