# generated using pymatgen
data_ReSbOF10
_symmetry_space_group_name_H-M   'P 1'
_cell_length_a   8.34674478
_cell_length_b   6.93956250
_cell_length_c   8.34883308
_cell_angle_alpha   90.00000000
_cell_angle_beta   95.91631096
_cell_angle_gamma   90.00000000
_symmetry_Int_Tables_number   1
_chemical_formula_structural   ReSbOF10
_chemical_formula_sum   'Re2 Sb2 O2 F20'
_cell_volume   481.01160856
_cell_formula_units_Z   2
loop_
 _symmetry_equiv_pos_site_id
 _symmetry_equiv_pos_as_xyz
  1  'x, y, z'
loop_
 _atom_site_type_symbol
 _atom_site_label
 _atom_site_symmetry_multiplicity
 _atom_site_fract_x
 _atom_site_fract_y
 _atom_site_fract_z
 _atom_site_occupancy
  O  O0  1  0.66026476  0.03967511  0.66003367  1.0
  O  O1  1  0.33973524  0.03967511  0.33996633  1.0
  Sb  Sb2  1  0.66895785  0.53825740  0.33121420  1.0
  Sb  Sb3  1  0.33104215  0.53825740  0.66878580  1.0
  F  F4  1  0.98101951  0.03860648  0.68800633  1.0
  F  F5  1  0.01898049  0.03860648  0.31199367  1.0
  F  F6  1  0.83510802  0.30156288  0.83319500  1.0
  F  F7  1  0.16489198  0.30156288  0.16680500  1.0
  F  F8  1  0.83436022  0.77891186  0.83566822  1.0
  F  F9  1  0.16563978  0.77891186  0.16433178  1.0
  F  F10  1  0.77858833  0.34193947  0.46018353  1.0
  F  F11  1  0.22141167  0.34193947  0.53981647  1.0
  F  F12  1  0.68811896  0.04149657  0.98066240  1.0
  F  F13  1  0.31188104  0.04149657  0.01933760  1.0
  F  F14  1  0.46232906  0.34543951  0.78043371  1.0
  F  F15  1  0.53767094  0.34543951  0.21956629  1.0
  F  F16  1  0.46480089  0.73361215  0.77366364  1.0
  F  F17  1  0.53519911  0.73361215  0.22633636  1.0
  F  F18  1  0.17750914  0.54434354  0.82203441  1.0
  F  F19  1  0.82249086  0.54434354  0.17796559  1.0
  F  F20  1  0.50000000  0.53034834  0.50000000  1.0
  F  F21  1  0.00000000  0.04117067  0.00000000  1.0
  F  F22  1  0.77584001  0.73010377  0.46725088  1.0
  F  F23  1  0.22415999  0.73010377  0.53274912  1.0
  Re  Re24  1  0.80973356  0.04009175  0.80949179  1.0
  Re  Re25  1  0.19026644  0.04009175  0.19050821  1.0
