# generated using pymatgen
data_Li3RuO4
_symmetry_space_group_name_H-M   'P 1'
_cell_length_a   5.15372793
_cell_length_b   5.91971259
_cell_length_c   5.10938972
_cell_angle_alpha   90.00000000
_cell_angle_beta   110.01764741
_cell_angle_gamma   90.00000000
_symmetry_Int_Tables_number   1
_chemical_formula_structural   Li3RuO4
_chemical_formula_sum   'Li6 Ru2 O8'
_cell_volume   146.46310822
_cell_formula_units_Z   2
loop_
 _symmetry_equiv_pos_site_id
 _symmetry_equiv_pos_as_xyz
  1  'x, y, z'
loop_
 _atom_site_type_symbol
 _atom_site_label
 _atom_site_symmetry_multiplicity
 _atom_site_fract_x
 _atom_site_fract_y
 _atom_site_fract_z
 _atom_site_occupancy
  Li  Li0  1  -0.00000000  0.38097290  0.25000000  1.0
  Li  Li1  1  -0.00000000  0.61902710  0.75000000  1.0
  Li  Li2  1  0.50000000  0.13366132  0.25000000  1.0
  Li  Li3  1  0.50000000  0.86633868  0.75000000  1.0
  Li  Li4  1  0.50000000  0.60694509  0.25000000  1.0
  Li  Li5  1  0.50000000  0.39305491  0.75000000  1.0
  Ru  Ru6  1  -0.00000000  0.14228597  0.75000000  1.0
  Ru  Ru7  1  -0.00000000  0.85771403  0.25000000  1.0
  O  O8  1  0.24189590  0.35982245  0.98059666  1.0
  O  O9  1  0.75810410  0.35982245  0.51940334  1.0
  O  O10  1  0.75810410  0.64017755  0.01940334  1.0
  O  O11  1  0.24189590  0.64017755  0.48059666  1.0
  O  O12  1  0.77362671  0.88714651  0.49578218  1.0
  O  O13  1  0.22637329  0.88714651  1.00421782  1.0
  O  O14  1  0.22637329  0.11285349  0.50421782  1.0
  O  O15  1  0.77362671  0.11285349  -0.00421782  1.0
