# generated using pymatgen
data_Nb3B2Ru5
_symmetry_space_group_name_H-M   'P 1'
_cell_length_a   9.44543982
_cell_length_b   9.44543982
_cell_length_c   3.00995022
_cell_angle_alpha   90.00000000
_cell_angle_beta   90.00000000
_cell_angle_gamma   90.00000000
_symmetry_Int_Tables_number   1
_chemical_formula_structural   Nb3B2Ru5
_chemical_formula_sum   'Nb6 B4 Ru10'
_cell_volume   268.53672228
_cell_formula_units_Z   2
loop_
 _symmetry_equiv_pos_site_id
 _symmetry_equiv_pos_as_xyz
  1  'x, y, z'
loop_
 _atom_site_type_symbol
 _atom_site_label
 _atom_site_symmetry_multiplicity
 _atom_site_fract_x
 _atom_site_fract_y
 _atom_site_fract_z
 _atom_site_occupancy
  Nb  Nb0  1  0.32368330  0.17631670  0.00000000  1.0
  Nb  Nb1  1  0.82368330  0.32368330  0.00000000  1.0
  Nb  Nb2  1  0.67631670  0.82368330  0.00000000  1.0
  Nb  Nb3  1  0.17631670  0.67631670  0.00000000  1.0
  Nb  Nb4  1  0.50000000  0.50000000  0.00000000  1.0
  Nb  Nb5  1  0.00000000  0.00000000  0.00000000  1.0
  B  B6  1  0.87858296  0.62141704  0.00000000  1.0
  B  B7  1  0.37858296  0.87858296  0.00000000  1.0
  B  B8  1  0.12141704  0.37858296  0.00000000  1.0
  B  B9  1  0.62141704  0.12141704  0.00000000  1.0
  Ru  Ru10  1  0.42902587  0.71872833  0.50000000  1.0
  Ru  Ru11  1  0.92902587  0.78127167  0.50000000  1.0
  Ru  Ru12  1  0.28127167  0.42902587  0.50000000  1.0
  Ru  Ru13  1  0.78127167  0.07097413  0.50000000  1.0
  Ru  Ru14  1  0.57097413  0.28127167  0.50000000  1.0
  Ru  Ru15  1  0.07097413  0.21872833  0.50000000  1.0
  Ru  Ru16  1  0.71872833  0.57097413  0.50000000  1.0
  Ru  Ru17  1  0.21872833  0.92902587  0.50000000  1.0
  Ru  Ru18  1  0.50000000  0.00000000  0.50000000  1.0
  Ru  Ru19  1  0.00000000  0.50000000  0.50000000  1.0
