# generated using pymatgen
data_BaSn(GeO3)3
_symmetry_space_group_name_H-M   'P 1'
_cell_length_a   7.00865924
_cell_length_b   7.00865924
_cell_length_c   10.40171105
_cell_angle_alpha   90.00000000
_cell_angle_beta   90.00000000
_cell_angle_gamma   120.00000000
_symmetry_Int_Tables_number   1
_chemical_formula_structural   BaSn(GeO3)3
_chemical_formula_sum   'Ba2 Sn2 Ge6 O18'
_cell_volume   442.49188182
_cell_formula_units_Z   2
loop_
 _symmetry_equiv_pos_site_id
 _symmetry_equiv_pos_as_xyz
  1  'x, y, z'
loop_
 _atom_site_type_symbol
 _atom_site_label
 _atom_site_symmetry_multiplicity
 _atom_site_fract_x
 _atom_site_fract_y
 _atom_site_fract_z
 _atom_site_occupancy
  Ba  Ba0  1  0.00000000  0.00000000  0.50000000  1.0
  Ba  Ba1  1  0.00000000  0.00000000  0.00000000  1.0
  Sn  Sn2  1  0.33333333  0.66666667  0.50000000  1.0
  Sn  Sn3  1  0.33333333  0.66666667  0.00000000  1.0
  Ge  Ge4  1  0.59387855  0.55410286  0.25000000  1.0
  Ge  Ge5  1  0.59387855  0.03977568  0.75000000  1.0
  Ge  Ge6  1  0.96022432  0.55410286  0.75000000  1.0
  Ge  Ge7  1  0.96022432  0.40612145  0.25000000  1.0
  Ge  Ge8  1  0.44589714  0.40612145  0.75000000  1.0
  Ge  Ge9  1  0.44589714  0.03977568  0.25000000  1.0
  O  O10  1  0.09728404  0.40682659  0.39134071  1.0
  O  O11  1  0.09728404  0.40682659  0.10865929  1.0
  O  O12  1  0.09728404  0.69045746  0.89134071  1.0
  O  O13  1  0.09728404  0.69045746  0.60865929  1.0
  O  O14  1  0.30954254  0.40682659  0.89134071  1.0
  O  O15  1  0.30954254  0.40682659  0.60865929  1.0
  O  O16  1  0.30954254  0.90271596  0.39134071  1.0
  O  O17  1  0.30954254  0.90271596  0.10865929  1.0
  O  O18  1  0.59317341  0.90271596  0.89134071  1.0
  O  O19  1  0.59317341  0.90271596  0.60865929  1.0
  O  O20  1  0.59317341  0.69045746  0.39134071  1.0
  O  O21  1  0.59317341  0.69045746  0.10865929  1.0
  O  O22  1  0.87128789  0.60348082  0.25000000  1.0
  O  O23  1  0.87128789  0.26780708  0.75000000  1.0
  O  O24  1  0.73219292  0.60348082  0.75000000  1.0
  O  O25  1  0.73219292  0.12871211  0.25000000  1.0
  O  O26  1  0.39651918  0.12871211  0.75000000  1.0
  O  O27  1  0.39651918  0.26780708  0.25000000  1.0
