# generated using pymatgen
data_CaBePO4F
_symmetry_space_group_name_H-M   'P 1'
_cell_length_a   4.82553157
_cell_length_b   7.75792299
_cell_length_c   9.82789229
_cell_angle_alpha   90.00000000
_cell_angle_beta   90.90604849
_cell_angle_gamma   90.00000000
_symmetry_Int_Tables_number   1
_chemical_formula_structural   CaBePO4F
_chemical_formula_sum   'Ca4 Be4 P4 O16 F4'
_cell_volume   367.87198008
_cell_formula_units_Z   4
loop_
 _symmetry_equiv_pos_site_id
 _symmetry_equiv_pos_as_xyz
  1  'x, y, z'
loop_
 _atom_site_type_symbol
 _atom_site_label
 _atom_site_symmetry_multiplicity
 _atom_site_fract_x
 _atom_site_fract_y
 _atom_site_fract_z
 _atom_site_occupancy
  Ca  Ca0  1  0.99643043  0.61019105  0.83087358  1.0
  Ca  Ca1  1  0.99643043  0.88980895  0.33087358  1.0
  Ca  Ca2  1  0.00356957  0.11019105  0.66912642  1.0
  Ca  Ca3  1  0.00356957  0.38980895  0.16912642  1.0
  Be  Be4  1  0.54120291  0.91346239  0.83712670  1.0
  Be  Be5  1  0.54120291  0.58653761  0.33712670  1.0
  Be  Be6  1  0.45879709  0.41346239  0.66287330  1.0
  Be  Be7  1  0.45879709  0.08653761  0.16287330  1.0
  P  P8  1  0.47229006  0.76975616  0.58094998  1.0
  P  P9  1  0.47229006  0.73024384  0.08094998  1.0
  P  P10  1  0.52770994  0.26975616  0.91905002  1.0
  P  P11  1  0.52770994  0.23024384  0.41905002  1.0
  O  O12  1  0.75773754  0.39681786  0.96052746  1.0
  O  O13  1  0.75773754  0.10318214  0.46052746  1.0
  O  O14  1  0.24226246  0.89681786  0.53947254  1.0
  O  O15  1  0.24226246  0.60318214  0.03947254  1.0
  O  O16  1  0.67721887  0.84588045  0.69208149  1.0
  O  O17  1  0.67721887  0.65411955  0.19208149  1.0
  O  O18  1  0.32278113  0.34588045  0.80791851  1.0
  O  O19  1  0.32278113  0.15411955  0.30791851  1.0
  O  O20  1  0.64716080  0.78170407  0.95505348  1.0
  O  O21  1  0.64716080  0.71829593  0.45505348  1.0
  O  O22  1  0.35283920  0.28170407  0.54494652  1.0
  O  O23  1  0.35283920  0.21829593  0.04494652  1.0
  O  O24  1  0.33937809  0.60639846  0.64688826  1.0
  O  O25  1  0.33937809  0.89360154  0.14688826  1.0
  O  O26  1  0.66062191  0.10639846  0.85311174  1.0
  O  O27  1  0.66062191  0.39360154  0.35311174  1.0
  F  F28  1  0.78555084  0.40786919  0.67552036  1.0
  F  F29  1  0.78555084  0.09213081  0.17552036  1.0
  F  F30  1  0.21444916  0.90786919  0.82447964  1.0
  F  F31  1  0.21444916  0.59213081  0.32447964  1.0
