# generated using pymatgen
data_CsAl(H2N)4
_symmetry_space_group_name_H-M   'P 1'
_cell_length_a   7.60238297
_cell_length_b   7.60238297
_cell_length_c   5.58088568
_cell_angle_alpha   90.00000000
_cell_angle_beta   90.00000000
_cell_angle_gamma   90.00000000
_symmetry_Int_Tables_number   1
_chemical_formula_structural   CsAl(H2N)4
_chemical_formula_sum   'Cs2 Al2 H16 N8'
_cell_volume   322.55413431
_cell_formula_units_Z   2
loop_
 _symmetry_equiv_pos_site_id
 _symmetry_equiv_pos_as_xyz
  1  'x, y, z'
loop_
 _atom_site_type_symbol
 _atom_site_label
 _atom_site_symmetry_multiplicity
 _atom_site_fract_x
 _atom_site_fract_y
 _atom_site_fract_z
 _atom_site_occupancy
  Cs  Cs0  1  0.00000000  0.50000000  0.24924450  1.0
  Cs  Cs1  1  0.50000000  0.00000000  0.75075550  1.0
  Al  Al2  1  0.50000000  0.50000000  0.00000000  1.0
  Al  Al3  1  0.00000000  0.00000000  0.00000000  1.0
  H  H4  1  0.82318360  0.97329088  0.37970078  1.0
  H  H5  1  0.17681640  0.02670912  0.37970078  1.0
  H  H6  1  0.47329088  0.67681640  0.37970078  1.0
  H  H7  1  0.52670912  0.32318360  0.37970078  1.0
  H  H8  1  0.67681640  0.52670912  0.62029922  1.0
  H  H9  1  0.32318360  0.47329088  0.62029922  1.0
  H  H10  1  0.02670912  0.82318360  0.62029922  1.0
  H  H11  1  0.97329088  0.17681640  0.62029922  1.0
  H  H12  1  0.72333679  0.84149657  0.18667600  1.0
  H  H13  1  0.27666321  0.15850343  0.18667600  1.0
  H  H14  1  0.34149657  0.77666321  0.18667600  1.0
  H  H15  1  0.65850343  0.22333679  0.18667600  1.0
  H  H16  1  0.77666321  0.65850343  0.81332400  1.0
  H  H17  1  0.22333679  0.34149657  0.81332400  1.0
  H  H18  1  0.15850343  0.72333679  0.81332400  1.0
  H  H19  1  0.84149657  0.27666321  0.81332400  1.0
  N  N20  1  0.83396443  0.91402899  0.21648590  1.0
  N  N21  1  0.16603557  0.08597101  0.21648590  1.0
  N  N22  1  0.41402899  0.66603557  0.21648590  1.0
  N  N23  1  0.58597101  0.33396443  0.21648590  1.0
  N  N24  1  0.66603557  0.58597101  0.78351410  1.0
  N  N25  1  0.33396443  0.41402899  0.78351410  1.0
  N  N26  1  0.08597101  0.83396443  0.78351410  1.0
  N  N27  1  0.91402899  0.16603557  0.78351410  1.0
