# generated using pymatgen
data_LiSn4Au3
_symmetry_space_group_name_H-M   'P 1'
_cell_length_a   4.58301855
_cell_length_b   4.58301855
_cell_length_c   20.87862610
_cell_angle_alpha   90.00000000
_cell_angle_beta   90.00000000
_cell_angle_gamma   120.00000000
_symmetry_Int_Tables_number   1
_chemical_formula_structural   LiSn4Au3
_chemical_formula_sum   'Li2 Sn8 Au6'
_cell_volume   379.78322492
_cell_formula_units_Z   2
loop_
 _symmetry_equiv_pos_site_id
 _symmetry_equiv_pos_as_xyz
  1  'x, y, z'
loop_
 _atom_site_type_symbol
 _atom_site_label
 _atom_site_symmetry_multiplicity
 _atom_site_fract_x
 _atom_site_fract_y
 _atom_site_fract_z
 _atom_site_occupancy
  Li  Li0  1  0.33333333  0.66666667  0.04813324  1.0
  Li  Li1  1  0.66666667  0.33333333  0.54813324  1.0
  Sn  Sn2  1  0.33333333  0.66666667  0.46120395  1.0
  Sn  Sn3  1  0.66666667  0.33333333  0.96120395  1.0
  Sn  Sn4  1  0.33333333  0.66666667  0.74255754  1.0
  Sn  Sn5  1  0.66666667  0.33333333  0.24255754  1.0
  Sn  Sn6  1  0.00000000  0.00000000  0.13126292  1.0
  Sn  Sn7  1  -0.00000000  -0.00000000  0.63126292  1.0
  Sn  Sn8  1  0.00000000  0.00000000  0.36381589  1.0
  Sn  Sn9  1  -0.00000000  -0.00000000  0.86381589  1.0
  Au  Au10  1  0.33333333  0.66666667  0.17975541  1.0
  Au  Au11  1  0.66666667  0.33333333  0.67975541  1.0
  Au  Au12  1  0.33333333  0.66666667  0.31997418  1.0
  Au  Au13  1  0.66666667  0.33333333  0.81997418  1.0
  Au  Au14  1  -0.00000000  -0.00000000  -0.00020312  1.0
  Au  Au15  1  -0.00000000  -0.00000000  0.49979688  1.0
