# generated using pymatgen
data_Ba3Ti3(BO6)2
_symmetry_space_group_name_H-M   'P 1'
_cell_length_a   8.86972360
_cell_length_b   8.86972360
_cell_length_c   3.84452785
_cell_angle_alpha   90.00000000
_cell_angle_beta   90.00000000
_cell_angle_gamma   120.00000000
_symmetry_Int_Tables_number   1
_chemical_formula_structural   Ba3Ti3(BO6)2
_chemical_formula_sum   'Ba3 Ti3 B2 O12'
_cell_volume   261.93517054
_cell_formula_units_Z   1
loop_
 _symmetry_equiv_pos_site_id
 _symmetry_equiv_pos_as_xyz
  1  'x, y, z'
loop_
 _atom_site_type_symbol
 _atom_site_label
 _atom_site_symmetry_multiplicity
 _atom_site_fract_x
 _atom_site_fract_y
 _atom_site_fract_z
 _atom_site_occupancy
  Ba  Ba0  1  0.40461351  0.40461351  0.50000000  1.0
  Ba  Ba1  1  -0.00000000  0.59538649  0.50000000  1.0
  Ba  Ba2  1  0.59538649  0.00000000  0.50000000  1.0
  Ti  Ti3  1  0.76576392  0.76576392  0.00000000  1.0
  Ti  Ti4  1  0.00000000  0.23423608  0.00000000  1.0
  Ti  Ti5  1  0.23423608  0.00000000  0.00000000  1.0
  B  B6  1  0.33333333  0.66666667  0.00000000  1.0
  B  B7  1  0.66666667  0.33333333  0.00000000  1.0
  O  O8  1  0.32095594  0.81523151  0.00000000  1.0
  O  O9  1  0.81523151  0.32095594  0.00000000  1.0
  O  O10  1  0.49427557  0.67904406  0.00000000  1.0
  O  O11  1  0.18476849  0.50572443  0.00000000  1.0
  O  O12  1  0.67904406  0.49427557  0.00000000  1.0
  O  O13  1  0.50572443  0.18476849  0.00000000  1.0
  O  O14  1  0.73668412  0.73668412  0.50000000  1.0
  O  O15  1  -0.00000000  0.26331588  0.50000000  1.0
  O  O16  1  0.26331588  0.00000000  0.50000000  1.0
  O  O17  1  0.18497656  0.18497656  0.00000000  1.0
  O  O18  1  0.00000000  0.81502344  0.00000000  1.0
  O  O19  1  0.81502344  0.00000000  0.00000000  1.0
