# generated using pymatgen
data_Nb5Ni
_symmetry_space_group_name_H-M   'P 1'
_cell_length_a   8.38314072
_cell_length_b   8.38314072
_cell_length_c   8.38314072
_cell_angle_alpha   60.00000000
_cell_angle_beta   60.00000000
_cell_angle_gamma   60.00000000
_symmetry_Int_Tables_number   1
_chemical_formula_structural   Nb5Ni
_chemical_formula_sum   'Nb20 Ni4'
_cell_volume   416.58657655
_cell_formula_units_Z   4
loop_
 _symmetry_equiv_pos_site_id
 _symmetry_equiv_pos_as_xyz
  1  'x, y, z'
loop_
 _atom_site_type_symbol
 _atom_site_label
 _atom_site_symmetry_multiplicity
 _atom_site_fract_x
 _atom_site_fract_y
 _atom_site_fract_z
 _atom_site_occupancy
  Nb  Nb0  1  0.91001169  -0.08998831  0.26996494  1.0
  Nb  Nb1  1  0.91001169  -0.73003506  0.91001169  1.0
  Nb  Nb2  1  0.26996494  0.91001169  0.91001169  1.0
  Nb  Nb3  1  0.91001169  0.91001169  0.91001169  1.0
  Nb  Nb4  1  1.33998831  0.33998831  -0.01996494  1.0
  Nb  Nb5  1  1.33998831  -0.01996494  0.33998831  1.0
  Nb  Nb6  1  0.98003506  0.33998831  0.33998831  1.0
  Nb  Nb7  1  1.33998831  0.33998831  0.33998831  1.0
  Nb  Nb8  1  0.56589639  0.56589639  0.93410361  1.0
  Nb  Nb9  1  0.93410361  0.56589639  0.93410361  1.0
  Nb  Nb10  1  0.56589639  0.93410361  0.93410361  1.0
  Nb  Nb11  1  0.93410361  0.93410361  0.56589639  1.0
  Nb  Nb12  1  0.56589639  0.93410361  0.56589639  1.0
  Nb  Nb13  1  0.93410361  0.56589639  0.56589639  1.0
  Nb  Nb14  1  0.68410361  0.68410361  -0.68410361  1.0
  Nb  Nb15  1  1.31589639  -0.31589639  0.31589639  1.0
  Nb  Nb16  1  -0.31589639  0.31589639  0.31589639  1.0
  Nb  Nb17  1  0.31589639  0.31589639  -0.31589639  1.0
  Nb  Nb18  1  0.68410361  -0.68410361  0.68410361  1.0
  Nb  Nb19  1  -0.68410361  0.68410361  0.68410361  1.0
  Ni  Ni20  1  0.12500000  0.12500000  1.62500000  1.0
  Ni  Ni21  1  0.12500000  0.62500000  1.12500000  1.0
  Ni  Ni22  1  1.62500000  0.12500000  0.12500000  1.0
  Ni  Ni23  1  1.12500000  0.12500000  0.12500000  1.0
