# generated using pymatgen
data_Y4MgRh
_symmetry_space_group_name_H-M   'P 1'
_cell_length_a   9.73712617
_cell_length_b   9.73712617
_cell_length_c   9.73712617
_cell_angle_alpha   60.00000000
_cell_angle_beta   60.00000000
_cell_angle_gamma   60.00000000
_symmetry_Int_Tables_number   1
_chemical_formula_structural   Y4MgRh
_chemical_formula_sum   'Y16 Mg4 Rh4'
_cell_volume   652.79586550
_cell_formula_units_Z   4
loop_
 _symmetry_equiv_pos_site_id
 _symmetry_equiv_pos_as_xyz
  1  'x, y, z'
loop_
 _atom_site_type_symbol
 _atom_site_label
 _atom_site_symmetry_multiplicity
 _atom_site_fract_x
 _atom_site_fract_y
 _atom_site_fract_z
 _atom_site_occupancy
  Y  Y0  1  0.06452493  0.43547507  0.43547507  1.0
  Y  Y1  1  0.43547507  0.43547507  0.06452493  1.0
  Y  Y2  1  0.43547507  0.06452493  0.43547507  1.0
  Y  Y3  1  0.06452493  0.06452493  0.43547507  1.0
  Y  Y4  1  0.06452493  0.43547507  0.06452493  1.0
  Y  Y5  1  0.43547507  0.06452493  0.06452493  1.0
  Y  Y6  1  -0.81210045  0.81210045  0.81210045  1.0
  Y  Y7  1  -0.18789955  0.81210045  0.18789955  1.0
  Y  Y8  1  -0.18789955  0.18789955  0.81210045  1.0
  Y  Y9  1  0.18789955  1.18789955  -0.18789955  1.0
  Y  Y10  1  0.18789955  -0.18789955  0.18789955  1.0
  Y  Y11  1  -0.18789955  0.18789955  0.18789955  1.0
  Y  Y12  1  -0.34647701  0.65352299  0.65352299  1.0
  Y  Y13  1  1.03943104  0.65352299  -0.34647701  1.0
  Y  Y14  1  -0.34647701  0.65352299  1.03943104  1.0
  Y  Y15  1  0.65352299  1.03943104  -0.34647701  1.0
  Mg  Mg16  1  0.42056717  1.42056717  0.42056717  1.0
  Mg  Mg17  1  -0.26170152  0.42056717  0.42056717  1.0
  Mg  Mg18  1  0.42056717  1.42056717  -0.26170152  1.0
  Mg  Mg19  1  0.42056717  -0.26170152  0.42056717  1.0
  Rh  Rh20  1  0.85840386  0.85840386  -0.14159614  1.0
  Rh  Rh21  1  0.42478841  0.85840386  -0.14159614  1.0
  Rh  Rh22  1  0.85840386  0.85840386  -0.57521159  1.0
  Rh  Rh23  1  0.85840386  0.42478841  -0.14159614  1.0
