# generated using pymatgen
data_CaGa2Pt
_symmetry_space_group_name_H-M   'P 1'
_cell_length_a   5.58279954
_cell_length_b   5.58279954
_cell_length_c   7.05345170
_cell_angle_alpha   90.00000000
_cell_angle_beta   90.00000000
_cell_angle_gamma   134.72709537
_symmetry_Int_Tables_number   1
_chemical_formula_structural   CaGa2Pt
_chemical_formula_sum   'Ca2 Ga4 Pt2'
_cell_volume   156.18867006
_cell_formula_units_Z   2
loop_
 _symmetry_equiv_pos_site_id
 _symmetry_equiv_pos_as_xyz
  1  'x, y, z'
loop_
 _atom_site_type_symbol
 _atom_site_label
 _atom_site_symmetry_multiplicity
 _atom_site_fract_x
 _atom_site_fract_y
 _atom_site_fract_z
 _atom_site_occupancy
  Ca  Ca0  1  0.42783772  0.57216228  0.75000000  1.0
  Ca  Ca1  1  -0.42783772  0.42783772  0.25000000  1.0
  Ga  Ga2  1  0.14346954  0.85653046  0.94583266  1.0
  Ga  Ga3  1  0.14346954  0.85653046  0.55416734  1.0
  Ga  Ga4  1  -0.14346954  0.14346954  0.44583266  1.0
  Ga  Ga5  1  -0.14346954  0.14346954  0.05416734  1.0
  Pt  Pt6  1  -0.28921477  0.28921477  0.75000000  1.0
  Pt  Pt7  1  0.28921477  0.71078523  0.25000000  1.0
