# generated using pymatgen
data_NaPb
_symmetry_space_group_name_H-M   'P 1'
_cell_length_a   11.72971629
_cell_length_b   11.72971629
_cell_length_c   11.72971629
_cell_angle_alpha   126.10998727
_cell_angle_beta   126.10998727
_cell_angle_gamma   79.70744432
_symmetry_Int_Tables_number   1
_chemical_formula_structural   NaPb
_chemical_formula_sum   'Na16 Pb16'
_cell_volume   1017.55950973
_cell_formula_units_Z   16
loop_
 _symmetry_equiv_pos_site_id
 _symmetry_equiv_pos_as_xyz
  1  'x, y, z'
loop_
 _atom_site_type_symbol
 _atom_site_label
 _atom_site_symmetry_multiplicity
 _atom_site_fract_x
 _atom_site_fract_y
 _atom_site_fract_z
 _atom_site_occupancy
  Na  Na0  1  1.12500000  0.75935809  1.13435809  1.0
  Na  Na1  1  0.62500000  0.49064191  0.36564191  1.0
  Na  Na2  1  1.12500000  1.25935809  1.63435809  1.0
  Na  Na3  1  0.62500000  0.99064191  0.86564191  1.0
  Na  Na4  1  0.24064191  0.37500000  0.36564191  1.0
  Na  Na5  1  0.50935809  0.87500000  1.13435809  1.0
  Na  Na6  1  0.74064191  0.37500000  0.86564191  1.0
  Na  Na7  1  1.00935809  0.87500000  1.63435809  1.0
  Na  Na8  1  0.87429154  0.37429154  1.24858307  1.0
  Na  Na9  1  0.37429154  0.12570846  0.50000000  1.0
  Na  Na10  1  0.62429154  0.62429154  0.74858307  1.0
  Na  Na11  1  1.12429154  0.37570846  1.00000000  1.0
  Na  Na12  1  0.12570846  0.62570846  0.75141693  1.0
  Na  Na13  1  0.62570846  0.87429154  1.50000000  1.0
  Na  Na14  1  0.87570846  0.87570846  1.25141693  1.0
  Na  Na15  1  0.37570846  1.12429154  1.00000000  1.0
  Pb  Pb16  1  1.24404683  0.94652933  1.56281251  1.0
  Pb  Pb17  1  0.74404683  1.18123432  1.29751750  1.0
  Pb  Pb18  1  1.36628318  0.56876568  1.06281251  1.0
  Pb  Pb19  1  0.86628318  0.80347067  0.79751750  1.0
  Pb  Pb20  1  0.38371682  0.68123432  0.43718749  1.0
  Pb  Pb21  1  0.88371682  0.44652933  0.70248250  1.0
  Pb  Pb22  1  0.50595317  1.30347067  0.93718749  1.0
  Pb  Pb23  1  1.00595317  1.06876568  1.20248250  1.0
  Pb  Pb24  1  1.05347067  0.61628318  1.29751750  1.0
  Pb  Pb25  1  0.81876568  1.11628318  1.56281251  1.0
  Pb  Pb26  1  0.43123432  0.49404683  0.79751750  1.0
  Pb  Pb27  1  0.19652933  0.99404683  1.06281251  1.0
  Pb  Pb28  1  0.31876568  0.75595317  0.70248250  1.0
  Pb  Pb29  1  0.55347067  0.25595317  0.43718749  1.0
  Pb  Pb30  1  0.69652933  0.63371682  1.20248250  1.0
  Pb  Pb31  1  0.93123432  0.13371682  0.93718749  1.0
