# generated using pymatgen
data_LiLuSn
_symmetry_space_group_name_H-M   'P 1'
_cell_length_a   9.29570614
_cell_length_b   9.29570614
_cell_length_c   7.07068995
_cell_angle_alpha   90.00000000
_cell_angle_beta   90.00000000
_cell_angle_gamma   120.00000000
_symmetry_Int_Tables_number   1
_chemical_formula_structural   LiLuSn
_chemical_formula_sum   'Li8 Lu8 Sn8'
_cell_volume   529.12368011
_cell_formula_units_Z   8
loop_
 _symmetry_equiv_pos_site_id
 _symmetry_equiv_pos_as_xyz
  1  'x, y, z'
loop_
 _atom_site_type_symbol
 _atom_site_label
 _atom_site_symmetry_multiplicity
 _atom_site_fract_x
 _atom_site_fract_y
 _atom_site_fract_z
 _atom_site_occupancy
  Li  Li0  1  0.83320280  0.16679720  0.71672510  1.0
  Li  Li1  1  0.83320280  0.66640560  0.71672510  1.0
  Li  Li2  1  0.33359440  0.16679720  0.71672510  1.0
  Li  Li3  1  0.16679720  0.83320280  0.21672510  1.0
  Li  Li4  1  0.16679720  0.33359440  0.21672510  1.0
  Li  Li5  1  0.66640560  0.83320280  0.21672510  1.0
  Li  Li6  1  0.66666667  0.33333333  0.31540339  1.0
  Li  Li7  1  0.33333333  0.66666667  0.81540339  1.0
  Lu  Lu8  1  0.48980025  0.51019975  0.50596606  1.0
  Lu  Lu9  1  0.48980025  0.97960050  0.50596606  1.0
  Lu  Lu10  1  0.02039950  0.51019975  0.50596606  1.0
  Lu  Lu11  1  0.51019975  0.48980025  0.00596606  1.0
  Lu  Lu12  1  0.51019975  0.02039950  0.00596606  1.0
  Lu  Lu13  1  0.97960050  0.48980025  0.00596606  1.0
  Lu  Lu14  1  0.00000000  0.00000000  0.50122621  1.0
  Lu  Lu15  1  0.00000000  0.00000000  0.00122621  1.0
  Sn  Sn16  1  0.83332891  0.16667109  0.26750578  1.0
  Sn  Sn17  1  0.83332891  0.66665782  0.26750578  1.0
  Sn  Sn18  1  0.33334218  0.16667109  0.26750578  1.0
  Sn  Sn19  1  0.16667109  0.83332891  0.76750578  1.0
  Sn  Sn20  1  0.16667109  0.33334218  0.76750578  1.0
  Sn  Sn21  1  0.66665782  0.83332891  0.76750578  1.0
  Sn  Sn22  1  0.66666667  0.33333333  0.74177958  1.0
  Sn  Sn23  1  0.33333333  0.66666667  0.24177958  1.0
