# generated using pymatgen
data_Zn6Sb5
_symmetry_space_group_name_H-M   'P 1'
_cell_length_a   8.22176246
_cell_length_b   8.22176246
_cell_length_c   8.22176246
_cell_angle_alpha   97.29931309
_cell_angle_beta   97.29931309
_cell_angle_gamma   97.29931309
_symmetry_Int_Tables_number   1
_chemical_formula_structural   Zn6Sb5
_chemical_formula_sum   'Zn12 Sb10'
_cell_volume   540.97566169
_cell_formula_units_Z   2
loop_
 _symmetry_equiv_pos_site_id
 _symmetry_equiv_pos_as_xyz
  1  'x, y, z'
loop_
 _atom_site_type_symbol
 _atom_site_label
 _atom_site_symmetry_multiplicity
 _atom_site_fract_x
 _atom_site_fract_y
 _atom_site_fract_z
 _atom_site_occupancy
  Zn  Zn0  1  0.56389440  1.15910008  -0.51662693  1.0
  Zn  Zn1  1  1.15910008  0.48337307  -0.43610560  1.0
  Zn  Zn2  1  0.48337307  0.56389440  0.15910008  1.0
  Zn  Zn3  1  1.06389440  -0.01662693  -0.34089992  1.0
  Zn  Zn4  1  0.98337307  -0.34089992  0.06389440  1.0
  Zn  Zn5  1  0.65910008  0.06389440  -0.01662693  1.0
  Zn  Zn6  1  1.43610560  -0.15910008  0.51662693  1.0
  Zn  Zn7  1  0.84089992  0.51662693  0.43610560  1.0
  Zn  Zn8  1  1.51662693  0.43610560  -0.15910008  1.0
  Zn  Zn9  1  0.93610560  1.01662693  0.34089992  1.0
  Zn  Zn10  1  1.01662693  1.34089992  -0.06389440  1.0
  Zn  Zn11  1  1.34089992  0.93610560  0.01662693  1.0
  Sb  Sb12  1  0.36522492  0.36522492  0.36522492  1.0
  Sb  Sb13  1  0.86522492  0.86522492  0.86522492  1.0
  Sb  Sb14  1  0.63477508  0.63477508  0.63477508  1.0
  Sb  Sb15  1  0.13477508  0.13477508  0.13477508  1.0
  Sb  Sb16  1  1.60629465  -0.10629465  0.25000000  1.0
  Sb  Sb17  1  0.89370535  0.25000000  0.60629465  1.0
  Sb  Sb18  1  1.25000000  0.60629465  -0.10629465  1.0
  Sb  Sb19  1  1.10629465  0.75000000  -0.60629465  1.0
  Sb  Sb20  1  0.75000000  0.39370535  0.10629465  1.0
  Sb  Sb21  1  0.39370535  1.10629465  -0.25000000  1.0
