# generated using pymatgen
data_SiO2
_symmetry_space_group_name_H-M   'P 1'
_cell_length_a   8.24436858
_cell_length_b   8.24436858
_cell_length_c   5.56433114
_cell_angle_alpha   90.00000000
_cell_angle_beta   90.00000000
_cell_angle_gamma   90.00000000
_symmetry_Int_Tables_number   1
_chemical_formula_structural   SiO2
_chemical_formula_sum   'Si8 O16'
_cell_volume   378.20543613
_cell_formula_units_Z   8
loop_
 _symmetry_equiv_pos_site_id
 _symmetry_equiv_pos_as_xyz
  1  'x, y, z'
loop_
 _atom_site_type_symbol
 _atom_site_label
 _atom_site_symmetry_multiplicity
 _atom_site_fract_x
 _atom_site_fract_y
 _atom_site_fract_z
 _atom_site_occupancy
  Si  Si0  1  0.06876143  0.31381164  0.00000000  1.0
  Si  Si1  1  0.93123857  0.68618836  0.00000000  1.0
  Si  Si2  1  0.06876143  0.68618836  0.50000000  1.0
  Si  Si3  1  0.93123857  0.31381164  0.50000000  1.0
  Si  Si4  1  0.31381164  0.06876143  0.00000000  1.0
  Si  Si5  1  0.68618836  0.93123857  0.00000000  1.0
  Si  Si6  1  0.68618836  0.06876143  0.50000000  1.0
  Si  Si7  1  0.31381164  0.93123857  0.50000000  1.0
  O  O8  1  0.26585264  0.26585264  0.00000000  1.0
  O  O9  1  0.73414736  0.73414736  0.00000000  1.0
  O  O10  1  0.26585264  0.73414736  0.50000000  1.0
  O  O11  1  0.73414736  0.26585264  0.50000000  1.0
  O  O12  1  0.00000000  0.23638593  0.25000000  1.0
  O  O13  1  0.00000000  0.76361407  0.25000000  1.0
  O  O14  1  0.00000000  0.76361407  0.75000000  1.0
  O  O15  1  0.00000000  0.23638593  0.75000000  1.0
  O  O16  1  0.23638593  0.00000000  0.25000000  1.0
  O  O17  1  0.76361407  0.00000000  0.25000000  1.0
  O  O18  1  0.76361407  0.00000000  0.75000000  1.0
  O  O19  1  0.23638593  0.00000000  0.75000000  1.0
  O  O20  1  0.00000000  0.50000000  0.00000000  1.0
  O  O21  1  0.00000000  0.50000000  0.50000000  1.0
  O  O22  1  0.50000000  0.00000000  0.00000000  1.0
  O  O23  1  0.50000000  0.00000000  0.50000000  1.0
