# generated using pymatgen
data_Sr2YCu3(PbO4)2
_symmetry_space_group_name_H-M   'P 1'
_cell_length_a   5.40846770
_cell_length_b   15.95931799
_cell_length_c   5.46629739
_cell_angle_alpha   90.00000000
_cell_angle_beta   90.00000000
_cell_angle_gamma   90.00000000
_symmetry_Int_Tables_number   1
_chemical_formula_structural   Sr2YCu3(PbO4)2
_chemical_formula_sum   'Sr4 Y2 Cu6 Pb4 O16'
_cell_volume   471.82595165
_cell_formula_units_Z   2
loop_
 _symmetry_equiv_pos_site_id
 _symmetry_equiv_pos_as_xyz
  1  'x, y, z'
loop_
 _atom_site_type_symbol
 _atom_site_label
 _atom_site_symmetry_multiplicity
 _atom_site_fract_x
 _atom_site_fract_y
 _atom_site_fract_z
 _atom_site_occupancy
  Sr  Sr0  1  0.75001568  0.77935109  -0.00106667  1.0
  Sr  Sr1  1  0.24998432  0.77935109  0.50106667  1.0
  Sr  Sr2  1  0.24998432  0.22064891  0.49893333  1.0
  Sr  Sr3  1  0.75001568  0.22064891  0.00106667  1.0
  Y  Y4  1  0.25003757  0.00000000  0.50000000  1.0
  Y  Y5  1  0.74996243  0.00000000  0.00000000  1.0
  Cu  Cu6  1  0.75025244  0.50000000  0.00000000  1.0
  Cu  Cu7  1  0.24974756  0.50000000  0.50000000  1.0
  Cu  Cu8  1  0.24997896  0.89653251  -0.00020220  1.0
  Cu  Cu9  1  0.75002104  0.89653251  0.50020220  1.0
  Cu  Cu10  1  0.75002104  0.10346749  0.49979780  1.0
  Cu  Cu11  1  0.24997896  0.10346749  0.00020220  1.0
  Pb  Pb12  1  0.75037059  0.61203207  0.49142341  1.0
  Pb  Pb13  1  0.24962941  0.61203207  0.00857659  1.0
  Pb  Pb14  1  0.24962941  0.38796793  -0.00857659  1.0
  Pb  Pb15  1  0.75037059  0.38796793  0.50857659  1.0
  O  O16  1  0.24980494  0.74942630  -0.01004253  1.0
  O  O17  1  0.75019506  0.74942630  0.51004253  1.0
  O  O18  1  0.75019506  0.25057370  0.48995747  1.0
  O  O19  1  0.24980494  0.25057370  0.01004253  1.0
  O  O20  1  0.75076413  0.61534611  0.05455336  1.0
  O  O21  1  0.24923587  0.61534611  0.44544664  1.0
  O  O22  1  0.24923587  0.38465389  0.55455336  1.0
  O  O23  1  0.75076413  0.38465389  0.94544664  1.0
  O  O24  1  0.50000000  0.90960810  0.75000000  1.0
  O  O25  1  0.50000000  0.09039190  0.25000000  1.0
  O  O26  1  0.00000000  0.90801450  0.25000000  1.0
  O  O27  1  0.00000000  0.09198550  0.75000000  1.0
  O  O28  1  0.50000000  0.90794692  0.25000000  1.0
  O  O29  1  0.50000000  0.09205308  0.75000000  1.0
  O  O30  1  0.00000000  0.90967959  0.75000000  1.0
  O  O31  1  0.00000000  0.09032041  0.25000000  1.0
