# generated using pymatgen
data_CrBH6C4N2F5
_symmetry_space_group_name_H-M   'P 1'
_cell_length_a   8.57467372
_cell_length_b   8.57467372
_cell_length_c   7.30921625
_cell_angle_alpha   80.36483437
_cell_angle_beta   99.63516563
_cell_angle_gamma   98.34991433
_symmetry_Int_Tables_number   1
_chemical_formula_structural   CrBH6C4N2F5
_chemical_formula_sum   'Cr2 B2 H12 C8 N4 F10'
_cell_volume   518.54387541
_cell_formula_units_Z   2
loop_
 _symmetry_equiv_pos_site_id
 _symmetry_equiv_pos_as_xyz
  1  'x, y, z'
loop_
 _atom_site_type_symbol
 _atom_site_label
 _atom_site_symmetry_multiplicity
 _atom_site_fract_x
 _atom_site_fract_y
 _atom_site_fract_z
 _atom_site_occupancy
  Cr  Cr0  1  -0.00000000  0.00000000  0.50000000  1.0
  Cr  Cr1  1  0.00000000  0.00000000  0.00000000  1.0
  B  B2  1  0.71912274  -0.28087726  0.75000000  1.0
  B  B3  1  1.28087726  0.28087726  0.25000000  1.0
  H  H4  1  0.65459657  -0.55807643  0.22165136  1.0
  H  H5  1  0.44192357  -0.34540343  0.27834864  1.0
  H  H6  1  1.34540343  0.55807643  0.77834864  1.0
  H  H7  1  1.55807643  0.34540343  0.72165136  1.0
  H  H8  1  0.84598833  -0.45928436  0.17395313  1.0
  H  H9  1  0.54071564  -0.15401167  0.32604687  1.0
  H  H10  1  1.15401167  0.45928436  0.82604687  1.0
  H  H11  1  1.45928436  0.15401167  0.67395313  1.0
  H  H12  1  0.78474173  -0.46123967  0.39808806  1.0
  H  H13  1  0.53876033  -0.21525827  0.10191194  1.0
  H  H14  1  1.21525827  0.46123967  0.60191194  1.0
  H  H15  1  1.46123967  0.21525827  0.89808806  1.0
  C  C16  1  0.84607339  -0.67706605  0.35359159  1.0
  C  C17  1  0.32293395  -0.15392661  0.14640841  1.0
  C  C18  1  1.15392661  0.67706605  0.64640841  1.0
  C  C19  1  1.67706605  0.15392661  0.85359159  1.0
  C  C20  1  0.77985561  -0.52997536  0.28252946  1.0
  C  C21  1  0.47002464  -0.22014439  0.21747054  1.0
  C  C22  1  1.22014439  0.52997536  0.71747054  1.0
  C  C23  1  1.52997536  0.22014439  0.78252946  1.0
  N  N24  1  0.89819727  -0.79627231  0.41084628  1.0
  N  N25  1  0.20372769  -0.10180273  0.08915372  1.0
  N  N26  1  1.10180273  0.79627231  0.58915372  1.0
  N  N27  1  1.79627231  0.10180273  0.91084628  1.0
  F  F28  1  1.06386506  0.06386506  0.75000000  1.0
  F  F29  1  0.93613494  -0.06386506  0.25000000  1.0
  F  F30  1  1.28071000  0.42513906  0.31895497  1.0
  F  F31  1  1.42513906  0.28071000  0.18104503  1.0
  F  F32  1  0.71929000  -0.42513906  0.68104503  1.0
  F  F33  1  0.57486094  -0.28071000  0.81895497  1.0
  F  F34  1  0.73678633  -0.15055796  0.60245289  1.0
  F  F35  1  0.84944204  -0.26321367  0.89754711  1.0
  F  F36  1  1.26321367  0.15055796  0.39754711  1.0
  F  F37  1  1.15055796  0.26321367  0.10245289  1.0
