# generated using pymatgen
data_C10SF7
_symmetry_space_group_name_H-M   'P 1'
_cell_length_a   5.64375172
_cell_length_b   5.64375172
_cell_length_c   18.06208212
_cell_angle_alpha   82.00337968
_cell_angle_beta   97.99662032
_cell_angle_gamma   96.44680500
_symmetry_Int_Tables_number   1
_chemical_formula_structural   C10SF7
_chemical_formula_sum   'C20 S2 F14'
_cell_volume   561.63946823
_cell_formula_units_Z   2
loop_
 _symmetry_equiv_pos_site_id
 _symmetry_equiv_pos_as_xyz
  1  'x, y, z'
loop_
 _atom_site_type_symbol
 _atom_site_label
 _atom_site_symmetry_multiplicity
 _atom_site_fract_x
 _atom_site_fract_y
 _atom_site_fract_z
 _atom_site_occupancy
  C  C0  1  1.31883067  -0.31883067  0.30771596  1.0
  C  C1  1  0.68116933  0.31883067  0.69228404  1.0
  C  C2  1  1.26341271  -0.26341271  0.22999709  1.0
  C  C3  1  0.73658729  0.26341271  0.77000291  1.0
  C  C4  1  1.37081549  -0.37081549  0.17983911  1.0
  C  C5  1  0.62918451  0.37081549  0.82016089  1.0
  C  C6  1  0.53675158  0.46324842  0.21175831  1.0
  C  C7  1  1.46324842  -0.46324842  0.78824169  1.0
  C  C8  1  0.59386222  0.40613778  0.28912740  1.0
  C  C9  1  1.40613778  -0.40613778  0.71087260  1.0
  C  C10  1  1.48594186  -0.48594186  0.33970993  1.0
  C  C11  1  0.51405814  0.48594186  0.66029007  1.0
  C  C12  1  0.51086018  0.48913982  0.42146300  1.0
  C  C13  1  1.48913982  -0.48913982  0.57853700  1.0
  C  C14  1  1.35996208  -0.35996208  0.44663761  1.0
  C  C15  1  0.64003792  0.35996208  0.55336239  1.0
  C  C16  1  1.34968663  -0.34968663  0.52251705  1.0
  C  C17  1  0.65031337  0.34968663  0.47748295  1.0
  C  C18  1  1.32136852  -0.32136852  0.09457545  1.0
  C  C19  1  0.67863148  0.32136852  0.90542455  1.0
  S  S20  1  1.19170094  -0.19170094  0.37375784  1.0
  S  S21  1  0.80829906  0.19170094  0.62624216  1.0
  F  F22  1  1.10128986  -0.10128986  0.20590870  1.0
  F  F23  1  0.89871014  0.10128986  0.79409130  1.0
  F  F24  1  0.64695322  0.35304678  0.16636189  1.0
  F  F25  1  1.35304678  -0.35304678  0.83363811  1.0
  F  F26  1  0.75586970  0.24413030  0.31304996  1.0
  F  F27  1  1.24413030  -0.24413030  0.68695004  1.0
  F  F28  1  1.19945531  -0.19945531  0.53969255  1.0
  F  F29  1  0.80054469  0.19945531  0.46030745  1.0
  F  F30  1  1.52765648  -0.23532363  0.06473164  1.0
  F  F31  1  0.76467637  0.52765648  0.93526836  1.0
  F  F32  1  0.47234352  0.23532363  0.93526836  1.0
  F  F33  1  1.23532363  -0.52765648  0.06473164  1.0
  F  F34  1  1.15926102  -0.15926102  0.07098563  1.0
  F  F35  1  0.84073898  0.15926102  0.92901437  1.0
