# generated using pymatgen
data_Rb3AsO4
_symmetry_space_group_name_H-M   'P 1'
_cell_length_a   12.16326839
_cell_length_b   8.78863651
_cell_length_c   6.47732267
_cell_angle_alpha   90.00000000
_cell_angle_beta   90.00000000
_cell_angle_gamma   90.00000000
_symmetry_Int_Tables_number   1
_chemical_formula_structural   Rb3AsO4
_chemical_formula_sum   'Rb12 As4 O16'
_cell_volume   692.41636620
_cell_formula_units_Z   4
loop_
 _symmetry_equiv_pos_site_id
 _symmetry_equiv_pos_as_xyz
  1  'x, y, z'
loop_
 _atom_site_type_symbol
 _atom_site_label
 _atom_site_symmetry_multiplicity
 _atom_site_fract_x
 _atom_site_fract_y
 _atom_site_fract_z
 _atom_site_occupancy
  Rb  Rb0  1  0.64614471  0.49137206  0.30482223  1.0
  Rb  Rb1  1  0.64614471  0.00862794  0.30482223  1.0
  Rb  Rb2  1  0.14614471  0.49137206  0.19517777  1.0
  Rb  Rb3  1  0.14614471  0.00862794  0.19517777  1.0
  Rb  Rb4  1  0.35385529  0.99137206  0.69517777  1.0
  Rb  Rb5  1  0.35385529  0.50862794  0.69517777  1.0
  Rb  Rb6  1  0.85385529  0.99137206  0.80482223  1.0
  Rb  Rb7  1  0.85385529  0.50862794  0.80482223  1.0
  Rb  Rb8  1  0.57009643  0.25000000  0.85997660  1.0
  Rb  Rb9  1  0.07009643  0.25000000  0.64002340  1.0
  Rb  Rb10  1  0.42990357  0.75000000  0.14002340  1.0
  Rb  Rb11  1  0.92990357  0.75000000  0.35997660  1.0
  As  As12  1  0.88576690  0.25000000  0.21997287  1.0
  As  As13  1  0.38576690  0.25000000  0.28002713  1.0
  As  As14  1  0.11423310  0.75000000  0.78002713  1.0
  As  As15  1  0.61423310  0.75000000  0.71997287  1.0
  O  O16  1  0.88961206  0.41324832  0.37323980  1.0
  O  O17  1  0.88961206  0.08675168  0.37323980  1.0
  O  O18  1  0.38961206  0.41324832  0.12676020  1.0
  O  O19  1  0.38961206  0.08675168  0.12676020  1.0
  O  O20  1  0.11038794  0.91324832  0.62676020  1.0
  O  O21  1  0.11038794  0.58675168  0.62676020  1.0
  O  O22  1  0.61038794  0.91324832  0.87323980  1.0
  O  O23  1  0.61038794  0.58675168  0.87323980  1.0
  O  O24  1  0.99806280  0.25000000  0.05021514  1.0
  O  O25  1  0.49806280  0.25000000  0.44978486  1.0
  O  O26  1  0.00193720  0.75000000  0.94978486  1.0
  O  O27  1  0.50193720  0.75000000  0.55021514  1.0
  O  O28  1  0.76542725  0.25000000  0.07148578  1.0
  O  O29  1  0.26542725  0.25000000  0.42851422  1.0
  O  O30  1  0.23457275  0.75000000  0.92851422  1.0
  O  O31  1  0.73457275  0.75000000  0.57148578  1.0
