# generated using pymatgen
data_LiCa3SbO6
_symmetry_space_group_name_H-M   'P 1'
_cell_length_a   6.59260516
_cell_length_b   6.59260516
_cell_length_c   6.59260516
_cell_angle_alpha   92.34200048
_cell_angle_beta   92.34200048
_cell_angle_gamma   92.34200048
_symmetry_Int_Tables_number   1
_chemical_formula_structural   LiCa3SbO6
_chemical_formula_sum   'Li2 Ca6 Sb2 O12'
_cell_volume   285.79251091
_cell_formula_units_Z   2
loop_
 _symmetry_equiv_pos_site_id
 _symmetry_equiv_pos_as_xyz
  1  'x, y, z'
loop_
 _atom_site_type_symbol
 _atom_site_label
 _atom_site_symmetry_multiplicity
 _atom_site_fract_x
 _atom_site_fract_y
 _atom_site_fract_z
 _atom_site_occupancy
  Li  Li0  1  0.25000000  0.25000000  0.25000000  1.0
  Li  Li1  1  0.75000000  0.75000000  0.75000000  1.0
  Ca  Ca2  1  0.90847704  1.25000000  -0.40847704  1.0
  Ca  Ca3  1  1.40847704  0.09152296  -0.25000000  1.0
  Ca  Ca4  1  0.75000000  0.40847704  0.09152296  1.0
  Ca  Ca5  1  1.25000000  0.59152296  -0.09152296  1.0
  Ca  Ca6  1  1.09152296  -0.25000000  0.40847704  1.0
  Ca  Ca7  1  0.59152296  0.90847704  0.25000000  1.0
  Sb  Sb8  1  0.50000000  0.50000000  0.50000000  1.0
  Sb  Sb9  1  -0.00000000  -0.00000000  -0.00000000  1.0
  O  O10  1  1.20619299  0.43112391  -0.45410622  1.0
  O  O11  1  0.70619299  1.04589378  -0.06887609  1.0
  O  O12  1  0.95410622  0.06887609  0.29380701  1.0
  O  O13  1  1.45410622  -0.20619299  0.56887609  1.0
  O  O14  1  1.56887609  0.45410622  -0.20619299  1.0
  O  O15  1  1.06887609  0.29380701  -0.04589378  1.0
  O  O16  1  0.79380701  0.56887609  0.45410622  1.0
  O  O17  1  1.29380701  -0.04589378  0.06887609  1.0
  O  O18  1  0.54589378  1.20619299  -0.56887609  1.0
  O  O19  1  1.04589378  0.93112391  -0.29380701  1.0
  O  O20  1  0.93112391  0.70619299  0.04589378  1.0
  O  O21  1  0.43112391  0.54589378  0.20619299  1.0
