# generated using pymatgen
data_Gd4(FeB2)3
_symmetry_space_group_name_H-M   'P 1'
_cell_length_a   8.00567040
_cell_length_b   8.00567040
_cell_length_c   8.00567040
_cell_angle_alpha   38.86904934
_cell_angle_beta   38.86904934
_cell_angle_gamma   38.86904934
_symmetry_Int_Tables_number   1
_chemical_formula_structural   Gd4(FeB2)3
_chemical_formula_sum   'Gd4 Fe3 B6'
_cell_volume   181.67069416
_cell_formula_units_Z   1
loop_
 _symmetry_equiv_pos_site_id
 _symmetry_equiv_pos_as_xyz
  1  'x, y, z'
loop_
 _atom_site_type_symbol
 _atom_site_label
 _atom_site_symmetry_multiplicity
 _atom_site_fract_x
 _atom_site_fract_y
 _atom_site_fract_z
 _atom_site_occupancy
  Fe  Fe0  1  0.88577259  -0.11422741  -0.11422741  1.0
  Fe  Fe1  1  0.11422741  0.11422741  0.11422741  1.0
  Fe  Fe2  1  0.00000000  0.00000000  0.00000000  1.0
  Gd  Gd3  1  0.58818756  0.58818756  -0.41181244  1.0
  Gd  Gd4  1  0.41181244  0.41181244  -0.58818756  1.0
  Gd  Gd5  1  0.74385928  -0.25614072  -0.25614072  1.0
  Gd  Gd6  1  0.25614072  0.25614072  0.25614072  1.0
  B  B7  1  0.83275153  0.16724847  -0.50000000  1.0
  B  B8  1  1.16724847  -0.50000000  -0.16724847  1.0
  B  B9  1  0.50000000  -0.16724847  0.16724847  1.0
  B  B10  1  0.83275153  -0.50000000  0.16724847  1.0
  B  B11  1  0.50000000  0.16724847  -0.16724847  1.0
  B  B12  1  1.16724847  -0.16724847  -0.50000000  1.0
