# generated using pymatgen
data_KGa(PO3)4
_symmetry_space_group_name_H-M   'P 1'
_cell_length_a   10.53537976
_cell_length_b   10.53537976
_cell_length_c   5.21803354
_cell_angle_alpha   81.36779625
_cell_angle_beta   98.63220375
_cell_angle_gamma   107.64487625
_symmetry_Int_Tables_number   1
_chemical_formula_structural   KGa(PO3)4
_chemical_formula_sum   'K2 Ga2 P8 O24'
_cell_volume   542.29844647
_cell_formula_units_Z   2
loop_
 _symmetry_equiv_pos_site_id
 _symmetry_equiv_pos_as_xyz
  1  'x, y, z'
loop_
 _atom_site_type_symbol
 _atom_site_label
 _atom_site_symmetry_multiplicity
 _atom_site_fract_x
 _atom_site_fract_y
 _atom_site_fract_z
 _atom_site_occupancy
  K  K0  1  0.59271375  -0.59271375  0.73590240  1.0
  K  K1  1  0.40728625  -0.40728625  0.26409760  1.0
  Ga  Ga2  1  1.50000000  0.00000000  0.00000000  1.0
  Ga  Ga3  1  1.00000000  -0.50000000  0.00000000  1.0
  P  P4  1  0.64504857  -0.20086789  0.83639803  1.0
  P  P5  1  1.20086789  0.35495143  0.83639803  1.0
  P  P6  1  0.79913211  -0.35495143  0.16360197  1.0
  P  P7  1  1.35495143  0.20086789  0.16360197  1.0
  P  P8  1  1.69148226  0.06852712  0.53395529  1.0
  P  P9  1  0.93147288  -0.69148226  0.53395529  1.0
  P  P10  1  1.06852712  0.69148226  0.46604471  1.0
  P  P11  1  0.30851774  -0.06852712  0.46604471  1.0
  O  O12  1  0.56963750  -0.32363858  0.71178310  1.0
  O  O13  1  1.32363858  0.43036250  0.71178310  1.0
  O  O14  1  0.67636142  -0.43036250  0.28821690  1.0
  O  O15  1  1.43036250  0.32363858  0.28821690  1.0
  O  O16  1  0.70820129  -0.07806410  0.62007334  1.0
  O  O17  1  1.07806410  0.29179871  0.62007334  1.0
  O  O18  1  0.92193590  -0.29179871  0.37992666  1.0
  O  O19  1  1.29179871  0.07806410  0.37992666  1.0
  O  O20  1  1.60055890  0.10036456  0.69958956  1.0
  O  O21  1  0.89963544  -0.60055890  0.69958956  1.0
  O  O22  1  1.10036456  0.60055890  0.30041044  1.0
  O  O23  1  0.39944110  -0.10036456  0.30041044  1.0
  O  O24  1  0.34246792  -0.08870492  0.75773572  1.0
  O  O25  1  1.08870492  0.65753208  0.75773572  1.0
  O  O26  1  0.91129508  -0.65753208  0.24226428  1.0
  O  O27  1  1.65753208  0.08870492  0.24226428  1.0
  O  O28  1  1.42700540  0.15068577  0.98448795  1.0
  O  O29  1  0.84931423  -0.42700540  0.98448795  1.0
  O  O30  1  1.15068577  0.42700540  0.01551205  1.0
  O  O31  1  0.57299460  -0.15068577  0.01551205  1.0
  O  O32  1  0.84372732  -0.84372732  0.60608242  1.0
  O  O33  1  0.15627268  -0.15627268  0.39391758  1.0
  O  O34  1  0.78518853  -0.21481147  0.00000000  1.0
  O  O35  1  1.21481147  0.21481147  0.00000000  1.0
