# generated using pymatgen
data_Mn(CrSe2)2
_symmetry_space_group_name_H-M   'P 1'
_cell_length_a   7.08411380
_cell_length_b   7.08411380
_cell_length_c   6.43795308
_cell_angle_alpha   62.79605202
_cell_angle_beta   117.20394798
_cell_angle_gamma   149.58943723
_symmetry_Int_Tables_number   1
_chemical_formula_structural   Mn(CrSe2)2
_chemical_formula_sum   'Mn1 Cr2 Se4'
_cell_volume   144.02715555
_cell_formula_units_Z   1
loop_
 _symmetry_equiv_pos_site_id
 _symmetry_equiv_pos_as_xyz
  1  'x, y, z'
loop_
 _atom_site_type_symbol
 _atom_site_label
 _atom_site_symmetry_multiplicity
 _atom_site_fract_x
 _atom_site_fract_y
 _atom_site_fract_z
 _atom_site_occupancy
  Mn  Mn0  1  0.00000000  0.00000000  0.00000000  1.0
  Cr  Cr1  1  0.74199819  -0.74199819  0.72870628  1.0
  Cr  Cr2  1  1.25800181  -0.25800181  0.27129372  1.0
  Se  Se3  1  0.87029436  -0.87029436  0.54336918  1.0
  Se  Se4  1  1.12970564  -0.12970564  0.45663082  1.0
  Se  Se5  1  0.63592003  -0.63592003  0.97333523  1.0
  Se  Se6  1  1.36407997  -0.36407997  0.02666477  1.0
