# generated using pymatgen
data_FeMoO4
_symmetry_space_group_name_H-M   'P 1'
_cell_length_a   4.94717240
_cell_length_b   4.67544957
_cell_length_c   5.71910417
_cell_angle_alpha   89.90698626
_cell_angle_beta   90.03102121
_cell_angle_gamma   90.50172105
_symmetry_Int_Tables_number   1
_chemical_formula_structural   FeMoO4
_chemical_formula_sum   'Fe2 Mo2 O8'
_cell_volume   132.27907363
_cell_formula_units_Z   2
loop_
 _symmetry_equiv_pos_site_id
 _symmetry_equiv_pos_as_xyz
  1  'x, y, z'
loop_
 _atom_site_type_symbol
 _atom_site_label
 _atom_site_symmetry_multiplicity
 _atom_site_fract_x
 _atom_site_fract_y
 _atom_site_fract_z
 _atom_site_occupancy
  Fe  Fe0  1  -0.75016007  -0.50002689  -0.66798687  1.0
  Fe  Fe1  1  -0.24983993  -0.49997311  -0.33201313  1.0
  Mo  Mo2  1  -0.25000218  -0.99916348  -0.81854620  1.0
  Mo  Mo3  1  -0.74999782  -0.00083652  -0.18145380  1.0
  O  O4  1  -0.92892205  -0.77849947  -0.88751986  1.0
  O  O5  1  -0.07107795  -0.22150053  -0.11248014  1.0
  O  O6  1  -0.40341687  -0.73940139  -0.62445700  1.0
  O  O7  1  -0.59658313  -0.26059861  -0.37554300  1.0
  O  O8  1  -0.57139574  -0.22100499  -0.88746475  1.0
  O  O9  1  -0.42860426  -0.77899501  -0.11253525  1.0
  O  O10  1  -0.90323032  -0.73926874  -0.37522160  1.0
  O  O11  1  -0.09676968  -0.26073126  -0.62477840  1.0
