# generated using pymatgen
data_MnH8(N2Cl)2
_symmetry_space_group_name_H-M   'P 1'
_cell_length_a   6.30076535
_cell_length_b   6.30076535
_cell_length_c   4.40424405
_cell_angle_alpha   91.23539253
_cell_angle_beta   88.76460747
_cell_angle_gamma   89.28838910
_symmetry_Int_Tables_number   1
_chemical_formula_structural   MnH8(N2Cl)2
_chemical_formula_sum   'Mn1 H8 N4 Cl2'
_cell_volume   174.75112529
_cell_formula_units_Z   1
loop_
 _symmetry_equiv_pos_site_id
 _symmetry_equiv_pos_as_xyz
  1  'x, y, z'
loop_
 _atom_site_type_symbol
 _atom_site_label
 _atom_site_symmetry_multiplicity
 _atom_site_fract_x
 _atom_site_fract_y
 _atom_site_fract_z
 _atom_site_occupancy
  Mn  Mn0  1  0.00000000  0.00000000  0.00000000  1.0
  H  H1  1  1.65311818  -0.21444244  0.71450243  1.0
  H  H2  1  1.21444244  -0.65311818  0.71450243  1.0
  H  H3  1  0.78555756  0.65311818  0.28549757  1.0
  H  H4  1  0.34688182  0.21444244  0.28549757  1.0
  H  H5  1  1.70250442  0.01287271  0.54994508  1.0
  H  H6  1  0.98712729  -0.70250442  0.54994508  1.0
  H  H7  1  1.01287271  0.70250442  0.45005492  1.0
  H  H8  1  0.29749558  -0.01287271  0.45005492  1.0
  N  N9  1  1.77362178  -0.12207857  0.63021382  1.0
  N  N10  1  1.12207857  -0.77362178  0.63021382  1.0
  N  N11  1  0.87792143  0.77362178  0.36978618  1.0
  N  N12  1  0.22637822  0.12207857  0.36978618  1.0
  Cl  Cl13  1  0.72384638  0.27615362  0.15633909  1.0
  Cl  Cl14  1  1.27615362  -0.27615362  -0.15633909  1.0
