# generated using pymatgen
data_Mg(BC)2
_symmetry_space_group_name_H-M   'P 1'
_cell_length_a   7.22072708
_cell_length_b   7.22072708
_cell_length_c   7.45031476
_cell_angle_alpha   90.00000000
_cell_angle_beta   90.00000000
_cell_angle_gamma   81.82405472
_symmetry_Int_Tables_number   1
_chemical_formula_structural   Mg(BC)2
_chemical_formula_sum   'Mg8 B16 C16'
_cell_volume   384.50300469
_cell_formula_units_Z   8
loop_
 _symmetry_equiv_pos_site_id
 _symmetry_equiv_pos_as_xyz
  1  'x, y, z'
loop_
 _atom_site_type_symbol
 _atom_site_label
 _atom_site_symmetry_multiplicity
 _atom_site_fract_x
 _atom_site_fract_y
 _atom_site_fract_z
 _atom_site_occupancy
  Mg  Mg0  1  -0.22121822  1.22121822  0.48981736  1.0
  Mg  Mg1  1  0.27878178  0.72121822  0.01018264  1.0
  Mg  Mg2  1  0.22121822  0.77878178  0.51018264  1.0
  Mg  Mg3  1  -0.27878178  1.27878178  0.98981736  1.0
  Mg  Mg4  1  0.34762377  1.34762377  0.50000000  1.0
  Mg  Mg5  1  -0.15237623  0.84762377  0.00000000  1.0
  Mg  Mg6  1  -0.34762377  0.65237623  0.50000000  1.0
  Mg  Mg7  1  0.15237623  1.15237623  0.00000000  1.0
  B  B8  1  -0.46817786  1.21283599  0.24522850  1.0
  B  B9  1  0.03182214  0.71283599  0.25477150  1.0
  B  B10  1  0.21283599  0.53182214  0.75477150  1.0
  B  B11  1  -0.28716401  1.03182214  0.74522850  1.0
  B  B12  1  -0.21283599  1.46817786  0.24522850  1.0
  B  B13  1  0.28716401  0.96817786  0.25477150  1.0
  B  B14  1  0.46817786  0.78716401  0.75477150  1.0
  B  B15  1  -0.03182214  1.28716401  0.74522850  1.0
  B  B16  1  -0.08818252  1.08818252  0.22484453  1.0
  B  B17  1  0.41181748  0.58818252  0.27515547  1.0
  B  B18  1  0.08818252  0.91181748  0.77515547  1.0
  B  B19  1  -0.41181748  1.41181748  0.72484453  1.0
  B  B20  1  -0.34368416  0.84368416  0.25000000  1.0
  B  B21  1  0.15631584  1.34368416  0.25000000  1.0
  B  B22  1  -0.15631584  0.65631584  0.75000000  1.0
  B  B23  1  0.34368416  1.15631584  0.75000000  1.0
  C  C24  1  -0.29889838  1.04982533  0.22501299  1.0
  C  C25  1  0.20110162  0.54982533  0.27498701  1.0
  C  C26  1  0.04982533  0.70110162  0.77498701  1.0
  C  C27  1  -0.45017467  1.20110162  0.72501299  1.0
  C  C28  1  -0.04982533  1.29889838  0.22501299  1.0
  C  C29  1  0.45017467  0.79889838  0.27498701  1.0
  C  C30  1  0.29889838  0.95017467  0.77498701  1.0
  C  C31  1  -0.20110162  1.45017467  0.72501299  1.0
  C  C32  1  -0.42044386  1.42044386  0.26915542  1.0
  C  C33  1  0.07955614  0.92044386  0.23084458  1.0
  C  C34  1  0.42044386  0.57955614  0.73084458  1.0
  C  C35  1  -0.07955614  1.07955614  0.76915542  1.0
  C  C36  1  0.32358022  1.17641978  0.25000000  1.0
  C  C37  1  -0.17641978  0.67641978  0.25000000  1.0
  C  C38  1  0.17641978  1.32358022  0.75000000  1.0
  C  C39  1  -0.32358022  0.82358022  0.75000000  1.0
