# generated using pymatgen
data_Cs3H(SeO4)2
_symmetry_space_group_name_H-M   'P 1'
_cell_length_a   6.56404900
_cell_length_b   6.56404900
_cell_length_c   8.89965683
_cell_angle_alpha   67.54096613
_cell_angle_beta   112.45903387
_cell_angle_gamma   121.95581679
_symmetry_Int_Tables_number   1
_chemical_formula_structural   Cs3H(SeO4)2
_chemical_formula_sum   'Cs3 H1 Se2 O8'
_cell_volume   292.65572779
_cell_formula_units_Z   1
loop_
 _symmetry_equiv_pos_site_id
 _symmetry_equiv_pos_as_xyz
  1  'x, y, z'
loop_
 _atom_site_type_symbol
 _atom_site_label
 _atom_site_symmetry_multiplicity
 _atom_site_fract_x
 _atom_site_fract_y
 _atom_site_fract_z
 _atom_site_occupancy
  Cs  Cs0  1  0.80530584  -0.80530584  0.37396480  1.0
  Cs  Cs1  1  0.19469416  -0.19469416  0.62603520  1.0
  Cs  Cs2  1  0.00000000  0.00000000  0.00000000  1.0
  H  H3  1  0.50000000  -0.50000000  0.00000000  1.0
  Se  Se4  1  0.56480838  -0.56480838  0.77136803  1.0
  Se  Se5  1  0.43519162  -0.43519162  0.22863197  1.0
  O  O6  1  0.69422623  -0.26240602  0.69095331  1.0
  O  O7  1  1.26240602  0.30577377  0.69095331  1.0
  O  O8  1  0.73759398  -0.30577377  0.30904669  1.0
  O  O9  1  1.30577377  0.26240602  0.30904669  1.0
  O  O10  1  0.70458719  -0.70458719  0.76022638  1.0
  O  O11  1  0.29541281  -0.29541281  0.23977362  1.0
  O  O12  1  0.59941235  -0.59941235  0.98174286  1.0
  O  O13  1  0.40058765  -0.40058765  0.01825714  1.0
