# generated using pymatgen
data_Ti3H2O7
_symmetry_space_group_name_H-M   'P 1'
_cell_length_a   8.22754093
_cell_length_b   8.22754093
_cell_length_c   9.17225195
_cell_angle_alpha   77.64662176
_cell_angle_beta   102.35337824
_cell_angle_gamma   153.52194066
_symmetry_Int_Tables_number   1
_chemical_formula_structural   Ti3H2O7
_chemical_formula_sum   'Ti6 H4 O14'
_cell_volume   270.05916727
_cell_formula_units_Z   2
loop_
 _symmetry_equiv_pos_site_id
 _symmetry_equiv_pos_as_xyz
  1  'x, y, z'
loop_
 _atom_site_type_symbol
 _atom_site_label
 _atom_site_symmetry_multiplicity
 _atom_site_fract_x
 _atom_site_fract_y
 _atom_site_fract_z
 _atom_site_occupancy
  Ti  Ti0  1  0.88048569  0.11951431  0.67284144  1.0
  Ti  Ti1  1  0.11951431  -0.11951431  0.32715856  1.0
  Ti  Ti2  1  0.83203475  0.16796525  0.98728305  1.0
  Ti  Ti3  1  0.16796525  -0.16796525  0.01271695  1.0
  Ti  Ti4  1  0.76821885  0.23178115  0.28270096  1.0
  Ti  Ti5  1  0.23178115  -0.23178115  0.71729904  1.0
  H  H6  1  0.95233809  0.04766191  0.29787164  1.0
  H  H7  1  0.04766191  -0.04766191  0.70212836  1.0
  H  H8  1  0.00000000  -0.00000000  0.50000000  1.0
  H  H9  1  0.00000000  0.00000000  0.00000000  1.0
  O  O10  1  0.99025615  0.00974385  0.62749926  1.0
  O  O11  1  0.00974385  -0.00974385  0.37250074  1.0
  O  O12  1  0.92945945  0.07054055  0.91345793  1.0
  O  O13  1  0.07054055  -0.07054055  0.08654207  1.0
  O  O14  1  0.86434574  0.13565426  0.19104171  1.0
  O  O15  1  0.13565426  -0.13565426  0.80895829  1.0
  O  O16  1  0.82710126  0.17289874  0.47162362  1.0
  O  O17  1  0.17289874  -0.17289874  0.52837638  1.0
  O  O18  1  0.76505342  0.23494658  0.75434008  1.0
  O  O19  1  0.23494658  -0.23494658  0.24565992  1.0
  O  O20  1  0.35493415  -0.35493415  0.68703816  1.0
  O  O21  1  0.64506585  0.35493415  0.31296184  1.0
  O  O22  1  0.29616824  -0.29616824  0.95872765  1.0
  O  O23  1  0.70383176  0.29616824  0.04127235  1.0
