# generated using pymatgen
data_EuInAg5
_symmetry_space_group_name_H-M   'P 1'
_cell_length_a   9.14405445
_cell_length_b   5.71310374
_cell_length_c   11.49010888
_cell_angle_alpha   90.00000000
_cell_angle_beta   90.00000000
_cell_angle_gamma   90.00000000
_symmetry_Int_Tables_number   1
_chemical_formula_structural   EuInAg5
_chemical_formula_sum   'Eu4 In4 Ag20'
_cell_volume   600.25399335
_cell_formula_units_Z   4
loop_
 _symmetry_equiv_pos_site_id
 _symmetry_equiv_pos_as_xyz
  1  'x, y, z'
loop_
 _atom_site_type_symbol
 _atom_site_label
 _atom_site_symmetry_multiplicity
 _atom_site_fract_x
 _atom_site_fract_y
 _atom_site_fract_z
 _atom_site_occupancy
  Eu  Eu0  1  0.74241657  0.25000000  0.06056555  1.0
  Eu  Eu1  1  0.75758343  0.75000000  0.56056555  1.0
  Eu  Eu2  1  0.25758343  0.75000000  0.93943445  1.0
  Eu  Eu3  1  0.24241657  0.25000000  0.43943445  1.0
  In  In4  1  0.35478324  0.25000000  0.14619924  1.0
  In  In5  1  0.14521676  0.75000000  0.64619924  1.0
  In  In6  1  0.64521676  0.75000000  0.85380076  1.0
  In  In7  1  0.85478324  0.25000000  0.35380076  1.0
  Ag  Ag8  1  0.09658132  0.25000000  0.98071245  1.0
  Ag  Ag9  1  0.40341868  0.75000000  0.48071245  1.0
  Ag  Ag10  1  0.90341868  0.75000000  0.01928755  1.0
  Ag  Ag11  1  0.59658132  0.25000000  0.51928755  1.0
  Ag  Ag12  1  0.68259271  0.25000000  0.75934886  1.0
  Ag  Ag13  1  0.81740729  0.75000000  0.25934886  1.0
  Ag  Ag14  1  0.31740729  0.75000000  0.24065114  1.0
  Ag  Ag15  1  0.18259271  0.25000000  0.74065114  1.0
  Ag  Ag16  1  0.06507423  0.00651290  0.19289993  1.0
  Ag  Ag17  1  0.43492577  0.99348710  0.69289993  1.0
  Ag  Ag18  1  0.93492577  0.50651290  0.80710007  1.0
  Ag  Ag19  1  0.56507423  0.49348710  0.30710007  1.0
  Ag  Ag20  1  0.93492577  0.99348710  0.80710007  1.0
  Ag  Ag21  1  0.56507423  0.00651290  0.30710007  1.0
  Ag  Ag22  1  0.06507423  0.49348710  0.19289993  1.0
  Ag  Ag23  1  0.43492577  0.50651290  0.69289993  1.0
  Ag  Ag24  1  0.43123942  0.25000000  0.91156417  1.0
  Ag  Ag25  1  0.06876058  0.75000000  0.41156417  1.0
  Ag  Ag26  1  0.56876058  0.75000000  0.08843583  1.0
  Ag  Ag27  1  0.93123942  0.25000000  0.58843583  1.0
