# generated using pymatgen
data_InHg
_symmetry_space_group_name_H-M   'P 1'
_cell_length_a   4.97447784
_cell_length_b   4.97447784
_cell_length_c   4.97447784
_cell_angle_alpha   44.16940228
_cell_angle_beta   44.16940228
_cell_angle_gamma   44.16940228
_symmetry_Int_Tables_number   1
_chemical_formula_structural   InHg
_chemical_formula_sum   'In1 Hg1'
_cell_volume   54.30070344
_cell_formula_units_Z   1
loop_
 _symmetry_equiv_pos_site_id
 _symmetry_equiv_pos_as_xyz
  1  'x, y, z'
loop_
 _atom_site_type_symbol
 _atom_site_label
 _atom_site_symmetry_multiplicity
 _atom_site_fract_x
 _atom_site_fract_y
 _atom_site_fract_z
 _atom_site_occupancy
  In  In0  1  1.50000000  0.50000000  0.50000000  1.0
  Hg  Hg1  1  0.00000000  0.00000000  0.00000000  1.0
