# generated using pymatgen
data_Cs2K4Fe2O5
_symmetry_space_group_name_H-M   'P 1'
_cell_length_a   6.71564209
_cell_length_b   6.71564209
_cell_length_c   7.05620100
_cell_angle_alpha   89.27234581
_cell_angle_beta   90.72765419
_cell_angle_gamma   64.08318737
_symmetry_Int_Tables_number   1
_chemical_formula_structural   Cs2K4Fe2O5
_chemical_formula_sum   'Cs2 K4 Fe2 O5'
_cell_volume   286.14669032
_cell_formula_units_Z   1
loop_
 _symmetry_equiv_pos_site_id
 _symmetry_equiv_pos_as_xyz
  1  'x, y, z'
loop_
 _atom_site_type_symbol
 _atom_site_label
 _atom_site_symmetry_multiplicity
 _atom_site_fract_x
 _atom_site_fract_y
 _atom_site_fract_z
 _atom_site_occupancy
  Cs  Cs0  1  0.66840636  -0.66840636  0.79770847  1.0
  Cs  Cs1  1  0.33159364  -0.33159364  0.20229153  1.0
  K  K2  1  1.23786920  0.23786920  0.50000000  1.0
  K  K3  1  0.76213080  -0.23786920  0.50000000  1.0
  K  K4  1  0.78183437  -0.21816563  0.00000000  1.0
  K  K5  1  1.21816563  0.21816563  0.00000000  1.0
  Fe  Fe6  1  0.80246050  -0.80246050  0.30626696  1.0
  Fe  Fe7  1  0.19753950  -0.19753950  0.69373304  1.0
  O  O8  1  1.14271283  0.56668399  0.76910719  1.0
  O  O9  1  0.43331601  -0.14271283  0.76910719  1.0
  O  O10  1  0.85728717  -0.56668399  0.23089281  1.0
  O  O11  1  1.56668399  0.14271283  0.23089281  1.0
  O  O12  1  -0.00000000  0.00000000  0.50000000  1.0
