# generated using pymatgen
data_AlTlSiO4
_symmetry_space_group_name_H-M   'P 1'
_cell_length_a   5.46430314
_cell_length_b   8.48501977
_cell_length_c   11.04826279
_cell_angle_alpha   90.00000000
_cell_angle_beta   119.66706582
_cell_angle_gamma   90.00000000
_symmetry_Int_Tables_number   1
_chemical_formula_structural   AlTlSiO4
_chemical_formula_sum   'Al4 Tl4 Si4 O16'
_cell_volume   445.10196874
_cell_formula_units_Z   4
loop_
 _symmetry_equiv_pos_site_id
 _symmetry_equiv_pos_as_xyz
  1  'x, y, z'
loop_
 _atom_site_type_symbol
 _atom_site_label
 _atom_site_symmetry_multiplicity
 _atom_site_fract_x
 _atom_site_fract_y
 _atom_site_fract_z
 _atom_site_occupancy
  Al  Al0  1  0.34332373  0.18519397  0.09408994  1.0
  Al  Al1  1  0.34332373  0.31480603  0.59408994  1.0
  Al  Al2  1  0.65667627  0.68519397  0.40591006  1.0
  Al  Al3  1  0.65667627  0.81480603  0.90591006  1.0
  Tl  Tl4  1  0.92581760  0.51592884  0.17627608  1.0
  Tl  Tl5  1  0.92581760  0.98407116  0.67627608  1.0
  Tl  Tl6  1  0.07418240  0.01592884  0.32372392  1.0
  Tl  Tl7  1  0.07418240  0.48407116  0.82372392  1.0
  Si  Si8  1  0.67934198  0.29308074  0.43021620  1.0
  Si  Si9  1  0.67934198  0.20691926  0.93021620  1.0
  Si  Si10  1  0.32065802  0.79308074  0.06978380  1.0
  Si  Si11  1  0.32065802  0.70691926  0.56978380  1.0
  O  O12  1  1.00531347  0.22333611  0.51160609  1.0
  O  O13  1  1.00531347  0.27666389  0.01160609  1.0
  O  O14  1  -0.00531347  0.72333611  0.98839391  1.0
  O  O15  1  -0.00531347  0.77666389  0.48839391  1.0
  O  O16  1  0.67954146  0.48274536  0.42978960  1.0
  O  O17  1  0.67954146  0.01725464  0.92978960  1.0
  O  O18  1  0.32045854  0.98274536  0.07021040  1.0
  O  O19  1  0.32045854  0.51725464  0.57021040  1.0
  O  O20  1  0.52452478  0.27641018  0.01575399  1.0
  O  O21  1  0.52452478  0.22358982  0.51575399  1.0
  O  O22  1  0.47547522  0.77641018  0.48424601  1.0
  O  O23  1  0.47547522  0.72358982  0.98424601  1.0
  O  O24  1  0.51709593  0.22107322  0.27330245  1.0
  O  O25  1  0.51709593  0.27892678  0.77330245  1.0
  O  O26  1  0.48290407  0.72107322  0.22669755  1.0
  O  O27  1  0.48290407  0.77892678  0.72669755  1.0
