# generated using pymatgen
data_Y(GeRh2)2
_symmetry_space_group_name_H-M   'P 1'
_cell_length_a   11.47953317
_cell_length_b   4.20588045
_cell_length_c   9.18328471
_cell_angle_alpha   90.00000000
_cell_angle_beta   90.00000000
_cell_angle_gamma   90.00000000
_symmetry_Int_Tables_number   1
_chemical_formula_structural   Y(GeRh2)2
_chemical_formula_sum   'Y4 Ge8 Rh16'
_cell_volume   443.38316596
_cell_formula_units_Z   4
loop_
 _symmetry_equiv_pos_site_id
 _symmetry_equiv_pos_as_xyz
  1  'x, y, z'
loop_
 _atom_site_type_symbol
 _atom_site_label
 _atom_site_symmetry_multiplicity
 _atom_site_fract_x
 _atom_site_fract_y
 _atom_site_fract_z
 _atom_site_occupancy
  Y  Y0  1  0.17419045  0.75000000  0.85063540  1.0
  Y  Y1  1  0.67419045  0.75000000  0.64936460  1.0
  Y  Y2  1  0.82580955  0.25000000  0.14936460  1.0
  Y  Y3  1  0.32580955  0.25000000  0.35063540  1.0
  Ge  Ge4  1  0.44068711  0.75000000  0.11800326  1.0
  Ge  Ge5  1  0.94068711  0.75000000  0.38199674  1.0
  Ge  Ge6  1  0.55931289  0.25000000  0.88199674  1.0
  Ge  Ge7  1  0.05931289  0.25000000  0.61800326  1.0
  Ge  Ge8  1  0.36172179  0.75000000  0.58558314  1.0
  Ge  Ge9  1  0.86172179  0.75000000  0.91441686  1.0
  Ge  Ge10  1  0.63827821  0.25000000  0.41441686  1.0
  Ge  Ge11  1  0.13827821  0.25000000  0.08558314  1.0
  Rh  Rh12  1  0.43916182  0.75000000  0.82850031  1.0
  Rh  Rh13  1  0.93916182  0.75000000  0.67149969  1.0
  Rh  Rh14  1  0.56083818  0.25000000  0.17149969  1.0
  Rh  Rh15  1  0.06083818  0.25000000  0.32850031  1.0
  Rh  Rh16  1  0.23045267  0.75000000  0.18920886  1.0
  Rh  Rh17  1  0.73045267  0.75000000  0.31079114  1.0
  Rh  Rh18  1  0.76954733  0.25000000  0.81079114  1.0
  Rh  Rh19  1  0.26954733  0.25000000  0.68920886  1.0
  Rh  Rh20  1  0.15497398  0.75000000  0.50346628  1.0
  Rh  Rh21  1  0.65497398  0.75000000  0.99653372  1.0
  Rh  Rh22  1  0.84502602  0.25000000  0.49653372  1.0
  Rh  Rh23  1  0.34502602  0.25000000  0.00346628  1.0
  Rh  Rh24  1  0.00172095  0.75000000  0.11554263  1.0
  Rh  Rh25  1  0.50172095  0.75000000  0.38445737  1.0
  Rh  Rh26  1  0.99827905  0.25000000  0.88445737  1.0
  Rh  Rh27  1  0.49827905  0.25000000  0.61554263  1.0
