# generated using pymatgen
data_VSi2
_symmetry_space_group_name_H-M   'P 1'
_cell_length_a   4.56141871
_cell_length_b   4.56141871
_cell_length_c   6.36697136
_cell_angle_alpha   90.00000000
_cell_angle_beta   90.00000000
_cell_angle_gamma   120.00000000
_symmetry_Int_Tables_number   1
_chemical_formula_structural   VSi2
_chemical_formula_sum   'V3 Si6'
_cell_volume   114.72641083
_cell_formula_units_Z   3
loop_
 _symmetry_equiv_pos_site_id
 _symmetry_equiv_pos_as_xyz
  1  'x, y, z'
loop_
 _atom_site_type_symbol
 _atom_site_label
 _atom_site_symmetry_multiplicity
 _atom_site_fract_x
 _atom_site_fract_y
 _atom_site_fract_z
 _atom_site_occupancy
  V  V0  1  0.50000000  0.50000000  0.33333333  1.0
  V  V1  1  0.50000000  0.00000000  0.00000000  1.0
  V  V2  1  0.00000000  0.50000000  0.66666667  1.0
  Si  Si3  1  0.16287397  0.83712604  0.33333333  1.0
  Si  Si4  1  0.16287396  0.32574793  0.00000000  1.0
  Si  Si5  1  0.83712603  0.16287396  0.33333333  1.0
  Si  Si6  1  0.83712604  0.67425207  0.00000000  1.0
  Si  Si7  1  0.67425207  0.83712604  0.66666667  1.0
  Si  Si8  1  0.32574793  0.16287396  0.66666667  1.0
