# generated using pymatgen
data_BaCrCdF7
_symmetry_space_group_name_H-M   'P 1'
_cell_length_a   7.59285164
_cell_length_b   7.59285164
_cell_length_c   15.24812308
_cell_angle_alpha   88.91072263
_cell_angle_beta   91.08927737
_cell_angle_gamma   137.97640356
_symmetry_Int_Tables_number   1
_chemical_formula_structural   BaCrCdF7
_chemical_formula_sum   'Ba4 Cr4 Cd4 F28'
_cell_volume   588.36333292
_cell_formula_units_Z   4
loop_
 _symmetry_equiv_pos_site_id
 _symmetry_equiv_pos_as_xyz
  1  'x, y, z'
loop_
 _atom_site_type_symbol
 _atom_site_label
 _atom_site_symmetry_multiplicity
 _atom_site_fract_x
 _atom_site_fract_y
 _atom_site_fract_z
 _atom_site_occupancy
  Ba  Ba0  1  0.65149595  0.27471875  0.62545838  1.0
  Ba  Ba1  1  0.72528125  0.34850405  0.12545838  1.0
  Ba  Ba2  1  1.27471875  0.65149595  0.87454162  1.0
  Ba  Ba3  1  0.34850405  -0.27471875  0.37454162  1.0
  Cr  Cr4  1  0.39106007  -0.35989940  0.62479636  1.0
  Cr  Cr5  1  1.35989940  0.60893993  0.12479636  1.0
  Cr  Cr6  1  0.64010060  0.39106007  0.87520364  1.0
  Cr  Cr7  1  0.60893993  0.35989940  0.37520364  1.0
  Cd  Cd8  1  0.96135482  0.96135482  0.75000000  1.0
  Cd  Cd9  1  0.03864518  0.03864518  0.25000000  1.0
  Cd  Cd10  1  0.00000000  0.00000000  0.00000000  1.0
  Cd  Cd11  1  0.00000000  -0.00000000  0.50000000  1.0
  F  F12  1  0.62156166  -0.37253691  0.84732155  1.0
  F  F13  1  1.37253691  0.37843834  0.34732155  1.0
  F  F14  1  0.62746309  0.62156166  0.65267845  1.0
  F  F15  1  0.37843834  0.37253691  0.15267845  1.0
  F  F16  1  0.83167582  -0.04718550  0.37277821  1.0
  F  F17  1  1.04718550  0.16832418  0.87277821  1.0
  F  F18  1  0.95281450  0.83167582  0.12722179  1.0
  F  F19  1  0.16832418  0.04718550  0.62722179  1.0
  F  F20  1  0.66136789  -0.06030458  0.54833809  1.0
  F  F21  1  1.06030458  0.33863211  0.04833809  1.0
  F  F22  1  0.93969542  0.66136789  0.95166191  1.0
  F  F23  1  0.33863211  0.06030458  0.45166191  1.0
  F  F24  1  0.55463905  -0.11651067  0.72174983  1.0
  F  F25  1  1.11651067  0.44536095  0.22174983  1.0
  F  F26  1  0.88348933  0.55463905  0.77825017  1.0
  F  F27  1  0.44536095  0.11651067  0.27825017  1.0
  F  F28  1  0.69085212  0.18604041  0.90237582  1.0
  F  F29  1  0.81395959  0.30914788  0.40237582  1.0
  F  F30  1  1.18604041  0.69085212  0.59762418  1.0
  F  F31  1  0.30914788  -0.18604041  0.09762418  1.0
  F  F32  1  0.35914211  0.11736097  0.79741173  1.0
  F  F33  1  0.88263903  0.64085789  0.29741173  1.0
  F  F34  1  1.11736097  0.35914211  0.70258827  1.0
  F  F35  1  0.64085789  -0.11736097  0.20258827  1.0
  F  F36  1  0.42962122  0.24840733  0.97991948  1.0
  F  F37  1  0.75159267  0.57037878  0.47991948  1.0
  F  F38  1  1.24840733  0.42962122  0.52008052  1.0
  F  F39  1  0.57037878  -0.24840733  0.02008052  1.0
