# generated using pymatgen
data_YSO4F
_symmetry_space_group_name_H-M   'P 1'
_cell_length_a   8.38311997
_cell_length_b   6.99497209
_cell_length_c   6.45774164
_cell_angle_alpha   90.00000000
_cell_angle_beta   90.00000000
_cell_angle_gamma   90.00000000
_symmetry_Int_Tables_number   1
_chemical_formula_structural   YSO4F
_chemical_formula_sum   'Y4 S4 O16 F4'
_cell_volume   378.67996968
_cell_formula_units_Z   4
loop_
 _symmetry_equiv_pos_site_id
 _symmetry_equiv_pos_as_xyz
  1  'x, y, z'
loop_
 _atom_site_type_symbol
 _atom_site_label
 _atom_site_symmetry_multiplicity
 _atom_site_fract_x
 _atom_site_fract_y
 _atom_site_fract_z
 _atom_site_occupancy
  Y  Y0  1  0.55429831  0.25000000  0.65310367  1.0
  Y  Y1  1  0.05429831  0.25000000  0.84689633  1.0
  Y  Y2  1  0.44570169  0.75000000  0.34689633  1.0
  Y  Y3  1  0.94570169  0.75000000  0.15310367  1.0
  S  S4  1  0.90718094  0.25000000  0.31435429  1.0
  S  S5  1  0.40718094  0.25000000  0.18564571  1.0
  S  S6  1  0.09281906  0.75000000  0.68564571  1.0
  S  S7  1  0.59281906  0.75000000  0.81435429  1.0
  O  O8  1  0.93829561  0.41885106  0.17346449  1.0
  O  O9  1  0.93829561  0.08114894  0.17346449  1.0
  O  O10  1  0.43829561  0.41885106  0.32653551  1.0
  O  O11  1  0.43829561  0.08114894  0.32653551  1.0
  O  O12  1  0.06170439  0.91885106  0.82653551  1.0
  O  O13  1  0.06170439  0.58114894  0.82653551  1.0
  O  O14  1  0.56170439  0.91885106  0.67346449  1.0
  O  O15  1  0.56170439  0.58114894  0.67346449  1.0
  O  O16  1  0.74040573  0.25000000  0.38348523  1.0
  O  O17  1  0.24040573  0.25000000  0.11651477  1.0
  O  O18  1  0.25959427  0.75000000  0.61651477  1.0
  O  O19  1  0.75959427  0.75000000  0.88348523  1.0
  O  O20  1  0.52090708  0.25000000  0.01193438  1.0
  O  O21  1  0.02090708  0.25000000  0.48806562  1.0
  O  O22  1  0.47909292  0.75000000  0.98806562  1.0
  O  O23  1  0.97909292  0.75000000  0.51193438  1.0
  F  F24  1  0.79491849  0.25000000  0.79739714  1.0
  F  F25  1  0.29491849  0.25000000  0.70260286  1.0
  F  F26  1  0.20508151  0.75000000  0.20260286  1.0
  F  F27  1  0.70508151  0.75000000  0.29739714  1.0
