# generated using pymatgen
data_Sr13Al6Si8O
_symmetry_space_group_name_H-M   'P 1'
_cell_length_a   11.70589231
_cell_length_b   11.70589231
_cell_length_c   17.55407278
_cell_angle_alpha   55.66089144
_cell_angle_beta   124.33910856
_cell_angle_gamma   156.20900960
_symmetry_Int_Tables_number   1
_chemical_formula_structural   Sr13Al6Si8O
_chemical_formula_sum   'Sr13 Al6 Si8 O1'
_cell_volume   792.88380531
_cell_formula_units_Z   1
loop_
 _symmetry_equiv_pos_site_id
 _symmetry_equiv_pos_as_xyz
  1  'x, y, z'
loop_
 _atom_site_type_symbol
 _atom_site_label
 _atom_site_symmetry_multiplicity
 _atom_site_fract_x
 _atom_site_fract_y
 _atom_site_fract_z
 _atom_site_occupancy
  Sr  Sr0  1  0.99843467  -0.99843467  0.87952112  1.0
  Sr  Sr1  1  0.00156533  -0.00156533  0.12047888  1.0
  Sr  Sr2  1  0.99733804  -0.99733804  0.64073598  1.0
  Sr  Sr3  1  0.00266196  -0.00266196  0.35926402  1.0
  Sr  Sr4  1  0.84649549  -0.84649549  0.38349025  1.0
  Sr  Sr5  1  0.15350451  -0.15350451  0.61650975  1.0
  Sr  Sr6  1  0.80604790  -0.80604790  0.60901298  1.0
  Sr  Sr7  1  0.19395210  -0.19395210  0.39098702  1.0
  Sr  Sr8  1  0.80560556  0.19439444  0.85256736  1.0
  Sr  Sr9  1  1.19439444  -0.19439444  0.14743264  1.0
  Sr  Sr10  1  0.18458625  -0.18458625  0.89122585  1.0
  Sr  Sr11  1  0.81541375  -0.81541375  0.10877415  1.0
  Sr  Sr12  1  0.50000000  0.50000000  0.50000000  1.0
  Al  Al13  1  0.56580526  0.43419474  0.80924698  1.0
  Al  Al14  1  1.43419474  -0.43419474  0.19075302  1.0
  Al  Al15  1  0.43059606  -0.43059606  0.94751519  1.0
  Al  Al16  1  0.56940394  -0.56940394  0.05248481  1.0
  Al  Al17  1  1.42727081  -0.42727081  0.70522455  1.0
  Al  Al18  1  0.57272919  0.42727081  0.29477545  1.0
  Si  Si19  1  0.63280993  0.36719007  0.46564566  1.0
  Si  Si20  1  1.36719007  -0.36719007  0.53435434  1.0
  Si  Si21  1  0.63930881  0.36069119  0.98392292  1.0
  Si  Si22  1  1.36069119  -0.36069119  0.01607708  1.0
  Si  Si23  1  0.63013735  0.36986265  0.73357538  1.0
  Si  Si24  1  1.36986265  -0.36986265  0.26642462  1.0
  Si  Si25  1  0.35486956  -0.35486956  0.77136924  1.0
  Si  Si26  1  0.64513044  -0.64513044  0.22863076  1.0
  O  O27  1  -0.00000000  0.00000000  0.50000000  1.0
