# generated using pymatgen
data_Ag3SBr
_symmetry_space_group_name_H-M   'P 1'
_cell_length_a   6.86268503
_cell_length_b   6.86268503
_cell_length_c   9.80768739
_cell_angle_alpha   90.00000000
_cell_angle_beta   90.00000000
_cell_angle_gamma   89.19946052
_symmetry_Int_Tables_number   1
_chemical_formula_structural   Ag3SBr
_chemical_formula_sum   'Ag12 S4 Br4'
_cell_volume   461.86213290
_cell_formula_units_Z   4
loop_
 _symmetry_equiv_pos_site_id
 _symmetry_equiv_pos_as_xyz
  1  'x, y, z'
loop_
 _atom_site_type_symbol
 _atom_site_label
 _atom_site_symmetry_multiplicity
 _atom_site_fract_x
 _atom_site_fract_y
 _atom_site_fract_z
 _atom_site_occupancy
  Ag  Ag0  1  -0.08245545  1.51277990  0.25000000  1.0
  Ag  Ag1  1  0.51277990  0.91754455  0.75000000  1.0
  Ag  Ag2  1  -0.51277990  1.08245545  0.25000000  1.0
  Ag  Ag3  1  0.08245545  0.48722010  0.75000000  1.0
  Ag  Ag4  1  0.28722056  0.71277944  0.45506734  1.0
  Ag  Ag5  1  0.28722056  0.71277944  0.04493266  1.0
  Ag  Ag6  1  -0.28722056  1.28722056  0.95506734  1.0
  Ag  Ag7  1  -0.28722056  1.28722056  0.54493266  1.0
  Ag  Ag8  1  0.83099571  0.83099571  0.50000000  1.0
  Ag  Ag9  1  0.83099571  0.83099571  0.00000000  1.0
  Ag  Ag10  1  0.16900429  0.16900429  0.50000000  1.0
  Ag  Ag11  1  0.16900429  0.16900429  0.00000000  1.0
  S  S12  1  0.00000000  1.50000000  0.50000000  1.0
  S  S13  1  0.00000000  1.50000000  0.00000000  1.0
  S  S14  1  0.50000000  1.00000000  0.00000000  1.0
  S  S15  1  0.50000000  1.00000000  0.50000000  1.0
  Br  Br16  1  -0.00816217  1.00816217  0.25000000  1.0
  Br  Br17  1  0.00816217  0.99183783  0.75000000  1.0
  Br  Br18  1  -0.50073079  1.50073079  0.25000000  1.0
  Br  Br19  1  0.50073079  0.49926921  0.75000000  1.0
