# generated using pymatgen
data_CdH8C4(NCl)2
_symmetry_space_group_name_H-M   'P 1'
_cell_length_a   7.72634035
_cell_length_b   7.72634035
_cell_length_c   7.31990853
_cell_angle_alpha   87.72997688
_cell_angle_beta   92.27002312
_cell_angle_gamma   72.23782723
_symmetry_Int_Tables_number   1
_chemical_formula_structural   CdH8C4(NCl)2
_chemical_formula_sum   'Cd2 H16 C8 N4 Cl4'
_cell_volume   415.20117252
_cell_formula_units_Z   2
loop_
 _symmetry_equiv_pos_site_id
 _symmetry_equiv_pos_as_xyz
  1  'x, y, z'
loop_
 _atom_site_type_symbol
 _atom_site_label
 _atom_site_symmetry_multiplicity
 _atom_site_fract_x
 _atom_site_fract_y
 _atom_site_fract_z
 _atom_site_occupancy
  Cd  Cd0  1  1.07469528  0.07469528  0.25000000  1.0
  Cd  Cd1  1  0.92530472  -0.07469528  0.75000000  1.0
  H  H2  1  0.79404213  -0.52187263  0.23541882  1.0
  H  H3  1  0.47812737  -0.20595787  0.26458118  1.0
  H  H4  1  1.20595787  0.52187263  0.76458118  1.0
  H  H5  1  1.52187263  0.20595787  0.73541882  1.0
  H  H6  1  0.90999346  -0.34727857  0.20289862  1.0
  H  H7  1  0.65272143  -0.09000654  0.29710138  1.0
  H  H8  1  1.09000654  0.34727857  0.79710138  1.0
  H  H9  1  1.34727857  0.09000654  0.70289862  1.0
  H  H10  1  1.31699085  0.31993911  1.05555776  1.0
  H  H11  1  1.31993911  0.31699085  0.44444224  1.0
  H  H12  1  0.68300915  -0.31993911  -0.05555776  1.0
  H  H13  1  0.68006089  -0.31699085  0.55555776  1.0
  H  H14  1  1.20993791  0.56225848  0.09662133  1.0
  H  H15  1  1.56225848  0.20993791  0.40337867  1.0
  H  H16  1  0.79006209  -0.56225848  0.90337867  1.0
  H  H17  1  0.43774152  -0.20993791  0.59662133  1.0
  C  C18  1  0.89973171  -0.48044318  0.16703404  1.0
  C  C19  1  0.51955682  -0.10026829  0.33296596  1.0
  C  C20  1  1.10026829  0.48044318  0.83296596  1.0
  C  C21  1  1.48044318  0.10026829  0.66703404  1.0
  C  C22  1  1.19041662  0.43090416  0.06732739  1.0
  C  C23  1  1.43090416  0.19041662  0.43267261  1.0
  C  C24  1  0.80958338  -0.43090416  0.93267261  1.0
  C  C25  1  0.56909584  -0.19041662  0.56732739  1.0
  N  N26  1  1.05713532  0.38250129  0.15178726  1.0
  N  N27  1  1.38250129  0.05713532  0.34821274  1.0
  N  N28  1  0.94286468  -0.38250129  0.84821274  1.0
  N  N29  1  0.61749871  -0.05713532  0.65178726  1.0
  Cl  Cl30  1  0.22718662  -0.10364682  0.95283827  1.0
  Cl  Cl31  1  0.89635318  -0.77281338  0.54716173  1.0
  Cl  Cl32  1  1.77281338  0.10364682  0.04716173  1.0
  Cl  Cl33  1  1.10364682  0.77281338  0.45283827  1.0
