# generated using pymatgen
data_Sb(ClF2)3
_symmetry_space_group_name_H-M   'P 1'
_cell_length_a   8.23383168
_cell_length_b   8.23383168
_cell_length_c   12.28369130
_cell_angle_alpha   90.00000000
_cell_angle_beta   90.00000000
_cell_angle_gamma   92.70226304
_symmetry_Int_Tables_number   1
_chemical_formula_structural   Sb(ClF2)3
_chemical_formula_sum   'Sb4 Cl12 F24'
_cell_volume   831.85889597
_cell_formula_units_Z   4
loop_
 _symmetry_equiv_pos_site_id
 _symmetry_equiv_pos_as_xyz
  1  'x, y, z'
loop_
 _atom_site_type_symbol
 _atom_site_label
 _atom_site_symmetry_multiplicity
 _atom_site_fract_x
 _atom_site_fract_y
 _atom_site_fract_z
 _atom_site_occupancy
  Sb  Sb0  1  0.28165428  0.71834572  0.04839107  1.0
  Sb  Sb1  1  -0.28165428  1.28165428  0.95160893  1.0
  Sb  Sb2  1  0.21834572  0.78165428  0.54839107  1.0
  Sb  Sb3  1  -0.21834572  1.21834572  0.45160893  1.0
  Cl  Cl4  1  -0.20199467  0.70199467  0.25000000  1.0
  Cl  Cl5  1  -0.29800533  0.79800533  0.75000000  1.0
  Cl  Cl6  1  0.20199467  1.29800533  0.75000000  1.0
  Cl  Cl7  1  0.29800533  1.20199467  0.25000000  1.0
  Cl  Cl8  1  -0.20559027  0.89453994  0.14908072  1.0
  Cl  Cl9  1  -0.10546006  0.79440973  0.85091928  1.0
  Cl  Cl10  1  0.39453994  1.29440973  0.64908072  1.0
  Cl  Cl11  1  0.29440973  1.39453994  0.35091928  1.0
  Cl  Cl12  1  0.20559027  1.10546006  0.85091928  1.0
  Cl  Cl13  1  0.10546006  1.20559027  0.14908072  1.0
  Cl  Cl14  1  -0.39453994  0.70559027  0.35091928  1.0
  Cl  Cl15  1  -0.29440973  0.60546006  0.64908072  1.0
  F  F16  1  0.13473593  0.86526407  0.97029448  1.0
  F  F17  1  -0.13473593  1.13473593  0.02970552  1.0
  F  F18  1  0.36526407  0.63473593  0.47029448  1.0
  F  F19  1  -0.36526407  1.36526407  0.52970552  1.0
  F  F20  1  0.45068031  0.79077975  0.95041630  1.0
  F  F21  1  -0.20922025  1.45068031  0.04958370  1.0
  F  F22  1  0.29077975  0.95068031  0.45041630  1.0
  F  F23  1  -0.04931969  1.29077975  0.54958370  1.0
  F  F24  1  -0.45068031  1.20922025  0.04958370  1.0
  F  F25  1  0.20922025  0.54931969  0.95041630  1.0
  F  F26  1  -0.29077975  1.04931969  0.54958370  1.0
  F  F27  1  0.04931969  0.70922025  0.45041630  1.0
  F  F28  1  0.33955658  0.89750314  0.14437928  1.0
  F  F29  1  -0.10249686  1.33955658  0.85562072  1.0
  F  F30  1  0.39750314  0.83955658  0.64437928  1.0
  F  F31  1  -0.16044342  1.39750314  0.35562072  1.0
  F  F32  1  -0.33955658  1.10249686  0.85562072  1.0
  F  F33  1  0.10249686  0.66044342  0.14437928  1.0
  F  F34  1  -0.39750314  1.16044342  0.35562072  1.0
  F  F35  1  0.16044342  0.60249686  0.64437928  1.0
  F  F36  1  0.42144219  0.57855781  0.12522337  1.0
  F  F37  1  -0.42144219  1.42144219  0.87477663  1.0
  F  F38  1  0.07855781  0.92144219  0.62522337  1.0
  F  F39  1  -0.07855781  1.07855781  0.37477663  1.0
