# generated using pymatgen
data_V8C7
_symmetry_space_group_name_H-M   'P 1'
_cell_length_a   8.32063776
_cell_length_b   8.32063776
_cell_length_c   8.32063776
_cell_angle_alpha   90.00000000
_cell_angle_beta   90.00000000
_cell_angle_gamma   90.00000000
_symmetry_Int_Tables_number   1
_chemical_formula_structural   V8C7
_chemical_formula_sum   'V32 C28'
_cell_volume   576.06281953
_cell_formula_units_Z   4
loop_
 _symmetry_equiv_pos_site_id
 _symmetry_equiv_pos_as_xyz
  1  'x, y, z'
loop_
 _atom_site_type_symbol
 _atom_site_label
 _atom_site_symmetry_multiplicity
 _atom_site_fract_x
 _atom_site_fract_y
 _atom_site_fract_z
 _atom_site_occupancy
  V  V0  1  0.37236854  0.61916181  0.85551752  1.0
  V  V1  1  0.12236854  0.10551752  0.63083819  1.0
  V  V2  1  0.62236854  0.39448248  0.36916181  1.0
  V  V3  1  0.87236854  0.88083819  0.14448248  1.0
  V  V4  1  0.11916181  0.64448248  0.62763146  1.0
  V  V5  1  0.86916181  0.87763146  0.60551752  1.0
  V  V6  1  0.36916181  0.62236854  0.39448248  1.0
  V  V7  1  0.61916181  0.85551752  0.37236854  1.0
  V  V8  1  0.14448248  0.87236854  0.88083819  1.0
  V  V9  1  0.89448248  0.13083819  0.37763146  1.0
  V  V10  1  0.39448248  0.36916181  0.62236854  1.0
  V  V11  1  0.64448248  0.62763146  0.11916181  1.0
  V  V12  1  0.62763146  0.11916181  0.64448248  1.0
  V  V13  1  0.37763146  0.89448248  0.13083819  1.0
  V  V14  1  0.87763146  0.60551752  0.86916181  1.0
  V  V15  1  0.12763146  0.38083819  0.35551752  1.0
  V  V16  1  0.88083819  0.14448248  0.87236854  1.0
  V  V17  1  0.63083819  0.12236854  0.10551752  1.0
  V  V18  1  0.13083819  0.37763146  0.89448248  1.0
  V  V19  1  0.38083819  0.35551752  0.12763146  1.0
  V  V20  1  0.85551752  0.37236854  0.61916181  1.0
  V  V21  1  0.60551752  0.86916181  0.87763146  1.0
  V  V22  1  0.10551752  0.63083819  0.12236854  1.0
  V  V23  1  0.35551752  0.12763146  0.38083819  1.0
  V  V24  1  0.37788414  0.87788414  0.62211586  1.0
  V  V25  1  0.12788414  0.87211586  0.37211586  1.0
  V  V26  1  0.62788414  0.62788414  0.62788414  1.0
  V  V27  1  0.87788414  0.62211586  0.37788414  1.0
  V  V28  1  0.62211586  0.37788414  0.87788414  1.0
  V  V29  1  0.37211586  0.12788414  0.87211586  1.0
  V  V30  1  0.87211586  0.37211586  0.12788414  1.0
  V  V31  1  0.12211586  0.12211586  0.12211586  1.0
  C  C32  1  0.37500000  0.87078052  0.87921948  1.0
  C  C33  1  0.12500000  0.12921948  0.37921948  1.0
  C  C34  1  0.62500000  0.37078052  0.62078052  1.0
  C  C35  1  0.87500000  0.62921948  0.12078052  1.0
  C  C36  1  0.37078052  0.62078052  0.62500000  1.0
  C  C37  1  0.12078052  0.87500000  0.62921948  1.0
  C  C38  1  0.62078052  0.62500000  0.37078052  1.0
  C  C39  1  0.87078052  0.87921948  0.37500000  1.0
  C  C40  1  0.62921948  0.12078052  0.87500000  1.0
  C  C41  1  0.37921948  0.12500000  0.12921948  1.0
  C  C42  1  0.87921948  0.37500000  0.87078052  1.0
  C  C43  1  0.12921948  0.37921948  0.12500000  1.0
  C  C44  1  0.37500000  0.12577810  0.62422190  1.0
  C  C45  1  0.12500000  0.87422190  0.12422190  1.0
  C  C46  1  0.62500000  0.62577810  0.87577810  1.0
  C  C47  1  0.87500000  0.37422190  0.37577810  1.0
  C  C48  1  0.62577810  0.87577810  0.62500000  1.0
  C  C49  1  0.37577810  0.87500000  0.37422190  1.0
  C  C50  1  0.87577810  0.62500000  0.62577810  1.0
  C  C51  1  0.12577810  0.62422190  0.37500000  1.0
  C  C52  1  0.37422190  0.37577810  0.87500000  1.0
  C  C53  1  0.12422190  0.12500000  0.87422190  1.0
  C  C54  1  0.62422190  0.37500000  0.12577810  1.0
  C  C55  1  0.87422190  0.12422190  0.12500000  1.0
  C  C56  1  0.12500000  0.62500000  0.87500000  1.0
  C  C57  1  0.87500000  0.12500000  0.62500000  1.0
  C  C58  1  0.37500000  0.37500000  0.37500000  1.0
  C  C59  1  0.62500000  0.87500000  0.12500000  1.0
