# generated using pymatgen
data_IrF6
_symmetry_space_group_name_H-M   'P 1'
_cell_length_a   10.08658909
_cell_length_b   9.23709954
_cell_length_c   5.33711766
_cell_angle_alpha   90.00000000
_cell_angle_beta   90.00000000
_cell_angle_gamma   90.00000000
_symmetry_Int_Tables_number   1
_chemical_formula_structural   IrF6
_chemical_formula_sum   'Ir4 F24'
_cell_volume   497.26366856
_cell_formula_units_Z   4
loop_
 _symmetry_equiv_pos_site_id
 _symmetry_equiv_pos_as_xyz
  1  'x, y, z'
loop_
 _atom_site_type_symbol
 _atom_site_label
 _atom_site_symmetry_multiplicity
 _atom_site_fract_x
 _atom_site_fract_y
 _atom_site_fract_z
 _atom_site_occupancy
  Ir  Ir0  1  0.87047443  0.25000000  0.41693655  1.0
  Ir  Ir1  1  0.37047443  0.25000000  0.08306345  1.0
  Ir  Ir2  1  0.12952557  0.75000000  0.58306345  1.0
  Ir  Ir3  1  0.62952557  0.75000000  0.91693655  1.0
  F  F4  1  0.97636914  0.39302046  0.27009963  1.0
  F  F5  1  0.97636914  0.10697954  0.27009963  1.0
  F  F6  1  0.47636914  0.39302046  0.22990037  1.0
  F  F7  1  0.47636914  0.10697954  0.22990037  1.0
  F  F8  1  0.02363086  0.89302046  0.72990037  1.0
  F  F9  1  0.02363086  0.60697954  0.72990037  1.0
  F  F10  1  0.52363086  0.89302046  0.77009963  1.0
  F  F11  1  0.52363086  0.60697954  0.77009963  1.0
  F  F12  1  0.76451699  0.39300932  0.56329261  1.0
  F  F13  1  0.76451699  0.10699068  0.56329261  1.0
  F  F14  1  0.26451699  0.39300932  0.93670739  1.0
  F  F15  1  0.26451699  0.10699068  0.93670739  1.0
  F  F16  1  0.23548301  0.89300932  0.43670739  1.0
  F  F17  1  0.23548301  0.60699068  0.43670739  1.0
  F  F18  1  0.73548301  0.89300932  0.06329261  1.0
  F  F19  1  0.73548301  0.60699068  0.06329261  1.0
  F  F20  1  0.98009453  0.25000000  0.69961520  1.0
  F  F21  1  0.48009453  0.25000000  0.80038480  1.0
  F  F22  1  0.01990547  0.75000000  0.30038480  1.0
  F  F23  1  0.51990547  0.75000000  0.19961520  1.0
  F  F24  1  0.76101516  0.25000000  0.13377510  1.0
  F  F25  1  0.26101516  0.25000000  0.36622490  1.0
  F  F26  1  0.23898484  0.75000000  0.86622490  1.0
  F  F27  1  0.73898484  0.75000000  0.63377510  1.0
