# generated using pymatgen
data_SrTi2O5
_symmetry_space_group_name_H-M   'P 1'
_cell_length_a   8.93051164
_cell_length_b   8.93051164
_cell_length_c   7.42481663
_cell_angle_alpha   90.00000000
_cell_angle_beta   90.00000000
_cell_angle_gamma   128.48524343
_symmetry_Int_Tables_number   1
_chemical_formula_structural   SrTi2O5
_chemical_formula_sum   'Sr4 Ti8 O20'
_cell_volume   463.52347401
_cell_formula_units_Z   4
loop_
 _symmetry_equiv_pos_site_id
 _symmetry_equiv_pos_as_xyz
  1  'x, y, z'
loop_
 _atom_site_type_symbol
 _atom_site_label
 _atom_site_symmetry_multiplicity
 _atom_site_fract_x
 _atom_site_fract_y
 _atom_site_fract_z
 _atom_site_occupancy
  Sr  Sr0  1  0.39077959  1.11475939  0.47871336  1.0
  Sr  Sr1  1  0.60922041  0.88524061  0.47871336  1.0
  Sr  Sr2  1  0.11475939  0.39077959  0.47871336  1.0
  Sr  Sr3  1  -0.11475939  0.60922041  0.47871336  1.0
  Ti  Ti4  1  -0.36328539  0.36328539  1.02811692  1.0
  Ti  Ti5  1  0.36328539  0.63671461  1.02811692  1.0
  Ti  Ti6  1  0.23828086  0.23828086  1.04443396  1.0
  Ti  Ti7  1  0.76171914  0.76171914  1.04443396  1.0
  Ti  Ti8  1  0.00000000  0.00000000  0.70781167  1.0
  Ti  Ti9  1  0.50000000  0.50000000  0.72845987  1.0
  Ti  Ti10  1  -0.23764986  0.23764986  0.73849021  1.0
  Ti  Ti11  1  0.23764986  0.76235014  0.73849021  1.0
  O  O12  1  0.00000000  0.00000000  1.03166100  1.0
  O  O13  1  0.50000000  0.50000000  1.00245505  1.0
  O  O14  1  -0.25611423  0.25611423  1.00719735  1.0
  O  O15  1  0.25611423  0.74388577  1.00719735  1.0
  O  O16  1  0.39375413  1.19011029  0.14864203  1.0
  O  O17  1  0.60624587  0.80988971  0.14864203  1.0
  O  O18  1  0.19011029  0.39375413  0.14864203  1.0
  O  O19  1  -0.19011029  0.60624587  0.14864203  1.0
  O  O20  1  0.50000000  1.00000000  0.72532153  1.0
  O  O21  1  -0.00000000  0.50000000  0.72532153  1.0
  O  O22  1  -0.12258695  0.12258695  0.71075107  1.0
  O  O23  1  0.12258695  0.87741305  0.71075107  1.0
  O  O24  1  0.24438577  0.24438577  0.78146544  1.0
  O  O25  1  0.75561423  0.75561423  0.78146544  1.0
  O  O26  1  -0.37810313  0.37810313  0.77188028  1.0
  O  O27  1  0.37810313  0.62189687  0.77188028  1.0
  O  O28  1  0.00000000  0.00000000  0.47108808  1.0
  O  O29  1  0.50000000  0.50000000  0.49156203  1.0
  O  O30  1  -0.25950212  0.25950212  0.48061361  1.0
  O  O31  1  0.25950212  0.74049788  0.48061361  1.0
