# generated using pymatgen
data_Na3ScF6
_symmetry_space_group_name_H-M   'P 1'
_cell_length_a   5.84883078
_cell_length_b   5.84883078
_cell_length_c   8.37093284
_cell_angle_alpha   90.00000000
_cell_angle_beta   90.00000000
_cell_angle_gamma   90.00000000
_symmetry_Int_Tables_number   1
_chemical_formula_structural   Na3ScF6
_chemical_formula_sum   'Na6 Sc2 F12'
_cell_volume   286.35974667
_cell_formula_units_Z   2
loop_
 _symmetry_equiv_pos_site_id
 _symmetry_equiv_pos_as_xyz
  1  'x, y, z'
loop_
 _atom_site_type_symbol
 _atom_site_label
 _atom_site_symmetry_multiplicity
 _atom_site_fract_x
 _atom_site_fract_y
 _atom_site_fract_z
 _atom_site_occupancy
  Na  Na0  1  0.50000000  0.50000000  0.00000000  1.0
  Na  Na1  1  0.00000000  0.00000000  0.50000000  1.0
  Na  Na2  1  0.00000000  0.50000000  0.25000000  1.0
  Na  Na3  1  0.50000000  0.00000000  0.75000000  1.0
  Na  Na4  1  0.50000000  0.00000000  0.25000000  1.0
  Na  Na5  1  0.00000000  0.50000000  0.75000000  1.0
  Sc  Sc6  1  0.50000000  0.50000000  0.50000000  1.0
  Sc  Sc7  1  0.00000000  0.00000000  0.00000000  1.0
  F  F8  1  0.35120477  0.81428843  0.50000000  1.0
  F  F9  1  0.64879523  0.18571157  0.50000000  1.0
  F  F10  1  0.14879523  0.31428843  0.00000000  1.0
  F  F11  1  0.85120477  0.68571157  0.00000000  1.0
  F  F12  1  0.81428843  0.64879523  0.50000000  1.0
  F  F13  1  0.18571157  0.35120477  0.50000000  1.0
  F  F14  1  0.31428843  0.85120477  0.00000000  1.0
  F  F15  1  0.68571157  0.14879523  0.00000000  1.0
  F  F16  1  0.50000000  0.50000000  0.26005964  1.0
  F  F17  1  0.00000000  0.00000000  0.76005964  1.0
  F  F18  1  0.50000000  0.50000000  0.73994036  1.0
  F  F19  1  0.00000000  0.00000000  0.23994036  1.0
