# generated using pymatgen
data_Ga2Pt
_symmetry_space_group_name_H-M   'P 1'
_cell_length_a   12.64271736
_cell_length_b   12.64271736
_cell_length_c   12.64271736
_cell_angle_alpha   140.03312442
_cell_angle_beta   140.03312442
_cell_angle_gamma   57.80300737
_symmetry_Int_Tables_number   1
_chemical_formula_structural   Ga2Pt
_chemical_formula_sum   'Ga32 Pt16'
_cell_volume   826.46937475
_cell_formula_units_Z   16
loop_
 _symmetry_equiv_pos_site_id
 _symmetry_equiv_pos_as_xyz
  1  'x, y, z'
loop_
 _atom_site_type_symbol
 _atom_site_label
 _atom_site_symmetry_multiplicity
 _atom_site_fract_x
 _atom_site_fract_y
 _atom_site_fract_z
 _atom_site_occupancy
  Ga  Ga0  1  1.08511599  1.77071787  1.23022097  1.0
  Ga  Ga1  1  1.58511599  1.35489502  1.31439811  1.0
  Ga  Ga2  1  1.02071787  0.83511599  1.73022097  1.0
  Ga  Ga3  1  0.52071787  0.79049690  1.18560189  1.0
  Ga  Ga4  1  1.66488401  1.47928213  1.26977903  1.0
  Ga  Ga5  1  1.16488401  1.89510498  1.18560189  1.0
  Ga  Ga6  1  0.72928213  1.41488401  0.76977903  1.0
  Ga  Ga7  1  1.22928213  1.45950310  1.31439811  1.0
  Ga  Ga8  1  1.04049690  1.27071787  0.68560189  1.0
  Ga  Ga9  1  1.54049690  0.85489502  0.76977903  1.0
  Ga  Ga10  1  0.60489502  0.33511599  0.81439811  1.0
  Ga  Ga11  1  0.10489502  0.29049690  0.26977903  1.0
  Ga  Ga12  1  1.70950310  0.97928213  0.81439811  1.0
  Ga  Ga13  1  1.20950310  1.39510498  0.73022097  1.0
  Ga  Ga14  1  1.14510498  0.91488401  0.68560189  1.0
  Ga  Ga15  1  1.64510498  0.95950310  1.23022097  1.0
  Ga  Ga16  1  1.77004411  1.08511411  1.22906419  1.0
  Ga  Ga17  1  1.27004411  1.04097992  0.68493000  1.0
  Ga  Ga18  1  0.33511411  0.52004411  0.72906419  1.0
  Ga  Ga19  1  0.83511411  0.10604992  0.81507000  1.0
  Ga  Ga20  1  0.97995589  1.16488589  0.27093581  1.0
  Ga  Ga21  1  1.47995589  1.20902008  0.81507000  1.0
  Ga  Ga22  1  1.41488589  0.72995589  0.77093581  1.0
  Ga  Ga23  1  0.91488589  1.14395008  0.68493000  1.0
  Ga  Ga24  1  1.35604992  1.58511411  1.31507000  1.0
  Ga  Ga25  1  0.85604992  1.54097992  0.77093581  1.0
  Ga  Ga26  1  0.29097992  1.02004411  1.18493000  1.0
  Ga  Ga27  1  0.79097992  0.60604992  1.27093581  1.0
  Ga  Ga28  1  1.39395008  1.66488589  1.18493000  1.0
  Ga  Ga29  1  1.89395008  1.70902008  1.72906419  1.0
  Ga  Ga30  1  1.45902008  1.22995589  1.31507000  1.0
  Ga  Ga31  1  0.95902008  1.64395008  1.22906419  1.0
  Pt  Pt32  1  0.85939369  0.85939369  -0.00000000  1.0
  Pt  Pt33  1  1.35939369  1.35939369  1.00000000  1.0
  Pt  Pt34  1  0.10939369  0.60939369  0.50000000  1.0
  Pt  Pt35  1  0.60939369  0.10939369  0.50000000  1.0
  Pt  Pt36  1  0.89060631  1.39060631  0.50000000  1.0
  Pt  Pt37  1  1.39060631  0.89060631  0.50000000  1.0
  Pt  Pt38  1  0.64060631  0.64060631  -0.00000000  1.0
  Pt  Pt39  1  1.14060631  1.14060631  1.00000000  1.0
  Pt  Pt40  1  0.94750840  0.94750840  0.39501681  1.0
  Pt  Pt41  1  1.44750840  1.05249160  1.00000000  1.0
  Pt  Pt42  1  0.19750840  0.69750840  0.89501681  1.0
  Pt  Pt43  1  0.69750840  0.80249160  1.50000000  1.0
  Pt  Pt44  1  0.80249160  0.30249160  1.10498319  1.0
  Pt  Pt45  1  0.30249160  0.19750840  0.50000000  1.0
  Pt  Pt46  1  1.55249160  1.55249160  1.60498319  1.0
  Pt  Pt47  1  1.05249160  1.44750840  1.00000000  1.0
