# generated using pymatgen
data_Ca(BO5)2
_symmetry_space_group_name_H-M   'P 1'
_cell_length_a   7.25984693
_cell_length_b   7.25984693
_cell_length_c   10.07006642
_cell_angle_alpha   71.84867168
_cell_angle_beta   108.15132832
_cell_angle_gamma   138.75931731
_symmetry_Int_Tables_number   1
_chemical_formula_structural   Ca(BO5)2
_chemical_formula_sum   'Ca2 B4 O20'
_cell_volume   329.93015298
_cell_formula_units_Z   2
loop_
 _symmetry_equiv_pos_site_id
 _symmetry_equiv_pos_as_xyz
  1  'x, y, z'
loop_
 _atom_site_type_symbol
 _atom_site_label
 _atom_site_symmetry_multiplicity
 _atom_site_fract_x
 _atom_site_fract_y
 _atom_site_fract_z
 _atom_site_occupancy
  Ca  Ca0  1  0.80703088  0.80703088  0.25000000  1.0
  Ca  Ca1  1  0.19296912  0.19296912  0.75000000  1.0
  B  B2  1  1.62056436  -0.16117974  0.50983014  1.0
  B  B3  1  1.16117974  -0.62056436  1.00983014  1.0
  B  B4  1  0.83882026  -0.37943564  -0.00983014  1.0
  B  B5  1  1.37943564  0.16117974  0.49016986  1.0
  O  O6  1  1.48062061  0.05693392  0.25774569  1.0
  O  O7  1  0.94306608  -0.48062061  0.75774569  1.0
  O  O8  1  1.05693392  -0.51937939  0.24225431  1.0
  O  O9  1  1.51937939  -0.05693392  0.74225431  1.0
  O  O10  1  1.62696367  0.40146483  0.42239922  1.0
  O  O11  1  0.59853517  -0.62696367  0.92239922  1.0
  O  O12  1  1.40146483  -0.37303633  0.07760078  1.0
  O  O13  1  1.37303633  -0.40146483  0.57760078  1.0
  O  O14  1  1.59640357  -0.14870825  0.36200455  1.0
  O  O15  1  1.14870825  -0.59640357  0.86200455  1.0
  O  O16  1  0.85129175  -0.40359643  0.13799545  1.0
  O  O17  1  1.40359643  0.14870825  0.63799545  1.0
  O  O18  1  1.24137310  -0.08664217  0.43500785  1.0
  O  O19  1  1.08664217  -0.24137310  0.93500785  1.0
  O  O20  1  0.91335783  -0.75862690  0.06499215  1.0
  O  O21  1  1.75862690  0.08664217  0.56499215  1.0
  O  O22  1  1.18509418  -0.82448002  0.40493461  1.0
  O  O23  1  1.82448002  -0.18509418  0.90493461  1.0
  O  O24  1  1.17551998  0.18509418  0.09506539  1.0
  O  O25  1  0.81490582  -0.17551998  0.59506539  1.0
