# generated using pymatgen
data_LaAsO4
_symmetry_space_group_name_H-M   'P 1'
_cell_length_a   6.87017932
_cell_length_b   7.33082591
_cell_length_c   8.55131728
_cell_angle_alpha   90.00000000
_cell_angle_beta   126.12732289
_cell_angle_gamma   90.00000000
_symmetry_Int_Tables_number   1
_chemical_formula_structural   LaAsO4
_chemical_formula_sum   'La4 As4 O16'
_cell_volume   347.86346953
_cell_formula_units_Z   4
loop_
 _symmetry_equiv_pos_site_id
 _symmetry_equiv_pos_as_xyz
  1  'x, y, z'
loop_
 _atom_site_type_symbol
 _atom_site_label
 _atom_site_symmetry_multiplicity
 _atom_site_fract_x
 _atom_site_fract_y
 _atom_site_fract_z
 _atom_site_occupancy
  La  La0  1  0.81165578  0.84772720  0.21621341  1.0
  La  La1  1  0.81165578  0.65227280  0.71621341  1.0
  La  La2  1  0.18834422  0.34772720  0.28378659  1.0
  La  La3  1  0.18834422  0.15227280  0.78378659  1.0
  As  As4  1  0.69209790  0.33839803  0.30391314  1.0
  As  As5  1  0.69209790  0.16160197  0.80391314  1.0
  As  As6  1  0.30790210  0.83839803  0.19608686  1.0
  As  As7  1  0.30790210  0.66160197  0.69608686  1.0
  O  O8  1  0.89600155  0.15824262  0.39186869  1.0
  O  O9  1  0.89600155  0.34175738  0.89186869  1.0
  O  O10  1  0.10399845  0.65824262  0.10813131  1.0
  O  O11  1  0.10399845  0.84175738  0.60813131  1.0
  O  O12  1  0.82820890  0.50433919  0.25372715  1.0
  O  O13  1  0.82820890  0.99566081  0.75372715  1.0
  O  O14  1  0.17179110  0.00433919  0.24627285  1.0
  O  O15  1  0.17179110  0.49566081  0.74627285  1.0
  O  O16  1  0.65167073  0.39544229  0.48043395  1.0
  O  O17  1  0.65167073  0.10455771  0.98043395  1.0
  O  O18  1  0.34832927  0.89544229  0.01956605  1.0
  O  O19  1  0.34832927  0.60455771  0.51956605  1.0
  O  O20  1  0.39588100  0.28769307  0.11679427  1.0
  O  O21  1  0.39588100  0.21230693  0.61679427  1.0
  O  O22  1  0.60411900  0.78769307  0.38320573  1.0
  O  O23  1  0.60411900  0.71230693  0.88320573  1.0
