# generated using pymatgen
data_Ca2Ni7P4
_symmetry_space_group_name_H-M   'P 1'
_cell_length_a   3.69583309
_cell_length_b   9.21023518
_cell_length_c   10.37868251
_cell_angle_alpha   90.00000000
_cell_angle_beta   90.00000000
_cell_angle_gamma   90.00000000
_symmetry_Int_Tables_number   1
_chemical_formula_structural   Ca2Ni7P4
_chemical_formula_sum   'Ca4 Ni14 P8'
_cell_volume   353.28507937
_cell_formula_units_Z   2
loop_
 _symmetry_equiv_pos_site_id
 _symmetry_equiv_pos_as_xyz
  1  'x, y, z'
loop_
 _atom_site_type_symbol
 _atom_site_label
 _atom_site_symmetry_multiplicity
 _atom_site_fract_x
 _atom_site_fract_y
 _atom_site_fract_z
 _atom_site_occupancy
  Ca  Ca0  1  0.50000000  0.93797368  0.23608506  1.0
  Ca  Ca1  1  0.00000000  0.06202632  0.73608506  1.0
  Ca  Ca2  1  0.50000000  0.56011988  0.01971893  1.0
  Ca  Ca3  1  0.00000000  0.43988012  0.51971893  1.0
  Ni  Ni4  1  0.50000000  0.91535083  0.54114906  1.0
  Ni  Ni5  1  0.00000000  0.08464917  0.04114906  1.0
  Ni  Ni6  1  0.50000000  0.80423640  0.81463850  1.0
  Ni  Ni7  1  0.00000000  0.19576360  0.31463850  1.0
  Ni  Ni8  1  0.50000000  0.59547069  0.31876815  1.0
  Ni  Ni9  1  0.00000000  0.40452931  0.81876815  1.0
  Ni  Ni10  1  0.50000000  0.55949885  0.71372468  1.0
  Ni  Ni11  1  0.00000000  0.44050115  0.21372468  1.0
  Ni  Ni12  1  0.50000000  0.24795455  0.14123155  1.0
  Ni  Ni13  1  0.00000000  0.75204545  0.64123155  1.0
  Ni  Ni14  1  0.50000000  0.22808798  0.90602808  1.0
  Ni  Ni15  1  0.00000000  0.77191202  0.40602808  1.0
  Ni  Ni16  1  0.50000000  0.18458968  0.50127419  1.0
  Ni  Ni17  1  0.00000000  0.81541032  0.00127419  1.0
  P  P18  1  0.50000000  0.97831494  0.95558615  1.0
  P  P19  1  0.00000000  0.02168506  0.45558615  1.0
  P  P20  1  0.50000000  0.68075234  0.52268400  1.0
  P  P21  1  0.00000000  0.31924766  0.02268399  1.0
  P  P22  1  0.50000000  0.34372868  0.33100930  1.0
  P  P23  1  0.00000000  0.65627132  0.83100930  1.0
  P  P24  1  0.50000000  0.31266105  0.70250235  1.0
  P  P25  1  0.00000000  0.68733895  0.20250235  1.0
