# generated using pymatgen
data_Ti3V2O9
_symmetry_space_group_name_H-M   'P 1'
_cell_length_a   8.85386860
_cell_length_b   8.85386860
_cell_length_c   7.18430464
_cell_angle_alpha   74.49047452
_cell_angle_beta   105.50952548
_cell_angle_gamma   147.14589447
_symmetry_Int_Tables_number   1
_chemical_formula_structural   Ti3V2O9
_chemical_formula_sum   'Ti6 V4 O18'
_cell_volume   293.41617781
_cell_formula_units_Z   2
loop_
 _symmetry_equiv_pos_site_id
 _symmetry_equiv_pos_as_xyz
  1  'x, y, z'
loop_
 _atom_site_type_symbol
 _atom_site_label
 _atom_site_symmetry_multiplicity
 _atom_site_fract_x
 _atom_site_fract_y
 _atom_site_fract_z
 _atom_site_occupancy
  Ti  Ti0  1  1.78705312  0.22046490  0.92106337  1.0
  Ti  Ti1  1  0.77953510  -0.78705312  0.42106337  1.0
  Ti  Ti2  1  1.22046490  -0.21294688  0.57893663  1.0
  Ti  Ti3  1  1.21294688  -0.22046490  0.07893663  1.0
  Ti  Ti4  1  0.00000000  0.00000000  0.00000000  1.0
  Ti  Ti5  1  0.00000000  -0.00000000  0.50000000  1.0
  O  O6  1  1.73909937  -0.04331746  0.98291172  1.0
  O  O7  1  1.04331746  -0.73909937  0.48291172  1.0
  O  O8  1  0.95668254  -0.26090063  0.51708828  1.0
  O  O9  1  1.26090063  0.04331746  0.01708828  1.0
  O  O10  1  1.49284723  -0.15798190  0.56585992  1.0
  O  O11  1  1.15798190  -0.49284723  0.06585992  1.0
  O  O12  1  0.84201810  -0.50715277  0.93414008  1.0
  O  O13  1  1.50715277  0.15798190  0.43414008  1.0
  O  O14  1  1.39799654  -0.05560697  0.81941293  1.0
  O  O15  1  1.05560697  -0.39799654  0.31941293  1.0
  O  O16  1  0.94439303  -0.60200346  0.68058707  1.0
  O  O17  1  1.60200346  0.05560697  0.18058707  1.0
  O  O18  1  1.29715429  -0.61164840  0.87221636  1.0
  O  O19  1  1.61164840  -0.29715429  0.37221636  1.0
  O  O20  1  1.38835160  0.29715429  0.62778364  1.0
  O  O21  1  0.70284571  -0.38835160  0.12778364  1.0
  O  O22  1  0.81448843  0.81448843  0.75000000  1.0
  O  O23  1  0.18551157  0.18551157  0.25000000  1.0
  V  V24  1  1.57018710  0.42387547  0.89341790  1.0
  V  V25  1  0.57612453  -0.57018711  0.39341790  1.0
  V  V26  1  1.42387547  -0.42981289  0.60658210  1.0
  V  V27  1  1.42981289  -0.42387547  0.10658210  1.0
