# generated using pymatgen
data_CdPSe3
_symmetry_space_group_name_H-M   'P 1'
_cell_length_a   8.41824955
_cell_length_b   8.41824955
_cell_length_c   8.41824955
_cell_angle_alpha   46.23460483
_cell_angle_beta   46.23460483
_cell_angle_gamma   46.23460483
_symmetry_Int_Tables_number   1
_chemical_formula_structural   CdPSe3
_chemical_formula_sum   'Cd2 P2 Se6'
_cell_volume   283.94134675
_cell_formula_units_Z   2
loop_
 _symmetry_equiv_pos_site_id
 _symmetry_equiv_pos_as_xyz
  1  'x, y, z'
loop_
 _atom_site_type_symbol
 _atom_site_label
 _atom_site_symmetry_multiplicity
 _atom_site_fract_x
 _atom_site_fract_y
 _atom_site_fract_z
 _atom_site_occupancy
  Cd  Cd0  1  0.33079841  0.33079841  0.33079841  1.0
  Cd  Cd1  1  0.66920159  -0.33079841  -0.33079841  1.0
  P  P2  1  0.05076187  0.05076187  0.05076187  1.0
  P  P3  1  0.94923813  -0.05076187  -0.05076187  1.0
  Se  Se4  1  0.08591547  0.75575731  -0.60322221  1.0
  Se  Se5  1  0.60322221  0.91408453  -0.75575731  1.0
  Se  Se6  1  0.24424269  0.60322221  -0.08591547  1.0
  Se  Se7  1  0.91408453  0.24424269  -0.39677779  1.0
  Se  Se8  1  0.39677779  0.08591547  -0.24424269  1.0
  Se  Se9  1  0.75575731  0.39677779  -0.91408453  1.0
