# generated using pymatgen
data_Na3CrH14(C3O8)2
_symmetry_space_group_name_H-M   'P 1'
_cell_length_a   6.55188012
_cell_length_b   8.86647498
_cell_length_c   7.72480349
_cell_angle_alpha   79.45495748
_cell_angle_beta   77.98146911
_cell_angle_gamma   83.57180724
_symmetry_Int_Tables_number   1
_chemical_formula_structural   Na3CrH14(C3O8)2
_chemical_formula_sum   'Na3 Cr1 H14 C6 O16'
_cell_volume   430.22627584
_cell_formula_units_Z   1
loop_
 _symmetry_equiv_pos_site_id
 _symmetry_equiv_pos_as_xyz
  1  'x, y, z'
loop_
 _atom_site_type_symbol
 _atom_site_label
 _atom_site_symmetry_multiplicity
 _atom_site_fract_x
 _atom_site_fract_y
 _atom_site_fract_z
 _atom_site_occupancy
  Na  Na0  1  -0.00000000  -0.50000000  -0.50000000  1.0
  Na  Na1  1  -0.29515094  -0.12961541  -0.55138087  1.0
  Na  Na2  1  -0.70484906  -0.87038459  -0.44861913  1.0
  Cr  Cr3  1  0.00000000  0.00000000  0.00000000  1.0
  H  H4  1  -0.05054452  -0.24665561  -0.26089488  1.0
  H  H5  1  -0.94945548  -0.75334439  -0.73910512  1.0
  H  H6  1  -0.89367703  -0.20741996  -0.44426439  1.0
  H  H7  1  -0.10632297  -0.79258004  -0.55573561  1.0
  H  H8  1  -0.45278674  -0.58455375  -0.31742093  1.0
  H  H9  1  -0.54721326  -0.41544625  -0.68257907  1.0
  H  H10  1  -0.39529712  -0.43277994  -0.27272408  1.0
  H  H11  1  -0.60470288  -0.56722006  -0.72727592  1.0
  H  H12  1  -0.39580807  -0.96319381  -0.14776249  1.0
  H  H13  1  -0.60419193  -0.03680619  -0.85223751  1.0
  H  H14  1  -0.29575013  -0.71285521  -0.97646371  1.0
  H  H15  1  -0.70424987  -0.28714479  -0.02353629  1.0
  H  H16  1  -0.21756841  -0.40821768  -0.96664837  1.0
  H  H17  1  -0.78243159  -0.59178232  -0.03335163  1.0
  C  C18  1  -0.27162318  -0.92436753  -0.26302351  1.0
  C  C19  1  -0.72837682  -0.07563247  -0.73697649  1.0
  C  C20  1  -0.35915953  -0.79758920  -0.85844540  1.0
  C  C21  1  -0.64084047  -0.20241080  -0.14155460  1.0
  C  C22  1  -0.19254094  -0.31082608  -0.90281828  1.0
  C  C23  1  -0.80745906  -0.68917392  -0.09718172  1.0
  O  O24  1  -0.08976162  -0.91420514  -0.23042835  1.0
  O  O25  1  -0.91023838  -0.08579486  -0.76957165  1.0
  O  O26  1  -0.31536953  -0.89297345  -0.41659295  1.0
  O  O27  1  -0.68463047  -0.10702655  -0.58340705  1.0
  O  O28  1  -0.26870865  -0.93571712  -0.84755427  1.0
  O  O29  1  -0.73129135  -0.06428288  -0.15244573  1.0
  O  O30  1  -0.51254311  -0.75870058  -0.74636790  1.0
  O  O31  1  -0.48745689  -0.24129942  -0.25363210  1.0
  O  O32  1  -0.10305544  -0.20099036  -0.01740703  1.0
  O  O33  1  -0.89694456  -0.79900964  -0.98259297  1.0
  O  O34  1  -0.25147517  -0.31734530  -0.73813703  1.0
  O  O35  1  -0.74852483  -0.68265470  -0.26186297  1.0
  O  O36  1  -0.01826435  -0.26499887  -0.38559393  1.0
  O  O37  1  -0.98173565  -0.73500113  -0.61440607  1.0
  O  O38  1  -0.33431582  -0.53546377  -0.29916258  1.0
  O  O39  1  -0.66568418  -0.46453623  -0.70083742  1.0
