# generated using pymatgen
data_Co2P2H4PbO10
_symmetry_space_group_name_H-M   'P 1'
_cell_length_a   7.56432010
_cell_length_b   6.32049707
_cell_length_c   9.05053759
_cell_angle_alpha   90.00000000
_cell_angle_beta   114.63140583
_cell_angle_gamma   90.00000000
_symmetry_Int_Tables_number   1
_chemical_formula_structural   Co2P2H4PbO10
_chemical_formula_sum   'Co4 P4 H8 Pb2 O20'
_cell_volume   393.33547444
_cell_formula_units_Z   2
loop_
 _symmetry_equiv_pos_site_id
 _symmetry_equiv_pos_as_xyz
  1  'x, y, z'
loop_
 _atom_site_type_symbol
 _atom_site_label
 _atom_site_symmetry_multiplicity
 _atom_site_fract_x
 _atom_site_fract_y
 _atom_site_fract_z
 _atom_site_occupancy
  Co  Co0  1  0.00000000  0.50000000  0.00000000  1.0
  Co  Co1  1  0.00000000  0.00000000  0.00000000  1.0
  Co  Co2  1  0.00000000  0.50000000  0.50000000  1.0
  Co  Co3  1  0.00000000  0.00000000  0.50000000  1.0
  P  P4  1  0.71121790  0.25000000  0.66196334  1.0
  P  P5  1  0.28878210  0.75000000  0.33803666  1.0
  P  P6  1  0.27295815  0.25000000  0.82361926  1.0
  P  P7  1  0.72704185  0.75000000  0.17638074  1.0
  Pb  Pb8  1  0.49193035  0.25000000  0.26446674  1.0
  Pb  Pb9  1  0.50806965  0.75000000  0.73553326  1.0
  O  O10  1  0.74908813  0.44885609  0.77507194  1.0
  O  O11  1  0.74908813  0.05114391  0.77507194  1.0
  O  O12  1  0.25091187  0.94885609  0.22492806  1.0
  O  O13  1  0.25091187  0.55114391  0.22492806  1.0
  O  O14  1  0.23152833  0.45517831  0.72132493  1.0
  O  O15  1  0.23152833  0.04482169  0.72132493  1.0
  O  O16  1  0.76847167  0.95517831  0.27867507  1.0
  O  O17  1  0.76847167  0.54482169  0.27867507  1.0
  O  O18  1  0.84341032  0.25000000  0.56577419  1.0
  O  O19  1  0.15658968  0.75000000  0.43422581  1.0
  O  O20  1  0.50532521  0.25000000  0.94016761  1.0
  O  O21  1  0.49467479  0.75000000  0.05983239  1.0
  O  O22  1  0.49635124  0.25000000  0.53365764  1.0
  O  O23  1  0.50364876  0.75000000  0.46634236  1.0
  O  O24  1  0.18295749  0.25000000  0.94925321  1.0
  O  O25  1  0.81704251  0.75000000  0.05074679  1.0
  O  O26  1  0.10823160  0.25000000  0.41287798  1.0
  O  O27  1  0.89176840  0.75000000  0.58712202  1.0
  O  O28  1  0.93880045  0.25000000  0.10552184  1.0
  O  O29  1  0.06119955  0.75000000  0.89447816  1.0
  H  H30  1  0.80975654  0.25000000  0.10475819  1.0
  H  H31  1  0.19024346  0.75000000  0.89524181  1.0
  H  H32  1  0.58608922  0.25000000  0.87848947  1.0
  H  H33  1  0.41391078  0.75000000  0.12151053  1.0
  H  H34  1  0.25395641  0.25000000  0.46314595  1.0
  H  H35  1  0.74604359  0.75000000  0.53685405  1.0
  H  H36  1  0.05369091  0.25000000  0.28632306  1.0
  H  H37  1  0.94630909  0.75000000  0.71367694  1.0
