# generated using pymatgen
data_CdSi(AgS2)2
_symmetry_space_group_name_H-M   'P 1'
_cell_length_a   7.74787804
_cell_length_b   7.07367234
_cell_length_c   6.65231097
_cell_angle_alpha   90.00000000
_cell_angle_beta   90.00000000
_cell_angle_gamma   90.00000000
_symmetry_Int_Tables_number   1
_chemical_formula_structural   CdSi(AgS2)2
_chemical_formula_sum   'Cd2 Si2 Ag4 S8'
_cell_volume   364.58622668
_cell_formula_units_Z   2
loop_
 _symmetry_equiv_pos_site_id
 _symmetry_equiv_pos_as_xyz
  1  'x, y, z'
loop_
 _atom_site_type_symbol
 _atom_site_label
 _atom_site_symmetry_multiplicity
 _atom_site_fract_x
 _atom_site_fract_y
 _atom_site_fract_z
 _atom_site_occupancy
  Cd  Cd0  1  0.50000000  0.63715011  0.00185751  1.0
  Cd  Cd1  1  0.00000000  0.36284989  0.50185751  1.0
  Si  Si2  1  0.50000000  0.32512983  0.50242610  1.0
  Si  Si3  1  0.00000000  0.67487017  0.00242610  1.0
  Ag  Ag4  1  0.24242594  0.17249342  0.01827876  1.0
  Ag  Ag5  1  0.74242594  0.82750658  0.51827876  1.0
  Ag  Ag6  1  0.75757406  0.17249342  0.01827876  1.0
  Ag  Ag7  1  0.25757406  0.82750658  0.51827876  1.0
  S  S8  1  0.27447173  0.17342445  0.39838772  1.0
  S  S9  1  0.77447173  0.82657555  0.89838772  1.0
  S  S10  1  0.72552827  0.17342445  0.39838772  1.0
  S  S11  1  0.22552827  0.82657555  0.89838772  1.0
  S  S12  1  0.50000000  0.31790721  0.82550655  1.0
  S  S13  1  0.00000000  0.68209279  0.32550655  1.0
  S  S14  1  0.50000000  0.60941562  0.38937688  1.0
  S  S15  1  0.00000000  0.39058438  0.88937688  1.0
