# generated using pymatgen
data_MnBC5Cl2O5
_symmetry_space_group_name_H-M   'P 1'
_cell_length_a   14.11008140
_cell_length_b   7.33199954
_cell_length_c   13.09797369
_cell_angle_alpha   82.15362135
_cell_angle_beta   30.98164821
_cell_angle_gamma   66.86473044
_symmetry_Int_Tables_number   1
_chemical_formula_structural   MnBC5Cl2O5
_chemical_formula_sum   'Mn2 B2 C10 Cl4 O10'
_cell_volume   581.16253145
_cell_formula_units_Z   2
loop_
 _symmetry_equiv_pos_site_id
 _symmetry_equiv_pos_as_xyz
  1  'x, y, z'
loop_
 _atom_site_type_symbol
 _atom_site_label
 _atom_site_symmetry_multiplicity
 _atom_site_fract_x
 _atom_site_fract_y
 _atom_site_fract_z
 _atom_site_occupancy
  Mn  Mn0  1  0.76799986  -0.23200014  0.73200014  1.0
  Mn  Mn1  1  0.51799986  -0.48200014  0.48200014  1.0
  B  B2  1  0.93370781  -0.06629219  0.56629219  1.0
  B  B3  1  0.68370781  -0.31629219  0.31629219  1.0
  C  C4  1  0.62364999  -0.37635001  0.87635001  1.0
  C  C5  1  0.37364999  0.37364999  0.62635001  1.0
  C  C6  1  0.59179399  -0.04606227  0.77793727  1.0
  C  C7  1  -0.04606227  0.59179399  0.67633100  1.0
  C  C8  1  -0.42633100  0.47206273  1.29606227  1.0
  C  C9  1  0.47206273  -0.42633100  0.65820601  1.0
  C  C10  1  -0.40640579  0.97795165  0.97163260  1.0
  C  C11  1  0.97795165  -0.40640579  0.45682155  1.0
  C  C12  1  -0.20682155  0.27836740  1.27204835  1.0
  C  C13  1  0.27836740  -0.20682155  0.65640579  1.0
  Cl  Cl14  1  0.05226621  -0.03155290  0.56507969  1.0
  Cl  Cl15  1  -0.03155290  0.05226621  1.41420700  1.0
  Cl  Cl16  1  -0.16420700  0.68492031  1.28155290  1.0
  Cl  Cl17  1  0.68492031  -0.16420700  0.19773379  1.0
  O  O18  1  0.53321340  -0.46678660  0.96678660  1.0
  O  O19  1  0.28321340  0.28321340  0.71678660  1.0
  O  O20  1  0.48196315  0.06960442  0.80630441  1.0
  O  O21  1  0.06960442  0.48196315  0.64212802  1.0
  O  O22  1  -0.39212802  0.44369559  1.18039558  1.0
  O  O23  1  0.44369559  -0.39212802  0.76803685  1.0
  O  O24  1  0.48757239  0.11121809  0.11874396  1.0
  O  O25  1  0.11121809  0.48757239  1.28246556  1.0
  O  O26  1  -0.03246556  0.13125604  1.13878191  1.0
  O  O27  1  0.13125604  -0.03246556  0.76242761  1.0
