# generated using pymatgen
data_CaP2H8(CO3)2
_symmetry_space_group_name_H-M   'P 1'
_cell_length_a   11.04214890
_cell_length_b   11.04214890
_cell_length_c   7.23923635
_cell_angle_alpha   73.26495083
_cell_angle_beta   106.73504917
_cell_angle_gamma   149.73391730
_symmetry_Int_Tables_number   1
_chemical_formula_structural   CaP2H8(CO3)2
_chemical_formula_sum   'Ca2 P4 H16 C4 O12'
_cell_volume   424.62863539
_cell_formula_units_Z   2
loop_
 _symmetry_equiv_pos_site_id
 _symmetry_equiv_pos_as_xyz
  1  'x, y, z'
loop_
 _atom_site_type_symbol
 _atom_site_label
 _atom_site_symmetry_multiplicity
 _atom_site_fract_x
 _atom_site_fract_y
 _atom_site_fract_z
 _atom_site_occupancy
  Ca  Ca0  1  0.85942539  0.85942539  0.25000000  1.0
  Ca  Ca1  1  0.14057461  0.14057461  0.75000000  1.0
  P  P2  1  1.22106453  -0.58139378  0.05631156  1.0
  P  P3  1  1.41860622  0.22106453  0.44368844  1.0
  P  P4  1  0.77893547  -0.41860622  0.94368844  1.0
  P  P5  1  1.58139378  -0.22106453  0.55631156  1.0
  H  H6  1  1.20714766  -0.59548338  0.37051953  1.0
  H  H7  1  1.40451662  0.20714766  0.12948047  1.0
  H  H8  1  0.79285234  -0.40451662  0.62948047  1.0
  H  H9  1  1.59548338  -0.20714766  0.87051953  1.0
  H  H10  1  0.90833275  -0.71106395  0.86850261  1.0
  H  H11  1  1.28893605  -0.09166725  0.63149739  1.0
  H  H12  1  1.09166725  -0.28893605  0.13149739  1.0
  H  H13  1  1.71106395  0.09166725  0.36850261  1.0
  H  H14  1  1.15086925  -0.51124454  0.72674265  1.0
  H  H15  1  1.48875546  0.15086925  0.77325735  1.0
  H  H16  1  0.84913075  -0.48875546  0.27325735  1.0
  H  H17  1  1.51124454  -0.15086925  0.22674265  1.0
  H  H18  1  1.17947292  -0.39347553  0.89360751  1.0
  H  H19  1  1.60652447  0.17947292  0.60639249  1.0
  H  H20  1  0.82052708  -0.60652447  0.10639249  1.0
  H  H21  1  1.39347553  -0.17947292  0.39360751  1.0
  C  C22  1  1.10513387  -0.54387462  0.86784627  1.0
  C  C23  1  1.45612538  0.10513387  0.63215373  1.0
  C  C24  1  0.89486613  -0.45612538  0.13215373  1.0
  C  C25  1  1.54387462  -0.10513387  0.36784627  1.0
  O  O26  1  1.10640689  -0.66159328  0.24129348  1.0
  O  O27  1  1.33840672  0.10640689  0.25870652  1.0
  O  O28  1  0.89359311  -0.33840672  0.75870652  1.0
  O  O29  1  1.66159328  -0.10640689  0.74129348  1.0
  O  O30  1  1.11732206  -0.79107842  0.01759182  1.0
  O  O31  1  1.20892158  0.11732206  0.48240818  1.0
  O  O32  1  0.88267794  -0.20892158  0.98240818  1.0
  O  O33  1  1.79107842  -0.11732206  0.51759182  1.0
  O  O34  1  1.49923654  -0.34104582  0.07908644  1.0
  O  O35  1  0.65895418  -0.50076346  0.42091356  1.0
  O  O36  1  1.50076346  0.34104582  0.92091356  1.0
  O  O37  1  1.34104582  -0.49923654  0.57908644  1.0
