# generated using pymatgen
data_Nb2FeO6
_symmetry_space_group_name_H-M   'P 1'
_cell_length_a   14.33113689
_cell_length_b   5.78662498
_cell_length_c   5.07104478
_cell_angle_alpha   90.00000000
_cell_angle_beta   90.00000000
_cell_angle_gamma   90.00000000
_symmetry_Int_Tables_number   1
_chemical_formula_structural   Nb2FeO6
_chemical_formula_sum   'Nb8 Fe4 O24'
_cell_volume   420.53623982
_cell_formula_units_Z   4
loop_
 _symmetry_equiv_pos_site_id
 _symmetry_equiv_pos_as_xyz
  1  'x, y, z'
loop_
 _atom_site_type_symbol
 _atom_site_label
 _atom_site_symmetry_multiplicity
 _atom_site_fract_x
 _atom_site_fract_y
 _atom_site_fract_z
 _atom_site_occupancy
  Nb  Nb0  1  0.16080426  0.82189918  0.23995743  1.0
  Nb  Nb1  1  0.16080426  0.17810082  0.73995743  1.0
  Nb  Nb2  1  0.66080426  0.32189918  0.26004257  1.0
  Nb  Nb3  1  0.66080426  0.67810082  0.76004257  1.0
  Nb  Nb4  1  0.83919574  0.82189918  0.26004257  1.0
  Nb  Nb5  1  0.83919574  0.17810082  0.76004257  1.0
  Nb  Nb6  1  0.33919574  0.32189918  0.23995743  1.0
  Nb  Nb7  1  0.33919574  0.67810082  0.73995743  1.0
  Fe  Fe8  1  0.50000000  0.85337470  0.25000000  1.0
  Fe  Fe9  1  0.50000000  0.14662530  0.75000000  1.0
  Fe  Fe10  1  0.00000000  0.35337470  0.25000000  1.0
  Fe  Fe11  1  0.00000000  0.64662530  0.75000000  1.0
  O  O12  1  0.40397688  0.61062358  0.41584285  1.0
  O  O13  1  0.40397688  0.38937642  0.91584285  1.0
  O  O14  1  0.90397688  0.11062358  0.08415715  1.0
  O  O15  1  0.90397688  0.88937642  0.58415715  1.0
  O  O16  1  0.59602312  0.61062358  0.08415715  1.0
  O  O17  1  0.59602312  0.38937642  0.58415715  1.0
  O  O18  1  0.09602312  0.11062358  0.41584285  1.0
  O  O19  1  0.09602312  0.88937642  0.91584285  1.0
  O  O20  1  0.25545694  0.62463620  0.07256736  1.0
  O  O21  1  0.25545694  0.37536380  0.57256736  1.0
  O  O22  1  0.75545694  0.12463620  0.42743264  1.0
  O  O23  1  0.75545694  0.87536380  0.92743264  1.0
  O  O24  1  0.74454306  0.62463620  0.42743264  1.0
  O  O25  1  0.74454306  0.37536380  0.92743264  1.0
  O  O26  1  0.24454306  0.12463620  0.07256736  1.0
  O  O27  1  0.24454306  0.87536380  0.57256736  1.0
  O  O28  1  0.07969520  0.62426133  0.40425558  1.0
  O  O29  1  0.07969520  0.37573867  0.90425558  1.0
  O  O30  1  0.57969520  0.12426133  0.09574442  1.0
  O  O31  1  0.57969520  0.87573867  0.59574442  1.0
  O  O32  1  0.92030480  0.62426133  0.09574442  1.0
  O  O33  1  0.92030480  0.37573867  0.59574442  1.0
  O  O34  1  0.42030480  0.12426133  0.40425558  1.0
  O  O35  1  0.42030480  0.87573867  0.90425558  1.0
