# generated using pymatgen
data_ZrTlCuSe3
_symmetry_space_group_name_H-M   'P 1'
_cell_length_a   7.69987513
_cell_length_b   7.69987513
_cell_length_c   10.17809064
_cell_angle_alpha   90.00000000
_cell_angle_beta   90.00000000
_cell_angle_gamma   150.87072413
_symmetry_Int_Tables_number   1
_chemical_formula_structural   ZrTlCuSe3
_chemical_formula_sum   'Zr2 Tl2 Cu2 Se6'
_cell_volume   293.74331597
_cell_formula_units_Z   2
loop_
 _symmetry_equiv_pos_site_id
 _symmetry_equiv_pos_as_xyz
  1  'x, y, z'
loop_
 _atom_site_type_symbol
 _atom_site_label
 _atom_site_symmetry_multiplicity
 _atom_site_fract_x
 _atom_site_fract_y
 _atom_site_fract_z
 _atom_site_occupancy
  Zr  Zr0  1  0.00000000  0.00000000  0.00000000  1.0
  Zr  Zr1  1  0.00000000  0.00000000  0.50000000  1.0
  Tl  Tl2  1  -0.24719071  0.24719071  0.75000000  1.0
  Tl  Tl3  1  0.24719071  0.75280929  0.25000000  1.0
  Cu  Cu4  1  0.46624919  0.53375081  0.75000000  1.0
  Cu  Cu5  1  -0.46624919  0.46624919  0.25000000  1.0
  Se  Se6  1  0.37578420  0.62421580  0.94835478  1.0
  Se  Se7  1  0.37578420  0.62421580  0.55164522  1.0
  Se  Se8  1  -0.37578420  0.37578420  0.44835478  1.0
  Se  Se9  1  -0.37578420  0.37578420  0.05164522  1.0
  Se  Se10  1  0.06788764  0.93211236  0.75000000  1.0
  Se  Se11  1  -0.06788764  0.06788764  0.25000000  1.0
