# generated using pymatgen
data_Sr6SmGa(BO3)6
_symmetry_space_group_name_H-M   'P 1'
_cell_length_a   7.78489164
_cell_length_b   7.78489164
_cell_length_c   7.78489164
_cell_angle_alpha   105.32619331
_cell_angle_beta   105.32619331
_cell_angle_gamma   105.32619331
_symmetry_Int_Tables_number   1
_chemical_formula_structural   Sr6SmGa(BO3)6
_chemical_formula_sum   'Sr6 Sm1 Ga1 B6 O18'
_cell_volume   409.53834063
_cell_formula_units_Z   1
loop_
 _symmetry_equiv_pos_site_id
 _symmetry_equiv_pos_as_xyz
  1  'x, y, z'
loop_
 _atom_site_type_symbol
 _atom_site_label
 _atom_site_symmetry_multiplicity
 _atom_site_fract_x
 _atom_site_fract_y
 _atom_site_fract_z
 _atom_site_occupancy
  Sr  Sr0  1  0.76908848  0.66315912  0.15157827  1.0
  Sr  Sr1  1  1.33684088  -0.15157827  0.23091152  1.0
  Sr  Sr2  1  0.84842173  0.23091152  0.33684088  1.0
  Sr  Sr3  1  1.23091152  0.33684088  -0.15157827  1.0
  Sr  Sr4  1  0.66315912  1.15157827  -0.23091152  1.0
  Sr  Sr5  1  1.15157827  0.76908848  -0.33684088  1.0
  Sm  Sm6  1  0.50000000  0.50000000  0.50000000  1.0
  Ga  Ga7  1  0.00000000  0.00000000  0.00000000  1.0
  B  B8  1  1.55201064  0.79832800  -0.11589827  1.0
  B  B9  1  1.20167200  0.11589827  -0.55201065  1.0
  B  B10  1  1.11589827  -0.55201064  0.20167200  1.0
  B  B11  1  0.44798936  0.20167200  0.11589827  1.0
  B  B12  1  0.79832800  0.88410173  0.55201064  1.0
  B  B13  1  0.88410173  1.55201064  -0.20167200  1.0
  O  O14  1  0.73340464  0.92852966  0.00678910  1.0
  O  O15  1  1.07147034  -0.00678910  -0.73340464  1.0
  O  O16  1  0.99321090  -0.73340464  0.07147034  1.0
  O  O17  1  0.26659536  0.07147034  -0.00678910  1.0
  O  O18  1  0.92852966  1.00678910  -0.26659536  1.0
  O  O19  1  1.00678910  0.73340464  -0.07147034  1.0
  O  O20  1  1.48932325  0.78300058  -0.30625790  1.0
  O  O21  1  1.21699942  0.30625790  -0.48932325  1.0
  O  O22  1  1.30625790  -0.48932325  0.21699942  1.0
  O  O23  1  0.51067675  0.21699942  0.30625790  1.0
  O  O24  1  0.78300058  0.69374210  0.48932325  1.0
  O  O25  1  0.69374210  1.48932325  -0.21699942  1.0
  O  O26  1  0.56474323  0.30469727  0.04556181  1.0
  O  O27  1  0.69530273  0.95443819  0.43525677  1.0
  O  O28  1  0.95443819  1.43525677  -0.30469727  1.0
  O  O29  1  1.43525677  0.69530273  -0.04556181  1.0
  O  O30  1  1.30469727  0.04556181  -0.43525677  1.0
  O  O31  1  1.04556181  -0.43525677  0.30469727  1.0
