# generated using pymatgen
data_K4BeAs2
_symmetry_space_group_name_H-M   'P 1'
_cell_length_a   9.29179550
_cell_length_b   9.29179550
_cell_length_c   9.29179550
_cell_angle_alpha   35.80704521
_cell_angle_beta   35.80704521
_cell_angle_gamma   35.80704521
_symmetry_Int_Tables_number   1
_chemical_formula_structural   K4BeAs2
_chemical_formula_sum   'K4 Be1 As2'
_cell_volume   245.52424199
_cell_formula_units_Z   1
loop_
 _symmetry_equiv_pos_site_id
 _symmetry_equiv_pos_as_xyz
  1  'x, y, z'
loop_
 _atom_site_type_symbol
 _atom_site_label
 _atom_site_symmetry_multiplicity
 _atom_site_fract_x
 _atom_site_fract_y
 _atom_site_fract_z
 _atom_site_occupancy
  K  K0  1  0.79111703  0.79111703  0.79111703  1.0
  K  K1  1  1.20888297  1.20888297  0.20888297  1.0
  K  K2  1  1.62368867  0.62368867  0.62368867  1.0
  K  K3  1  1.37631133  0.37631133  0.37631133  1.0
  Be  Be4  1  0.00000000  0.00000000  0.00000000  1.0
  As  As5  1  0.91980945  0.91980945  0.91980945  1.0
  As  As6  1  1.08019055  1.08019055  0.08019055  1.0
