# generated using pymatgen
data_GdH2I3O10
_symmetry_space_group_name_H-M   'P 1'
_cell_length_a   7.41476260
_cell_length_b   6.63880296
_cell_length_c   10.11320157
_cell_angle_alpha   90.00000000
_cell_angle_beta   109.63217951
_cell_angle_gamma   90.00000000
_symmetry_Int_Tables_number   1
_chemical_formula_structural   GdH2I3O10
_chemical_formula_sum   'Gd2 H4 I6 O20'
_cell_volume   468.88479625
_cell_formula_units_Z   2
loop_
 _symmetry_equiv_pos_site_id
 _symmetry_equiv_pos_as_xyz
  1  'x, y, z'
loop_
 _atom_site_type_symbol
 _atom_site_label
 _atom_site_symmetry_multiplicity
 _atom_site_fract_x
 _atom_site_fract_y
 _atom_site_fract_z
 _atom_site_occupancy
  Gd  Gd0  1  0.23451340  0.12320533  0.81029841  1.0
  Gd  Gd1  1  0.76548660  0.62320533  0.18970159  1.0
  H  H2  1  0.78553791  0.95564921  0.60224587  1.0
  H  H3  1  0.21446209  0.45564921  0.39775413  1.0
  H  H4  1  0.38585074  0.35637537  0.51739785  1.0
  H  H5  1  0.61414926  0.85637537  0.48260215  1.0
  I  I6  1  0.85955526  0.47283212  0.58899289  1.0
  I  I7  1  0.14044474  0.97283212  0.41100711  1.0
  I  I8  1  0.83778663  0.10502106  0.97087753  1.0
  I  I9  1  0.16221337  0.60502106  0.02912247  1.0
  I  I10  1  0.47851928  0.65282409  0.77848989  1.0
  I  I11  1  0.52148072  0.15282409  0.22151011  1.0
  O  O12  1  0.96175151  0.20751646  0.60731052  1.0
  O  O13  1  0.03824849  0.70751646  0.39268948  1.0
  O  O14  1  0.95973937  -0.01685778  0.85406325  1.0
  O  O15  1  0.04026063  0.48314222  0.14593675  1.0
  O  O16  1  0.73425920  0.45660337  0.39278443  1.0
  O  O17  1  0.26574080  0.95660337  0.60721557  1.0
  O  O18  1  0.70357127  0.26757006  0.14460592  1.0
  O  O19  1  0.29642873  0.76757006  0.85539408  1.0
  O  O20  1  0.65436673  0.42330394  0.65318508  1.0
  O  O21  1  0.34563327  0.92330394  0.34681492  1.0
  O  O22  1  0.67612036  0.57928252  0.94269424  1.0
  O  O23  1  0.32387964  0.07928252  0.05730576  1.0
  O  O24  1  0.58456503  0.02488515  0.86977255  1.0
  O  O25  1  0.41543497  0.52488515  0.13022745  1.0
  O  O26  1  0.34152180  0.41028687  0.72532621  1.0
  O  O27  1  0.65847820  0.91028687  0.27467379  1.0
  O  O28  1  0.29208259  0.33260937  0.42335284  1.0
  O  O29  1  0.70791741  0.83260937  0.57664716  1.0
  O  O30  1  0.07752471  0.40919286  0.88401001  1.0
  O  O31  1  0.92247529  0.90919286  0.11598999  1.0
