# generated using pymatgen
data_Zr3SO9
_symmetry_space_group_name_H-M   'P 1'
_cell_length_a   6.38485531
_cell_length_b   6.38485531
_cell_length_c   10.43900898
_cell_angle_alpha   90.00000000
_cell_angle_beta   90.00000000
_cell_angle_gamma   120.00000000
_symmetry_Int_Tables_number   1
_chemical_formula_structural   Zr3SO9
_chemical_formula_sum   'Zr6 S2 O18'
_cell_volume   368.54627238
_cell_formula_units_Z   2
loop_
 _symmetry_equiv_pos_site_id
 _symmetry_equiv_pos_as_xyz
  1  'x, y, z'
loop_
 _atom_site_type_symbol
 _atom_site_label
 _atom_site_symmetry_multiplicity
 _atom_site_fract_x
 _atom_site_fract_y
 _atom_site_fract_z
 _atom_site_occupancy
  Zr  Zr0  1  0.33331954  1.03264504  0.13661690  1.0
  Zr  Zr1  1  1.03264504  0.69932549  0.86338310  1.0
  Zr  Zr2  1  0.69932549  0.66668046  0.13661690  1.0
  Zr  Zr3  1  -0.03264504  0.30067451  0.13661690  1.0
  Zr  Zr4  1  0.66668046  -0.03264504  0.86338310  1.0
  Zr  Zr5  1  0.30067451  0.33331954  0.86338310  1.0
  S  S6  1  0.33333333  0.66666667  0.32710187  1.0
  S  S7  1  0.66666667  0.33333333  0.67289813  1.0
  O  O8  1  0.33416048  0.89377633  0.35696852  1.0
  O  O9  1  0.89377633  0.55961584  0.64303148  1.0
  O  O10  1  0.55961584  0.66583952  0.35696852  1.0
  O  O11  1  0.10622367  0.44038416  0.35696852  1.0
  O  O12  1  0.66583952  0.10622367  0.64303148  1.0
  O  O13  1  0.44038416  0.33416048  0.64303148  1.0
  O  O14  1  1.00222447  0.66865877  0.06543090  1.0
  O  O15  1  0.66865877  0.66643430  0.93456910  1.0
  O  O16  1  0.66643430  -0.00222447  0.06543090  1.0
  O  O17  1  0.33134123  0.33356570  0.06543090  1.0
  O  O18  1  -0.00222447  0.33134123  0.93456910  1.0
  O  O19  1  0.33356570  1.00222447  0.93456910  1.0
  O  O20  1  0.33333333  0.66666667  0.17722455  1.0
  O  O21  1  0.66666667  0.33333333  0.82277545  1.0
  O  O22  1  0.33333333  0.66666667  0.80031101  1.0
  O  O23  1  0.66666667  0.33333333  0.19968899  1.0
  O  O24  1  0.00000000  0.00000000  0.20053518  1.0
  O  O25  1  0.00000000  0.00000000  0.79946482  1.0
