# generated using pymatgen
data_SrNiF4
_symmetry_space_group_name_H-M   'P 1'
_cell_length_a   7.62761252
_cell_length_b   7.62761252
_cell_length_c   5.68647082
_cell_angle_alpha   90.00000000
_cell_angle_beta   90.00000000
_cell_angle_gamma   149.38632135
_symmetry_Int_Tables_number   1
_chemical_formula_structural   SrNiF4
_chemical_formula_sum   'Sr2 Ni2 F8'
_cell_volume   168.48003693
_cell_formula_units_Z   2
loop_
 _symmetry_equiv_pos_site_id
 _symmetry_equiv_pos_as_xyz
  1  'x, y, z'
loop_
 _atom_site_type_symbol
 _atom_site_label
 _atom_site_symmetry_multiplicity
 _atom_site_fract_x
 _atom_site_fract_y
 _atom_site_fract_z
 _atom_site_occupancy
  Sr  Sr0  1  -0.65725578  0.65725578  0.12252182  1.0
  Sr  Sr1  1  -0.34274422  1.34274422  0.62252182  1.0
  Ni  Ni2  1  -0.91458095  0.91458095  0.17825300  1.0
  Ni  Ni3  1  -0.08541905  1.08541905  0.67825300  1.0
  F  F4  1  -0.96470502  0.96470502  0.51884738  1.0
  F  F5  1  -0.03529498  1.03529498  0.01884738  1.0
  F  F6  1  -0.83899849  0.83899849  0.88711900  1.0
  F  F7  1  -0.16100151  1.16100151  0.38711900  1.0
  F  F8  1  -0.79673749  0.79673749  0.37100382  1.0
  F  F9  1  -0.20326251  1.20326251  0.87100382  1.0
  F  F10  1  -0.41364968  1.41364968  0.20615498  1.0
  F  F11  1  -0.58635032  0.58635032  0.70615498  1.0
