# generated using pymatgen
data_CaCu(GeO3)2
_symmetry_space_group_name_H-M   'P 1'
_cell_length_a   7.00975331
_cell_length_b   7.00975331
_cell_length_c   5.36580774
_cell_angle_alpha   78.62580955
_cell_angle_beta   101.37419045
_cell_angle_gamma   93.86967532
_symmetry_Int_Tables_number   1
_chemical_formula_structural   CaCu(GeO3)2
_chemical_formula_sum   'Ca2 Cu2 Ge4 O12'
_cell_volume   253.29088630
_cell_formula_units_Z   2
loop_
 _symmetry_equiv_pos_site_id
 _symmetry_equiv_pos_as_xyz
  1  'x, y, z'
loop_
 _atom_site_type_symbol
 _atom_site_label
 _atom_site_symmetry_multiplicity
 _atom_site_fract_x
 _atom_site_fract_y
 _atom_site_fract_z
 _atom_site_occupancy
  Ge  Ge0  1  1.30634133  -0.11962680  0.31383958  1.0
  Ge  Ge1  1  1.11962680  -0.30634133  0.81383958  1.0
  Ge  Ge2  1  0.88037320  0.30634133  0.18616042  1.0
  Ge  Ge3  1  0.69365867  0.11962680  0.68616042  1.0
  O  O4  1  0.80620177  0.09853629  0.41698437  1.0
  O  O5  1  0.90146371  0.19379823  0.91698437  1.0
  O  O6  1  1.09853629  -0.19379823  0.08301563  1.0
  O  O7  1  1.19379823  -0.09853629  0.58301563  1.0
  O  O8  1  0.38001726  0.10861004  0.16567540  1.0
  O  O9  1  0.89138996  0.61998274  0.66567540  1.0
  O  O10  1  1.10861004  -0.61998274  0.33432460  1.0
  O  O11  1  1.61998274  -0.10861004  0.83432460  1.0
  O  O12  1  1.48025722  -0.30565867  0.39257175  1.0
  O  O13  1  1.30565867  -0.48025722  0.89257175  1.0
  O  O14  1  0.69434133  0.48025722  0.10742825  1.0
  O  O15  1  0.51974278  0.30565867  0.60742825  1.0
  Cu  Cu16  1  0.39879247  0.39879247  0.25000000  1.0
  Cu  Cu17  1  0.60120753  0.60120753  0.75000000  1.0
  Ca  Ca18  1  0.78508031  0.78508031  0.25000000  1.0
  Ca  Ca19  1  0.21491969  0.21491969  0.75000000  1.0
