# generated using pymatgen
data_Tl2PO4
_symmetry_space_group_name_H-M   'P 1'
_cell_length_a   5.74860958
_cell_length_b   6.48455863
_cell_length_c   15.97721096
_cell_angle_alpha   90.00000000
_cell_angle_beta   95.84176654
_cell_angle_gamma   90.00000000
_symmetry_Int_Tables_number   1
_chemical_formula_structural   Tl2PO4
_chemical_formula_sum   'Tl8 P4 O16'
_cell_volume   592.49261365
_cell_formula_units_Z   4
loop_
 _symmetry_equiv_pos_site_id
 _symmetry_equiv_pos_as_xyz
  1  'x, y, z'
loop_
 _atom_site_type_symbol
 _atom_site_label
 _atom_site_symmetry_multiplicity
 _atom_site_fract_x
 _atom_site_fract_y
 _atom_site_fract_z
 _atom_site_occupancy
  Tl  Tl0  1  0.66649967  0.98195337  0.10450677  1.0
  Tl  Tl1  1  0.66649967  0.01804663  0.60450677  1.0
  Tl  Tl2  1  0.13628908  0.47378316  0.98888521  1.0
  Tl  Tl3  1  0.13628908  0.52621684  0.48888521  1.0
  Tl  Tl4  1  0.71014920  0.50988544  0.74423204  1.0
  Tl  Tl5  1  0.71014920  0.49011456  0.24423204  1.0
  Tl  Tl6  1  0.29053395  1.00354741  0.32521288  1.0
  Tl  Tl7  1  0.29053395  -0.00354741  0.82521288  1.0
  P  P8  1  0.17985094  0.24125266  0.17668366  1.0
  P  P9  1  0.17985094  0.75874734  0.67668366  1.0
  P  P10  1  0.78108274  0.02672793  0.39262128  1.0
  P  P11  1  0.78108274  0.97327207  0.89262128  1.0
  O  O12  1  0.39182252  0.31926478  0.13325465  1.0
  O  O13  1  0.39182252  0.68073522  0.63325465  1.0
  O  O14  1  0.94732300  0.30644056  0.12524057  1.0
  O  O15  1  0.94732300  0.69355944  0.62524057  1.0
  O  O16  1  0.18843461  0.32232621  0.27129085  1.0
  O  O17  1  0.18843461  0.67767379  0.77129085  1.0
  O  O18  1  0.19030582  -0.00519295  0.18693172  1.0
  O  O19  1  0.19030582  1.00519295  0.68693172  1.0
  O  O20  1  0.67893952  0.11560074  0.30485848  1.0
  O  O21  1  0.67893952  0.88439926  0.80485848  1.0
  O  O22  1  0.56898838  -0.10968222  0.42113452  1.0
  O  O23  1  0.56898838  1.10968222  0.92113452  1.0
  O  O24  1  -0.13887265  0.18796563  0.45869120  1.0
  O  O25  1  -0.13887265  0.81203437  0.95869120  1.0
  O  O26  1  -0.01278679  0.86825664  0.37918616  1.0
  O  O27  1  -0.01278679  0.13174336  0.87918616  1.0
