# generated using pymatgen
data_Na3NbOF6
_symmetry_space_group_name_H-M   'P 1'
_cell_length_a   5.75831621
_cell_length_b   5.85272120
_cell_length_c   17.19184874
_cell_angle_alpha   90.00000000
_cell_angle_beta   90.00000000
_cell_angle_gamma   90.00000000
_symmetry_Int_Tables_number   1
_chemical_formula_structural   Na3NbOF6
_chemical_formula_sum   'Na12 Nb4 O4 F24'
_cell_volume   579.39658059
_cell_formula_units_Z   4
loop_
 _symmetry_equiv_pos_site_id
 _symmetry_equiv_pos_as_xyz
  1  'x, y, z'
loop_
 _atom_site_type_symbol
 _atom_site_label
 _atom_site_symmetry_multiplicity
 _atom_site_fract_x
 _atom_site_fract_y
 _atom_site_fract_z
 _atom_site_occupancy
  Na  Na0  1  0.26440353  0.52873879  0.75815371  1.0
  Na  Na1  1  0.76440353  0.97126121  0.24184629  1.0
  Na  Na2  1  0.73559647  0.02873879  0.74184629  1.0
  Na  Na3  1  0.23559647  0.47126121  0.25815371  1.0
  Na  Na4  1  0.24119282  0.98350121  0.87602081  1.0
  Na  Na5  1  0.74119282  0.51649879  0.12397919  1.0
  Na  Na6  1  0.75880718  0.48350121  0.62397919  1.0
  Na  Na7  1  0.25880718  0.01649879  0.37602081  1.0
  Na  Na8  1  0.78227823  0.99273820  0.50504383  1.0
  Na  Na9  1  0.28227823  0.50726180  0.49495617  1.0
  Na  Na10  1  0.21772177  0.49273820  0.99495617  1.0
  Na  Na11  1  0.71772177  0.00726180  0.00504383  1.0
  Nb  Nb12  1  0.25428267  0.99307966  0.12503266  1.0
  Nb  Nb13  1  0.75428267  0.50692034  0.87496734  1.0
  Nb  Nb14  1  0.74571733  0.49307966  0.37496734  1.0
  Nb  Nb15  1  0.24571733  0.00692034  0.62503266  1.0
  O  O16  1  0.49019214  0.65437053  0.88876600  1.0
  O  O17  1  0.99019214  0.84562947  0.11123400  1.0
  O  O18  1  0.50980786  0.15437053  0.61123400  1.0
  O  O19  1  0.00980786  0.34562947  0.38876600  1.0
  F  F20  1  0.44443292  0.75505263  0.06192075  1.0
  F  F21  1  0.94443292  0.74494737  0.93807925  1.0
  F  F22  1  0.55556708  0.25505263  0.43807925  1.0
  F  F23  1  0.05556708  0.24494737  0.56192075  1.0
  F  F24  1  0.37031935  0.67966134  0.62278766  1.0
  F  F25  1  0.87031935  0.82033866  0.37721234  1.0
  F  F26  1  0.62968065  0.17966134  0.87721234  1.0
  F  F27  1  0.12968065  0.32033866  0.12278766  1.0
  F  F28  1  0.34467508  0.91822387  0.73755297  1.0
  F  F29  1  0.84467508  0.58177613  0.26244703  1.0
  F  F30  1  0.65532492  0.41822387  0.76244703  1.0
  F  F31  1  0.15532492  0.08177613  0.23755297  1.0
  F  F32  1  0.22224051  0.89590773  0.51176446  1.0
  F  F33  1  0.72224051  0.60409227  0.48823554  1.0
  F  F34  1  0.77775949  0.39590773  0.98823554  1.0
  F  F35  1  0.27775949  0.10409227  0.01176446  1.0
  F  F36  1  0.92061933  0.83790422  0.63410075  1.0
  F  F37  1  0.42061933  0.66209578  0.36589925  1.0
  F  F38  1  0.07938067  0.33790422  0.86589925  1.0
  F  F39  1  0.57938067  0.16209578  0.13410075  1.0
  F  F40  1  0.91614859  0.72337485  0.79982133  1.0
  F  F41  1  0.41614859  0.77662515  0.20017867  1.0
  F  F42  1  0.08385141  0.22337485  0.70017867  1.0
  F  F43  1  0.58385141  0.27662515  0.29982133  1.0
