# generated using pymatgen
data_Y5Bi3
_symmetry_space_group_name_H-M   'P 1'
_cell_length_a   8.26364544
_cell_length_b   9.52787879
_cell_length_c   12.06805746
_cell_angle_alpha   90.00000000
_cell_angle_beta   90.00000000
_cell_angle_gamma   90.00000000
_symmetry_Int_Tables_number   1
_chemical_formula_structural   Y5Bi3
_chemical_formula_sum   'Y20 Bi12'
_cell_volume   950.17864931
_cell_formula_units_Z   4
loop_
 _symmetry_equiv_pos_site_id
 _symmetry_equiv_pos_as_xyz
  1  'x, y, z'
loop_
 _atom_site_type_symbol
 _atom_site_label
 _atom_site_symmetry_multiplicity
 _atom_site_fract_x
 _atom_site_fract_y
 _atom_site_fract_z
 _atom_site_occupancy
  Y  Y0  1  0.30592148  0.93803441  0.55905013  1.0
  Y  Y1  1  0.30592148  0.56196559  0.55905013  1.0
  Y  Y2  1  0.80592148  0.93803441  0.94094987  1.0
  Y  Y3  1  0.80592148  0.56196559  0.94094987  1.0
  Y  Y4  1  0.69407852  0.43803441  0.44094987  1.0
  Y  Y5  1  0.69407852  0.06196559  0.44094987  1.0
  Y  Y6  1  0.19407852  0.43803441  0.05905013  1.0
  Y  Y7  1  0.19407852  0.06196559  0.05905013  1.0
  Y  Y8  1  0.47397410  0.75000000  0.01125655  1.0
  Y  Y9  1  0.97397410  0.75000000  0.48874345  1.0
  Y  Y10  1  0.52602590  0.25000000  0.98874345  1.0
  Y  Y11  1  0.02602590  0.25000000  0.51125655  1.0
  Y  Y12  1  0.31326333  0.75000000  0.28052241  1.0
  Y  Y13  1  0.81326333  0.75000000  0.21947759  1.0
  Y  Y14  1  0.68673667  0.25000000  0.71947759  1.0
  Y  Y15  1  0.18673667  0.25000000  0.78052241  1.0
  Y  Y16  1  0.14604649  0.75000000  0.78593920  1.0
  Y  Y17  1  0.64604649  0.75000000  0.71406080  1.0
  Y  Y18  1  0.85395351  0.25000000  0.21406080  1.0
  Y  Y19  1  0.35395351  0.25000000  0.28593920  1.0
  Bi  Bi20  1  0.43431105  0.99575178  0.82592139  1.0
  Bi  Bi21  1  0.43431105  0.50424822  0.82592139  1.0
  Bi  Bi22  1  0.93431105  0.99575178  0.67407861  1.0
  Bi  Bi23  1  0.93431105  0.50424822  0.67407861  1.0
  Bi  Bi24  1  0.56568895  0.49575178  0.17407861  1.0
  Bi  Bi25  1  0.56568895  0.00424822  0.17407861  1.0
  Bi  Bi26  1  0.06568895  0.49575178  0.32592139  1.0
  Bi  Bi27  1  0.06568895  0.00424822  0.32592139  1.0
  Bi  Bi28  1  0.08968287  0.75000000  0.04246218  1.0
  Bi  Bi29  1  0.58968287  0.75000000  0.45753782  1.0
  Bi  Bi30  1  0.91031713  0.25000000  0.95753782  1.0
  Bi  Bi31  1  0.41031713  0.25000000  0.54246218  1.0
