# generated using pymatgen
data_GeTe
_symmetry_space_group_name_H-M   'P 1'
_cell_length_a   6.07557636
_cell_length_b   6.07557636
_cell_length_c   6.07557636
_cell_angle_alpha   88.09744084
_cell_angle_beta   88.09744084
_cell_angle_gamma   88.09744084
_symmetry_Int_Tables_number   1
_chemical_formula_structural   GeTe
_chemical_formula_sum   'Ge4 Te4'
_cell_volume   223.90261684
_cell_formula_units_Z   4
loop_
 _symmetry_equiv_pos_site_id
 _symmetry_equiv_pos_as_xyz
  1  'x, y, z'
loop_
 _atom_site_type_symbol
 _atom_site_label
 _atom_site_symmetry_multiplicity
 _atom_site_fract_x
 _atom_site_fract_y
 _atom_site_fract_z
 _atom_site_occupancy
  Ge  Ge0  1  1.30367218  1.30367218  0.30367218  1.0
  Ge  Ge1  1  0.30368345  0.80361088  -0.19638912  1.0
  Ge  Ge2  1  0.80361088  0.80361088  -0.69631655  1.0
  Ge  Ge3  1  0.80361088  0.30368345  -0.19638912  1.0
  Te  Te4  1  0.27355481  0.27355481  -0.22641241  1.0
  Te  Te5  1  0.27355481  0.77358759  -0.72644519  1.0
  Te  Te6  1  0.77358759  0.27355481  -0.72644519  1.0
  Te  Te7  1  0.77359206  0.77359206  -0.22640794  1.0
