# generated using pymatgen
data_TaS2
_symmetry_space_group_name_H-M   'P 1'
_cell_length_a   12.94510443
_cell_length_b   12.94510443
_cell_length_c   12.94510443
_cell_angle_alpha   14.88325668
_cell_angle_beta   14.88325668
_cell_angle_gamma   14.88325668
_symmetry_Int_Tables_number   1
_chemical_formula_structural   TaS2
_chemical_formula_sum   'Ta2 S4'
_cell_volume   124.63578136
_cell_formula_units_Z   2
loop_
 _symmetry_equiv_pos_site_id
 _symmetry_equiv_pos_as_xyz
  1  'x, y, z'
loop_
 _atom_site_type_symbol
 _atom_site_label
 _atom_site_symmetry_multiplicity
 _atom_site_fract_x
 _atom_site_fract_y
 _atom_site_fract_z
 _atom_site_occupancy
  Ta  Ta0  1  0.62476494  0.62476494  -0.37523506  1.0
  Ta  Ta1  1  0.45856212  0.45856212  -0.54143788  1.0
  S  S2  1  0.16538277  0.16538277  0.16538277  1.0
  S  S3  1  -0.00133478  -0.00133478  -0.00133478  1.0
  S  S4  1  0.91759815  -0.08240185  -0.08240185  1.0
  S  S5  1  0.75172679  -0.24827321  -0.24827321  1.0
