# generated using pymatgen
data_Sr5V3ClO12
_symmetry_space_group_name_H-M   'P 1'
_cell_length_a   10.46020626
_cell_length_b   10.46020626
_cell_length_c   7.25170851
_cell_angle_alpha   90.00000000
_cell_angle_beta   90.00000000
_cell_angle_gamma   120.00000000
_symmetry_Int_Tables_number   1
_chemical_formula_structural   Sr5V3ClO12
_chemical_formula_sum   'Sr10 V6 Cl2 O24'
_cell_volume   687.14986784
_cell_formula_units_Z   2
loop_
 _symmetry_equiv_pos_site_id
 _symmetry_equiv_pos_as_xyz
  1  'x, y, z'
loop_
 _atom_site_type_symbol
 _atom_site_label
 _atom_site_symmetry_multiplicity
 _atom_site_fract_x
 _atom_site_fract_y
 _atom_site_fract_z
 _atom_site_occupancy
  Sr  Sr0  1  0.01419673  0.75430702  0.25000000  1.0
  Sr  Sr1  1  0.75430702  0.74011029  0.75000000  1.0
  Sr  Sr2  1  0.74011029  0.98580327  0.25000000  1.0
  Sr  Sr3  1  0.24569298  0.25988971  0.25000000  1.0
  Sr  Sr4  1  0.98580327  0.24569298  0.75000000  1.0
  Sr  Sr5  1  0.25988971  0.01419673  0.75000000  1.0
  Sr  Sr6  1  0.33333333  0.66666667  0.50315038  1.0
  Sr  Sr7  1  0.33333333  0.66666667  -0.00315038  1.0
  Sr  Sr8  1  0.66666667  0.33333333  0.00315038  1.0
  Sr  Sr9  1  0.66666667  0.33333333  0.49684962  1.0
  V  V10  1  0.37715802  0.96731861  0.25000000  1.0
  V  V11  1  0.96731861  0.59016059  0.75000000  1.0
  V  V12  1  0.59016059  0.62284198  0.25000000  1.0
  V  V13  1  0.03268139  0.40983941  0.25000000  1.0
  V  V14  1  0.62284198  0.03268139  0.75000000  1.0
  V  V15  1  0.40983941  0.37715802  0.75000000  1.0
  Cl  Cl16  1  0.00000000  0.00000000  0.50000000  1.0
  Cl  Cl17  1  0.00000000  0.00000000  0.00000000  1.0
  O  O18  1  0.26219245  0.90963478  0.43819253  1.0
  O  O19  1  0.26219245  0.90963478  0.06180747  1.0
  O  O20  1  0.90963478  0.64744233  0.93819253  1.0
  O  O21  1  0.90963478  0.64744233  0.56180747  1.0
  O  O22  1  0.64744233  0.73780755  0.43819253  1.0
  O  O23  1  0.64744233  0.73780755  0.06180747  1.0
  O  O24  1  0.09036522  0.35255767  0.43819253  1.0
  O  O25  1  0.09036522  0.35255767  0.06180747  1.0
  O  O26  1  0.73780755  0.09036522  0.93819253  1.0
  O  O27  1  0.73780755  0.09036522  0.56180747  1.0
  O  O28  1  0.35255767  0.26219245  0.93819253  1.0
  O  O29  1  0.35255767  0.26219245  0.56180747  1.0
  O  O30  1  0.46829427  0.86642194  0.25000000  1.0
  O  O31  1  0.86642194  0.39812767  0.75000000  1.0
  O  O32  1  0.39812767  0.53170573  0.25000000  1.0
  O  O33  1  0.13357806  0.60187233  0.25000000  1.0
  O  O34  1  0.53170573  0.13357806  0.75000000  1.0
  O  O35  1  0.60187233  0.46829427  0.75000000  1.0
  O  O36  1  0.65695280  0.50276089  0.25000000  1.0
  O  O37  1  0.50276089  0.84580809  0.75000000  1.0
  O  O38  1  0.84580809  0.34304720  0.25000000  1.0
  O  O39  1  0.49723911  0.15419191  0.25000000  1.0
  O  O40  1  0.34304720  0.49723911  0.75000000  1.0
  O  O41  1  0.15419191  0.65695280  0.75000000  1.0
