# generated using pymatgen
data_Lu3ClO4
_symmetry_space_group_name_H-M   'P 1'
_cell_length_a   6.05728854
_cell_length_b   6.05728854
_cell_length_c   11.46122018
_cell_angle_alpha   90.00000000
_cell_angle_beta   90.00000000
_cell_angle_gamma   141.46260258
_symmetry_Int_Tables_number   1
_chemical_formula_structural   Lu3ClO4
_chemical_formula_sum   'Lu6 Cl2 O8'
_cell_volume   261.99504399
_cell_formula_units_Z   2
loop_
 _symmetry_equiv_pos_site_id
 _symmetry_equiv_pos_as_xyz
  1  'x, y, z'
loop_
 _atom_site_type_symbol
 _atom_site_label
 _atom_site_symmetry_multiplicity
 _atom_site_fract_x
 _atom_site_fract_y
 _atom_site_fract_z
 _atom_site_occupancy
  Lu  Lu0  1  0.31819591  0.68180409  0.89785974  1.0
  Lu  Lu1  1  0.31819591  0.68180409  0.60214026  1.0
  Lu  Lu2  1  -0.31819591  0.31819591  0.39785974  1.0
  Lu  Lu3  1  -0.31819591  0.31819591  0.10214026  1.0
  Lu  Lu4  1  -0.37697417  0.37697417  0.75000000  1.0
  Lu  Lu5  1  0.37697417  0.62302583  0.25000000  1.0
  Cl  Cl6  1  0.00000000  0.00000000  0.00000000  1.0
  Cl  Cl7  1  0.00000000  0.00000000  0.50000000  1.0
  O  O8  1  0.26805815  0.73194185  0.41101307  1.0
  O  O9  1  0.26805815  0.73194185  0.08898693  1.0
  O  O10  1  -0.26805815  0.26805815  0.91101307  1.0
  O  O11  1  -0.26805815  0.26805815  0.58898693  1.0
  O  O12  1  0.19444059  0.80555941  0.75000000  1.0
  O  O13  1  -0.19444059  0.19444059  0.25000000  1.0
  O  O14  1  0.43799858  0.56200142  0.75000000  1.0
  O  O15  1  -0.43799858  0.43799858  0.25000000  1.0
