# generated using pymatgen
data_S
_symmetry_space_group_name_H-M   'P 1'
_cell_length_a   5.52256897
_cell_length_b   9.74758786
_cell_length_c   15.90814062
_cell_angle_alpha   90.00000000
_cell_angle_beta   90.00000000
_cell_angle_gamma   90.00000000
_symmetry_Int_Tables_number   1
_chemical_formula_structural   S
_chemical_formula_sum   S24
_cell_volume   856.36267097
_cell_formula_units_Z   24
loop_
 _symmetry_equiv_pos_site_id
 _symmetry_equiv_pos_as_xyz
  1  'x, y, z'
loop_
 _atom_site_type_symbol
 _atom_site_label
 _atom_site_symmetry_multiplicity
 _atom_site_fract_x
 _atom_site_fract_y
 _atom_site_fract_z
 _atom_site_occupancy
  S  S0  1  0.52055399  0.80025364  0.10627253  1.0
  S  S1  1  0.52055399  0.80025364  0.89372747  1.0
  S  S2  1  1.02055399  0.69974636  0.60627253  1.0
  S  S3  1  1.02055399  0.69974636  0.39372747  1.0
  S  S4  1  0.47944601  0.19974636  0.10627253  1.0
  S  S5  1  0.47944601  0.19974636  0.89372747  1.0
  S  S6  1  -0.02055399  0.30025364  0.60627253  1.0
  S  S7  1  -0.02055399  0.30025364  0.39372747  1.0
  S  S8  1  0.30632240  0.63264604  0.13611558  1.0
  S  S9  1  0.30632240  0.63264604  0.86388442  1.0
  S  S10  1  0.80632240  0.86735396  0.63611558  1.0
  S  S11  1  0.80632240  0.86735396  0.36388442  1.0
  S  S12  1  0.69367760  0.36735396  0.13611558  1.0
  S  S13  1  0.69367760  0.36735396  0.86388442  1.0
  S  S14  1  0.19367760  0.13264604  0.63611558  1.0
  S  S15  1  0.19367760  0.13264604  0.36388442  1.0
  S  S16  1  0.22031086  0.74771785  0.50000000  1.0
  S  S17  1  0.72031086  0.75228215  0.00000000  1.0
  S  S18  1  0.77968914  0.25228215  0.50000000  1.0
  S  S19  1  0.27968914  0.24771785  0.00000000  1.0
  S  S20  1  0.50000000  0.50000000  0.21254140  1.0
  S  S21  1  0.50000000  0.50000000  0.78745860  1.0
  S  S22  1  0.00000000  0.00000000  0.71254140  1.0
  S  S23  1  0.00000000  0.00000000  0.28745860  1.0
