# generated using pymatgen
data_YbH2
_symmetry_space_group_name_H-M   'P 1'
_cell_length_a   5.72418710
_cell_length_b   3.48046314
_cell_length_c   6.60111139
_cell_angle_alpha   90.00000000
_cell_angle_beta   90.00000000
_cell_angle_gamma   90.00000000
_symmetry_Int_Tables_number   1
_chemical_formula_structural   YbH2
_chemical_formula_sum   'Yb4 H8'
_cell_volume   131.51276836
_cell_formula_units_Z   4
loop_
 _symmetry_equiv_pos_site_id
 _symmetry_equiv_pos_as_xyz
  1  'x, y, z'
loop_
 _atom_site_type_symbol
 _atom_site_label
 _atom_site_symmetry_multiplicity
 _atom_site_fract_x
 _atom_site_fract_y
 _atom_site_fract_z
 _atom_site_occupancy
  Yb  Yb0  1  0.74395550  0.75000000  0.38813659  1.0
  Yb  Yb1  1  0.24395550  0.75000000  0.11186341  1.0
  Yb  Yb2  1  0.25604450  0.25000000  0.61186341  1.0
  Yb  Yb3  1  0.75604450  0.25000000  0.88813659  1.0
  H  H4  1  0.96943152  0.75000000  0.68192699  1.0
  H  H5  1  0.46943152  0.75000000  0.81807301  1.0
  H  H6  1  0.03056848  0.25000000  0.31807301  1.0
  H  H7  1  0.53056848  0.25000000  0.18192699  1.0
  H  H8  1  0.85771804  0.75000000  0.07025216  1.0
  H  H9  1  0.35771804  0.75000000  0.42974784  1.0
  H  H10  1  0.14228196  0.25000000  0.92974784  1.0
  H  H11  1  0.64228196  0.25000000  0.57025216  1.0
