# generated using pymatgen
data_PdSO4
_symmetry_space_group_name_H-M   'P 1'
_cell_length_a   7.84837961
_cell_length_b   5.56452306
_cell_length_c   8.62525890
_cell_angle_alpha   90.00000000
_cell_angle_beta   96.24422937
_cell_angle_gamma   90.00000000
_symmetry_Int_Tables_number   1
_chemical_formula_structural   PdSO4
_chemical_formula_sum   'Pd4 S4 O16'
_cell_volume   374.45175802
_cell_formula_units_Z   4
loop_
 _symmetry_equiv_pos_site_id
 _symmetry_equiv_pos_as_xyz
  1  'x, y, z'
loop_
 _atom_site_type_symbol
 _atom_site_label
 _atom_site_symmetry_multiplicity
 _atom_site_fract_x
 _atom_site_fract_y
 _atom_site_fract_z
 _atom_site_occupancy
  Pd  Pd0  1  0.50000000  0.00000000  0.50000000  1.0
  Pd  Pd1  1  0.50000000  0.50000000  0.00000000  1.0
  Pd  Pd2  1  0.00000000  0.50000000  0.50000000  1.0
  Pd  Pd3  1  0.00000000  0.00000000  0.00000000  1.0
  S  S4  1  0.26380286  0.65298196  0.69323041  1.0
  S  S5  1  0.26380286  0.84701804  0.19323041  1.0
  S  S6  1  0.73619714  0.15298196  0.80676959  1.0
  S  S7  1  0.73619714  0.34701804  0.30676959  1.0
  O  O8  1  0.74011300  0.95183284  0.92546131  1.0
  O  O9  1  0.72021468  0.43685240  0.14171336  1.0
  O  O10  1  0.72021468  0.06314760  0.64171336  1.0
  O  O11  1  0.74011300  0.54816716  0.42546131  1.0
  O  O12  1  0.27978532  0.56314760  0.85828664  1.0
  O  O13  1  0.27978532  0.93685240  0.35828664  1.0
  O  O14  1  0.59168889  0.32438659  0.81738503  1.0
  O  O15  1  0.59168889  0.17561341  0.31738503  1.0
  O  O16  1  0.40831111  0.67561341  0.18261497  1.0
  O  O17  1  0.40831111  0.82438659  0.68261497  1.0
  O  O18  1  0.91185155  0.26540613  0.84146862  1.0
  O  O19  1  0.25988700  0.04816716  0.07453869  1.0
  O  O20  1  0.25988700  0.45183284  0.57453869  1.0
  O  O21  1  0.91185155  0.23459387  0.34146862  1.0
  O  O22  1  0.08814845  0.76540613  0.65853138  1.0
  O  O23  1  0.08814845  0.73459387  0.15853138  1.0
