# generated using pymatgen
data_MgAu2(SO4)4
_symmetry_space_group_name_H-M   'P 1'
_cell_length_a   10.15121705
_cell_length_b   9.01597624
_cell_length_c   11.35396967
_cell_angle_alpha   58.44093444
_cell_angle_beta   49.18360708
_cell_angle_gamma   72.37545848
_symmetry_Int_Tables_number   1
_chemical_formula_structural   MgAu2(SO4)4
_chemical_formula_sum   'Mg2 Au4 S8 O32'
_cell_volume   668.87760072
_cell_formula_units_Z   2
loop_
 _symmetry_equiv_pos_site_id
 _symmetry_equiv_pos_as_xyz
  1  'x, y, z'
loop_
 _atom_site_type_symbol
 _atom_site_label
 _atom_site_symmetry_multiplicity
 _atom_site_fract_x
 _atom_site_fract_y
 _atom_site_fract_z
 _atom_site_occupancy
  Mg  Mg0  1  0.11528770  0.11528770  1.38471230  1.0
  Mg  Mg1  1  0.86528770  -0.13471230  0.13471230  1.0
  Au  Au2  1  0.38670482  0.44067705  1.36841955  1.0
  Au  Au3  1  1.44067705  0.38670482  -0.19580142  1.0
  Au  Au4  1  0.44580142  -0.11841955  0.80932295  1.0
  Au  Au5  1  0.88158045  -0.55419858  0.86329518  1.0
  S  S6  1  0.05510215  0.19167531  1.69246895  1.0
  S  S7  1  0.19167531  0.05510215  1.06075359  1.0
  S  S8  1  0.18924641  0.55753105  1.05832469  1.0
  S  S9  1  0.55753105  0.18924641  1.19489785  1.0
  S  S10  1  1.22320453  -0.30598988  0.53104033  1.0
  S  S11  1  0.69401012  1.22320453  0.55174501  1.0
  S  S12  1  0.69825499  -0.28104033  0.55598988  1.0
  S  S13  1  0.71895967  0.69825499  1.02679547  1.0
  O  O14  1  0.93786966  -0.65440371  0.71121223  1.0
  O  O15  1  0.34559629  0.93786966  1.00532182  1.0
  O  O16  1  1.24467818  0.53878777  -0.09559629  1.0
  O  O17  1  0.53878777  0.24467818  1.31213034  1.0
  O  O18  1  1.23156309  -0.36566902  0.42016845  1.0
  O  O19  1  0.63433098  1.23156309  0.71393748  1.0
  O  O20  1  0.53606252  -0.17016845  0.61566902  1.0
  O  O21  1  0.82983155  0.53606252  1.01843691  1.0
  O  O22  1  0.23561037  0.24675116  1.61560721  1.0
  O  O23  1  1.24675116  0.23561037  -0.09796874  1.0
  O  O24  1  0.34796874  0.63439279  1.00324884  1.0
  O  O25  1  0.63439279  0.34796874  1.01438963  1.0
  O  O26  1  1.12341987  -0.45713848  0.71919641  1.0
  O  O27  1  0.54286152  1.12341987  0.61452221  1.0
  O  O28  1  0.63547779  -0.46919641  0.70713848  1.0
  O  O29  1  0.53080359  0.63547779  1.12658013  1.0
  O  O30  1  -0.00611315  0.03958771  1.86028315  1.0
  O  O31  1  1.03958771  -0.00611315  0.10624229  1.0
  O  O32  1  0.14375771  0.38971685  1.21041229  1.0
  O  O33  1  0.38971685  0.14375771  1.25611315  1.0
  O  O34  1  0.06539416  0.16426366  1.57112172  1.0
  O  O35  1  0.16426366  0.06539416  1.19922046  1.0
  O  O36  1  0.05077954  0.67887828  1.08573634  1.0
  O  O37  1  0.67887828  0.05077954  1.18460584  1.0
  O  O38  1  1.39185488  -0.29026872  0.48201633  1.0
  O  O39  1  -0.29026872  0.39185488  1.41639751  1.0
  O  O40  1  0.83360249  -0.23201633  0.54026872  1.0
  O  O41  1  0.76798367  -0.16639751  0.85814512  1.0
  O  O42  1  1.12127954  -0.15120269  0.52246591  1.0
  O  O43  1  0.84879731  1.12127954  0.50745723  1.0
  O  O44  1  0.74254277  -0.27246591  0.40120269  1.0
  O  O45  1  0.72753409  0.74254277  1.12872046  1.0
