# generated using pymatgen
data_NaH3(SeO3)2
_symmetry_space_group_name_H-M   'P 1'
_cell_length_a   5.75676376
_cell_length_b   8.88836169
_cell_length_c   15.24097057
_cell_angle_alpha   90.00000000
_cell_angle_beta   113.11630912
_cell_angle_gamma   90.00000000
_symmetry_Int_Tables_number   1
_chemical_formula_structural   NaH3(SeO3)2
_chemical_formula_sum   'Na4 H12 Se8 O24'
_cell_volume   717.23843907
_cell_formula_units_Z   4
loop_
 _symmetry_equiv_pos_site_id
 _symmetry_equiv_pos_as_xyz
  1  'x, y, z'
loop_
 _atom_site_type_symbol
 _atom_site_label
 _atom_site_symmetry_multiplicity
 _atom_site_fract_x
 _atom_site_fract_y
 _atom_site_fract_z
 _atom_site_occupancy
  Na  Na0  1  0.37404131  1.06056205  0.18725253  1.0
  Na  Na1  1  0.37404131  -0.06056205  0.68725253  1.0
  Na  Na2  1  0.15724448  0.43952702  0.13611677  1.0
  Na  Na3  1  0.15724448  0.56047298  0.63611677  1.0
  H  H4  1  -0.15775288  0.48242897  0.43782385  1.0
  H  H5  1  -0.15775288  0.51757103  -0.06217615  1.0
  H  H6  1  1.06948922  0.82361688  0.50142588  1.0
  H  H7  1  1.06948922  0.17638312  1.00142588  1.0
  H  H8  1  0.90754576  1.02625821  0.19250648  1.0
  H  H9  1  0.90754576  -0.02625821  0.69250648  1.0
  H  H10  1  0.62368569  0.47369935  0.13076958  1.0
  H  H11  1  0.62368569  0.52630065  0.63076958  1.0
  H  H12  1  0.46166562  0.67636311  0.82187806  1.0
  H  H13  1  0.46166562  0.32363689  0.32187806  1.0
  H  H14  1  0.68914254  0.98209624  0.38532516  1.0
  H  H15  1  0.68914254  0.01790376  0.88532516  1.0
  Se  Se16  1  0.85946715  0.34822030  0.31567049  1.0
  Se  Se17  1  0.85946715  0.65177970  0.81567049  1.0
  Se  Se18  1  0.96559369  0.83463133  0.30244963  1.0
  Se  Se19  1  0.96559369  0.16536867  0.80244963  1.0
  Se  Se20  1  0.67181971  0.84826991  0.50766966  1.0
  Se  Se21  1  0.67181971  0.15173009  1.00766966  1.0
  Se  Se22  1  0.56567688  0.66529143  1.02079311  1.0
  Se  Se23  1  0.56567688  0.33470857  0.52079311  1.0
  O  O24  1  1.06624956  0.99336903  0.24726007  1.0
  O  O25  1  1.06624956  0.00663097  0.74726007  1.0
  O  O26  1  0.88585346  0.41255276  0.21803821  1.0
  O  O27  1  0.88585346  0.58744724  0.71803821  1.0
  O  O28  1  0.84995668  0.59740701  0.02909353  1.0
  O  O29  1  0.84995668  0.40259299  0.52909353  1.0
  O  O30  1  1.01624536  0.19172331  0.05766763  1.0
  O  O31  1  1.01624536  0.80827669  0.55766763  1.0
  O  O32  1  0.68113625  0.90225432  0.29414102  1.0
  O  O33  1  0.68113625  0.09774568  0.79414102  1.0
  O  O34  1  0.51503485  0.30827714  0.26566757  1.0
  O  O35  1  0.51503485  0.69172286  0.76566757  1.0
  O  O36  1  0.46492487  0.50676579  0.07611992  1.0
  O  O37  1  0.46492487  0.49323421  0.57611992  1.0
  O  O38  1  0.64547374  0.91296949  0.60523728  1.0
  O  O39  1  0.64547374  0.08703051  0.10523728  1.0
  O  O40  1  0.36926429  0.36061985  0.40636954  1.0
  O  O41  1  0.36926429  0.63938015  0.90636954  1.0
  O  O42  1  0.68809859  1.01772140  0.45003896  1.0
  O  O43  1  0.68809859  -0.01772140  0.95003896  1.0
  O  O44  1  0.16178982  0.86051899  0.41689416  1.0
  O  O45  1  0.16178982  0.13948101  0.91689416  1.0
  O  O46  1  -0.15684663  0.51790628  0.37309092  1.0
  O  O47  1  -0.15684663  0.48209372  0.87309092  1.0
