# generated using pymatgen
data_Li3Y(PS4)2
_symmetry_space_group_name_H-M   'P 1'
_cell_length_a   9.75314749
_cell_length_b   9.75314749
_cell_length_c   9.09012003
_cell_angle_alpha   62.57627371
_cell_angle_beta   117.42372629
_cell_angle_gamma   123.15334580
_symmetry_Int_Tables_number   1
_chemical_formula_structural   Li3Y(PS4)2
_chemical_formula_sum   'Li6 Y2 P4 S16'
_cell_volume   616.71525646
_cell_formula_units_Z   2
loop_
 _symmetry_equiv_pos_site_id
 _symmetry_equiv_pos_as_xyz
  1  'x, y, z'
loop_
 _atom_site_type_symbol
 _atom_site_label
 _atom_site_symmetry_multiplicity
 _atom_site_fract_x
 _atom_site_fract_y
 _atom_site_fract_z
 _atom_site_occupancy
  Li  Li0  1  0.58420353  0.58420353  0.75000000  1.0
  Li  Li1  1  0.41579647  0.41579647  0.25000000  1.0
  Li  Li2  1  1.22563309  -0.45084368  0.45705854  1.0
  Li  Li3  1  1.54915632  0.22563309  0.04294146  1.0
  Li  Li4  1  0.77436691  -0.54915632  0.54294146  1.0
  Li  Li5  1  1.45084368  -0.22563309  0.95705854  1.0
  Y  Y6  1  0.96512304  0.96512304  0.75000000  1.0
  Y  Y7  1  0.03487696  0.03487696  0.25000000  1.0
  P  P8  1  1.15162514  -0.65546630  0.87137743  1.0
  P  P9  1  1.34453370  0.15162514  0.62862257  1.0
  P  P10  1  0.84837486  -0.34453370  0.12862257  1.0
  P  P11  1  1.65546630  -0.15162514  0.37137743  1.0
  S  S12  1  1.11723039  -0.62361646  0.05800046  1.0
  S  S13  1  1.37638354  0.11723039  0.44199954  1.0
  S  S14  1  0.88276961  -0.37638354  0.94199954  1.0
  S  S15  1  1.62361646  -0.11723039  0.55800046  1.0
  S  S16  1  1.14102137  -0.77861067  0.50033750  1.0
  S  S17  1  1.22138933  0.14102137  -0.00033750  1.0
  S  S18  1  0.85897863  -0.22138933  0.49966250  1.0
  S  S19  1  1.77861067  -0.14102137  1.00033750  1.0
  S  S20  1  0.92792378  -0.73864185  0.68584715  1.0
  S  S21  1  1.26135815  -0.07207622  0.81415285  1.0
  S  S22  1  1.07207622  -0.26135815  0.31415285  1.0
  S  S23  1  1.73864185  0.07207622  0.18584715  1.0
  S  S24  1  0.66852377  -0.56960272  0.23475463  1.0
  S  S25  1  1.43039728  -0.33147623  0.26524537  1.0
  S  S26  1  1.33147623  -0.43039728  0.76524537  1.0
  S  S27  1  1.56960272  0.33147623  0.73475463  1.0
