# generated using pymatgen
data_KVS2O9
_symmetry_space_group_name_H-M   'P 1'
_cell_length_a   4.97385860
_cell_length_b   9.15148048
_cell_length_c   16.70641181
_cell_angle_alpha   90.00000000
_cell_angle_beta   90.00000000
_cell_angle_gamma   90.00000000
_symmetry_Int_Tables_number   1
_chemical_formula_structural   KVS2O9
_chemical_formula_sum   'K4 V4 S8 O36'
_cell_volume   760.44529107
_cell_formula_units_Z   4
loop_
 _symmetry_equiv_pos_site_id
 _symmetry_equiv_pos_as_xyz
  1  'x, y, z'
loop_
 _atom_site_type_symbol
 _atom_site_label
 _atom_site_symmetry_multiplicity
 _atom_site_fract_x
 _atom_site_fract_y
 _atom_site_fract_z
 _atom_site_occupancy
  K  K0  1  0.27485326  0.42953157  0.55216007  1.0
  K  K1  1  0.77485326  0.07046843  0.44783993  1.0
  K  K2  1  0.72514674  0.92953157  0.94783993  1.0
  K  K3  1  0.22514674  0.57046843  0.05216007  1.0
  V  V4  1  0.25776245  0.34382768  0.80140001  1.0
  V  V5  1  0.75776245  0.15617232  0.19859999  1.0
  V  V6  1  0.74223755  0.84382768  0.69859999  1.0
  V  V7  1  0.24223755  0.65617232  0.30140001  1.0
  S  S8  1  0.24609616  0.74813365  0.80942234  1.0
  S  S9  1  0.74609616  0.75186635  0.19057766  1.0
  S  S10  1  0.75390384  0.24813365  0.69057766  1.0
  S  S11  1  0.25390384  0.25186635  0.30942234  1.0
  S  S12  1  0.23944308  0.87686238  0.57786297  1.0
  S  S13  1  0.73944308  0.62313762  0.42213703  1.0
  S  S14  1  0.76055692  0.37686238  0.92213703  1.0
  S  S15  1  0.26055692  0.12313762  0.07786297  1.0
  O  O16  1  0.51356802  0.82805149  0.79588739  1.0
  O  O17  1  1.01356802  0.67194851  0.20411261  1.0
  O  O18  1  0.48643198  0.32805149  0.70411261  1.0
  O  O19  1  -0.01356802  0.17194851  0.29588739  1.0
  O  O20  1  0.44003018  0.92008364  0.64515689  1.0
  O  O21  1  0.94003018  0.57991636  0.35484311  1.0
  O  O22  1  0.55996982  0.42008364  0.85484311  1.0
  O  O23  1  0.05996982  0.07991636  0.14515689  1.0
  O  O24  1  0.19674907  0.74721884  0.89555886  1.0
  O  O25  1  0.69674907  0.75278116  0.10444114  1.0
  O  O26  1  0.80325093  0.24721884  0.60444114  1.0
  O  O27  1  0.30325093  0.25278116  0.39555886  1.0
  O  O28  1  0.28710925  0.97577692  0.51084405  1.0
  O  O29  1  0.78710925  0.52422308  0.48915595  1.0
  O  O30  1  0.71289075  0.47577692  0.98915595  1.0
  O  O31  1  0.21289075  0.02422308  0.01084405  1.0
  O  O32  1  0.24167393  0.60837052  0.76765618  1.0
  O  O33  1  0.74167393  0.89162948  0.23234382  1.0
  O  O34  1  0.75832607  0.10837052  0.73234382  1.0
  O  O35  1  0.25832607  0.39162948  0.26765618  1.0
  O  O36  1  0.25580892  0.72176291  0.56168111  1.0
  O  O37  1  0.75580892  0.77823709  0.43831889  1.0
  O  O38  1  0.74419108  0.22176291  0.93831889  1.0
  O  O39  1  0.24419108  0.27823709  0.06168111  1.0
  O  O40  1  1.03518545  0.85201680  0.77094032  1.0
  O  O41  1  0.53518545  0.64798320  0.22905968  1.0
  O  O42  1  -0.03518545  0.35201680  0.72905968  1.0
  O  O43  1  0.46481455  0.14798320  0.27094032  1.0
  O  O44  1  0.96688009  0.92019854  0.61353607  1.0
  O  O45  1  0.46688009  0.57980146  0.38646393  1.0
  O  O46  1  0.03311991  0.42019854  0.88646393  1.0
  O  O47  1  0.53311991  0.07980146  0.11353607  1.0
  O  O48  1  0.74073245  0.67959872  0.67256901  1.0
  O  O49  1  0.24073245  0.82040128  0.32743099  1.0
  O  O50  1  0.25926755  0.17959872  0.82743099  1.0
  O  O51  1  0.75926755  0.32040128  0.17256901  1.0
