# generated using pymatgen
data_Sr2SbI
_symmetry_space_group_name_H-M   'P 1'
_cell_length_a   8.41469442
_cell_length_b   8.41469442
_cell_length_c   8.41469442
_cell_angle_alpha   33.59084466
_cell_angle_beta   33.59084466
_cell_angle_gamma   33.59084466
_symmetry_Int_Tables_number   1
_chemical_formula_structural   Sr2SbI
_chemical_formula_sum   'Sr2 Sb1 I1'
_cell_volume   162.45685836
_cell_formula_units_Z   1
loop_
 _symmetry_equiv_pos_site_id
 _symmetry_equiv_pos_as_xyz
  1  'x, y, z'
loop_
 _atom_site_type_symbol
 _atom_site_label
 _atom_site_symmetry_multiplicity
 _atom_site_fract_x
 _atom_site_fract_y
 _atom_site_fract_z
 _atom_site_occupancy
  Sr  Sr0  1  0.76336579  0.76336579  0.76336579  1.0
  Sr  Sr1  1  1.23663421  1.23663421  0.23663421  1.0
  Sb  Sb2  1  1.50000000  0.50000000  0.50000000  1.0
  I  I3  1  -0.00000000  0.00000000  0.00000000  1.0
