# generated using pymatgen
data_K3Al2As3
_symmetry_space_group_name_H-M   'P 1'
_cell_length_a   7.63740217
_cell_length_b   6.12644206
_cell_length_c   10.62055307
_cell_angle_alpha   90.00000000
_cell_angle_beta   110.49478634
_cell_angle_gamma   90.00000000
_symmetry_Int_Tables_number   1
_chemical_formula_structural   K3Al2As3
_chemical_formula_sum   'K6 Al4 As6'
_cell_volume   465.48267666
_cell_formula_units_Z   2
loop_
 _symmetry_equiv_pos_site_id
 _symmetry_equiv_pos_as_xyz
  1  'x, y, z'
loop_
 _atom_site_type_symbol
 _atom_site_label
 _atom_site_symmetry_multiplicity
 _atom_site_fract_x
 _atom_site_fract_y
 _atom_site_fract_z
 _atom_site_occupancy
  K  K0  1  0.57711961  0.25000000  0.93719867  1.0
  K  K1  1  0.42288039  0.75000000  0.06280133  1.0
  K  K2  1  0.48143449  0.25000000  0.35062083  1.0
  K  K3  1  0.51856551  0.75000000  0.64937917  1.0
  K  K4  1  0.12509910  0.25000000  0.58890348  1.0
  K  K5  1  0.87490090  0.75000000  0.41109652  1.0
  Al  Al6  1  0.96345862  0.50040723  0.84225276  1.0
  Al  Al7  1  0.96345862  -0.00040723  0.84225276  1.0
  Al  Al8  1  0.03654138  1.00040723  0.15774724  1.0
  Al  Al9  1  0.03654138  0.49959277  0.15774724  1.0
  As  As10  1  0.86445508  0.25000000  0.25490820  1.0
  As  As11  1  0.13554492  0.75000000  0.74509180  1.0
  As  As12  1  0.73456318  0.25000000  0.68540573  1.0
  As  As13  1  0.26543682  0.75000000  0.31459427  1.0
  As  As14  1  0.18800738  0.25000000  0.02517979  1.0
  As  As15  1  0.81199262  0.75000000  0.97482021  1.0
