# generated using pymatgen
data_K2Se4N
_symmetry_space_group_name_H-M   'P 1'
_cell_length_a   6.30622443
_cell_length_b   6.30622443
_cell_length_c   11.14832839
_cell_angle_alpha   89.32703167
_cell_angle_beta   90.67296833
_cell_angle_gamma   102.99908748
_symmetry_Int_Tables_number   1
_chemical_formula_structural   K2Se4N
_chemical_formula_sum   'K4 Se8 N2'
_cell_volume   431.94177973
_cell_formula_units_Z   2
loop_
 _symmetry_equiv_pos_site_id
 _symmetry_equiv_pos_as_xyz
  1  'x, y, z'
loop_
 _atom_site_type_symbol
 _atom_site_label
 _atom_site_symmetry_multiplicity
 _atom_site_fract_x
 _atom_site_fract_y
 _atom_site_fract_z
 _atom_site_occupancy
  N  N0  1  1.64162400  0.34790768  0.08543979  1.0
  N  N1  1  0.65209232  -0.64162400  0.58543979  1.0
  Se  Se2  1  0.95515417  -0.02638334  0.50533317  1.0
  Se  Se3  1  1.02638334  0.04484583  0.00533317  1.0
  Se  Se4  1  0.56935792  -0.10131252  0.47133377  1.0
  Se  Se5  1  1.10131252  0.43064208  0.97133377  1.0
  Se  Se6  1  0.07568828  -0.01707814  0.21457694  1.0
  Se  Se7  1  1.01707814  0.92431172  0.71457694  1.0
  Se  Se8  1  1.45899726  0.52937893  0.41213571  1.0
  Se  Se9  1  0.47062107  -0.45899726  0.91213571  1.0
  K  K10  1  0.54026669  -0.14055901  0.15802050  1.0
  K  K11  1  1.14055901  0.45973331  0.65802050  1.0
  K  K12  1  1.55512728  0.06486199  0.79356012  1.0
  K  K13  1  0.93513801  -0.55512728  0.29356012  1.0
