# generated using pymatgen
data_PrIn5Ir
_symmetry_space_group_name_H-M   'P 1'
_cell_length_a   4.71904679
_cell_length_b   4.71904679
_cell_length_c   7.58346549
_cell_angle_alpha   90.00000000
_cell_angle_beta   90.00000000
_cell_angle_gamma   90.00000000
_symmetry_Int_Tables_number   1
_chemical_formula_structural   PrIn5Ir
_chemical_formula_sum   'Pr1 In5 Ir1'
_cell_volume   168.87924579
_cell_formula_units_Z   1
loop_
 _symmetry_equiv_pos_site_id
 _symmetry_equiv_pos_as_xyz
  1  'x, y, z'
loop_
 _atom_site_type_symbol
 _atom_site_label
 _atom_site_symmetry_multiplicity
 _atom_site_fract_x
 _atom_site_fract_y
 _atom_site_fract_z
 _atom_site_occupancy
  Pr  Pr0  1  0.00000000  0.00000000  0.00000000  1.0
  In  In1  1  0.00000000  0.50000000  0.69726434  1.0
  In  In2  1  0.00000000  0.50000000  0.30273566  1.0
  In  In3  1  0.50000000  0.00000000  0.69726434  1.0
  In  In4  1  0.50000000  0.00000000  0.30273566  1.0
  In  In5  1  0.50000000  0.50000000  0.00000000  1.0
  Ir  Ir6  1  0.00000000  0.00000000  0.50000000  1.0
