# generated using pymatgen
data_CuAsSe2
_symmetry_space_group_name_H-M   'P 1'
_cell_length_a   6.39522774
_cell_length_b   6.39522774
_cell_length_c   6.39522774
_cell_angle_alpha   40.15313741
_cell_angle_beta   40.15313741
_cell_angle_gamma   40.15313741
_symmetry_Int_Tables_number   1
_chemical_formula_structural   CuAsSe2
_chemical_formula_sum   'Cu1 As1 Se2'
_cell_volume   98.02302415
_cell_formula_units_Z   1
loop_
 _symmetry_equiv_pos_site_id
 _symmetry_equiv_pos_as_xyz
  1  'x, y, z'
loop_
 _atom_site_type_symbol
 _atom_site_label
 _atom_site_symmetry_multiplicity
 _atom_site_fract_x
 _atom_site_fract_y
 _atom_site_fract_z
 _atom_site_occupancy
  Cu  Cu0  1  0.87081124  -0.12918876  -0.12918876  1.0
  As  As1  1  0.37316051  0.37316051  -0.62683949  1.0
  Se  Se2  1  0.00932655  0.00932655  0.00932655  1.0
  Se  Se3  1  0.50970170  0.50970170  -0.49029830  1.0
