# generated using pymatgen
data_Li2FeGeO4
_symmetry_space_group_name_H-M   'P 1'
_cell_length_a   10.93672696
_cell_length_b   6.44354804
_cell_length_c   5.16753165
_cell_angle_alpha   90.00000000
_cell_angle_beta   90.00000000
_cell_angle_gamma   90.00000000
_symmetry_Int_Tables_number   1
_chemical_formula_structural   Li2FeGeO4
_chemical_formula_sum   'Li8 Fe4 Ge4 O16'
_cell_volume   364.16280489
_cell_formula_units_Z   4
loop_
 _symmetry_equiv_pos_site_id
 _symmetry_equiv_pos_as_xyz
  1  'x, y, z'
loop_
 _atom_site_type_symbol
 _atom_site_label
 _atom_site_symmetry_multiplicity
 _atom_site_fract_x
 _atom_site_fract_y
 _atom_site_fract_z
 _atom_site_occupancy
  Li  Li0  1  0.91488740  0.49800653  0.18466726  1.0
  Li  Li1  1  0.91488740  0.00199347  0.18466726  1.0
  Li  Li2  1  0.41488740  0.49800653  0.31533274  1.0
  Li  Li3  1  0.41488740  0.00199347  0.31533274  1.0
  Li  Li4  1  0.08511260  0.99800653  0.81533274  1.0
  Li  Li5  1  0.08511260  0.50199347  0.81533274  1.0
  Li  Li6  1  0.58511260  0.99800653  0.68466726  1.0
  Li  Li7  1  0.58511260  0.50199347  0.68466726  1.0
  Fe  Fe8  1  0.66119315  0.25000000  0.18497495  1.0
  Fe  Fe9  1  0.16119315  0.25000000  0.31502505  1.0
  Fe  Fe10  1  0.33880685  0.75000000  0.81502505  1.0
  Fe  Fe11  1  0.83880685  0.75000000  0.68497495  1.0
  Ge  Ge12  1  0.82976407  0.25000000  0.68045007  1.0
  Ge  Ge13  1  0.32976407  0.25000000  0.81954993  1.0
  Ge  Ge14  1  0.17023593  0.75000000  0.31954993  1.0
  Ge  Ge15  1  0.67023593  0.75000000  0.18045007  1.0
  O  O16  1  0.59409245  0.97828490  0.29455528  1.0
  O  O17  1  0.59409245  0.52171510  0.29455528  1.0
  O  O18  1  0.09409245  0.97828490  0.20544472  1.0
  O  O19  1  0.09409245  0.52171510  0.20544472  1.0
  O  O20  1  0.40590755  0.47828490  0.70544472  1.0
  O  O21  1  0.40590755  0.02171510  0.70544472  1.0
  O  O22  1  0.90590755  0.47828490  0.79455528  1.0
  O  O23  1  0.90590755  0.02171510  0.79455528  1.0
  O  O24  1  0.83356534  0.25000000  0.33457437  1.0
  O  O25  1  0.33356534  0.25000000  0.16542563  1.0
  O  O26  1  0.16643466  0.75000000  0.66542563  1.0
  O  O27  1  0.66643466  0.75000000  0.83457437  1.0
  O  O28  1  0.67414827  0.25000000  0.79072418  1.0
  O  O29  1  0.17414827  0.25000000  0.70927582  1.0
  O  O30  1  0.32585173  0.75000000  0.20927582  1.0
  O  O31  1  0.82585173  0.75000000  0.29072418  1.0
