# generated using pymatgen
data_Ge3Mo5
_symmetry_space_group_name_H-M   'P 1'
_cell_length_a   7.42535200
_cell_length_b   7.42535200
_cell_length_c   7.42535200
_cell_angle_alpha   96.47954817
_cell_angle_beta   96.47954817
_cell_angle_gamma   140.74187389
_symmetry_Int_Tables_number   1
_chemical_formula_structural   Ge3Mo5
_chemical_formula_sum   'Ge6 Mo10'
_cell_volume   244.02082537
_cell_formula_units_Z   2
loop_
 _symmetry_equiv_pos_site_id
 _symmetry_equiv_pos_as_xyz
  1  'x, y, z'
loop_
 _atom_site_type_symbol
 _atom_site_label
 _atom_site_symmetry_multiplicity
 _atom_site_fract_x
 _atom_site_fract_y
 _atom_site_fract_z
 _atom_site_occupancy
  Ge  Ge0  1  0.83187834  0.33187834  1.16375668  1.0
  Ge  Ge1  1  0.66812166  0.83187834  0.50000000  1.0
  Ge  Ge2  1  1.33187834  1.16812166  1.50000000  1.0
  Ge  Ge3  1  0.16812166  0.66812166  0.83624332  1.0
  Ge  Ge4  1  0.25000000  0.25000000  0.00000000  1.0
  Ge  Ge5  1  0.75000000  0.75000000  0.00000000  1.0
  Mo  Mo6  1  0.26991015  0.42294900  0.69285914  1.0
  Mo  Mo7  1  1.23008985  0.92294900  1.15303885  1.0
  Mo  Mo8  1  0.92294900  0.76991015  1.69285914  1.0
  Mo  Mo9  1  0.57705100  1.26991015  0.84696115  1.0
  Mo  Mo10  1  0.76991015  1.07705100  0.84696115  1.0
  Mo  Mo11  1  0.73008985  0.57705100  1.30714086  1.0
  Mo  Mo12  1  1.42294900  0.73008985  1.15303885  1.0
  Mo  Mo13  1  0.07705100  0.23008985  0.30714086  1.0
  Mo  Mo14  1  0.75000000  1.25000000  0.50000000  1.0
  Mo  Mo15  1  0.25000000  0.75000000  0.50000000  1.0
