# generated using pymatgen
data_CsLa(SO4)2
_symmetry_space_group_name_H-M   'P 1'
_cell_length_a   8.22065204
_cell_length_b   5.56822172
_cell_length_c   18.94846069
_cell_angle_alpha   90.00000000
_cell_angle_beta   113.11192099
_cell_angle_gamma   90.00000000
_symmetry_Int_Tables_number   1
_chemical_formula_structural   CsLa(SO4)2
_chemical_formula_sum   'Cs4 La4 S8 O32'
_cell_volume   797.74065130
_cell_formula_units_Z   4
loop_
 _symmetry_equiv_pos_site_id
 _symmetry_equiv_pos_as_xyz
  1  'x, y, z'
loop_
 _atom_site_type_symbol
 _atom_site_label
 _atom_site_symmetry_multiplicity
 _atom_site_fract_x
 _atom_site_fract_y
 _atom_site_fract_z
 _atom_site_occupancy
  Cs  Cs0  1  0.52687444  0.26793320  0.38533866  1.0
  Cs  Cs1  1  0.52687444  0.23206680  0.88533866  1.0
  Cs  Cs2  1  0.47312556  0.76793320  0.11466134  1.0
  Cs  Cs3  1  0.47312556  0.73206680  0.61466134  1.0
  La  La4  1  0.99429292  0.81635090  0.36252474  1.0
  La  La5  1  0.99429292  0.68364910  0.86252474  1.0
  La  La6  1  0.00570708  0.31635090  0.13747526  1.0
  La  La7  1  0.00570708  0.18364910  0.63747526  1.0
  S  S8  1  0.79980271  0.26761574  0.25349625  1.0
  S  S9  1  0.79980271  0.23238426  0.75349625  1.0
  S  S10  1  0.20019729  0.76761574  0.24650375  1.0
  S  S11  1  0.20019729  0.73238426  0.74650375  1.0
  S  S12  1  0.14743044  0.25733669  0.47723608  1.0
  S  S13  1  0.14743044  0.24266331  0.97723608  1.0
  S  S14  1  0.85256956  0.75733669  0.02276392  1.0
  S  S15  1  0.85256956  0.74266331  0.52276392  1.0
  O  O16  1  0.99601435  0.21616770  0.27948330  1.0
  O  O17  1  0.99601435  0.28383230  0.77948330  1.0
  O  O18  1  0.00398565  0.71616770  0.22051670  1.0
  O  O19  1  0.00398565  0.78383230  0.72051670  1.0
  O  O20  1  0.95893713  0.18342709  0.43559102  1.0
  O  O21  1  0.95893713  0.31657291  0.93559102  1.0
  O  O22  1  0.04106287  0.68342709  0.06440898  1.0
  O  O23  1  0.04106287  0.81657291  0.56440898  1.0
  O  O24  1  0.81789074  0.99570278  0.05143887  1.0
  O  O25  1  0.81789074  0.50429722  0.55143887  1.0
  O  O26  1  0.18210926  0.49570278  0.44856113  1.0
  O  O27  1  0.18210926  0.00429722  0.94856113  1.0
  O  O28  1  0.80592236  0.72028877  0.43840239  1.0
  O  O29  1  0.80592236  0.77971123  0.93840239  1.0
  O  O30  1  0.19407764  0.22028877  0.06159761  1.0
  O  O31  1  0.19407764  0.27971123  0.56159761  1.0
  O  O32  1  0.76992033  0.49229194  0.28934068  1.0
  O  O33  1  0.76992033  0.00770806  0.78934068  1.0
  O  O34  1  0.23007967  0.99229194  0.21065932  1.0
  O  O35  1  0.23007967  0.50770806  0.71065932  1.0
  O  O36  1  0.72675111  0.29223857  0.16802094  1.0
  O  O37  1  0.72675111  0.20776143  0.66802094  1.0
  O  O38  1  0.27324889  0.79223857  0.33197906  1.0
  O  O39  1  0.27324889  0.70776143  0.83197906  1.0
  O  O40  1  0.71898137  0.05650071  0.27665989  1.0
  O  O41  1  0.71898137  0.44349929  0.77665989  1.0
  O  O42  1  0.28101863  0.55650071  0.22334011  1.0
  O  O43  1  0.28101863  0.94349929  0.72334011  1.0
  O  O44  1  0.25806207  0.06738829  0.46124196  1.0
  O  O45  1  0.25806207  0.43261171  0.96124196  1.0
  O  O46  1  0.74193793  0.56738829  0.03875804  1.0
  O  O47  1  0.74193793  0.93261171  0.53875804  1.0
