# generated using pymatgen
data_Ba2CaTl2(CuO4)2
_symmetry_space_group_name_H-M   'P 1'
_cell_length_a   15.40764954
_cell_length_b   15.40764954
_cell_length_c   15.40764954
_cell_angle_alpha   165.51315478
_cell_angle_beta   165.51315478
_cell_angle_gamma   20.54281981
_symmetry_Int_Tables_number   1
_chemical_formula_structural   Ba2CaTl2(CuO4)2
_chemical_formula_sum   'Ba2 Ca1 Tl2 Cu2 O8'
_cell_volume   228.86548802
_cell_formula_units_Z   1
loop_
 _symmetry_equiv_pos_site_id
 _symmetry_equiv_pos_as_xyz
  1  'x, y, z'
loop_
 _atom_site_type_symbol
 _atom_site_label
 _atom_site_symmetry_multiplicity
 _atom_site_fract_x
 _atom_site_fract_y
 _atom_site_fract_z
 _atom_site_occupancy
  Ba  Ba0  1  0.88307261  0.88307261  1.00000000  1.0
  Ba  Ba1  1  0.11692739  0.11692739  0.00000000  1.0
  Ca  Ca2  1  0.00000000  0.00000000  0.00000000  1.0
  Tl  Tl3  1  0.71219585  0.71219585  1.00000000  1.0
  Tl  Tl4  1  0.28780415  0.28780415  0.00000000  1.0
  Cu  Cu5  1  0.55008542  0.55008542  1.00000000  1.0
  Cu  Cu6  1  0.44991458  0.44991458  0.00000000  1.0
  O  O7  1  0.44803233  0.94803233  0.50000000  1.0
  O  O8  1  0.55196767  0.05196767  0.50000000  1.0
  O  O9  1  0.94803233  0.44803233  0.50000000  1.0
  O  O10  1  0.05196767  0.55196767  0.50000000  1.0
  O  O11  1  0.78060346  0.78060346  1.00000000  1.0
  O  O12  1  0.21939654  0.21939654  0.00000000  1.0
  O  O13  1  0.64535564  0.64535564  1.00000000  1.0
  O  O14  1  0.35464436  0.35464436  0.00000000  1.0
