# generated using pymatgen
data_NbCoTe2
_symmetry_space_group_name_H-M   'P 1'
_cell_length_a   8.51768935
_cell_length_b   6.33819485
_cell_length_c   7.82717012
_cell_angle_alpha   90.00000000
_cell_angle_beta   115.87048080
_cell_angle_gamma   90.00000000
_symmetry_Int_Tables_number   1
_chemical_formula_structural   NbCoTe2
_chemical_formula_sum   'Nb4 Co4 Te8'
_cell_volume   380.21548101
_cell_formula_units_Z   4
loop_
 _symmetry_equiv_pos_site_id
 _symmetry_equiv_pos_as_xyz
  1  'x, y, z'
loop_
 _atom_site_type_symbol
 _atom_site_label
 _atom_site_symmetry_multiplicity
 _atom_site_fract_x
 _atom_site_fract_y
 _atom_site_fract_z
 _atom_site_occupancy
  Nb  Nb0  1  0.98546947  0.98319088  0.69379139  1.0
  Nb  Nb1  1  0.98546947  0.51680912  0.19379139  1.0
  Nb  Nb2  1  0.01453053  0.48319088  0.80620861  1.0
  Nb  Nb3  1  0.01453053  0.01680912  0.30620861  1.0
  Co  Co4  1  0.89395463  0.14684107  0.94282930  1.0
  Co  Co5  1  0.89395463  0.35315893  0.44282930  1.0
  Co  Co6  1  0.10604537  0.64684107  0.55717070  1.0
  Co  Co7  1  0.10604537  0.85315893  0.05717070  1.0
  Te  Te8  1  0.77830060  0.75476743  0.86332448  1.0
  Te  Te9  1  0.77830060  0.74523257  0.36332448  1.0
  Te  Te10  1  0.22169940  0.25476743  0.63667552  1.0
  Te  Te11  1  0.22169940  0.24523257  0.13667552  1.0
  Te  Te12  1  0.30641137  0.75110634  0.90455970  1.0
  Te  Te13  1  0.30641137  0.74889366  0.40455970  1.0
  Te  Te14  1  0.69358863  0.25110634  0.59544030  1.0
  Te  Te15  1  0.69358863  0.24889366  0.09544030  1.0
