# generated using pymatgen
data_FeCuSb
_symmetry_space_group_name_H-M   'P 1'
_cell_length_a   3.91400282
_cell_length_b   3.91400282
_cell_length_c   6.32584720
_cell_angle_alpha   90.00000000
_cell_angle_beta   90.00000000
_cell_angle_gamma   90.00000000
_symmetry_Int_Tables_number   1
_chemical_formula_structural   FeCuSb
_chemical_formula_sum   'Fe2 Cu2 Sb2'
_cell_volume   96.90829798
_cell_formula_units_Z   2
loop_
 _symmetry_equiv_pos_site_id
 _symmetry_equiv_pos_as_xyz
  1  'x, y, z'
loop_
 _atom_site_type_symbol
 _atom_site_label
 _atom_site_symmetry_multiplicity
 _atom_site_fract_x
 _atom_site_fract_y
 _atom_site_fract_z
 _atom_site_occupancy
  Fe  Fe0  1  0.00000000  0.00000000  0.00000000  1.0
  Fe  Fe1  1  0.50000000  0.50000000  0.00000000  1.0
  Cu  Cu2  1  0.50000000  0.00000000  0.27369604  1.0
  Cu  Cu3  1  0.00000000  0.50000000  0.72630396  1.0
  Sb  Sb4  1  0.50000000  0.00000000  0.70028058  1.0
  Sb  Sb5  1  0.00000000  0.50000000  0.29971942  1.0
