# generated using pymatgen
data_Ti3SnC2
_symmetry_space_group_name_H-M   'P 1'
_cell_length_a   3.14773848
_cell_length_b   3.14773848
_cell_length_c   18.74240225
_cell_angle_alpha   90.00000000
_cell_angle_beta   90.00000000
_cell_angle_gamma   120.00000000
_symmetry_Int_Tables_number   1
_chemical_formula_structural   Ti3SnC2
_chemical_formula_sum   'Ti6 Sn2 C4'
_cell_volume   160.82485692
_cell_formula_units_Z   2
loop_
 _symmetry_equiv_pos_site_id
 _symmetry_equiv_pos_as_xyz
  1  'x, y, z'
loop_
 _atom_site_type_symbol
 _atom_site_label
 _atom_site_symmetry_multiplicity
 _atom_site_fract_x
 _atom_site_fract_y
 _atom_site_fract_z
 _atom_site_occupancy
  Ti  Ti0  1  0.33333333  0.66666667  0.37612033  1.0
  Ti  Ti1  1  0.33333333  0.66666667  0.12387967  1.0
  Ti  Ti2  1  0.66666667  0.33333333  0.87612033  1.0
  Ti  Ti3  1  0.66666667  0.33333333  0.62387967  1.0
  Ti  Ti4  1  0.00000000  0.00000000  0.50000000  1.0
  Ti  Ti5  1  0.00000000  0.00000000  0.00000000  1.0
  Sn  Sn6  1  0.00000000  0.00000000  0.25000000  1.0
  Sn  Sn7  1  0.00000000  0.00000000  0.75000000  1.0
  C  C8  1  0.33333333  0.66666667  0.93187801  1.0
  C  C9  1  0.33333333  0.66666667  0.56812199  1.0
  C  C10  1  0.66666667  0.33333333  0.43187801  1.0
  C  C11  1  0.66666667  0.33333333  0.06812199  1.0
