# generated using pymatgen
data_RbBe2BO3F2
_symmetry_space_group_name_H-M   'P 1'
_cell_length_a   7.32875839
_cell_length_b   7.32875839
_cell_length_c   7.32875839
_cell_angle_alpha   35.53784963
_cell_angle_beta   35.53784963
_cell_angle_gamma   35.53784963
_symmetry_Int_Tables_number   1
_chemical_formula_structural   RbBe2BO3F2
_chemical_formula_sum   'Rb1 Be2 B1 O3 F2'
_cell_volume   118.84979584
_cell_formula_units_Z   1
loop_
 _symmetry_equiv_pos_site_id
 _symmetry_equiv_pos_as_xyz
  1  'x, y, z'
loop_
 _atom_site_type_symbol
 _atom_site_label
 _atom_site_symmetry_multiplicity
 _atom_site_fract_x
 _atom_site_fract_y
 _atom_site_fract_z
 _atom_site_occupancy
  Rb  Rb0  1  1.50000000  0.50000000  0.50000000  1.0
  Be  Be1  1  0.69435501  0.69435501  0.69435501  1.0
  Be  Be2  1  1.30564499  1.30564499  0.30564499  1.0
  B  B3  1  0.00000000  0.00000000  0.00000000  1.0
  O  O4  1  0.69168730  0.00000000  -0.69168730  1.0
  O  O5  1  0.00000000  0.30831270  -0.30831270  1.0
  O  O6  1  0.30831270  -0.30831270  -0.00000000  1.0
  F  F7  1  0.76969998  0.76969998  0.76969998  1.0
  F  F8  1  1.23030002  1.23030002  0.23030002  1.0
