# generated using pymatgen
data_CaC2S2(OF)6
_symmetry_space_group_name_H-M   'P 1'
_cell_length_a   11.31446306
_cell_length_b   11.31446306
_cell_length_c   11.31446306
_cell_angle_alpha   29.21892826
_cell_angle_beta   29.21892826
_cell_angle_gamma   29.21892826
_symmetry_Int_Tables_number   1
_chemical_formula_structural   CaC2S2(OF)6
_chemical_formula_sum   'Ca1 C2 S2 O6 F6'
_cell_volume   305.37607764
_cell_formula_units_Z   1
loop_
 _symmetry_equiv_pos_site_id
 _symmetry_equiv_pos_as_xyz
  1  'x, y, z'
loop_
 _atom_site_type_symbol
 _atom_site_label
 _atom_site_symmetry_multiplicity
 _atom_site_fract_x
 _atom_site_fract_y
 _atom_site_fract_z
 _atom_site_occupancy
  Ca  Ca0  1  0.00000000  -0.00000000  -0.00000000  1.0
  C  C1  1  0.22305318  0.22305318  0.22305318  1.0
  C  C2  1  0.77694682  -0.22305318  -0.22305318  1.0
  S  S3  1  0.28073121  0.28073121  0.28073121  1.0
  S  S4  1  0.71926879  -0.28073121  -0.28073121  1.0
  O  O5  1  0.42504645  -0.10606924  -0.19434621  1.0
  O  O6  1  1.19434621  -0.42504645  0.10606924  1.0
  O  O7  1  1.10606924  0.19434621  -0.42504645  1.0
  O  O8  1  0.57495355  0.10606924  0.19434621  1.0
  O  O9  1  0.80565379  -0.57495355  -0.10606924  1.0
  O  O10  1  0.89393076  -0.19434621  -0.57495355  1.0
  F  F11  1  0.29470954  0.95653354  -0.62415036  1.0
  F  F12  1  0.62415036  -0.29470954  0.04346646  1.0
  F  F13  1  1.04346646  -0.37584964  -0.29470954  1.0
  F  F14  1  0.70529046  0.04346646  -0.37584964  1.0
  F  F15  1  0.37584964  0.29470954  -0.04346646  1.0
  F  F16  1  0.95653354  0.37584964  -0.70529046  1.0
