# generated using pymatgen
data_Ga2P3(HO3)3
_symmetry_space_group_name_H-M   'P 1'
_cell_length_a   8.06750007
_cell_length_b   8.06750007
_cell_length_c   7.35215098
_cell_angle_alpha   90.00000000
_cell_angle_beta   90.00000000
_cell_angle_gamma   120.00000000
_symmetry_Int_Tables_number   1
_chemical_formula_structural   Ga2P3(HO3)3
_chemical_formula_sum   'Ga4 P6 H6 O18'
_cell_volume   414.40310768
_cell_formula_units_Z   2
loop_
 _symmetry_equiv_pos_site_id
 _symmetry_equiv_pos_as_xyz
  1  'x, y, z'
loop_
 _atom_site_type_symbol
 _atom_site_label
 _atom_site_symmetry_multiplicity
 _atom_site_fract_x
 _atom_site_fract_y
 _atom_site_fract_z
 _atom_site_occupancy
  Ga  Ga0  1  0.33333333  0.66666667  0.45107167  1.0
  Ga  Ga1  1  0.33333333  0.66666667  0.04892833  1.0
  Ga  Ga2  1  0.66666667  0.33333333  0.95107167  1.0
  Ga  Ga3  1  0.66666667  0.33333333  0.54892833  1.0
  P  P4  1  0.68941062  0.64200790  0.25000000  1.0
  P  P5  1  0.64200790  0.95259728  0.75000000  1.0
  P  P6  1  0.95259728  0.31058938  0.25000000  1.0
  P  P7  1  0.35799210  0.04740272  0.25000000  1.0
  P  P8  1  0.31058938  0.35799210  0.75000000  1.0
  P  P9  1  0.04740272  0.68941062  0.75000000  1.0
  H  H10  1  0.15967380  0.97689432  0.25000000  1.0
  H  H11  1  0.97689432  0.81722052  0.75000000  1.0
  H  H12  1  0.81722052  0.84032620  0.25000000  1.0
  H  H13  1  0.02310568  0.18277948  0.25000000  1.0
  H  H14  1  0.84032620  0.02310568  0.75000000  1.0
  H  H15  1  0.18277948  0.15967380  0.75000000  1.0
  O  O16  1  0.73031439  0.56721173  0.42612291  1.0
  O  O17  1  0.73031439  0.56721173  0.07387709  1.0
  O  O18  1  0.56721173  0.83689734  0.92612291  1.0
  O  O19  1  0.56721173  0.83689734  0.57387709  1.0
  O  O20  1  0.83689734  0.26968561  0.42612291  1.0
  O  O21  1  0.83689734  0.26968561  0.07387709  1.0
  O  O22  1  0.43278827  0.16310266  0.42612291  1.0
  O  O23  1  0.43278827  0.16310266  0.07387709  1.0
  O  O24  1  0.26968561  0.43278827  0.92612291  1.0
  O  O25  1  0.26968561  0.43278827  0.57387709  1.0
  O  O26  1  0.16310266  0.73031439  0.92612291  1.0
  O  O27  1  0.16310266  0.73031439  0.57387709  1.0
  O  O28  1  0.38828148  0.86961972  0.25000000  1.0
  O  O29  1  0.86961972  0.48133824  0.75000000  1.0
  O  O30  1  0.48133824  0.61171852  0.25000000  1.0
  O  O31  1  0.13038028  0.51866176  0.25000000  1.0
  O  O32  1  0.61171852  0.13038028  0.75000000  1.0
  O  O33  1  0.51866176  0.38828148  0.75000000  1.0
