# generated using pymatgen
data_ZnS
_symmetry_space_group_name_H-M   'P 1'
_cell_length_a   3.84962811
_cell_length_b   3.84962811
_cell_length_c   62.91899561
_cell_angle_alpha   90.00000000
_cell_angle_beta   90.00000000
_cell_angle_gamma   120.00000000
_symmetry_Int_Tables_number   1
_chemical_formula_structural   ZnS
_chemical_formula_sum   'Zn20 S20'
_cell_volume   807.51382763
_cell_formula_units_Z   20
loop_
 _symmetry_equiv_pos_site_id
 _symmetry_equiv_pos_as_xyz
  1  'x, y, z'
loop_
 _atom_site_type_symbol
 _atom_site_label
 _atom_site_symmetry_multiplicity
 _atom_site_fract_x
 _atom_site_fract_y
 _atom_site_fract_z
 _atom_site_occupancy
  Zn  Zn0  1  0.00000000  0.00000000  0.14999824  1.0
  Zn  Zn1  1  0.00000000  0.00000000  0.35000271  1.0
  Zn  Zn2  1  0.00000000  0.00000000  0.49999173  1.0
  Zn  Zn3  1  0.00000000  0.00000000  0.70000380  1.0
  Zn  Zn4  1  0.00000000  0.00000000  0.84995731  1.0
  Zn  Zn5  1  0.00000000  0.00000000  0.95002582  1.0
  Zn  Zn6  1  0.66666667  0.33333333  0.04999660  1.0
  Zn  Zn7  1  0.66666667  0.33333333  0.19995763  1.0
  Zn  Zn8  1  0.66666667  0.33333333  0.30003131  1.0
  Zn  Zn9  1  0.66666667  0.33333333  0.44999521  1.0
  Zn  Zn10  1  0.66666667  0.33333333  0.59999518  1.0
  Zn  Zn11  1  0.66666667  0.33333333  0.74999689  1.0
  Zn  Zn12  1  0.66666667  0.33333333  0.89999639  1.0
  Zn  Zn13  1  0.33333333  0.66666667  -0.00003664  1.0
  Zn  Zn14  1  0.33333333  0.66666667  0.10003148  1.0
  Zn  Zn15  1  0.33333333  0.66666667  0.24999580  1.0
  Zn  Zn16  1  0.33333333  0.66666667  0.39999566  1.0
  Zn  Zn17  1  0.33333333  0.66666667  0.54995784  1.0
  Zn  Zn18  1  0.33333333  0.66666667  0.65003053  1.0
  Zn  Zn19  1  0.33333333  0.66666667  0.79999011  1.0
  S  S20  1  0.00000000  0.00000000  0.11251835  1.0
  S  S21  1  0.00000000  0.00000000  0.31251967  1.0
  S  S22  1  0.00000000  0.00000000  0.46250273  1.0
  S  S23  1  0.00000000  0.00000000  0.66252060  1.0
  S  S24  1  0.00000000  0.00000000  0.81248661  1.0
  S  S25  1  0.00000000  0.00000000  0.91255343  1.0
  S  S26  1  0.66666667  0.33333333  0.01245766  1.0
  S  S27  1  0.66666667  0.33333333  0.16248880  1.0
  S  S28  1  0.66666667  0.33333333  0.26255587  1.0
  S  S29  1  0.66666667  0.33333333  0.41250363  1.0
  S  S30  1  0.66666667  0.33333333  0.56245443  1.0
  S  S31  1  0.66666667  0.33333333  0.71250676  1.0
  S  S32  1  0.66666667  0.33333333  0.86245590  1.0
  S  S33  1  0.33333333  0.66666667  0.06255625  1.0
  S  S34  1  0.33333333  0.66666667  0.21245550  1.0
  S  S35  1  0.33333333  0.66666667  0.36250537  1.0
  S  S36  1  0.33333333  0.66666667  0.51248685  1.0
  S  S37  1  0.33333333  0.66666667  0.61255477  1.0
  S  S38  1  0.33333333  0.66666667  0.76250157  1.0
  S  S39  1  0.33333333  0.66666667  0.96250165  1.0
