# generated using pymatgen
data_Sc2Se3
_symmetry_space_group_name_H-M   'P 1'
_cell_length_a   12.78865618
_cell_length_b   12.19817735
_cell_length_c   6.69051242
_cell_angle_alpha   79.40590529
_cell_angle_beta   69.64727198
_cell_angle_gamma   30.94682273
_symmetry_Int_Tables_number   1
_chemical_formula_structural   Sc2Se3
_chemical_formula_sum   'Sc8 Se12'
_cell_volume   488.83106052
_cell_formula_units_Z   4
loop_
 _symmetry_equiv_pos_site_id
 _symmetry_equiv_pos_as_xyz
  1  'x, y, z'
loop_
 _atom_site_type_symbol
 _atom_site_label
 _atom_site_symmetry_multiplicity
 _atom_site_fract_x
 _atom_site_fract_y
 _atom_site_fract_z
 _atom_site_occupancy
  Sc  Sc0  1  0.83282067  0.83282067  0.66717933  1.0
  Sc  Sc1  1  0.66717933  0.66717933  0.83282067  1.0
  Sc  Sc2  1  0.41717933  0.41717933  0.58282067  1.0
  Sc  Sc3  1  0.58282067  0.58282067  0.41717933  1.0
  Sc  Sc4  1  0.49911134  0.49911134  0.00088866  1.0
  Sc  Sc5  1  0.00088866  1.00088866  0.49911134  1.0
  Sc  Sc6  1  0.75088866  0.75088866  -0.75088866  1.0
  Sc  Sc7  1  0.24911134  1.24911134  -0.24911134  1.0
  Se  Se8  1  0.50346597  0.99653403  -0.00346597  1.0
  Se  Se9  1  0.99653403  0.50346597  -0.49653403  1.0
  Se  Se10  1  -0.25346597  1.25346597  0.25346597  1.0
  Se  Se11  1  0.25346597  0.74653403  -0.25346597  1.0
  Se  Se12  1  0.16603824  0.67034828  0.33851984  1.0
  Se  Se13  1  0.33851984  0.82509364  0.16603824  1.0
  Se  Se14  1  0.82509364  0.33851984  0.67034828  1.0
  Se  Se15  1  0.67034828  0.16603824  0.82509364  1.0
  Se  Se16  1  1.08396176  0.57965172  0.91148016  1.0
  Se  Se17  1  0.91148016  0.42490636  1.08396176  1.0
  Se  Se18  1  0.42490636  0.91148016  0.57965172  1.0
  Se  Se19  1  0.57965172  1.08396176  0.42490636  1.0
