# generated using pymatgen
data_Li3TaO4
_symmetry_space_group_name_H-M   'P 1'
_cell_length_a   6.07261905
_cell_length_b   6.04796414
_cell_length_c   12.88777290
_cell_angle_alpha   90.00000000
_cell_angle_beta   103.50270179
_cell_angle_gamma   90.00000000
_symmetry_Int_Tables_number   1
_chemical_formula_structural   Li3TaO4
_chemical_formula_sum   'Li18 Ta6 O24'
_cell_volume   460.24567758
_cell_formula_units_Z   6
loop_
 _symmetry_equiv_pos_site_id
 _symmetry_equiv_pos_as_xyz
  1  'x, y, z'
loop_
 _atom_site_type_symbol
 _atom_site_label
 _atom_site_symmetry_multiplicity
 _atom_site_fract_x
 _atom_site_fract_y
 _atom_site_fract_z
 _atom_site_occupancy
  Li  Li0  1  0.50000000  0.33118431  0.25000000  1.0
  Li  Li1  1  0.50000000  0.66881569  0.75000000  1.0
  Li  Li2  1  0.82640665  0.87547102  0.92476170  1.0
  Li  Li3  1  0.82640665  0.12452898  0.42476170  1.0
  Li  Li4  1  0.17359335  0.87547102  0.57523830  1.0
  Li  Li5  1  0.17359335  0.12452898  0.07523830  1.0
  Li  Li6  1  0.67341907  0.62249107  0.09178049  1.0
  Li  Li7  1  0.67341907  0.37750893  0.59178049  1.0
  Li  Li8  1  0.32658093  0.62249107  0.40821951  1.0
  Li  Li9  1  0.32658093  0.37750893  0.90821951  1.0
  Li  Li10  1  0.37706737  0.87459010  0.91722670  1.0
  Li  Li11  1  0.37706737  0.12540990  0.41722670  1.0
  Li  Li12  1  0.62293263  0.87459010  0.58277330  1.0
  Li  Li13  1  0.62293263  0.12540990  0.08277330  1.0
  Li  Li14  1  0.50000000  0.88881228  0.25000000  1.0
  Li  Li15  1  0.50000000  0.11118772  0.75000000  1.0
  Li  Li16  1  0.00000000  0.37862322  0.25000000  1.0
  Li  Li17  1  -0.00000000  0.62137678  0.75000000  1.0
  Ta  Ta18  1  0.80184904  0.62237500  0.41642122  1.0
  Ta  Ta19  1  0.80184904  0.37762500  0.91642122  1.0
  Ta  Ta20  1  0.19815096  0.62237500  0.08357878  1.0
  Ta  Ta21  1  0.19815096  0.37762500  0.58357878  1.0
  Ta  Ta22  1  0.00000000  0.90805791  0.25000000  1.0
  Ta  Ta23  1  -0.00000000  0.09194209  0.75000000  1.0
  O  O24  1  0.93595328  0.85771657  0.09207762  1.0
  O  O25  1  0.93595328  0.14228343  0.59207762  1.0
  O  O26  1  0.06404672  0.85771657  0.40792238  1.0
  O  O27  1  0.06404672  0.14228343  0.90792238  1.0
  O  O28  1  0.92908367  0.38835102  0.07437608  1.0
  O  O29  1  0.92908367  0.61164898  0.57437608  1.0
  O  O30  1  0.07091633  0.38835102  0.42562392  1.0
  O  O31  1  0.07091633  0.61164898  0.92562392  1.0
  O  O32  1  0.77202444  0.63844344  0.25852506  1.0
  O  O33  1  0.77202444  0.36155656  0.75852506  1.0
  O  O34  1  0.22797556  0.63844344  0.24147494  1.0
  O  O35  1  0.22797556  0.36155656  0.74147494  1.0
  O  O36  1  0.75966406  0.88815693  0.74437801  1.0
  O  O37  1  0.75966406  0.11184307  0.24437801  1.0
  O  O38  1  0.24033594  0.88815693  0.75562199  1.0
  O  O39  1  0.24033594  0.11184307  0.25562199  1.0
  O  O40  1  0.59376472  0.38592638  0.41118245  1.0
  O  O41  1  0.59376472  0.61407362  0.91118245  1.0
  O  O42  1  0.40623528  0.38592638  0.08881755  1.0
  O  O43  1  0.40623528  0.61407362  0.58881755  1.0
  O  O44  1  0.59762870  0.85972660  0.42118425  1.0
  O  O45  1  0.59762870  0.14027340  0.92118425  1.0
  O  O46  1  0.40237130  0.85972660  0.07881575  1.0
  O  O47  1  0.40237130  0.14027340  0.57881575  1.0
