# generated using pymatgen
data_Li2ZnGeO4
_symmetry_space_group_name_H-M   'P 1'
_cell_length_a   11.11508145
_cell_length_b   6.30007297
_cell_length_c   5.13841603
_cell_angle_alpha   90.00000000
_cell_angle_beta   90.00000000
_cell_angle_gamma   90.00000000
_symmetry_Int_Tables_number   1
_chemical_formula_structural   Li2ZnGeO4
_chemical_formula_sum   'Li8 Zn4 Ge4 O16'
_cell_volume   359.82181733
_cell_formula_units_Z   4
loop_
 _symmetry_equiv_pos_site_id
 _symmetry_equiv_pos_as_xyz
  1  'x, y, z'
loop_
 _atom_site_type_symbol
 _atom_site_label
 _atom_site_symmetry_multiplicity
 _atom_site_fract_x
 _atom_site_fract_y
 _atom_site_fract_z
 _atom_site_occupancy
  Li  Li0  1  0.91394536  0.50169364  0.18148411  1.0
  Li  Li1  1  0.91394536  -0.00169364  0.18148411  1.0
  Li  Li2  1  0.41394536  0.50169364  0.31851589  1.0
  Li  Li3  1  0.41394536  -0.00169364  0.31851589  1.0
  Li  Li4  1  0.08605464  1.00169364  0.81851589  1.0
  Li  Li5  1  0.08605464  0.49830636  0.81851589  1.0
  Li  Li6  1  0.58605464  1.00169364  0.68148411  1.0
  Li  Li7  1  0.58605464  0.49830636  0.68148411  1.0
  Zn  Zn8  1  0.66787284  0.25000000  0.17769354  1.0
  Zn  Zn9  1  0.16787284  0.25000000  0.32230646  1.0
  Zn  Zn10  1  0.33212716  0.75000000  0.82230646  1.0
  Zn  Zn11  1  0.83212716  0.75000000  0.67769354  1.0
  Ge  Ge12  1  0.83461572  0.25000000  0.67465561  1.0
  Ge  Ge13  1  0.33461572  0.25000000  0.82534439  1.0
  Ge  Ge14  1  0.16538428  0.75000000  0.32534439  1.0
  Ge  Ge15  1  0.66538428  0.75000000  0.17465561  1.0
  O  O16  1  0.58969367  0.98105201  0.29108132  1.0
  O  O17  1  0.58969367  0.51894799  0.29108132  1.0
  O  O18  1  0.08969367  0.98105201  0.20891868  1.0
  O  O19  1  0.08969367  0.51894799  0.20891868  1.0
  O  O20  1  0.41030633  0.48105201  0.70891868  1.0
  O  O21  1  0.41030633  0.01894799  0.70891868  1.0
  O  O22  1  0.91030633  0.48105201  0.79108132  1.0
  O  O23  1  0.91030633  0.01894799  0.79108132  1.0
  O  O24  1  0.83541536  0.25000000  0.32780864  1.0
  O  O25  1  0.33541536  0.25000000  0.17219136  1.0
  O  O26  1  0.16458464  0.75000000  0.67219136  1.0
  O  O27  1  0.66458464  0.75000000  0.82780864  1.0
  O  O28  1  0.68230460  0.25000000  0.78850227  1.0
  O  O29  1  0.18230460  0.25000000  0.71149773  1.0
  O  O30  1  0.31769540  0.75000000  0.21149773  1.0
  O  O31  1  0.81769540  0.75000000  0.28850227  1.0
