# generated using pymatgen
data_H2C(NO)2
_symmetry_space_group_name_H-M   'P 1'
_cell_length_a   8.83028452
_cell_length_b   4.72287217
_cell_length_c   16.52980515
_cell_angle_alpha   90.00000000
_cell_angle_beta   115.21682022
_cell_angle_gamma   90.00000000
_symmetry_Int_Tables_number   1
_chemical_formula_structural   H2C(NO)2
_chemical_formula_sum   'H16 C8 N16 O16'
_cell_volume   623.66903409
_cell_formula_units_Z   8
loop_
 _symmetry_equiv_pos_site_id
 _symmetry_equiv_pos_as_xyz
  1  'x, y, z'
loop_
 _atom_site_type_symbol
 _atom_site_label
 _atom_site_symmetry_multiplicity
 _atom_site_fract_x
 _atom_site_fract_y
 _atom_site_fract_z
 _atom_site_occupancy
  H  H0  1  0.95954866  0.71819949  0.33698797  1.0
  H  H1  1  0.95954866  0.78180051  0.83698797  1.0
  H  H2  1  0.04045134  0.21819949  0.16301203  1.0
  H  H3  1  0.04045134  0.28180051  0.66301203  1.0
  H  H4  1  0.97365396  0.34600309  0.22895021  1.0
  H  H5  1  0.97365396  0.15399691  0.72895021  1.0
  H  H6  1  0.02634604  0.84600309  0.27104979  1.0
  H  H7  1  0.02634604  0.65399691  0.77104979  1.0
  H  H8  1  0.77638826  0.97483645  0.11934443  1.0
  H  H9  1  0.77638826  0.52516355  0.61934443  1.0
  H  H10  1  0.22361174  0.47483645  0.38065557  1.0
  H  H11  1  0.22361174  0.02516355  0.88065557  1.0
  H  H12  1  0.40351204  0.24923501  0.41106360  1.0
  H  H13  1  0.40351204  0.25076499  0.91106360  1.0
  H  H14  1  0.59648796  0.74923501  0.08893640  1.0
  H  H15  1  0.59648796  0.75076499  0.58893640  1.0
  C  C16  1  0.71391826  0.00005239  0.40151522  1.0
  C  C17  1  0.71391826  0.49994761  0.90151522  1.0
  C  C18  1  0.28608174  0.50005239  0.09848478  1.0
  C  C19  1  0.28608174  0.99994761  0.59848478  1.0
  C  C20  1  0.28386806  0.22048896  0.49006335  1.0
  C  C21  1  0.28386806  0.27951104  0.99006335  1.0
  C  C22  1  0.71613194  0.72048896  0.00993665  1.0
  C  C23  1  0.71613194  0.77951104  0.50993665  1.0
  N  N24  1  0.83905927  0.82560422  0.41705355  1.0
  N  N25  1  0.83905927  0.67439578  0.91705355  1.0
  N  N26  1  0.16094073  0.32560422  0.08294645  1.0
  N  N27  1  0.16094073  0.17439578  0.58294645  1.0
  N  N28  1  0.66696623  0.20764333  0.32917150  1.0
  N  N29  1  0.66696623  0.29235667  0.82917150  1.0
  N  N30  1  0.33303377  0.70764333  0.17082850  1.0
  N  N31  1  0.33303377  0.79235667  0.67082850  1.0
  N  N32  1  0.63275755  0.98679380  0.45399019  1.0
  N  N33  1  0.63275755  0.51320620  0.95399019  1.0
  N  N34  1  0.36724245  0.48679380  0.04600981  1.0
  N  N35  1  0.36724245  0.01320620  0.54600981  1.0
  N  N36  1  0.30675126  0.32829153  0.42263205  1.0
  N  N37  1  0.30675126  0.17170847  0.92263205  1.0
  N  N38  1  0.69324874  0.82829153  0.07736795  1.0
  N  N39  1  0.69324874  0.67170847  0.57736795  1.0
  O  O40  1  0.97122492  0.17336790  0.19461924  1.0
  O  O41  1  0.97122492  0.32663210  0.69461924  1.0
  O  O42  1  0.02877508  0.67336790  0.30538076  1.0
  O  O43  1  0.02877508  0.82663210  0.80538076  1.0
  O  O44  1  0.84230078  0.67159853  0.49089928  1.0
  O  O45  1  0.84230078  0.82840147  0.99089928  1.0
  O  O46  1  0.15769922  0.17159853  0.00910072  1.0
  O  O47  1  0.15769922  0.32840147  0.50910072  1.0
  O  O48  1  0.74916856  0.21315278  0.28521894  1.0
  O  O49  1  0.74916856  0.28684722  0.78521894  1.0
  O  O50  1  0.25083144  0.71315278  0.21478106  1.0
  O  O51  1  0.25083144  0.78684722  0.71478106  1.0
  O  O52  1  0.54784257  0.36246364  0.31883033  1.0
  O  O53  1  0.54784257  0.13753636  0.81883033  1.0
  O  O54  1  0.45215743  0.86246364  0.18116967  1.0
  O  O55  1  0.45215743  0.63753636  0.68116967  1.0
