# generated using pymatgen
data_TlInS2
_symmetry_space_group_name_H-M   'P 1'
_cell_length_a   6.59229908
_cell_length_b   6.59229908
_cell_length_c   6.59229908
_cell_angle_alpha   105.26207551
_cell_angle_beta   105.26207551
_cell_angle_gamma   118.26374078
_symmetry_Int_Tables_number   1
_chemical_formula_structural   TlInS2
_chemical_formula_sum   'Tl2 In2 S4'
_cell_volume   216.59149424
_cell_formula_units_Z   2
loop_
 _symmetry_equiv_pos_site_id
 _symmetry_equiv_pos_as_xyz
  1  'x, y, z'
loop_
 _atom_site_type_symbol
 _atom_site_label
 _atom_site_symmetry_multiplicity
 _atom_site_fract_x
 _atom_site_fract_y
 _atom_site_fract_z
 _atom_site_occupancy
  Tl  Tl0  1  0.75000000  0.75000000  -0.00000000  1.0
  Tl  Tl1  1  0.25000000  0.25000000  -0.00000000  1.0
  In  In2  1  0.75000000  0.25000000  0.50000000  1.0
  In  In3  1  0.25000000  0.75000000  0.50000000  1.0
  S  S4  1  1.16512844  0.66512844  0.83025688  1.0
  S  S5  1  0.83487156  0.33487156  1.16974312  1.0
  S  S6  1  0.66512844  0.83487156  0.50000000  1.0
  S  S7  1  0.33487156  0.16512844  0.50000000  1.0
