# generated using pymatgen
data_KBa2Cd2Sb3
_symmetry_space_group_name_H-M   'P 1'
_cell_length_a   13.33954223
_cell_length_b   5.00703080
_cell_length_c   16.99128815
_cell_angle_alpha   90.00000000
_cell_angle_beta   90.00000000
_cell_angle_gamma   90.00000000
_symmetry_Int_Tables_number   1
_chemical_formula_structural   KBa2Cd2Sb3
_chemical_formula_sum   'K4 Ba8 Cd8 Sb12'
_cell_volume   1134.87360254
_cell_formula_units_Z   4
loop_
 _symmetry_equiv_pos_site_id
 _symmetry_equiv_pos_as_xyz
  1  'x, y, z'
loop_
 _atom_site_type_symbol
 _atom_site_label
 _atom_site_symmetry_multiplicity
 _atom_site_fract_x
 _atom_site_fract_y
 _atom_site_fract_z
 _atom_site_occupancy
  K  K0  1  0.60247110  0.75000000  0.55430971  1.0
  K  K1  1  0.10247110  0.75000000  0.94569029  1.0
  K  K2  1  0.39752890  0.25000000  0.44569029  1.0
  K  K3  1  0.89752890  0.25000000  0.05430971  1.0
  Ba  Ba4  1  0.90010914  0.75000000  0.42855498  1.0
  Ba  Ba5  1  0.40010914  0.75000000  0.07144502  1.0
  Ba  Ba6  1  0.09989086  0.25000000  0.57144502  1.0
  Ba  Ba7  1  0.59989086  0.25000000  0.92855498  1.0
  Ba  Ba8  1  0.62800452  0.75000000  0.28941314  1.0
  Ba  Ba9  1  0.12800452  0.75000000  0.21058686  1.0
  Ba  Ba10  1  0.37199548  0.25000000  0.71058686  1.0
  Ba  Ba11  1  0.87199548  0.25000000  0.78941314  1.0
  Cd  Cd12  1  0.69519195  0.75000000  0.08417182  1.0
  Cd  Cd13  1  0.19519195  0.75000000  0.41582818  1.0
  Cd  Cd14  1  0.30480805  0.25000000  0.91582818  1.0
  Cd  Cd15  1  0.80480805  0.25000000  0.58417182  1.0
  Cd  Cd16  1  0.63539083  0.75000000  0.78388080  1.0
  Cd  Cd17  1  0.13539083  0.75000000  0.71611920  1.0
  Cd  Cd18  1  0.36460917  0.25000000  0.21611920  1.0
  Cd  Cd19  1  0.86460917  0.25000000  0.28388080  1.0
  Sb  Sb20  1  0.92192468  0.75000000  0.63476169  1.0
  Sb  Sb21  1  0.42192468  0.75000000  0.86523831  1.0
  Sb  Sb22  1  0.07807532  0.25000000  0.36523831  1.0
  Sb  Sb23  1  0.57807532  0.25000000  0.13476169  1.0
  Sb  Sb24  1  0.86568879  0.75000000  0.19702613  1.0
  Sb  Sb25  1  0.36568879  0.75000000  0.30297387  1.0
  Sb  Sb26  1  0.13431121  0.25000000  0.80297387  1.0
  Sb  Sb27  1  0.63431121  0.25000000  0.69702613  1.0
  Sb  Sb28  1  0.28684484  0.75000000  0.57537141  1.0
  Sb  Sb29  1  0.78684484  0.75000000  0.92462859  1.0
  Sb  Sb30  1  0.71315516  0.25000000  0.42462859  1.0
  Sb  Sb31  1  0.21315516  0.25000000  0.07537141  1.0
