# generated using pymatgen
data_KV2CrO7
_symmetry_space_group_name_H-M   'P 1'
_cell_length_a   8.35688395
_cell_length_b   4.85104780
_cell_length_c   6.90979573
_cell_angle_alpha   90.00000000
_cell_angle_beta   101.58995076
_cell_angle_gamma   90.00000000
_symmetry_Int_Tables_number   1
_chemical_formula_structural   KV2CrO7
_chemical_formula_sum   'K2 V4 Cr2 O14'
_cell_volume   274.40913596
_cell_formula_units_Z   2
loop_
 _symmetry_equiv_pos_site_id
 _symmetry_equiv_pos_as_xyz
  1  'x, y, z'
loop_
 _atom_site_type_symbol
 _atom_site_label
 _atom_site_symmetry_multiplicity
 _atom_site_fract_x
 _atom_site_fract_y
 _atom_site_fract_z
 _atom_site_occupancy
  K  K0  1  0.50000000  0.89523162  0.75000000  1.0
  K  K1  1  0.50000000  0.10476838  0.25000000  1.0
  V  V2  1  0.82690530  0.50281188  0.62369659  1.0
  V  V3  1  0.82690530  0.49718812  0.12369659  1.0
  V  V4  1  0.17309470  0.50281188  0.87630341  1.0
  V  V5  1  0.17309470  0.49718812  0.37630341  1.0
  Cr  Cr6  1  0.00000000  0.00000000  0.00000000  1.0
  Cr  Cr7  1  0.00000000  0.00000000  0.50000000  1.0
  O  O8  1  0.88558678  0.66084763  0.88700012  1.0
  O  O9  1  0.88558678  0.33915237  0.38700012  1.0
  O  O10  1  0.11441322  0.66084763  0.61299988  1.0
  O  O11  1  0.11441322  0.33915237  0.11299988  1.0
  O  O12  1  0.79503012  0.82445194  0.51802643  1.0
  O  O13  1  0.79503012  0.17554806  0.01802643  1.0
  O  O14  1  0.20496988  0.82445194  0.98197357  1.0
  O  O15  1  0.20496988  0.17554806  0.48197357  1.0
  O  O16  1  0.64774478  0.37297534  0.61784689  1.0
  O  O17  1  0.64774478  0.62702466  0.11784689  1.0
  O  O18  1  0.35225522  0.37297534  0.88215311  1.0
  O  O19  1  0.35225522  0.62702466  0.38215311  1.0
  O  O20  1  0.00000000  0.21095494  0.75000000  1.0
  O  O21  1  -0.00000000  0.78904506  0.25000000  1.0
