# generated using pymatgen
data_CuH6SO7
_symmetry_space_group_name_H-M   'P 1'
_cell_length_a   7.61285415
_cell_length_b   7.61285415
_cell_length_c   7.24803340
_cell_angle_alpha   86.54543785
_cell_angle_beta   93.45456215
_cell_angle_gamma   42.81426567
_symmetry_Int_Tables_number   1
_chemical_formula_structural   CuH6SO7
_chemical_formula_sum   'Cu2 H12 S2 O14'
_cell_volume   281.56806563
_cell_formula_units_Z   2
loop_
 _symmetry_equiv_pos_site_id
 _symmetry_equiv_pos_as_xyz
  1  'x, y, z'
loop_
 _atom_site_type_symbol
 _atom_site_label
 _atom_site_symmetry_multiplicity
 _atom_site_fract_x
 _atom_site_fract_y
 _atom_site_fract_z
 _atom_site_occupancy
  Cu  Cu0  1  0.96285646  -0.68996689  0.75465605  1.0
  Cu  Cu1  1  0.68996689  0.03714354  0.25465605  1.0
  H  H2  1  0.93361432  -0.30997284  0.03321445  1.0
  H  H3  1  0.30997284  0.06638568  0.53321445  1.0
  H  H4  1  0.67399402  0.14039211  0.89856032  1.0
  H  H5  1  0.85960789  -0.67399402  0.39856032  1.0
  H  H6  1  1.09405862  -0.42984739  0.23790260  1.0
  H  H7  1  0.42984739  -0.09405862  0.73790260  1.0
  H  H8  1  1.40943930  -0.48250705  0.25417517  1.0
  H  H9  1  0.48250705  -0.40943930  0.75417517  1.0
  H  H10  1  1.40196573  -0.56826966  0.45736826  1.0
  H  H11  1  0.56826966  -0.40196573  0.95736826  1.0
  H  H12  1  0.37643510  0.32000611  0.93224609  1.0
  H  H13  1  0.67999389  -0.37643510  0.43224609  1.0
  S  S14  1  1.00184278  -0.21764022  0.67833244  1.0
  S  S15  1  0.21764022  -0.00184278  0.17833244  1.0
  O  O16  1  0.82863981  -0.15600764  0.50961576  1.0
  O  O17  1  0.15600764  0.17136019  0.00961576  1.0
  O  O18  1  0.60600457  -0.41609310  0.82608460  1.0
  O  O19  1  0.41609310  0.39399543  0.32608460  1.0
  O  O20  1  0.91306512  -0.30349345  0.16880249  1.0
  O  O21  1  0.30349345  0.08693488  0.66880249  1.0
  O  O22  1  1.02659209  -0.38685387  0.82317370  1.0
  O  O23  1  0.38685387  -0.02659209  0.32317370  1.0
  O  O24  1  0.77901607  -0.55298507  0.49433453  1.0
  O  O25  1  0.55298507  0.22098393  -0.00566547  1.0
  O  O26  1  1.26583097  -0.36702215  0.62842674  1.0
  O  O27  1  0.36702215  -0.26583097  0.12842674  1.0
  O  O28  1  0.88410361  0.02491969  0.74840678  1.0
  O  O29  1  0.97508031  -0.88410361  0.24840678  1.0
