# generated using pymatgen
data_Ba5Mn3O12F
_symmetry_space_group_name_H-M   'P 1'
_cell_length_a   10.42865800
_cell_length_b   10.42865800
_cell_length_c   7.74481487
_cell_angle_alpha   90.00000000
_cell_angle_beta   90.00000000
_cell_angle_gamma   120.00000000
_symmetry_Int_Tables_number   1
_chemical_formula_structural   Ba5Mn3O12F
_chemical_formula_sum   'Ba10 Mn6 O24 F2'
_cell_volume   729.45502969
_cell_formula_units_Z   2
loop_
 _symmetry_equiv_pos_site_id
 _symmetry_equiv_pos_as_xyz
  1  'x, y, z'
loop_
 _atom_site_type_symbol
 _atom_site_label
 _atom_site_symmetry_multiplicity
 _atom_site_fract_x
 _atom_site_fract_y
 _atom_site_fract_z
 _atom_site_occupancy
  Ba  Ba0  1  0.33333333  0.66666667  0.49765133  1.0
  Ba  Ba1  1  0.66666667  0.33333333  0.99765133  1.0
  Ba  Ba2  1  0.66666667  0.33333333  0.50234867  1.0
  Ba  Ba3  1  0.33333333  0.66666667  0.00234867  1.0
  Ba  Ba4  1  0.76943028  0.76014760  0.25000000  1.0
  Ba  Ba5  1  0.99071731  0.23056972  0.25000000  1.0
  Ba  Ba6  1  0.23985240  0.00928269  0.25000000  1.0
  Ba  Ba7  1  0.23056972  0.23985240  0.75000000  1.0
  Ba  Ba8  1  0.00928269  0.76943028  0.75000000  1.0
  Ba  Ba9  1  0.76014760  0.99071731  0.75000000  1.0
  Mn  Mn10  1  0.02855092  0.62685406  0.25000000  1.0
  Mn  Mn11  1  0.59830315  0.97144908  0.25000000  1.0
  Mn  Mn12  1  0.37314594  0.40169685  0.25000000  1.0
  Mn  Mn13  1  0.97144908  0.37314594  0.75000000  1.0
  Mn  Mn14  1  0.40169685  0.02855092  0.75000000  1.0
  Mn  Mn15  1  0.62685406  0.59830315  0.75000000  1.0
  O  O16  1  0.84067809  0.52331976  0.25000000  1.0
  O  O17  1  0.68264167  0.15932191  0.25000000  1.0
  O  O18  1  0.47668024  0.31735833  0.25000000  1.0
  O  O19  1  0.15932191  0.47668024  0.75000000  1.0
  O  O20  1  0.31735833  0.84067809  0.75000000  1.0
  O  O21  1  0.52331976  0.68264167  0.75000000  1.0
  O  O22  1  0.11559066  0.52515467  0.25000000  1.0
  O  O23  1  0.40956402  0.88440934  0.25000000  1.0
  O  O24  1  0.47484533  0.59043598  0.25000000  1.0
  O  O25  1  0.88440934  0.47484533  0.75000000  1.0
  O  O26  1  0.59043598  0.11559066  0.75000000  1.0
  O  O27  1  0.52515467  0.40956402  0.75000000  1.0
  O  O28  1  0.09018157  0.74128991  0.42420619  1.0
  O  O29  1  0.65110834  0.90981843  0.42420619  1.0
  O  O30  1  0.25871009  0.34889166  0.42420619  1.0
  O  O31  1  0.90981843  0.25871009  0.92420619  1.0
  O  O32  1  0.34889166  0.09018157  0.92420619  1.0
  O  O33  1  0.74128991  0.65110834  0.92420619  1.0
  O  O34  1  0.90981843  0.25871009  0.57579381  1.0
  O  O35  1  0.34889166  0.09018157  0.57579381  1.0
  O  O36  1  0.74128991  0.65110834  0.57579381  1.0
  O  O37  1  0.09018157  0.74128991  0.07579381  1.0
  O  O38  1  0.65110834  0.90981843  0.07579381  1.0
  O  O39  1  0.25871009  0.34889166  0.07579381  1.0
  F  F40  1  0.00000000  0.00000000  0.50000000  1.0
  F  F41  1  0.00000000  0.00000000  0.00000000  1.0
