# generated using pymatgen
data_Zr3Sb7Pd
_symmetry_space_group_name_H-M   'P 1'
_cell_length_a   17.80126905
_cell_length_b   3.98831437
_cell_length_c   14.66310603
_cell_angle_alpha   90.00000000
_cell_angle_beta   90.00000000
_cell_angle_gamma   90.00000000
_symmetry_Int_Tables_number   1
_chemical_formula_structural   Zr3Sb7Pd
_chemical_formula_sum   'Zr12 Sb28 Pd4'
_cell_volume   1041.03737606
_cell_formula_units_Z   4
loop_
 _symmetry_equiv_pos_site_id
 _symmetry_equiv_pos_as_xyz
  1  'x, y, z'
loop_
 _atom_site_type_symbol
 _atom_site_label
 _atom_site_symmetry_multiplicity
 _atom_site_fract_x
 _atom_site_fract_y
 _atom_site_fract_z
 _atom_site_occupancy
  Zr  Zr0  1  0.15255382  0.75000000  0.68912368  1.0
  Zr  Zr1  1  0.65255382  0.75000000  0.81087632  1.0
  Zr  Zr2  1  0.84744618  0.25000000  0.31087632  1.0
  Zr  Zr3  1  0.34744618  0.25000000  0.18912368  1.0
  Zr  Zr4  1  0.13054049  0.75000000  0.96876181  1.0
  Zr  Zr5  1  0.63054049  0.75000000  0.53123819  1.0
  Zr  Zr6  1  0.86945951  0.25000000  0.03123819  1.0
  Zr  Zr7  1  0.36945951  0.25000000  0.46876181  1.0
  Zr  Zr8  1  0.10765914  0.75000000  0.41176882  1.0
  Zr  Zr9  1  0.60765914  0.75000000  0.08823118  1.0
  Zr  Zr10  1  0.89234086  0.25000000  0.58823118  1.0
  Zr  Zr11  1  0.39234086  0.25000000  0.91176882  1.0
  Sb  Sb12  1  0.48081549  0.75000000  0.80515317  1.0
  Sb  Sb13  1  0.98081549  0.75000000  0.69484683  1.0
  Sb  Sb14  1  0.51918451  0.25000000  0.19484683  1.0
  Sb  Sb15  1  0.01918451  0.25000000  0.30515317  1.0
  Sb  Sb16  1  0.46376743  0.75000000  0.57095185  1.0
  Sb  Sb17  1  0.96376743  0.75000000  0.92904815  1.0
  Sb  Sb18  1  0.53623257  0.25000000  0.42904815  1.0
  Sb  Sb19  1  0.03623257  0.25000000  0.07095185  1.0
  Sb  Sb20  1  0.42835509  0.75000000  0.05988742  1.0
  Sb  Sb21  1  0.92835509  0.75000000  0.44011258  1.0
  Sb  Sb22  1  0.57164491  0.25000000  0.94011258  1.0
  Sb  Sb23  1  0.07164491  0.25000000  0.55988742  1.0
  Sb  Sb24  1  0.40668020  0.75000000  0.32380179  1.0
  Sb  Sb25  1  0.90668020  0.75000000  0.17619821  1.0
  Sb  Sb26  1  0.59331980  0.25000000  0.67619821  1.0
  Sb  Sb27  1  0.09331980  0.25000000  0.82380179  1.0
  Sb  Sb28  1  0.27243913  0.75000000  0.85156769  1.0
  Sb  Sb29  1  0.77243913  0.75000000  0.64843231  1.0
  Sb  Sb30  1  0.72756087  0.25000000  0.14843231  1.0
  Sb  Sb31  1  0.22756087  0.25000000  0.35156769  1.0
  Sb  Sb32  1  0.25159473  0.75000000  0.51903271  1.0
  Sb  Sb33  1  0.75159473  0.75000000  0.98096729  1.0
  Sb  Sb34  1  0.74840527  0.25000000  0.48096729  1.0
  Sb  Sb35  1  0.24840527  0.25000000  0.01903271  1.0
  Sb  Sb36  1  0.21650656  0.75000000  0.17984655  1.0
  Sb  Sb37  1  0.71650656  0.75000000  0.32015345  1.0
  Sb  Sb38  1  0.78349344  0.25000000  0.82015345  1.0
  Sb  Sb39  1  0.28349344  0.25000000  0.67984655  1.0
  Pd  Pd40  1  0.06554842  0.75000000  0.19046358  1.0
  Pd  Pd41  1  0.56554842  0.75000000  0.30953642  1.0
  Pd  Pd42  1  0.93445158  0.25000000  0.80953642  1.0
  Pd  Pd43  1  0.43445158  0.25000000  0.69046358  1.0
