# generated using pymatgen
data_BaZnGeO4
_symmetry_space_group_name_H-M   'P 1'
_cell_length_a   9.45275535
_cell_length_b   9.45275535
_cell_length_c   8.93318986
_cell_angle_alpha   90.00000000
_cell_angle_beta   90.00000000
_cell_angle_gamma   120.00000000
_symmetry_Int_Tables_number   1
_chemical_formula_structural   BaZnGeO4
_chemical_formula_sum   'Ba6 Zn6 Ge6 O24'
_cell_volume   691.28006298
_cell_formula_units_Z   6
loop_
 _symmetry_equiv_pos_site_id
 _symmetry_equiv_pos_as_xyz
  1  'x, y, z'
loop_
 _atom_site_type_symbol
 _atom_site_label
 _atom_site_symmetry_multiplicity
 _atom_site_fract_x
 _atom_site_fract_y
 _atom_site_fract_z
 _atom_site_occupancy
  Ba  Ba0  1  0.33333333  0.66666667  0.05229078  1.0
  Ba  Ba1  1  0.66666667  0.33333333  0.55229078  1.0
  Ba  Ba2  1  0.33333333  0.66666667  0.51794993  1.0
  Ba  Ba3  1  0.66666667  0.33333333  0.01794993  1.0
  Ba  Ba4  1  0.00000000  0.00000000  0.04479864  1.0
  Ba  Ba5  1  0.00000000  0.00000000  0.54479864  1.0
  Zn  Zn6  1  0.33096118  0.99186908  0.22291203  1.0
  Zn  Zn7  1  0.99186908  0.66090790  0.72291203  1.0
  Zn  Zn8  1  0.66090790  0.66903882  0.22291203  1.0
  Zn  Zn9  1  0.00813092  0.33909210  0.22291203  1.0
  Zn  Zn10  1  0.66903882  0.00813092  0.72291203  1.0
  Zn  Zn11  1  0.33909210  0.33096118  0.72291203  1.0
  Ge  Ge12  1  0.98476564  0.66736981  0.32534619  1.0
  Ge  Ge13  1  0.66736981  0.68260417  0.82534619  1.0
  Ge  Ge14  1  0.68260417  0.01523436  0.32534619  1.0
  Ge  Ge15  1  0.33263019  0.31739583  0.32534619  1.0
  Ge  Ge16  1  0.01523436  0.33263019  0.82534619  1.0
  Ge  Ge17  1  0.31739583  0.98476564  0.82534619  1.0
  O  O18  1  0.27376458  0.90850431  0.01151181  1.0
  O  O19  1  0.90850431  0.63473974  0.51151181  1.0
  O  O20  1  0.63473974  0.72623542  0.01151181  1.0
  O  O21  1  0.09149569  0.36526026  0.01151181  1.0
  O  O22  1  0.72623542  0.09149569  0.51151181  1.0
  O  O23  1  0.36526026  0.27376458  0.51151181  1.0
  O  O24  1  0.46739331  0.89888593  0.29059499  1.0
  O  O25  1  0.89888593  0.43149262  0.79059499  1.0
  O  O26  1  0.43149262  0.53260669  0.29059499  1.0
  O  O27  1  0.10111407  0.56850738  0.29059499  1.0
  O  O28  1  0.53260669  0.10111407  0.79059499  1.0
  O  O29  1  0.56850738  0.46739331  0.79059499  1.0
  O  O30  1  0.10753243  0.88262250  0.30453901  1.0
  O  O31  1  0.88262250  0.77509007  0.80453901  1.0
  O  O32  1  0.77509007  0.89246757  0.30453901  1.0
  O  O33  1  0.11737750  0.22490993  0.30453901  1.0
  O  O34  1  0.89246757  0.11737750  0.80453901  1.0
  O  O35  1  0.22490993  0.10753243  0.80453901  1.0
  O  O36  1  0.80969957  0.58178482  0.20741619  1.0
  O  O37  1  0.58178482  0.77208525  0.70741619  1.0
  O  O38  1  0.77208525  0.19030043  0.20741619  1.0
  O  O39  1  0.41821518  0.22791475  0.20741619  1.0
  O  O40  1  0.19030043  0.41821518  0.70741619  1.0
  O  O41  1  0.22791475  0.80969957  0.70741619  1.0
