# generated using pymatgen
data_TlGaS2
_symmetry_space_group_name_H-M   'P 1'
_cell_length_a   7.42518932
_cell_length_b   7.42518932
_cell_length_c   15.45996263
_cell_angle_alpha   83.31396644
_cell_angle_beta   96.68603356
_cell_angle_gamma   90.10952818
_symmetry_Int_Tables_number   1
_chemical_formula_structural   TlGaS2
_chemical_formula_sum   'Tl8 Ga8 S16'
_cell_volume   840.74800141
_cell_formula_units_Z   8
loop_
 _symmetry_equiv_pos_site_id
 _symmetry_equiv_pos_as_xyz
  1  'x, y, z'
loop_
 _atom_site_type_symbol
 _atom_site_label
 _atom_site_symmetry_multiplicity
 _atom_site_fract_x
 _atom_site_fract_y
 _atom_site_fract_z
 _atom_site_occupancy
  Tl  Tl0  1  1.65504491  0.18731864  0.11466068  1.0
  Tl  Tl1  1  0.81268136  -0.65504491  0.61466068  1.0
  Tl  Tl2  1  1.18731864  0.65504491  0.38533932  1.0
  Tl  Tl3  1  0.34495509  -0.18731864  0.88533932  1.0
  Tl  Tl4  1  1.26330594  0.15226283  0.39223268  1.0
  Tl  Tl5  1  0.84773717  -0.26330594  0.89223268  1.0
  Tl  Tl6  1  1.15226283  0.26330594  0.10776732  1.0
  Tl  Tl7  1  0.73669406  -0.15226283  0.60776732  1.0
  Ga  Ga8  1  0.70849598  -0.08857246  0.33480317  1.0
  Ga  Ga9  1  1.08857246  0.29150402  0.83480317  1.0
  Ga  Ga10  1  0.91142754  -0.29150402  0.16519683  1.0
  Ga  Ga11  1  1.29150402  0.08857246  0.66519683  1.0
  Ga  Ga12  1  0.41783709  -0.29279199  0.16390216  1.0
  Ga  Ga13  1  1.29279199  0.58216291  0.66390216  1.0
  Ga  Ga14  1  0.70720801  -0.58216291  0.33609784  1.0
  Ga  Ga15  1  1.58216291  0.29279199  0.83609784  1.0
  S  S16  1  0.64359181  -0.25806055  0.07264515  1.0
  S  S17  1  1.25806055  0.35640819  0.57264515  1.0
  S  S18  1  0.74193945  -0.35640819  0.42735485  1.0
  S  S19  1  1.35640819  0.25806055  0.92735485  1.0
  S  S20  1  1.71311757  0.14238186  0.42380168  1.0
  S  S21  1  0.85761814  -0.71311757  0.92380168  1.0
  S  S22  1  1.14238186  0.71311757  0.07619832  1.0
  S  S23  1  0.28688243  -0.14238186  0.57619832  1.0
  S  S24  1  0.43152388  -0.05751387  0.24898562  1.0
  S  S25  1  1.05751387  0.56847612  0.74898562  1.0
  S  S26  1  0.94248613  -0.56847612  0.25101438  1.0
  S  S27  1  1.56847612  0.05751387  0.75101438  1.0
  S  S28  1  0.94551101  -0.05448899  0.25000000  1.0
  S  S29  1  1.05448899  0.05448899  0.75000000  1.0
  S  S30  1  1.43220575  0.43220575  0.25000000  1.0
  S  S31  1  0.56779425  -0.43220575  0.75000000  1.0
