# generated using pymatgen
data_CeCuSi2
_symmetry_space_group_name_H-M   'P 1'
_cell_length_a   10.83516102
_cell_length_b   10.83516102
_cell_length_c   3.79140995
_cell_angle_alpha   90.00000000
_cell_angle_beta   90.00000000
_cell_angle_gamma   158.26475322
_symmetry_Int_Tables_number   1
_chemical_formula_structural   CeCuSi2
_chemical_formula_sum   'Ce2 Cu2 Si4'
_cell_volume   164.83393138
_cell_formula_units_Z   2
loop_
 _symmetry_equiv_pos_site_id
 _symmetry_equiv_pos_as_xyz
  1  'x, y, z'
loop_
 _atom_site_type_symbol
 _atom_site_label
 _atom_site_symmetry_multiplicity
 _atom_site_fract_x
 _atom_site_fract_y
 _atom_site_fract_z
 _atom_site_occupancy
  Ce  Ce0  1  -0.85921519  0.85921519  0.25000000  1.0
  Ce  Ce1  1  -0.14078481  1.14078481  0.75000000  1.0
  Cu  Cu2  1  -0.58310571  0.58310571  0.25000000  1.0
  Cu  Cu3  1  -0.41689429  1.41689429  0.75000000  1.0
  Si  Si4  1  -1.03085839  1.03085839  0.25000000  1.0
  Si  Si5  1  0.03085839  0.96914161  0.75000000  1.0
  Si  Si6  1  -0.25489930  1.25489930  0.25000000  1.0
  Si  Si7  1  -0.74510070  0.74510070  0.75000000  1.0
