# generated using pymatgen
data_Be2P2PbO8
_symmetry_space_group_name_H-M   'P 1'
_cell_length_a   8.13615729
_cell_length_b   9.14635912
_cell_length_c   8.62171823
_cell_angle_alpha   90.00000000
_cell_angle_beta   90.17252209
_cell_angle_gamma   90.00000000
_symmetry_Int_Tables_number   1
_chemical_formula_structural   Be2P2PbO8
_chemical_formula_sum   'Be8 P8 Pb4 O32'
_cell_volume   641.59274154
_cell_formula_units_Z   4
loop_
 _symmetry_equiv_pos_site_id
 _symmetry_equiv_pos_as_xyz
  1  'x, y, z'
loop_
 _atom_site_type_symbol
 _atom_site_label
 _atom_site_symmetry_multiplicity
 _atom_site_fract_x
 _atom_site_fract_y
 _atom_site_fract_z
 _atom_site_occupancy
  Be  Be0  1  0.92598883  0.69253269  0.43307929  1.0
  Be  Be1  1  0.92598883  0.80746731  0.93307929  1.0
  Be  Be2  1  0.07401117  0.19253269  0.06692071  1.0
  Be  Be3  1  0.07401117  0.30746731  0.56692071  1.0
  Be  Be4  1  0.57036851  0.41604395  0.27727208  1.0
  Be  Be5  1  0.57036851  0.08395605  0.77727208  1.0
  Be  Be6  1  0.42963149  0.91604395  0.22272792  1.0
  Be  Be7  1  0.42963149  0.58395605  0.72272792  1.0
  P  P8  1  0.93751174  0.41183447  0.27220055  1.0
  P  P9  1  0.93751174  0.08816553  0.77220055  1.0
  P  P10  1  0.06248826  0.91183447  0.22779945  1.0
  P  P11  1  0.06248826  0.58816553  0.72779945  1.0
  P  P12  1  0.43553707  0.19549824  0.06997200  1.0
  P  P13  1  0.43553707  0.30450176  0.56997200  1.0
  P  P14  1  0.56446293  0.69549824  0.43002800  1.0
  P  P15  1  0.56446293  0.80450176  0.93002800  1.0
  Pb  Pb16  1  0.74420561  0.08970026  0.39774203  1.0
  Pb  Pb17  1  0.74420561  0.41029974  0.89774203  1.0
  Pb  Pb18  1  0.25579439  0.58970026  0.10225797  1.0
  Pb  Pb19  1  0.25579439  0.91029974  0.60225797  1.0
  O  O20  1  0.00846822  0.07044035  0.19266428  1.0
  O  O21  1  0.00846822  0.42955965  0.69266428  1.0
  O  O22  1  0.99153178  0.57044035  0.30733572  1.0
  O  O23  1  0.99153178  0.92955965  0.80733572  1.0
  O  O24  1  0.94607532  0.31232815  0.41753274  1.0
  O  O25  1  0.94607532  0.18767185  0.91753274  1.0
  O  O26  1  0.05392468  0.81232815  0.08246726  1.0
  O  O27  1  0.05392468  0.68767185  0.58246726  1.0
  O  O28  1  0.94704137  0.85808572  0.36006951  1.0
  O  O29  1  0.94704137  0.64191428  0.86006951  1.0
  O  O30  1  0.05295863  0.35808572  0.13993049  1.0
  O  O31  1  0.05295863  0.14191428  0.63993049  1.0
  O  O32  1  0.75812799  0.40218427  0.20631206  1.0
  O  O33  1  0.75812799  0.09781573  0.70631206  1.0
  O  O34  1  0.24187201  0.90218427  0.29368794  1.0
  O  O35  1  0.24187201  0.59781573  0.79368794  1.0
  O  O36  1  0.73969514  0.83373793  0.98679090  1.0
  O  O37  1  0.73969514  0.66626207  0.48679090  1.0
  O  O38  1  0.26030486  0.33373793  0.51320910  1.0
  O  O39  1  0.26030486  0.16626207  0.01320910  1.0
  O  O40  1  0.55958003  0.31621145  0.43228997  1.0
  O  O41  1  0.55958003  0.18378855  0.93228997  1.0
  O  O42  1  0.44041997  0.81621145  0.06771003  1.0
  O  O43  1  0.44041997  0.68378855  0.56771003  1.0
  O  O44  1  0.48915309  0.08396332  0.19791700  1.0
  O  O45  1  0.48915309  0.41603668  0.69791700  1.0
  O  O46  1  0.51084691  0.58396332  0.30208300  1.0
  O  O47  1  0.51084691  0.91603668  0.80208300  1.0
  O  O48  1  0.45387277  0.35469474  0.13490807  1.0
  O  O49  1  0.45387277  0.14530526  0.63490807  1.0
  O  O50  1  0.54612723  0.85469474  0.36509193  1.0
  O  O51  1  0.54612723  0.64530526  0.86509193  1.0
