# generated using pymatgen
data_K2TeClF5
_symmetry_space_group_name_H-M   'P 1'
_cell_length_a   4.84589767
_cell_length_b   10.95442167
_cell_length_c   15.28938623
_cell_angle_alpha   90.00000000
_cell_angle_beta   107.50254840
_cell_angle_gamma   90.00000000
_symmetry_Int_Tables_number   1
_chemical_formula_structural   K2TeClF5
_chemical_formula_sum   'K8 Te4 Cl4 F20'
_cell_volume   774.04668571
_cell_formula_units_Z   4
loop_
 _symmetry_equiv_pos_site_id
 _symmetry_equiv_pos_as_xyz
  1  'x, y, z'
loop_
 _atom_site_type_symbol
 _atom_site_label
 _atom_site_symmetry_multiplicity
 _atom_site_fract_x
 _atom_site_fract_y
 _atom_site_fract_z
 _atom_site_occupancy
  K  K0  1  0.68187461  0.15501643  0.42132727  1.0
  K  K1  1  0.68187461  0.34498357  0.92132727  1.0
  K  K2  1  0.31812539  0.65501643  0.07867273  1.0
  K  K3  1  0.31812539  0.84498357  0.57867273  1.0
  K  K4  1  0.35813901  0.08255439  0.10589725  1.0
  K  K5  1  0.35813901  0.41744561  0.60589725  1.0
  K  K6  1  0.64186099  0.58255439  0.39410275  1.0
  K  K7  1  0.64186099  0.91744561  0.89410275  1.0
  Te  Te8  1  0.83061290  0.36720217  0.18636581  1.0
  Te  Te9  1  0.83061290  0.13279783  0.68636581  1.0
  Te  Te10  1  0.16938710  0.86720217  0.31363419  1.0
  Te  Te11  1  0.16938710  0.63279783  0.81363419  1.0
  Cl  Cl12  1  0.83120597  0.87683804  0.10689714  1.0
  Cl  Cl13  1  0.83120597  0.62316196  0.60689714  1.0
  Cl  Cl14  1  0.16879403  0.37683804  0.39310286  1.0
  Cl  Cl15  1  0.16879403  0.12316196  0.89310286  1.0
  F  F16  1  0.90601111  0.22301675  0.10650933  1.0
  F  F17  1  0.90601111  0.27698325  0.60650933  1.0
  F  F18  1  0.09398889  0.72301675  0.39349067  1.0
  F  F19  1  0.09398889  0.77698325  0.89349067  1.0
  F  F20  1  0.90185949  0.49670347  0.09613521  1.0
  F  F21  1  0.90185949  0.00329653  0.59613521  1.0
  F  F22  1  0.09814051  0.99670347  0.40386479  1.0
  F  F23  1  0.09814051  0.50329653  0.90386479  1.0
  F  F24  1  0.61859050  0.24281512  0.24293704  1.0
  F  F25  1  0.61859050  0.25718488  0.74293704  1.0
  F  F26  1  0.38140950  0.74281512  0.25706296  1.0
  F  F27  1  0.38140950  0.75718488  0.75706296  1.0
  F  F28  1  0.45722782  0.35771947  0.08547020  1.0
  F  F29  1  0.45722782  0.14228053  0.58547020  1.0
  F  F30  1  0.54277218  0.85771947  0.41452980  1.0
  F  F31  1  0.54277218  0.64228053  0.91452980  1.0
  F  F32  1  0.39214024  0.00276499  0.27273024  1.0
  F  F33  1  0.39214024  0.49723501  0.77273024  1.0
  F  F34  1  0.60785976  0.50276499  0.22726976  1.0
  F  F35  1  0.60785976  0.99723501  0.72726976  1.0
