# generated using pymatgen
data_Ba5Lu2ZrAl2O13
_symmetry_space_group_name_H-M   'P 1'
_cell_length_a   5.98586911
_cell_length_b   5.98586911
_cell_length_c   25.04296282
_cell_angle_alpha   90.00000000
_cell_angle_beta   90.00000000
_cell_angle_gamma   120.00000000
_symmetry_Int_Tables_number   1
_chemical_formula_structural   Ba5Lu2ZrAl2O13
_chemical_formula_sum   'Ba10 Lu4 Zr2 Al4 O26'
_cell_volume   777.08902103
_cell_formula_units_Z   2
loop_
 _symmetry_equiv_pos_site_id
 _symmetry_equiv_pos_as_xyz
  1  'x, y, z'
loop_
 _atom_site_type_symbol
 _atom_site_label
 _atom_site_symmetry_multiplicity
 _atom_site_fract_x
 _atom_site_fract_y
 _atom_site_fract_z
 _atom_site_occupancy
  Ba  Ba0  1  0.33333333  0.66666667  0.25000000  1.0
  Ba  Ba1  1  0.66666667  0.33333333  0.75000000  1.0
  Ba  Ba2  1  0.33333333  0.66666667  0.95857096  1.0
  Ba  Ba3  1  0.33333333  0.66666667  0.54142904  1.0
  Ba  Ba4  1  0.66666667  0.33333333  0.45857096  1.0
  Ba  Ba5  1  0.66666667  0.33333333  0.04142904  1.0
  Ba  Ba6  1  0.00000000  0.00000000  0.36303959  1.0
  Ba  Ba7  1  -0.00000000  -0.00000000  0.13696041  1.0
  Ba  Ba8  1  0.00000000  0.00000000  0.86303959  1.0
  Ba  Ba9  1  -0.00000000  -0.00000000  0.63696041  1.0
  Lu  Lu10  1  0.33333333  0.66666667  0.39654977  1.0
  Lu  Lu11  1  0.33333333  0.66666667  0.10345023  1.0
  Lu  Lu12  1  0.66666667  0.33333333  0.89654977  1.0
  Lu  Lu13  1  0.66666667  0.33333333  0.60345023  1.0
  Zr  Zr14  1  0.00000000  0.00000000  0.50000000  1.0
  Zr  Zr15  1  0.00000000  0.00000000  -0.00000000  1.0
  Al  Al16  1  0.33333333  0.66666667  0.81954091  1.0
  Al  Al17  1  0.33333333  0.66666667  0.68045909  1.0
  Al  Al18  1  0.66666667  0.33333333  0.31954091  1.0
  Al  Al19  1  0.66666667  0.33333333  0.18045909  1.0
  O  O20  1  0.16290434  0.83709566  0.44974257  1.0
  O  O21  1  0.16290434  0.83709566  0.05025743  1.0
  O  O22  1  0.16290434  0.32580867  0.44974257  1.0
  O  O23  1  0.16290434  0.32580867  0.05025743  1.0
  O  O24  1  0.83709566  0.16290434  0.94974257  1.0
  O  O25  1  0.83709566  0.16290434  0.55025743  1.0
  O  O26  1  0.83709566  0.67419133  0.94974257  1.0
  O  O27  1  0.83709566  0.67419133  0.55025743  1.0
  O  O28  1  0.67419133  0.83709566  0.44974257  1.0
  O  O29  1  0.67419133  0.83709566  0.05025743  1.0
  O  O30  1  0.32580867  0.16290434  0.94974257  1.0
  O  O31  1  0.32580867  0.16290434  0.55025743  1.0
  O  O32  1  0.50415773  0.49584227  0.34239474  1.0
  O  O33  1  0.50415773  0.49584227  0.15760526  1.0
  O  O34  1  0.50415773  0.00831545  0.34239474  1.0
  O  O35  1  0.50415773  0.00831545  0.15760526  1.0
  O  O36  1  0.49584227  0.50415773  0.84239474  1.0
  O  O37  1  0.49584227  0.50415773  0.65760526  1.0
  O  O38  1  0.49584227  0.99168455  0.84239474  1.0
  O  O39  1  0.49584227  0.99168455  0.65760526  1.0
  O  O40  1  0.99168455  0.49584227  0.34239474  1.0
  O  O41  1  0.99168455  0.49584227  0.15760526  1.0
  O  O42  1  0.00831545  0.50415773  0.84239474  1.0
  O  O43  1  0.00831545  0.50415773  0.65760526  1.0
  O  O44  1  0.33333333  0.66666667  0.75000000  1.0
  O  O45  1  0.66666667  0.33333333  0.25000000  1.0
