# generated using pymatgen
data_Sr5Cr3ClO12
_symmetry_space_group_name_H-M   'P 1'
_cell_length_a   10.50716921
_cell_length_b   10.50716921
_cell_length_c   7.31725286
_cell_angle_alpha   90.00000000
_cell_angle_beta   90.00000000
_cell_angle_gamma   120.00000000
_symmetry_Int_Tables_number   1
_chemical_formula_structural   Sr5Cr3ClO12
_chemical_formula_sum   'Sr10 Cr6 Cl2 O24'
_cell_volume   699.60055835
_cell_formula_units_Z   2
loop_
 _symmetry_equiv_pos_site_id
 _symmetry_equiv_pos_as_xyz
  1  'x, y, z'
loop_
 _atom_site_type_symbol
 _atom_site_label
 _atom_site_symmetry_multiplicity
 _atom_site_fract_x
 _atom_site_fract_y
 _atom_site_fract_z
 _atom_site_occupancy
  Sr  Sr0  1  -0.00892845  0.72589355  0.25000000  1.0
  Sr  Sr1  1  0.72589355  0.73482201  0.75000000  1.0
  Sr  Sr2  1  0.73482201  1.00892845  0.25000000  1.0
  Sr  Sr3  1  0.27410645  0.26517799  0.25000000  1.0
  Sr  Sr4  1  1.00892845  0.27410645  0.75000000  1.0
  Sr  Sr5  1  0.26517799  -0.00892845  0.75000000  1.0
  Sr  Sr6  1  0.33333333  0.66666667  0.49737707  1.0
  Sr  Sr7  1  0.33333333  0.66666667  0.00262293  1.0
  Sr  Sr8  1  0.66666667  0.33333333  0.99737707  1.0
  Sr  Sr9  1  0.66666667  0.33333333  0.50262293  1.0
  Cr  Cr10  1  0.62846742  0.59133092  0.25000000  1.0
  Cr  Cr11  1  0.59133092  0.96286350  0.75000000  1.0
  Cr  Cr12  1  0.96286350  0.37153258  0.25000000  1.0
  Cr  Cr13  1  0.40866908  0.03713650  0.25000000  1.0
  Cr  Cr14  1  0.37153258  0.40866908  0.75000000  1.0
  Cr  Cr15  1  0.03713650  0.62846742  0.75000000  1.0
  Cl  Cl16  1  0.00000000  0.00000000  0.25000000  1.0
  Cl  Cl17  1  -0.00000000  -0.00000000  0.75000000  1.0
  O  O18  1  0.74020803  0.64433788  0.43710037  1.0
  O  O19  1  0.74020803  0.64433788  0.06289963  1.0
  O  O20  1  0.64433788  0.90412986  0.93710037  1.0
  O  O21  1  0.64433788  0.90412986  0.56289963  1.0
  O  O22  1  0.90412986  0.25979197  0.43710037  1.0
  O  O23  1  0.90412986  0.25979197  0.06289963  1.0
  O  O24  1  0.35566212  0.09587014  0.43710037  1.0
  O  O25  1  0.35566212  0.09587014  0.06289963  1.0
  O  O26  1  0.25979197  0.35566212  0.93710037  1.0
  O  O27  1  0.25979197  0.35566212  0.56289963  1.0
  O  O28  1  0.09587014  0.74020803  0.93710037  1.0
  O  O29  1  0.09587014  0.74020803  0.56289963  1.0
  O  O30  1  0.35147256  0.85368487  0.25000000  1.0
  O  O31  1  0.85368487  0.50221231  0.75000000  1.0
  O  O32  1  0.50221231  0.64852744  0.25000000  1.0
  O  O33  1  0.14631513  0.49778769  0.25000000  1.0
  O  O34  1  0.64852744  0.14631513  0.75000000  1.0
  O  O35  1  0.49778769  0.35147256  0.75000000  1.0
  O  O36  1  0.54139595  0.40181267  0.25000000  1.0
  O  O37  1  0.40181267  0.86041672  0.75000000  1.0
  O  O38  1  0.86041672  0.45860405  0.25000000  1.0
  O  O39  1  0.59818733  0.13958328  0.25000000  1.0
  O  O40  1  0.45860405  0.59818733  0.75000000  1.0
  O  O41  1  0.13958328  0.54139595  0.75000000  1.0
