# generated using pymatgen
data_Sr2VClO4
_symmetry_space_group_name_H-M   'P 1'
_cell_length_a   6.64080482
_cell_length_b   7.54235290
_cell_length_c   11.62622808
_cell_angle_alpha   90.00000000
_cell_angle_beta   90.00000000
_cell_angle_gamma   90.00000000
_symmetry_Int_Tables_number   1
_chemical_formula_structural   Sr2VClO4
_chemical_formula_sum   'Sr8 V4 Cl4 O16'
_cell_volume   582.32629792
_cell_formula_units_Z   4
loop_
 _symmetry_equiv_pos_site_id
 _symmetry_equiv_pos_as_xyz
  1  'x, y, z'
loop_
 _atom_site_type_symbol
 _atom_site_label
 _atom_site_symmetry_multiplicity
 _atom_site_fract_x
 _atom_site_fract_y
 _atom_site_fract_z
 _atom_site_occupancy
  Sr  Sr0  1  0.86299842  0.96550027  0.75000000  1.0
  Sr  Sr1  1  0.86299842  0.53449973  0.25000000  1.0
  Sr  Sr2  1  0.13700158  0.46550027  0.75000000  1.0
  Sr  Sr3  1  0.13700158  0.03449973  0.25000000  1.0
  Sr  Sr4  1  0.37238503  0.75000000  0.00000000  1.0
  Sr  Sr5  1  0.37238503  0.75000000  0.50000000  1.0
  Sr  Sr6  1  0.62761497  0.25000000  0.00000000  1.0
  Sr  Sr7  1  0.62761497  0.25000000  0.50000000  1.0
  V  V8  1  0.86921062  0.75000000  0.00000000  1.0
  V  V9  1  0.86921062  0.75000000  0.50000000  1.0
  V  V10  1  0.13078938  0.25000000  0.00000000  1.0
  V  V11  1  0.13078938  0.25000000  0.50000000  1.0
  Cl  Cl12  1  0.49616276  0.70318515  0.75000000  1.0
  Cl  Cl13  1  0.49616276  0.79681485  0.25000000  1.0
  Cl  Cl14  1  0.50383724  0.20318515  0.75000000  1.0
  Cl  Cl15  1  0.50383724  0.29681485  0.25000000  1.0
  O  O16  1  0.97693749  0.22367228  0.88143162  1.0
  O  O17  1  0.97693749  0.22367228  0.61856838  1.0
  O  O18  1  0.97693749  0.27632772  0.38143162  1.0
  O  O19  1  0.97693749  0.27632772  0.11856838  1.0
  O  O20  1  0.02306251  0.72367228  0.88143162  1.0
  O  O21  1  0.02306251  0.72367228  0.61856838  1.0
  O  O22  1  0.02306251  0.77632772  0.38143162  1.0
  O  O23  1  0.02306251  0.77632772  0.11856838  1.0
  O  O24  1  0.71374542  0.92622962  0.97038005  1.0
  O  O25  1  0.71374542  0.92622962  0.52961995  1.0
  O  O26  1  0.71374542  0.57377038  0.47038005  1.0
  O  O27  1  0.71374542  0.57377038  0.02961995  1.0
  O  O28  1  0.28625458  0.42622962  0.97038005  1.0
  O  O29  1  0.28625458  0.42622962  0.52961995  1.0
  O  O30  1  0.28625458  0.07377038  0.47038005  1.0
  O  O31  1  0.28625458  0.07377038  0.02961995  1.0
