# generated using pymatgen
data_SnH6C4(SN)2
_symmetry_space_group_name_H-M   'P 1'
_cell_length_a   8.77447911
_cell_length_b   10.09033198
_cell_length_c   5.76754267
_cell_angle_alpha   90.00000000
_cell_angle_beta   90.00000000
_cell_angle_gamma   90.00000000
_symmetry_Int_Tables_number   1
_chemical_formula_structural   SnH6C4(SN)2
_chemical_formula_sum   'Sn2 H12 C8 S4 N4'
_cell_volume   510.64327312
_cell_formula_units_Z   2
loop_
 _symmetry_equiv_pos_site_id
 _symmetry_equiv_pos_as_xyz
  1  'x, y, z'
loop_
 _atom_site_type_symbol
 _atom_site_label
 _atom_site_symmetry_multiplicity
 _atom_site_fract_x
 _atom_site_fract_y
 _atom_site_fract_z
 _atom_site_occupancy
  Sn  Sn0  1  0.00000000  0.00000000  0.54773755  1.0
  Sn  Sn1  1  0.50000000  0.50000000  0.45226245  1.0
  H  H2  1  0.24577971  0.00000000  0.83206196  1.0
  H  H3  1  0.75422029  0.00000000  0.83206196  1.0
  H  H4  1  0.25422029  0.50000000  0.16793804  1.0
  H  H5  1  0.74577971  0.50000000  0.16793804  1.0
  H  H6  1  0.28578290  0.91041158  0.56910484  1.0
  H  H7  1  0.28578290  0.08958842  0.56910484  1.0
  H  H8  1  0.71421710  0.91041158  0.56910484  1.0
  H  H9  1  0.71421710  0.08958842  0.56910484  1.0
  H  H10  1  0.21421710  0.58958842  0.43089516  1.0
  H  H11  1  0.21421710  0.41041158  0.43089516  1.0
  H  H12  1  0.78578290  0.58958842  0.43089516  1.0
  H  H13  1  0.78578290  0.41041158  0.43089516  1.0
  C  C14  1  0.00000000  0.80227167  0.09355502  1.0
  C  C15  1  0.00000000  0.19772833  0.09355502  1.0
  C  C16  1  0.50000000  0.69772833  0.90644498  1.0
  C  C17  1  0.50000000  0.30227167  0.90644498  1.0
  C  C18  1  0.23505136  0.00000000  0.64323145  1.0
  C  C19  1  0.76494864  0.00000000  0.64323145  1.0
  C  C20  1  0.26494864  0.50000000  0.35676855  1.0
  C  C21  1  0.73505136  0.50000000  0.35676855  1.0
  S  S22  1  0.00000000  0.73360452  0.84120003  1.0
  S  S23  1  0.00000000  0.26639548  0.84120003  1.0
  S  S24  1  0.50000000  0.76639548  0.15879997  1.0
  S  S25  1  0.50000000  0.23360452  0.15879997  1.0
  N  N26  1  0.00000000  0.85077049  0.28131592  1.0
  N  N27  1  0.00000000  0.14922951  0.28131592  1.0
  N  N28  1  0.50000000  0.64922951  0.71868408  1.0
  N  N29  1  0.50000000  0.35077049  0.71868408  1.0
