# generated using pymatgen
data_KAg(PO3)2
_symmetry_space_group_name_H-M   'P 1'
_cell_length_a   6.14310124
_cell_length_b   13.33476207
_cell_length_c   7.66792953
_cell_angle_alpha   90.00000000
_cell_angle_beta   94.15740219
_cell_angle_gamma   90.00000000
_symmetry_Int_Tables_number   1
_chemical_formula_structural   KAg(PO3)2
_chemical_formula_sum   'K4 Ag4 P8 O24'
_cell_volume   626.47936452
_cell_formula_units_Z   4
loop_
 _symmetry_equiv_pos_site_id
 _symmetry_equiv_pos_as_xyz
  1  'x, y, z'
loop_
 _atom_site_type_symbol
 _atom_site_label
 _atom_site_symmetry_multiplicity
 _atom_site_fract_x
 _atom_site_fract_y
 _atom_site_fract_z
 _atom_site_occupancy
  K  K0  1  0.30196302  0.16992681  0.22899949  1.0
  K  K1  1  0.30196302  0.33007319  0.72899949  1.0
  K  K2  1  0.69803698  0.66992681  0.27100051  1.0
  K  K3  1  0.69803698  0.83007319  0.77100051  1.0
  Ag  Ag4  1  0.81425562  0.97133953  0.19976425  1.0
  Ag  Ag5  1  0.81425562  0.52866047  0.69976425  1.0
  Ag  Ag6  1  0.18574438  0.47133953  0.30023575  1.0
  Ag  Ag7  1  0.18574438  0.02866047  0.80023575  1.0
  P  P8  1  0.84672095  0.17316764  0.49337611  1.0
  P  P9  1  0.84672095  0.32683236  0.99337611  1.0
  P  P10  1  0.15327905  0.67316764  0.00662389  1.0
  P  P11  1  0.15327905  0.82683236  0.50662389  1.0
  P  P12  1  0.68740964  0.36905857  0.34812335  1.0
  P  P13  1  0.68740964  0.13094143  0.84812335  1.0
  P  P14  1  0.31259036  0.86905857  0.15187665  1.0
  P  P15  1  0.31259036  0.63094143  0.65187665  1.0
  O  O16  1  0.92407404  0.85402165  0.44078459  1.0
  O  O17  1  0.92407404  0.64597835  0.94078459  1.0
  O  O18  1  0.07592596  0.35402165  0.05921541  1.0
  O  O19  1  0.07592596  0.14597835  0.55921541  1.0
  O  O20  1  0.86068798  0.29384403  0.45295923  1.0
  O  O21  1  0.86068798  0.20615597  0.95295923  1.0
  O  O22  1  0.13931202  0.79384403  0.04704077  1.0
  O  O23  1  0.13931202  0.70615597  0.54704077  1.0
  O  O24  1  0.78987665  0.47196605  0.36198786  1.0
  O  O25  1  0.78987665  0.02803395  0.86198786  1.0
  O  O26  1  0.21012335  0.97196605  0.13801214  1.0
  O  O27  1  0.21012335  0.52803395  0.63801214  1.0
  O  O28  1  0.73288910  0.12168218  0.33730326  1.0
  O  O29  1  0.73288910  0.37831782  0.83730326  1.0
  O  O30  1  0.26711090  0.62168218  0.16269674  1.0
  O  O31  1  0.26711090  0.87831782  0.66269674  1.0
  O  O32  1  0.67770413  0.32832018  0.14755729  1.0
  O  O33  1  0.67770413  0.17167982  0.64755729  1.0
  O  O34  1  0.32229587  0.82832018  0.35244271  1.0
  O  O35  1  0.32229587  0.67167982  0.85244271  1.0
  O  O36  1  0.46057037  0.35117813  0.40558523  1.0
  O  O37  1  0.46057037  0.14882187  0.90558523  1.0
  O  O38  1  0.53942963  0.85117813  0.09441477  1.0
  O  O39  1  0.53942963  0.64882187  0.59441477  1.0
