# generated using pymatgen
data_CF
_symmetry_space_group_name_H-M   'P 1'
_cell_length_a   9.37460449
_cell_length_b   9.37460449
_cell_length_c   9.56222439
_cell_angle_alpha   90.00000000
_cell_angle_beta   90.00000000
_cell_angle_gamma   120.00000000
_symmetry_Int_Tables_number   1
_chemical_formula_structural   CF
_chemical_formula_sum   'C24 F24'
_cell_volume   727.77221437
_cell_formula_units_Z   24
loop_
 _symmetry_equiv_pos_site_id
 _symmetry_equiv_pos_as_xyz
  1  'x, y, z'
loop_
 _atom_site_type_symbol
 _atom_site_label
 _atom_site_symmetry_multiplicity
 _atom_site_fract_x
 _atom_site_fract_y
 _atom_site_fract_z
 _atom_site_occupancy
  C  C0  1  0.71988906  0.50186863  0.25000000  1.0
  C  C1  1  0.50186863  0.78197957  0.75000000  1.0
  C  C2  1  0.78197957  0.28011094  0.25000000  1.0
  C  C3  1  0.49813137  0.21802043  0.25000000  1.0
  C  C4  1  0.28011094  0.49813137  0.75000000  1.0
  C  C5  1  0.21802043  0.71988906  0.75000000  1.0
  C  C6  1  0.55105412  0.38606243  0.25000000  1.0
  C  C7  1  0.38606243  0.83500831  0.75000000  1.0
  C  C8  1  0.83500831  0.44894588  0.25000000  1.0
  C  C9  1  0.61393757  0.16499169  0.25000000  1.0
  C  C10  1  0.44894588  0.61393757  0.75000000  1.0
  C  C11  1  0.16499169  0.55105412  0.75000000  1.0
  C  C12  1  0.48387899  0.98364516  0.25000000  1.0
  C  C13  1  0.98364516  0.49976617  0.75000000  1.0
  C  C14  1  0.49976617  0.51612101  0.25000000  1.0
  C  C15  1  0.01635484  0.50023383  0.25000000  1.0
  C  C16  1  0.51612101  0.01635484  0.75000000  1.0
  C  C17  1  0.50023383  0.48387899  0.75000000  1.0
  C  C18  1  0.69290102  0.64879949  0.25000000  1.0
  C  C19  1  0.64879949  0.95589847  0.75000000  1.0
  C  C20  1  0.95589847  0.30709898  0.25000000  1.0
  C  C21  1  0.35120051  0.04410153  0.25000000  1.0
  C  C22  1  0.30709898  0.35120051  0.75000000  1.0
  C  C23  1  0.04410153  0.69290102  0.75000000  1.0
  F  F24  1  0.25271872  0.99940304  0.36521072  1.0
  F  F25  1  0.25271872  0.99940304  0.13478928  1.0
  F  F26  1  0.99940304  0.74668432  0.86521072  1.0
  F  F27  1  0.99940304  0.74668432  0.63478928  1.0
  F  F28  1  0.74668432  0.74728128  0.36521072  1.0
  F  F29  1  0.74668432  0.74728128  0.13478928  1.0
  F  F30  1  0.00059696  0.25331568  0.36521072  1.0
  F  F31  1  0.00059696  0.25331568  0.13478928  1.0
  F  F32  1  0.74728128  0.00059696  0.86521072  1.0
  F  F33  1  0.74728128  0.00059696  0.63478928  1.0
  F  F34  1  0.25331568  0.25271872  0.86521072  1.0
  F  F35  1  0.25331568  0.25271872  0.63478928  1.0
  F  F36  1  0.47958613  0.89569208  0.36506909  1.0
  F  F37  1  0.47958613  0.89569208  0.13493091  1.0
  F  F38  1  0.89569208  0.41610595  0.86506909  1.0
  F  F39  1  0.89569208  0.41610595  0.63493091  1.0
  F  F40  1  0.41610595  0.52041387  0.36506909  1.0
  F  F41  1  0.41610595  0.52041387  0.13493091  1.0
  F  F42  1  0.10430792  0.58389405  0.36506909  1.0
  F  F43  1  0.10430792  0.58389405  0.13493091  1.0
  F  F44  1  0.52041387  0.10430792  0.86506909  1.0
  F  F45  1  0.52041387  0.10430792  0.63493091  1.0
  F  F46  1  0.58389405  0.47958613  0.86506909  1.0
  F  F47  1  0.58389405  0.47958613  0.63493091  1.0
