# generated using pymatgen
data_Sr2H8PtO8
_symmetry_space_group_name_H-M   'P 1'
_cell_length_a   6.03612289
_cell_length_b   11.15685726
_cell_length_c   6.04060989
_cell_angle_alpha   90.00000000
_cell_angle_beta   113.16075246
_cell_angle_gamma   90.00000000
_symmetry_Int_Tables_number   1
_chemical_formula_structural   Sr2H8PtO8
_chemical_formula_sum   'Sr4 H16 Pt2 O16'
_cell_volume   374.01376659
_cell_formula_units_Z   2
loop_
 _symmetry_equiv_pos_site_id
 _symmetry_equiv_pos_as_xyz
  1  'x, y, z'
loop_
 _atom_site_type_symbol
 _atom_site_label
 _atom_site_symmetry_multiplicity
 _atom_site_fract_x
 _atom_site_fract_y
 _atom_site_fract_z
 _atom_site_occupancy
  Sr  Sr0  1  0.27047734  0.62667664  0.10501820  1.0
  Sr  Sr1  1  0.72952266  0.12667664  0.39498180  1.0
  Sr  Sr2  1  0.72952266  0.37332336  0.89498180  1.0
  Sr  Sr3  1  0.27047734  0.87332336  0.60501820  1.0
  H  H4  1  0.85144866  0.69252946  0.26876641  1.0
  H  H5  1  0.14855134  0.19252946  0.23123359  1.0
  H  H6  1  0.14855134  0.30747054  0.73123359  1.0
  H  H7  1  0.85144866  0.80747054  0.76876641  1.0
  H  H8  1  0.23996447  0.37526734  0.33219104  1.0
  H  H9  1  0.76003553  0.87526734  0.16780896  1.0
  H  H10  1  0.76003553  0.62473266  0.66780896  1.0
  H  H11  1  0.23996447  0.12473266  0.83219104  1.0
  H  H12  1  0.40837035  0.91178554  0.15920142  1.0
  H  H13  1  0.59162965  0.41178554  0.34079858  1.0
  H  H14  1  0.59162965  0.08821446  0.84079858  1.0
  H  H15  1  0.40837035  0.58821446  0.65920142  1.0
  H  H16  1  0.62904595  0.74193083  0.93138143  1.0
  H  H17  1  0.37095405  0.24193083  0.56861857  1.0
  H  H18  1  0.37095405  0.25806917  0.06861857  1.0
  H  H19  1  0.62904595  0.75806917  0.43138143  1.0
  Pt  Pt20  1  0.00000000  0.00000000  0.00000000  1.0
  Pt  Pt21  1  0.00000000  0.50000000  0.50000000  1.0
  O  O22  1  0.01708240  0.66812310  0.37293444  1.0
  O  O23  1  0.98291760  0.16812310  0.12706556  1.0
  O  O24  1  0.98291760  0.33187690  0.62706556  1.0
  O  O25  1  0.01708240  0.83187690  0.87293444  1.0
  O  O26  1  0.11659049  0.43898643  0.24703375  1.0
  O  O27  1  0.88340951  0.93898643  0.25296625  1.0
  O  O28  1  0.88340951  0.56101357  0.75296625  1.0
  O  O29  1  0.11659049  0.06101357  0.74703375  1.0
  O  O30  1  0.34650455  0.97301904  0.23676486  1.0
  O  O31  1  0.65349545  0.47301904  0.26323514  1.0
  O  O32  1  0.65349545  0.02698096  0.76323514  1.0
  O  O33  1  0.34650455  0.52698096  0.73676486  1.0
  O  O34  1  0.55731688  0.77151872  0.04004907  1.0
  O  O35  1  0.44268312  0.27151872  0.45995093  1.0
  O  O36  1  0.44268312  0.22848128  0.95995093  1.0
  O  O37  1  0.55731688  0.72848128  0.54004907  1.0
