# generated using pymatgen
data_YCo5P3
_symmetry_space_group_name_H-M   'P 1'
_cell_length_a   11.72130222
_cell_length_b   3.64425596
_cell_length_c   10.26873833
_cell_angle_alpha   90.00000000
_cell_angle_beta   90.00000000
_cell_angle_gamma   90.00000000
_symmetry_Int_Tables_number   1
_chemical_formula_structural   YCo5P3
_chemical_formula_sum   'Y4 Co20 P12'
_cell_volume   438.63352673
_cell_formula_units_Z   4
loop_
 _symmetry_equiv_pos_site_id
 _symmetry_equiv_pos_as_xyz
  1  'x, y, z'
loop_
 _atom_site_type_symbol
 _atom_site_label
 _atom_site_symmetry_multiplicity
 _atom_site_fract_x
 _atom_site_fract_y
 _atom_site_fract_z
 _atom_site_occupancy
  Y  Y0  1  0.20264290  0.75000000  0.41716830  1.0
  Y  Y1  1  0.70264290  0.75000000  0.08283170  1.0
  Y  Y2  1  0.79735710  0.25000000  0.58283170  1.0
  Y  Y3  1  0.29735710  0.25000000  0.91716830  1.0
  P  P4  1  0.39131819  0.75000000  0.10187767  1.0
  P  P5  1  0.89131819  0.75000000  0.39812233  1.0
  P  P6  1  0.60868181  0.25000000  0.89812233  1.0
  P  P7  1  0.10868181  0.25000000  0.60187767  1.0
  P  P8  1  0.36990587  0.75000000  0.72939403  1.0
  P  P9  1  0.86990587  0.75000000  0.77060597  1.0
  P  P10  1  0.63009413  0.25000000  0.27060597  1.0
  P  P11  1  0.13009413  0.25000000  0.22939403  1.0
  P  P12  1  0.11235260  0.75000000  0.91867812  1.0
  P  P13  1  0.61235260  0.75000000  0.58132188  1.0
  P  P14  1  0.88764740  0.25000000  0.08132188  1.0
  P  P15  1  0.38764740  0.25000000  0.41867812  1.0
  Co  Co16  1  0.17624290  0.75000000  0.72146704  1.0
  Co  Co17  1  0.67624290  0.75000000  0.77853296  1.0
  Co  Co18  1  0.82375710  0.25000000  0.27853296  1.0
  Co  Co19  1  0.32375710  0.25000000  0.22146704  1.0
  Co  Co20  1  0.43208069  0.75000000  0.53250408  1.0
  Co  Co21  1  0.93208069  0.75000000  0.96749592  1.0
  Co  Co22  1  0.56791931  0.25000000  0.46749592  1.0
  Co  Co23  1  0.06791931  0.25000000  0.03250408  1.0
  Co  Co24  1  0.19842133  0.75000000  0.11742791  1.0
  Co  Co25  1  0.69842133  0.75000000  0.38257209  1.0
  Co  Co26  1  0.80157867  0.25000000  0.88257209  1.0
  Co  Co27  1  0.30157867  0.25000000  0.61742791  1.0
  Co  Co28  1  0.49132630  0.75000000  0.28395390  1.0
  Co  Co29  1  0.99132630  0.75000000  0.21604610  1.0
  Co  Co30  1  0.50867370  0.25000000  0.71604610  1.0
  Co  Co31  1  0.00867370  0.25000000  0.78395390  1.0
  Co  Co32  1  0.48810768  0.75000000  0.90668848  1.0
  Co  Co33  1  0.98810768  0.75000000  0.59331152  1.0
  Co  Co34  1  0.51189232  0.25000000  0.09331152  1.0
  Co  Co35  1  0.01189232  0.25000000  0.40668848  1.0
