# generated using pymatgen
data_CaO2
_symmetry_space_group_name_H-M   'P 1'
_cell_length_a   3.87597986
_cell_length_b   3.87597986
_cell_length_c   7.03727524
_cell_angle_alpha   65.76068316
_cell_angle_beta   114.23931684
_cell_angle_gamma   123.25892814
_symmetry_Int_Tables_number   1
_chemical_formula_structural   CaO2
_chemical_formula_sum   'Ca2 O4'
_cell_volume   78.19215124
_cell_formula_units_Z   2
loop_
 _symmetry_equiv_pos_site_id
 _symmetry_equiv_pos_as_xyz
  1  'x, y, z'
loop_
 _atom_site_type_symbol
 _atom_site_label
 _atom_site_symmetry_multiplicity
 _atom_site_fract_x
 _atom_site_fract_y
 _atom_site_fract_z
 _atom_site_occupancy
  Ca  Ca0  1  0.35967698  0.35967698  0.25000000  1.0
  Ca  Ca1  1  0.64032302  0.64032302  0.75000000  1.0
  O  O2  1  1.11417716  0.60453829  0.41189577  1.0
  O  O3  1  0.60453829  0.11417716  0.08810423  1.0
  O  O4  1  0.88582284  -0.60453829  0.58810423  1.0
  O  O5  1  1.39546171  -0.11417716  0.91189577  1.0
