# generated using pymatgen
data_Sc2O3
_symmetry_space_group_name_H-M   'P 1'
_cell_length_a   8.57920444
_cell_length_b   8.57920444
_cell_length_c   8.57920444
_cell_angle_alpha   109.47122063
_cell_angle_beta   109.47122063
_cell_angle_gamma   109.47122063
_symmetry_Int_Tables_number   1
_chemical_formula_structural   Sc2O3
_chemical_formula_sum   'Sc16 O24'
_cell_volume   486.09276832
_cell_formula_units_Z   8
loop_
 _symmetry_equiv_pos_site_id
 _symmetry_equiv_pos_as_xyz
  1  'x, y, z'
loop_
 _atom_site_type_symbol
 _atom_site_label
 _atom_site_symmetry_multiplicity
 _atom_site_fract_x
 _atom_site_fract_y
 _atom_site_fract_z
 _atom_site_occupancy
  Sc  Sc0  1  1.71398778  1.46398778  1.25000000  1.0
  Sc  Sc1  1  1.21398778  0.96398778  1.25000000  1.0
  Sc  Sc2  1  0.75000000  0.78601222  0.03601222  1.0
  Sc  Sc3  1  0.25000000  1.21398778  0.96398778  1.0
  Sc  Sc4  1  0.25000000  0.71398778  0.46398778  1.0
  Sc  Sc5  1  0.75000000  1.28601222  0.53601222  1.0
  Sc  Sc6  1  1.46398778  1.25000000  1.71398778  1.0
  Sc  Sc7  1  0.96398778  0.25000000  1.21398778  1.0
  Sc  Sc8  1  0.03601222  0.75000000  0.78601222  1.0
  Sc  Sc9  1  0.53601222  0.75000000  0.28601222  1.0
  Sc  Sc10  1  0.28601222  0.53601222  0.75000000  1.0
  Sc  Sc11  1  0.78601222  1.03601222  0.75000000  1.0
  Sc  Sc12  1  1.00000000  0.50000000  1.00000000  1.0
  Sc  Sc13  1  0.50000000  0.50000000  0.50000000  1.0
  Sc  Sc14  1  1.00000000  1.00000000  1.50000000  1.0
  Sc  Sc15  1  1.50000000  1.00000000  1.00000000  1.0
  O  O16  1  0.54596636  0.53556160  0.77264197  1.0
  O  O17  1  1.04596636  0.27332439  1.01040476  1.0
  O  O18  1  0.26291963  0.77332439  0.72735803  1.0
  O  O19  1  0.76291963  1.03556160  0.48959524  1.0
  O  O20  1  0.51040476  1.23708037  0.96443840  1.0
  O  O21  1  1.01040476  1.04596636  0.27332439  1.0
  O  O22  1  0.77264197  0.54596636  0.53556160  1.0
  O  O23  1  1.27264197  0.73708037  1.22667561  1.0
  O  O24  1  0.77332439  0.72735803  0.26291963  1.0
  O  O25  1  1.27332439  1.01040476  1.04596636  1.0
  O  O26  1  0.96443840  0.51040476  1.23708037  1.0
  O  O27  1  1.46443840  1.22735803  1.45403364  1.0
  O  O28  1  1.73708037  1.22667561  1.27264197  1.0
  O  O29  1  1.23708037  0.96443840  1.51040476  1.0
  O  O30  1  1.45403364  1.46443840  1.22735803  1.0
  O  O31  1  0.95403364  1.72667561  0.98959524  1.0
  O  O32  1  1.22735803  1.45403364  1.46443840  1.0
  O  O33  1  0.72735803  1.26291963  0.77332439  1.0
  O  O34  1  1.48959524  0.76291963  1.03556160  1.0
  O  O35  1  0.98959524  0.95403364  1.72667561  1.0
  O  O36  1  1.03556160  1.48959524  0.76291963  1.0
  O  O37  1  0.53556160  0.77264197  0.54596636  1.0
  O  O38  1  1.22667561  1.27264197  1.73708037  1.0
  O  O39  1  0.72667561  0.98959524  0.95403364  1.0
