# generated using pymatgen
data_CaTa(O6F)2
_symmetry_space_group_name_H-M   'P 1'
_cell_length_a   7.78008296
_cell_length_b   7.78008296
_cell_length_c   7.78008296
_cell_angle_alpha   60.00000000
_cell_angle_beta   60.00000000
_cell_angle_gamma   60.00000000
_symmetry_Int_Tables_number   1
_chemical_formula_structural   CaTa(O6F)2
_chemical_formula_sum   'Ca2 Ta2 O24 F4'
_cell_volume   332.99497968
_cell_formula_units_Z   2
loop_
 _symmetry_equiv_pos_site_id
 _symmetry_equiv_pos_as_xyz
  1  'x, y, z'
loop_
 _atom_site_type_symbol
 _atom_site_label
 _atom_site_symmetry_multiplicity
 _atom_site_fract_x
 _atom_site_fract_y
 _atom_site_fract_z
 _atom_site_occupancy
  Ca  Ca0  1  0.50000000  0.50000000  -0.50000000  1.0
  Ca  Ca1  1  0.75000000  -0.25000000  0.75000000  1.0
  Ta  Ta2  1  0.00000000  1.00000000  -0.00000000  1.0
  Ta  Ta3  1  0.25000000  0.25000000  0.25000000  1.0
  O  O4  1  0.97378520  -0.69505964  0.74748923  1.0
  O  O5  1  -0.02621480  0.74748923  0.30494036  1.0
  O  O6  1  -0.05494036  0.27621480  0.27621480  1.0
  O  O7  1  0.50251077  0.27621480  0.27621480  1.0
  O  O8  1  -0.69505964  0.97378520  0.74748923  1.0
  O  O9  1  0.97378520  -0.02621480  0.74748923  1.0
  O  O10  1  0.97378520  -0.25251077  0.97378520  1.0
  O  O11  1  -0.69505964  0.74748923  0.97378520  1.0
  O  O12  1  0.27621480  -0.05494036  0.27621480  1.0
  O  O13  1  0.27621480  0.27621480  -0.05494036  1.0
  O  O14  1  0.50251077  0.27621480  -0.05494036  1.0
  O  O15  1  0.50251077  -0.05494036  0.27621480  1.0
  O  O16  1  0.74748923  -0.02621480  0.97378520  1.0
  O  O17  1  -0.69505964  0.97378520  0.97378520  1.0
  O  O18  1  0.27621480  0.50251077  -0.05494036  1.0
  O  O19  1  0.27621480  -0.05494036  0.50251077  1.0
  O  O20  1  -0.25251077  0.97378520  0.30494036  1.0
  O  O21  1  0.74748923  -0.69505964  0.97378520  1.0
  O  O22  1  0.97378520  -0.69505964  0.97378520  1.0
  O  O23  1  -0.02621480  0.97378520  0.30494036  1.0
  O  O24  1  0.27621480  0.50251077  0.27621480  1.0
  O  O25  1  -0.05494036  0.50251077  0.27621480  1.0
  O  O26  1  -0.05494036  0.27621480  0.50251077  1.0
  O  O27  1  0.27621480  0.27621480  0.50251077  1.0
  F  F28  1  0.62500000  -0.37500000  1.12500000  1.0
  F  F29  1  0.62500000  0.12500000  0.62500000  1.0
  F  F30  1  0.62500000  -0.37500000  0.62500000  1.0
  F  F31  1  1.12500000  -0.37500000  0.62500000  1.0
