# generated using pymatgen
data_CsP4N7
_symmetry_space_group_name_H-M   'P 1'
_cell_length_a   10.08704321
_cell_length_b   12.56287980
_cell_length_c   4.76700761
_cell_angle_alpha   90.00000000
_cell_angle_beta   90.00000000
_cell_angle_gamma   90.00000000
_symmetry_Int_Tables_number   1
_chemical_formula_structural   CsP4N7
_chemical_formula_sum   'Cs4 P16 N28'
_cell_volume   604.08622306
_cell_formula_units_Z   4
loop_
 _symmetry_equiv_pos_site_id
 _symmetry_equiv_pos_as_xyz
  1  'x, y, z'
loop_
 _atom_site_type_symbol
 _atom_site_label
 _atom_site_symmetry_multiplicity
 _atom_site_fract_x
 _atom_site_fract_y
 _atom_site_fract_z
 _atom_site_occupancy
  Cs  Cs0  1  0.14393350  0.75000000  0.27617265  1.0
  Cs  Cs1  1  0.64393350  0.75000000  0.22382735  1.0
  Cs  Cs2  1  0.85606650  0.25000000  0.72382735  1.0
  Cs  Cs3  1  0.35606650  0.25000000  0.77617265  1.0
  P  P4  1  0.41132709  0.87081128  0.78255788  1.0
  P  P5  1  0.41132709  0.62918872  0.78255788  1.0
  P  P6  1  0.91132709  0.87081128  0.71744212  1.0
  P  P7  1  0.91132709  0.62918872  0.71744212  1.0
  P  P8  1  0.58867291  0.37081128  0.21744212  1.0
  P  P9  1  0.58867291  0.12918872  0.21744212  1.0
  P  P10  1  0.08867291  0.37081128  0.28255788  1.0
  P  P11  1  0.08867291  0.12918872  0.28255788  1.0
  P  P12  1  0.15748073  0.00051370  0.77377948  1.0
  P  P13  1  0.15748073  0.49948630  0.77377948  1.0
  P  P14  1  0.65748073  0.00051370  0.72622052  1.0
  P  P15  1  0.65748073  0.49948630  0.72622052  1.0
  P  P16  1  0.84251927  0.50051370  0.22622052  1.0
  P  P17  1  0.84251927  0.99948630  0.22622052  1.0
  P  P18  1  0.34251927  0.50051370  0.27377948  1.0
  P  P19  1  0.34251927  0.99948630  0.27377948  1.0
  N  N20  1  0.38202438  0.89449357  0.10870258  1.0
  N  N21  1  0.38202438  0.60550643  0.10870258  1.0
  N  N22  1  0.88202438  0.89449357  0.39129742  1.0
  N  N23  1  0.88202438  0.60550643  0.39129742  1.0
  N  N24  1  0.61797562  0.39449357  0.89129742  1.0
  N  N25  1  0.61797562  0.10550643  0.89129742  1.0
  N  N26  1  0.11797562  0.39449357  0.60870258  1.0
  N  N27  1  0.11797562  0.10550643  0.60870258  1.0
  N  N28  1  0.29810177  0.95407552  0.60748412  1.0
  N  N29  1  0.29810177  0.54592448  0.60748412  1.0
  N  N30  1  0.79810177  0.95407552  0.89251588  1.0
  N  N31  1  0.79810177  0.54592448  0.89251588  1.0
  N  N32  1  0.70189823  0.45407552  0.39251588  1.0
  N  N33  1  0.70189823  0.04592448  0.39251588  1.0
  N  N34  1  0.20189823  0.45407552  0.10748412  1.0
  N  N35  1  0.20189823  0.04592448  0.10748412  1.0
  N  N36  1  0.05796390  0.90393778  0.81913632  1.0
  N  N37  1  0.05796390  0.59606222  0.81913632  1.0
  N  N38  1  0.55796390  0.90393778  0.68086368  1.0
  N  N39  1  0.55796390  0.59606222  0.68086368  1.0
  N  N40  1  0.94203610  0.40393778  0.18086368  1.0
  N  N41  1  0.94203610  0.09606222  0.18086368  1.0
  N  N42  1  0.44203610  0.40393778  0.31913632  1.0
  N  N43  1  0.44203610  0.09606222  0.31913632  1.0
  N  N44  1  0.37907332  0.75000000  0.70312037  1.0
  N  N45  1  0.87907332  0.75000000  0.79687963  1.0
  N  N46  1  0.62092668  0.25000000  0.29687963  1.0
  N  N47  1  0.12092668  0.25000000  0.20312037  1.0
