# generated using pymatgen
data_EuIF
_symmetry_space_group_name_H-M   'P 1'
_cell_length_a   4.18849479
_cell_length_b   4.18849479
_cell_length_c   9.92446155
_cell_angle_alpha   90.00000000
_cell_angle_beta   90.00000000
_cell_angle_gamma   90.00000000
_symmetry_Int_Tables_number   1
_chemical_formula_structural   EuIF
_chemical_formula_sum   'Eu2 I2 F2'
_cell_volume   174.10967824
_cell_formula_units_Z   2
loop_
 _symmetry_equiv_pos_site_id
 _symmetry_equiv_pos_as_xyz
  1  'x, y, z'
loop_
 _atom_site_type_symbol
 _atom_site_label
 _atom_site_symmetry_multiplicity
 _atom_site_fract_x
 _atom_site_fract_y
 _atom_site_fract_z
 _atom_site_occupancy
  Eu  Eu0  1  0.50000000  0.00000000  0.14327614  1.0
  Eu  Eu1  1  0.00000000  0.50000000  0.85672386  1.0
  I  I2  1  0.50000000  0.00000000  0.69236332  1.0
  I  I3  1  0.00000000  0.50000000  0.30763668  1.0
  F  F4  1  0.00000000  0.00000000  0.00000000  1.0
  F  F5  1  0.50000000  0.50000000  0.00000000  1.0
