# generated using pymatgen
data_Na(AsO3)2
_symmetry_space_group_name_H-M   'P 1'
_cell_length_a   5.69097641
_cell_length_b   9.62155249
_cell_length_c   8.95385508
_cell_angle_alpha   90.00000000
_cell_angle_beta   99.60127572
_cell_angle_gamma   90.00000000
_symmetry_Int_Tables_number   1
_chemical_formula_structural   Na(AsO3)2
_chemical_formula_sum   'Na4 As8 O24'
_cell_volume   483.40989282
_cell_formula_units_Z   4
loop_
 _symmetry_equiv_pos_site_id
 _symmetry_equiv_pos_as_xyz
  1  'x, y, z'
loop_
 _atom_site_type_symbol
 _atom_site_label
 _atom_site_symmetry_multiplicity
 _atom_site_fract_x
 _atom_site_fract_y
 _atom_site_fract_z
 _atom_site_occupancy
  O  O0  1  0.97266965  0.28625960  0.38183528  1.0
  O  O1  1  0.97266965  0.21374040  0.88183528  1.0
  O  O2  1  0.02733035  0.78625960  0.11816472  1.0
  O  O3  1  0.02733035  0.71374040  0.61816472  1.0
  O  O4  1  1.01220117  0.05054451  0.23240906  1.0
  O  O5  1  1.01220117  0.44945549  0.73240906  1.0
  O  O6  1  -0.01220117  0.55054451  0.26759094  1.0
  O  O7  1  -0.01220117  0.94945549  0.76759094  1.0
  O  O8  1  0.84020917  0.91285455  0.46003016  1.0
  O  O9  1  0.84020917  0.58714545  0.96003016  1.0
  O  O10  1  0.15979083  0.41285455  0.03996984  1.0
  O  O11  1  0.15979083  0.08714545  0.53996984  1.0
  O  O12  1  0.71426327  0.33808211  0.07824124  1.0
  O  O13  1  0.71426327  0.16191789  0.57824124  1.0
  O  O14  1  0.28573673  0.83808211  0.42175876  1.0
  O  O15  1  0.28573673  0.66191789  0.92175876  1.0
  O  O16  1  0.58263762  0.13041474  0.29445335  1.0
  O  O17  1  0.58263762  0.36958526  0.79445335  1.0
  O  O18  1  0.41736238  0.63041474  0.20554665  1.0
  O  O19  1  0.41736238  0.86958526  0.70554665  1.0
  O  O20  1  0.56034186  0.44894269  0.34788593  1.0
  O  O21  1  0.56034186  0.05105731  0.84788593  1.0
  O  O22  1  0.43965814  0.94894269  0.15211407  1.0
  O  O23  1  0.43965814  0.55105731  0.65211407  1.0
  As  As24  1  0.86931145  0.09849624  0.40701539  1.0
  As  As25  1  0.86931145  0.40150376  0.90701539  1.0
  As  As26  1  0.13068855  0.59849624  0.09298461  1.0
  As  As27  1  0.13068855  0.90150376  0.59298461  1.0
  As  As28  1  0.79805106  0.40611534  0.26000654  1.0
  As  As29  1  0.79805106  0.09388466  0.76000654  1.0
  As  As30  1  0.20194894  0.90611534  0.23999346  1.0
  As  As31  1  0.20194894  0.59388466  0.73999346  1.0
  Na  Na32  1  0.37862764  0.18760096  0.03082395  1.0
  Na  Na33  1  0.37862764  0.31239904  0.53082395  1.0
  Na  Na34  1  0.62137236  0.68760096  0.46917605  1.0
  Na  Na35  1  0.62137236  0.81239904  0.96917605  1.0
