# generated using pymatgen
data_BeP2
_symmetry_space_group_name_H-M   'P 1'
_cell_length_a   7.11699013
_cell_length_b   7.11699013
_cell_length_c   7.94238547
_cell_angle_alpha   77.08547498
_cell_angle_beta   102.91452502
_cell_angle_gamma   90.00205268
_symmetry_Int_Tables_number   1
_chemical_formula_structural   BeP2
_chemical_formula_sum   'Be8 P16'
_cell_volume   381.67124917
_cell_formula_units_Z   8
loop_
 _symmetry_equiv_pos_site_id
 _symmetry_equiv_pos_as_xyz
  1  'x, y, z'
loop_
 _atom_site_type_symbol
 _atom_site_label
 _atom_site_symmetry_multiplicity
 _atom_site_fract_x
 _atom_site_fract_y
 _atom_site_fract_z
 _atom_site_occupancy
  Be  Be0  1  0.73011217  -0.10306086  0.42355129  1.0
  Be  Be1  1  1.10306086  0.26988783  0.92355129  1.0
  Be  Be2  1  0.89693914  -0.26988783  0.07644871  1.0
  Be  Be3  1  1.26988783  0.10306086  0.57644871  1.0
  Be  Be4  1  0.39027050  -0.26912184  0.07323494  1.0
  Be  Be5  1  1.26912184  0.60972950  0.57323494  1.0
  Be  Be6  1  0.73087816  -0.60972950  0.42676506  1.0
  Be  Be7  1  1.60972950  0.26912184  0.92676506  1.0
  P  P8  1  0.44238038  -0.06696608  0.24714736  1.0
  P  P9  1  1.06696608  0.55761962  0.74714736  1.0
  P  P10  1  0.93303392  -0.55761962  0.25285264  1.0
  P  P11  1  1.55761962  0.06696608  0.75285264  1.0
  P  P12  1  0.23007304  -0.10227136  0.41683994  1.0
  P  P13  1  1.10227136  0.76992696  0.91683994  1.0
  P  P14  1  0.89772864  -0.76992696  0.08316006  1.0
  P  P15  1  1.76992696  0.10227136  0.58316006  1.0
  P  P16  1  1.39274411  0.23133035  0.07875981  1.0
  P  P17  1  0.76866965  -0.39274411  0.57875981  1.0
  P  P18  1  1.23133035  0.39274411  0.42124019  1.0
  P  P19  1  0.60725589  -0.23133035  0.92124019  1.0
  P  P20  1  0.93212487  -0.06787513  0.25000000  1.0
  P  P21  1  1.06787513  0.06787513  0.75000000  1.0
  P  P22  1  1.44304279  0.44304279  0.25000000  1.0
  P  P23  1  0.55695721  -0.44304279  0.75000000  1.0
