# generated using pymatgen
data_KH(IF6)2
_symmetry_space_group_name_H-M   'P 1'
_cell_length_a   8.94809041
_cell_length_b   8.94809041
_cell_length_c   8.94809041
_cell_angle_alpha   109.97222295
_cell_angle_beta   109.97222295
_cell_angle_gamma   108.47379662
_symmetry_Int_Tables_number   1
_chemical_formula_structural   KH(IF6)2
_chemical_formula_sum   'K2 H2 I4 F24'
_cell_volume   551.40498305
_cell_formula_units_Z   2
loop_
 _symmetry_equiv_pos_site_id
 _symmetry_equiv_pos_as_xyz
  1  'x, y, z'
loop_
 _atom_site_type_symbol
 _atom_site_label
 _atom_site_symmetry_multiplicity
 _atom_site_fract_x
 _atom_site_fract_y
 _atom_site_fract_z
 _atom_site_occupancy
  K  K0  1  0.25000000  0.25000000  0.00000000  1.0
  K  K1  1  0.75000000  0.75000000  -0.00000000  1.0
  H  H2  1  0.75000000  0.25000000  0.50000000  1.0
  H  H3  1  0.25000000  0.75000000  0.50000000  1.0
  I  I4  1  0.34637719  0.84637719  1.19275438  1.0
  I  I5  1  0.15362281  0.34637719  0.50000000  1.0
  I  I6  1  0.84637719  0.65362281  0.50000000  1.0
  I  I7  1  0.65362281  1.15362281  0.80724562  1.0
  F  F8  1  1.14108785  1.29284770  1.69461636  1.0
  F  F9  1  0.40176867  0.55352851  0.69461636  1.0
  F  F10  1  1.09823133  1.79284770  1.15175984  1.0
  F  F11  1  0.35891215  1.05352851  1.15175984  1.0
  F  F12  1  0.79284770  0.64108785  0.69461636  1.0
  F  F13  1  1.05352851  0.90176867  0.69461636  1.0
  F  F14  1  0.44647149  1.14108785  0.84824016  1.0
  F  F15  1  0.70715230  0.40176867  0.84824016  1.0
  F  F16  1  0.64108785  0.94647149  0.84824016  1.0
  F  F17  1  0.90176867  1.20715230  0.84824016  1.0
  F  F18  1  0.59823133  0.44647149  0.30538364  1.0
  F  F19  1  0.85891215  0.70715230  1.30538364  1.0
  F  F20  1  1.29284770  0.59823133  1.15175984  1.0
  F  F21  1  0.55352851  0.85891215  1.15175984  1.0
  F  F22  1  0.94647149  1.09823133  0.30538364  1.0
  F  F23  1  0.20715230  0.35891215  0.30538364  1.0
  F  F24  1  0.78659960  0.28659960  1.07319919  1.0
  F  F25  1  0.71340040  0.78659960  0.50000000  1.0
  F  F26  1  0.28659960  0.21340040  0.50000000  1.0
  F  F27  1  1.21340040  0.71340040  0.92680081  1.0
  F  F28  1  0.86101489  0.36101489  0.50000000  1.0
  F  F29  1  0.13898511  0.63898511  0.50000000  1.0
  F  F30  1  0.36101489  0.86101489  0.50000000  1.0
  F  F31  1  0.63898511  0.13898511  0.50000000  1.0
