# generated using pymatgen
data_Ce5Zr3O16
_symmetry_space_group_name_H-M   'P 1'
_cell_length_a   7.60367040
_cell_length_b   7.60367040
_cell_length_c   5.40909876
_cell_angle_alpha   90.00000000
_cell_angle_beta   90.00000000
_cell_angle_gamma   90.75453287
_symmetry_Int_Tables_number   1
_chemical_formula_structural   Ce5Zr3O16
_chemical_formula_sum   'Ce5 Zr3 O16'
_cell_volume   312.70427363
_cell_formula_units_Z   1
loop_
 _symmetry_equiv_pos_site_id
 _symmetry_equiv_pos_as_xyz
  1  'x, y, z'
loop_
 _atom_site_type_symbol
 _atom_site_label
 _atom_site_symmetry_multiplicity
 _atom_site_fract_x
 _atom_site_fract_y
 _atom_site_fract_z
 _atom_site_occupancy
  Ce  Ce0  1  0.50000000  1.00000000  0.98932757  1.0
  Ce  Ce1  1  0.24175243  1.24175243  0.50000000  1.0
  Ce  Ce2  1  0.00000000  0.50000000  0.01067243  1.0
  Ce  Ce3  1  -0.24175243  0.75824757  0.50000000  1.0
  Ce  Ce4  1  -0.50000000  0.50000000  0.00000000  1.0
  Zr  Zr5  1  0.00000000  0.00000000  0.00000000  1.0
  Zr  Zr6  1  -0.25800855  0.25800855  0.50000000  1.0
  Zr  Zr7  1  -0.74199145  0.74199145  0.50000000  1.0
  O  O8  1  -0.02827903  0.25386684  0.29618970  1.0
  O  O9  1  -0.23305175  0.97557227  0.19752657  1.0
  O  O10  1  0.74613316  1.02827903  0.70381030  1.0
  O  O11  1  0.02442773  1.23305175  0.80247343  1.0
  O  O12  1  0.52475440  1.23984463  0.27069518  1.0
  O  O13  1  0.23305175  1.02442773  0.19752657  1.0
  O  O14  1  -0.74613316  0.97172097  0.70381030  1.0
  O  O15  1  0.48312950  1.25548967  0.76096384  1.0
  O  O16  1  0.02827903  1.74613316  0.29618970  1.0
  O  O17  1  -0.25548967  0.51687050  0.23903616  1.0
  O  O18  1  -0.23984463  0.47524560  0.72930482  1.0
  O  O19  1  -0.02442773  0.76694825  0.80247343  1.0
  O  O20  1  -0.52475440  0.76015537  0.27069518  1.0
  O  O21  1  0.25548967  1.48312950  0.23903616  1.0
  O  O22  1  0.23984463  1.52475440  0.72930482  1.0
  O  O23  1  -0.48312950  0.74451033  0.76096384  1.0
