# generated using pymatgen
data_Ni3Te2
_symmetry_space_group_name_H-M   'P 1'
_cell_length_a   6.16354199
_cell_length_b   3.82467234
_cell_length_c   7.59000717
_cell_angle_alpha   90.00000000
_cell_angle_beta   91.56272202
_cell_angle_gamma   90.00000000
_symmetry_Int_Tables_number   1
_chemical_formula_structural   Ni3Te2
_chemical_formula_sum   'Ni6 Te4'
_cell_volume   178.85670394
_cell_formula_units_Z   2
loop_
 _symmetry_equiv_pos_site_id
 _symmetry_equiv_pos_as_xyz
  1  'x, y, z'
loop_
 _atom_site_type_symbol
 _atom_site_label
 _atom_site_symmetry_multiplicity
 _atom_site_fract_x
 _atom_site_fract_y
 _atom_site_fract_z
 _atom_site_occupancy
  Ni  Ni0  1  0.50669578  0.25000000  0.62384114  1.0
  Ni  Ni1  1  0.49330422  0.75000000  0.37615886  1.0
  Ni  Ni2  1  0.49137135  0.25000000  0.12907320  1.0
  Ni  Ni3  1  0.50862865  0.75000000  0.87092680  1.0
  Ni  Ni4  1  0.21402750  0.25000000  0.86511250  1.0
  Ni  Ni5  1  0.78597250  0.75000000  0.13488750  1.0
  Te  Te6  1  0.78887568  0.25000000  0.88292599  1.0
  Te  Te7  1  0.21112432  0.75000000  0.11707401  1.0
  Te  Te8  1  0.77977189  0.25000000  0.38077455  1.0
  Te  Te9  1  0.22022811  0.75000000  0.61922545  1.0
