# generated using pymatgen
data_Ba3As4(HO7)2
_symmetry_space_group_name_H-M   'P 1'
_cell_length_a   7.42973579
_cell_length_b   7.42973579
_cell_length_c   14.79699833
_cell_angle_alpha   77.12787330
_cell_angle_beta   102.87212670
_cell_angle_gamma   109.99867545
_symmetry_Int_Tables_number   1
_chemical_formula_structural   Ba3As4(HO7)2
_chemical_formula_sum   'Ba6 As8 H4 O28'
_cell_volume   738.62501428
_cell_formula_units_Z   2
loop_
 _symmetry_equiv_pos_site_id
 _symmetry_equiv_pos_as_xyz
  1  'x, y, z'
loop_
 _atom_site_type_symbol
 _atom_site_label
 _atom_site_symmetry_multiplicity
 _atom_site_fract_x
 _atom_site_fract_y
 _atom_site_fract_z
 _atom_site_occupancy
  Ba  Ba0  1  0.60645432  0.60645432  0.75000000  1.0
  Ba  Ba1  1  0.39354568  0.39354568  0.25000000  1.0
  Ba  Ba2  1  0.77509357  0.23585574  0.04908437  1.0
  Ba  Ba3  1  1.23585574  -0.22490643  0.45091563  1.0
  Ba  Ba4  1  1.22490643  -0.23585574  0.95091563  1.0
  Ba  Ba5  1  0.76414426  0.22490643  0.54908437  1.0
  As  As6  1  1.25778078  -0.70758662  0.95521635  1.0
  As  As7  1  0.29241338  0.25778078  0.54478365  1.0
  As  As8  1  0.74221922  0.70758662  0.04478365  1.0
  As  As9  1  1.70758662  -0.25778078  0.45521635  1.0
  As  As10  1  0.86457547  0.19889646  0.80699188  1.0
  As  As11  1  1.19889646  -0.13542453  0.69300812  1.0
  As  As12  1  1.13542453  -0.19889646  0.19300812  1.0
  As  As13  1  0.80110354  0.13542453  0.30699188  1.0
  H  H14  1  0.99962402  -0.49808467  0.72645704  1.0
  H  H15  1  0.50191533  -0.00037598  0.77354296  1.0
  H  H16  1  1.00037598  0.49808467  0.27354296  1.0
  H  H17  1  1.49808467  0.00037598  0.22645704  1.0
  O  O18  1  1.05076789  -0.88095224  0.88712954  1.0
  O  O19  1  0.11904776  0.05076789  0.61287046  1.0
  O  O20  1  0.94923211  0.88095224  0.11287046  1.0
  O  O21  1  1.88095224  -0.05076789  0.38712954  1.0
  O  O22  1  0.97924334  -0.63425477  0.71439452  1.0
  O  O23  1  0.36574523  -0.02075666  0.78560548  1.0
  O  O24  1  1.02075666  0.63425477  0.28560548  1.0
  O  O25  1  1.63425477  0.02075666  0.21439452  1.0
  O  O26  1  0.38595864  0.13276234  0.00183802  1.0
  O  O27  1  1.13276234  -0.61404136  0.49816198  1.0
  O  O28  1  1.61404136  -0.13276234  0.99816198  1.0
  O  O29  1  0.86723766  0.61404136  0.50183802  1.0
  O  O30  1  1.35605163  -0.50692479  0.87765854  1.0
  O  O31  1  0.49307521  0.35605163  0.62234146  1.0
  O  O32  1  0.64394837  0.50692479  0.12234146  1.0
  O  O33  1  1.50692479  -0.35605163  0.37765854  1.0
  O  O34  1  1.15897177  -0.63973493  0.03169938  1.0
  O  O35  1  0.36026507  0.15897177  0.46830062  1.0
  O  O36  1  0.84102823  0.63973493  0.96830062  1.0
  O  O37  1  1.63973493  -0.15897177  0.53169938  1.0
  O  O38  1  0.76453236  0.31683254  0.85802689  1.0
  O  O39  1  1.31683254  -0.23546764  0.64197311  1.0
  O  O40  1  1.23546764  -0.31683254  0.14197311  1.0
  O  O41  1  0.68316746  0.23546764  0.35802689  1.0
  O  O42  1  0.71207043  0.00762660  0.75365163  1.0
  O  O43  1  1.00762660  -0.28792957  0.74634837  1.0
  O  O44  1  1.28792957  -0.00762660  0.24634837  1.0
  O  O45  1  0.99237340  0.28792957  0.25365163  1.0
