# generated using pymatgen
data_BaCa6P4O17
_symmetry_space_group_name_H-M   'P 1'
_cell_length_a   7.16132570
_cell_length_b   7.16132570
_cell_length_c   9.42112513
_cell_angle_alpha   67.66072388
_cell_angle_beta   112.33927612
_cell_angle_gamma   119.99944363
_symmetry_Int_Tables_number   1
_chemical_formula_structural   BaCa6P4O17
_chemical_formula_sum   'Ba1 Ca6 P4 O17'
_cell_volume   375.97597179
_cell_formula_units_Z   1
loop_
 _symmetry_equiv_pos_site_id
 _symmetry_equiv_pos_as_xyz
  1  'x, y, z'
loop_
 _atom_site_type_symbol
 _atom_site_label
 _atom_site_symmetry_multiplicity
 _atom_site_fract_x
 _atom_site_fract_y
 _atom_site_fract_z
 _atom_site_occupancy
  Ba  Ba0  1  0.50000000  0.50000000  0.00000000  1.0
  Ca  Ca1  1  0.37496848  0.09142064  0.69216032  1.0
  Ca  Ca2  1  0.90857936  0.62503152  0.69216032  1.0
  Ca  Ca3  1  1.09142064  -0.62503152  0.30783968  1.0
  Ca  Ca4  1  1.62503152  -0.09142064  0.30783968  1.0
  Ca  Ca5  1  0.90859312  0.09140688  0.69235957  1.0
  Ca  Ca6  1  1.09140688  -0.09140688  0.30764043  1.0
  P  P7  1  0.63315723  0.36684277  0.39943230  1.0
  P  P8  1  1.36684277  -0.36684277  0.60056770  1.0
  P  P9  1  0.81710552  0.18289448  0.95150227  1.0
  P  P10  1  1.18289448  -0.18289448  0.04849773  1.0
  O  O11  1  1.62358547  -0.26668481  0.65702330  1.0
  O  O12  1  1.26668481  -0.62358547  0.65702330  1.0
  O  O13  1  0.73331519  0.62358547  0.34297670  1.0
  O  O14  1  0.37641453  0.26668481  0.34297670  1.0
  O  O15  1  -0.00000000  0.00000000  0.50000000  1.0
  O  O16  1  1.67766294  -0.03034225  0.88579866  1.0
  O  O17  1  1.03034225  -0.67766294  0.88579866  1.0
  O  O18  1  0.96965775  0.67766294  0.11420134  1.0
  O  O19  1  0.32233706  0.03034225  0.11420134  1.0
  O  O20  1  0.87926465  0.12073535  0.13784745  1.0
  O  O21  1  1.12073535  -0.12073535  0.86215255  1.0
  O  O22  1  0.73330894  0.26669106  0.34299886  1.0
  O  O23  1  1.26669106  -0.26669106  0.65700114  1.0
  O  O24  1  0.69482359  0.30517641  0.58454115  1.0
  O  O25  1  1.30517641  -0.30517641  0.41545885  1.0
  O  O26  1  0.67764272  0.32235728  0.88582221  1.0
  O  O27  1  1.32235728  -0.32235728  0.11417779  1.0
