# generated using pymatgen
data_CaAlSiN3
_symmetry_space_group_name_H-M   'P 1'
_cell_length_a   5.71725274
_cell_length_b   5.71725274
_cell_length_c   5.07199258
_cell_angle_alpha   89.91032805
_cell_angle_beta   90.08967195
_cell_angle_gamma   120.30763204
_symmetry_Int_Tables_number   1
_chemical_formula_structural   CaAlSiN3
_chemical_formula_sum   'Ca2 Al2 Si2 N6'
_cell_volume   143.12934424
_cell_formula_units_Z   2
loop_
 _symmetry_equiv_pos_site_id
 _symmetry_equiv_pos_as_xyz
  1  'x, y, z'
loop_
 _atom_site_type_symbol
 _atom_site_label
 _atom_site_symmetry_multiplicity
 _atom_site_fract_x
 _atom_site_fract_y
 _atom_site_fract_z
 _atom_site_occupancy
  Ca  Ca0  1  0.68567603  -0.31195194  0.01346698  1.0
  Ca  Ca1  1  1.31195194  0.31432397  0.51346698  1.0
  Al  Al2  1  0.33453813  -0.01536433  0.98086415  1.0
  Al  Al3  1  1.01536433  0.66546187  0.48086415  1.0
  Si  Si4  1  0.66964098  0.01585198  0.48577873  1.0
  Si  Si5  1  0.98414802  0.33035902  0.98577873  1.0
  N  N6  1  0.35453963  -0.07348253  0.61661988  1.0
  N  N7  1  1.07348253  0.64546037  0.11661988  1.0
  N  N8  1  0.67557977  0.09197728  0.14305622  1.0
  N  N9  1  0.90802272  0.32442023  0.64305622  1.0
  N  N10  1  0.74417340  -0.24288252  0.52191404  1.0
  N  N11  1  1.24288252  0.25582660  0.02191404  1.0
