# generated using pymatgen
data_Na3Y(CO3)3
_symmetry_space_group_name_H-M   'P 1'
_cell_length_a   6.58052049
_cell_length_b   6.58052049
_cell_length_c   9.95156436
_cell_angle_alpha   90.00000000
_cell_angle_beta   90.00000000
_cell_angle_gamma   66.02629879
_symmetry_Int_Tables_number   1
_chemical_formula_structural   Na3Y(CO3)3
_chemical_formula_sum   'Na6 Y2 C6 O18'
_cell_volume   393.75919456
_cell_formula_units_Z   2
loop_
 _symmetry_equiv_pos_site_id
 _symmetry_equiv_pos_as_xyz
  1  'x, y, z'
loop_
 _atom_site_type_symbol
 _atom_site_label
 _atom_site_symmetry_multiplicity
 _atom_site_fract_x
 _atom_site_fract_y
 _atom_site_fract_z
 _atom_site_occupancy
  Na  Na0  1  -0.72998741  1.13301358  0.25000000  1.0
  Na  Na1  1  -0.13301358  1.72998741  0.75000000  1.0
  Na  Na2  1  -0.34107725  1.29878885  0.25000000  1.0
  Na  Na3  1  -0.29878885  1.34107725  0.75000000  1.0
  Na  Na4  1  -0.00121758  0.00121758  0.50000000  1.0
  Na  Na5  1  -0.00121758  0.00121758  0.00000000  1.0
  Y  Y6  1  -0.15938708  1.70102984  0.25000000  1.0
  Y  Y7  1  -0.70102984  1.15938708  0.75000000  1.0
  C  C8  1  -0.05126270  1.46570613  0.49782061  1.0
  C  C9  1  -0.46570613  1.05126270  0.99782061  1.0
  C  C10  1  -0.46570613  1.05126270  0.50217939  1.0
  C  C11  1  -0.05126270  1.46570613  0.00217939  1.0
  C  C12  1  0.28076186  0.68914612  0.25000000  1.0
  C  C13  1  0.31085388  0.71923814  0.75000000  1.0
  O  O14  1  -0.03911297  1.65493109  0.48523202  1.0
  O  O15  1  -0.65493109  1.03911297  0.98523202  1.0
  O  O16  1  -0.65493109  1.03911297  0.51476798  1.0
  O  O17  1  -0.03911297  1.65493109  0.01476798  1.0
  O  O18  1  -0.09613458  1.37816429  0.39020055  1.0
  O  O19  1  -0.37816429  1.09613458  0.89020055  1.0
  O  O20  1  -0.37816429  1.09613458  0.60979945  1.0
  O  O21  1  -0.09613458  1.37816429  0.10979945  1.0
  O  O22  1  -0.36703627  1.02573044  0.38698932  1.0
  O  O23  1  -0.02573044  1.36703627  0.88698932  1.0
  O  O24  1  -0.02573044  1.36703627  0.61301068  1.0
  O  O25  1  -0.36703627  1.02573044  0.11301068  1.0
  O  O26  1  0.09775978  0.87478014  0.25000000  1.0
  O  O27  1  0.12521986  0.90224022  0.75000000  1.0
  O  O28  1  0.25446828  0.50500216  0.25000000  1.0
  O  O29  1  0.49499784  0.74553172  0.75000000  1.0
  O  O30  1  0.47358904  0.69517443  0.25000000  1.0
  O  O31  1  0.30482557  0.52641096  0.75000000  1.0
