# generated using pymatgen
data_NaSc(SiO3)2
_symmetry_space_group_name_H-M   'P 1'
_cell_length_a   6.77806245
_cell_length_b   6.77806245
_cell_length_c   5.42152450
_cell_angle_alpha   77.19346762
_cell_angle_beta   102.80653238
_cell_angle_gamma   95.04521071
_symmetry_Int_Tables_number   1
_chemical_formula_structural   NaSc(SiO3)2
_chemical_formula_sum   'Na2 Sc2 Si4 O12'
_cell_volume   236.64116962
_cell_formula_units_Z   2
loop_
 _symmetry_equiv_pos_site_id
 _symmetry_equiv_pos_as_xyz
  1  'x, y, z'
loop_
 _atom_site_type_symbol
 _atom_site_label
 _atom_site_symmetry_multiplicity
 _atom_site_fract_x
 _atom_site_fract_y
 _atom_site_fract_z
 _atom_site_occupancy
  Na  Na0  1  0.80137769  0.80137769  0.25000000  1.0
  Na  Na1  1  0.19862231  0.19862231  0.75000000  1.0
  Sc  Sc2  1  0.39436306  0.39436306  0.25000000  1.0
  Sc  Sc3  1  0.60563694  0.60563694  0.75000000  1.0
  Si  Si4  1  1.29672573  -0.12314360  0.25674722  1.0
  Si  Si5  1  1.12314360  -0.29672573  0.75674722  1.0
  Si  Si6  1  0.87685640  0.29672573  0.24325278  1.0
  Si  Si7  1  0.70327427  0.12314360  0.74325278  1.0
  O  O8  1  0.38667502  0.10708268  0.19653712  1.0
  O  O9  1  0.89291732  0.61332498  0.69653712  1.0
  O  O10  1  1.10708268  -0.61332498  0.30346288  1.0
  O  O11  1  1.61332498  -0.10708268  0.80346288  1.0
  O  O12  1  1.46081823  -0.30332168  0.35525266  1.0
  O  O13  1  1.30332168  -0.46081823  0.85525266  1.0
  O  O14  1  0.69667832  0.46081823  0.14474734  1.0
  O  O15  1  0.53918177  0.30332168  0.64474734  1.0
  O  O16  1  0.84413006  0.14612187  0.52174227  1.0
  O  O17  1  0.85387813  0.15586994  0.02174227  1.0
  O  O18  1  1.14612187  -0.15586994  0.97825773  1.0
  O  O19  1  1.15586994  -0.14612187  0.47825773  1.0
