# generated using pymatgen
data_Sr3MgIrO6
_symmetry_space_group_name_H-M   'P 1'
_cell_length_a   6.73171968
_cell_length_b   6.73171968
_cell_length_c   6.73171968
_cell_angle_alpha   92.29340644
_cell_angle_beta   92.29340644
_cell_angle_gamma   92.29340644
_symmetry_Int_Tables_number   1
_chemical_formula_structural   Sr3MgIrO6
_chemical_formula_sum   'Sr6 Mg2 Ir2 O12'
_cell_volume   304.30171939
_cell_formula_units_Z   2
loop_
 _symmetry_equiv_pos_site_id
 _symmetry_equiv_pos_as_xyz
  1  'x, y, z'
loop_
 _atom_site_type_symbol
 _atom_site_label
 _atom_site_symmetry_multiplicity
 _atom_site_fract_x
 _atom_site_fract_y
 _atom_site_fract_z
 _atom_site_occupancy
  Sr  Sr0  1  0.88633108  1.25000000  -0.38633108  1.0
  Sr  Sr1  1  1.38633108  0.11366892  -0.25000000  1.0
  Sr  Sr2  1  0.75000000  0.38633108  0.11366892  1.0
  Sr  Sr3  1  1.25000000  0.61366892  -0.11366892  1.0
  Sr  Sr4  1  1.11366892  -0.25000000  0.38633108  1.0
  Sr  Sr5  1  0.61366892  0.88633108  0.25000000  1.0
  Mg  Mg6  1  0.25000000  0.25000000  0.25000000  1.0
  Mg  Mg7  1  0.75000000  0.75000000  0.75000000  1.0
  Ir  Ir8  1  0.50000000  0.50000000  0.50000000  1.0
  Ir  Ir9  1  0.00000000  0.00000000  0.00000000  1.0
  O  O10  1  1.21298217  0.40474617  -0.46346831  1.0
  O  O11  1  0.71298217  1.03653169  -0.09525383  1.0
  O  O12  1  0.96346831  0.09525383  0.28701783  1.0
  O  O13  1  1.46346831  -0.21298217  0.59525383  1.0
  O  O14  1  1.59525383  0.46346831  -0.21298217  1.0
  O  O15  1  1.09525383  0.28701783  -0.03653169  1.0
  O  O16  1  0.78701783  0.59525383  0.46346831  1.0
  O  O17  1  1.28701783  -0.03653169  0.09525383  1.0
  O  O18  1  0.53653169  1.21298217  -0.59525383  1.0
  O  O19  1  1.03653169  0.90474617  -0.28701783  1.0
  O  O20  1  0.90474617  0.71298217  0.03653169  1.0
  O  O21  1  0.40474617  0.53653169  0.21298217  1.0
