# generated using pymatgen
data_Ca11Ga7
_symmetry_space_group_name_H-M   'P 1'
_cell_length_a   11.37881272
_cell_length_b   11.37881272
_cell_length_c   11.37881272
_cell_angle_alpha   60.00000000
_cell_angle_beta   60.00000000
_cell_angle_gamma   60.00000000
_symmetry_Int_Tables_number   1
_chemical_formula_structural   Ca11Ga7
_chemical_formula_sum   'Ca22 Ga14'
_cell_volume   1041.77960439
_cell_formula_units_Z   2
loop_
 _symmetry_equiv_pos_site_id
 _symmetry_equiv_pos_as_xyz
  1  'x, y, z'
loop_
 _atom_site_type_symbol
 _atom_site_label
 _atom_site_symmetry_multiplicity
 _atom_site_fract_x
 _atom_site_fract_y
 _atom_site_fract_z
 _atom_site_occupancy
  Ca  Ca0  1  1.66476573  -0.00000000  0.00000000  1.0
  Ca  Ca1  1  1.00000000  0.33523427  -0.33523427  1.0
  Ca  Ca2  1  1.00000000  0.66476573  -0.66476573  1.0
  Ca  Ca3  1  1.33523427  0.00000000  -0.00000000  1.0
  Ca  Ca4  1  -0.00000000  1.66476573  0.00000000  1.0
  Ca  Ca5  1  0.33523427  1.00000000  -0.33523427  1.0
  Ca  Ca6  1  0.00000000  -0.00000000  0.66476573  1.0
  Ca  Ca7  1  0.33523427  -0.33523427  1.00000000  1.0
  Ca  Ca8  1  0.66476573  1.00000000  -0.66476573  1.0
  Ca  Ca9  1  0.00000000  1.33523427  -0.00000000  1.0
  Ca  Ca10  1  0.66476573  -0.66476573  1.00000000  1.0
  Ca  Ca11  1  0.00000000  -0.00000000  0.33523427  1.0
  Ca  Ca12  1  0.62967996  0.62967996  -0.37032004  1.0
  Ca  Ca13  1  0.37032004  1.37032004  -0.11096013  1.0
  Ca  Ca14  1  1.37032004  -0.11096013  0.37032004  1.0
  Ca  Ca15  1  1.11096013  0.62967996  0.62967996  1.0
  Ca  Ca16  1  -0.11096013  1.37032004  0.37032004  1.0
  Ca  Ca17  1  0.62967996  1.11096013  -0.37032004  1.0
  Ca  Ca18  1  0.62967996  0.62967996  1.11096013  1.0
  Ca  Ca19  1  1.37032004  0.37032004  0.37032004  1.0
  Ca  Ca20  1  -0.50000000  0.50000000  0.50000000  1.0
  Ca  Ca21  1  0.00000000  0.00000000  0.00000000  1.0
  Ga  Ga22  1  0.80939694  0.80939694  -0.19060306  1.0
  Ga  Ga23  1  1.19060306  0.19060306  0.42819081  1.0
  Ga  Ga24  1  1.19060306  0.42819081  0.19060306  1.0
  Ga  Ga25  1  0.57180919  0.80939694  -0.19060306  1.0
  Ga  Ga26  1  1.42819081  0.19060306  0.19060306  1.0
  Ga  Ga27  1  0.80939694  0.57180919  -0.19060306  1.0
  Ga  Ga28  1  0.80939694  0.80939694  -0.42819081  1.0
  Ga  Ga29  1  1.19060306  0.19060306  0.19060306  1.0
  Ga  Ga30  1  -0.71957424  0.71957424  0.71957424  1.0
  Ga  Ga31  1  -0.28042576  0.28042576  0.71957424  1.0
  Ga  Ga32  1  0.71957424  0.71957424  -0.71957424  1.0
  Ga  Ga33  1  0.28042576  1.28042576  -0.28042576  1.0
  Ga  Ga34  1  0.28042576  -0.28042576  1.28042576  1.0
  Ga  Ga35  1  -0.28042576  0.28042576  0.28042576  1.0
