# generated using pymatgen
data_Ca2S2O9
_symmetry_space_group_name_H-M   'P 1'
_cell_length_a   7.10987219
_cell_length_b   7.10987219
_cell_length_c   12.73437921
_cell_angle_alpha   90.00000000
_cell_angle_beta   90.00000000
_cell_angle_gamma   120.00000000
_symmetry_Int_Tables_number   1
_chemical_formula_structural   Ca2S2O9
_chemical_formula_sum   'Ca6 S6 O27'
_cell_volume   557.48347304
_cell_formula_units_Z   3
loop_
 _symmetry_equiv_pos_site_id
 _symmetry_equiv_pos_as_xyz
  1  'x, y, z'
loop_
 _atom_site_type_symbol
 _atom_site_label
 _atom_site_symmetry_multiplicity
 _atom_site_fract_x
 _atom_site_fract_y
 _atom_site_fract_z
 _atom_site_occupancy
  Ca  Ca0  1  0.51770679  0.51770679  0.50000000  1.0
  Ca  Ca1  1  -0.00000000  0.48229321  0.16666667  1.0
  Ca  Ca2  1  0.48229321  -0.00000000  0.83333333  1.0
  Ca  Ca3  1  0.52151449  0.52151449  -0.00000000  1.0
  Ca  Ca4  1  0.00000000  0.47848551  0.66666667  1.0
  Ca  Ca5  1  0.47848551  -0.00000000  0.33333333  1.0
  O  O6  1  0.28113579  0.86382850  0.15281065  1.0
  O  O7  1  0.86382850  0.28113579  0.84718935  1.0
  O  O8  1  0.58269271  0.71886421  0.81947732  1.0
  O  O9  1  0.13617150  0.41730729  0.48614399  1.0
  O  O10  1  0.71886421  0.58269271  0.18052268  1.0
  O  O11  1  0.41730729  0.13617150  0.51385601  1.0
  O  O12  1  0.13401089  0.65860270  0.84585447  1.0
  O  O13  1  0.65860270  0.13401089  0.15414553  1.0
  O  O14  1  0.52459181  0.86598911  0.51252113  1.0
  O  O15  1  0.34139730  0.47540819  0.17918780  1.0
  O  O16  1  0.86598911  0.52459181  0.48747887  1.0
  O  O17  1  0.47540819  0.34139730  0.82081220  1.0
  O  O18  1  0.72271647  0.57883140  0.68079022  1.0
  O  O19  1  0.57883140  0.72271647  0.31920978  1.0
  O  O20  1  0.85611493  0.27728353  0.34745689  1.0
  O  O21  1  0.42116860  0.14388507  0.01412355  1.0
  O  O22  1  0.27728353  0.85611493  0.65254311  1.0
  O  O23  1  0.14388507  0.42116860  0.98587645  1.0
  O  O24  1  0.86733293  0.51686424  0.99010217  1.0
  O  O25  1  0.51686424  0.86733293  0.00989783  1.0
  O  O26  1  0.64953131  0.13266707  0.65676884  1.0
  O  O27  1  0.48313576  0.35046869  0.32343551  1.0
  O  O28  1  0.13266707  0.64953131  0.34323116  1.0
  O  O29  1  0.35046869  0.48313576  0.67656449  1.0
  O  O30  1  -0.13387252  -0.13387252  -0.00000000  1.0
  O  O31  1  -0.00000000  0.13387252  0.66666667  1.0
  O  O32  1  0.13387252  -0.00000000  0.33333333  1.0
  S  S33  1  0.53470033  0.53053351  0.74987144  1.0
  S  S34  1  0.53053351  0.53470033  0.25012856  1.0
  S  S35  1  -0.00416682  0.46529967  0.41653811  1.0
  S  S36  1  0.46946649  0.00416682  0.08320477  1.0
  S  S37  1  0.46529967  -0.00416682  0.58346189  1.0
  S  S38  1  0.00416682  0.46946649  0.91679523  1.0
