# generated using pymatgen
data_Cu(NO)3
_symmetry_space_group_name_H-M   'P 1'
_cell_length_a   7.71872184
_cell_length_b   12.63383184
_cell_length_c   4.92428678
_cell_angle_alpha   90.00000000
_cell_angle_beta   90.00000000
_cell_angle_gamma   90.00000000
_symmetry_Int_Tables_number   1
_chemical_formula_structural   Cu(NO)3
_chemical_formula_sum   'Cu4 N12 O12'
_cell_volume   480.20183982
_cell_formula_units_Z   4
loop_
 _symmetry_equiv_pos_site_id
 _symmetry_equiv_pos_as_xyz
  1  'x, y, z'
loop_
 _atom_site_type_symbol
 _atom_site_label
 _atom_site_symmetry_multiplicity
 _atom_site_fract_x
 _atom_site_fract_y
 _atom_site_fract_z
 _atom_site_occupancy
  N  N0  1  0.51612021  0.84762807  0.50000000  1.0
  N  N1  1  1.01612021  0.65237193  0.00000000  1.0
  N  N2  1  0.48387979  0.15237193  0.50000000  1.0
  N  N3  1  -0.01612021  0.34762807  0.00000000  1.0
  N  N4  1  0.95226354  0.85892449  0.50000000  1.0
  N  N5  1  0.45226354  0.64107551  0.00000000  1.0
  N  N6  1  0.04773646  0.14107551  0.50000000  1.0
  N  N7  1  0.54773646  0.35892449  0.00000000  1.0
  N  N8  1  0.28393252  0.44227260  0.50000000  1.0
  N  N9  1  0.78393252  1.05772740  -0.00000000  1.0
  N  N10  1  0.71606748  0.55772740  0.50000000  1.0
  N  N11  1  0.21606748  -0.05772740  -0.00000000  1.0
  O  O12  1  0.08494088  0.62549483  0.21909966  1.0
  O  O13  1  0.08494088  0.62549483  0.78090034  1.0
  O  O14  1  0.58494088  0.87450517  0.71909966  1.0
  O  O15  1  0.58494088  0.87450517  0.28090034  1.0
  O  O16  1  0.91505912  0.37450517  0.21909966  1.0
  O  O17  1  0.91505912  0.37450517  0.78090034  1.0
  O  O18  1  0.41505912  0.12549483  0.71909966  1.0
  O  O19  1  0.41505912  0.12549483  0.28090034  1.0
  O  O20  1  0.37962437  0.79451816  0.50000000  1.0
  O  O21  1  0.87962437  0.70548184  -0.00000000  1.0
  O  O22  1  0.62037563  0.20548184  0.50000000  1.0
  O  O23  1  0.12037563  0.29451816  -0.00000000  1.0
  Cu  Cu24  1  0.50000000  0.50000000  0.00000000  1.0
  Cu  Cu25  1  0.00000000  0.00000000  0.50000000  1.0
  Cu  Cu26  1  0.50000000  0.50000000  0.50000000  1.0
  Cu  Cu27  1  0.00000000  0.00000000  0.00000000  1.0
