# generated using pymatgen
data_BH8N
_symmetry_space_group_name_H-M   'P 1'
_cell_length_a   8.39075401
_cell_length_b   4.21919453
_cell_length_c   4.15600451
_cell_angle_alpha   90.00000000
_cell_angle_beta   90.00000000
_cell_angle_gamma   90.00000000
_symmetry_Int_Tables_number   1
_chemical_formula_structural   BH8N
_chemical_formula_sum   'B2 H16 N2'
_cell_volume   147.13180006
_cell_formula_units_Z   2
loop_
 _symmetry_equiv_pos_site_id
 _symmetry_equiv_pos_as_xyz
  1  'x, y, z'
loop_
 _atom_site_type_symbol
 _atom_site_label
 _atom_site_symmetry_multiplicity
 _atom_site_fract_x
 _atom_site_fract_y
 _atom_site_fract_z
 _atom_site_occupancy
  B  B0  1  0.25000000  0.48894871  0.56385679  1.0
  B  B1  1  0.75000000  0.51105129  0.56385679  1.0
  H  H2  1  0.42390728  0.86971794  0.11894306  1.0
  H  H3  1  0.92390728  0.13028206  0.11894306  1.0
  H  H4  1  0.57609272  0.13028206  0.11894306  1.0
  H  H5  1  0.07609272  0.86971794  0.11894306  1.0
  H  H6  1  0.36897460  0.34637110  0.47314710  1.0
  H  H7  1  0.86897460  0.65362890  0.47314710  1.0
  H  H8  1  0.63102540  0.65362890  0.47314710  1.0
  H  H9  1  0.13102540  0.34637110  0.47314710  1.0
  H  H10  1  0.93370757  0.84735245  0.82999717  1.0
  H  H11  1  0.43370757  0.15264755  0.82999717  1.0
  H  H12  1  0.06629243  0.15264755  0.82999717  1.0
  H  H13  1  0.56629243  0.84735245  0.82999717  1.0
  H  H14  1  0.25000000  0.75679431  0.44624811  1.0
  H  H15  1  0.75000000  0.24320569  0.44624811  1.0
  H  H16  1  0.25000000  0.51191818  0.85843873  1.0
  H  H17  1  0.75000000  0.48808182  0.85843873  1.0
  N  N18  1  0.50000000  0.00000000  -0.02471829  1.0
  N  N19  1  0.00000000  0.00000000  -0.02471829  1.0
