# generated using pymatgen
data_Hg3H6Pt(NCl4)2
_symmetry_space_group_name_H-M   'P 1'
_cell_length_a   10.32308089
_cell_length_b   10.32308089
_cell_length_c   13.80308511
_cell_angle_alpha   76.03546258
_cell_angle_beta   103.96453742
_cell_angle_gamma   141.20135962
_symmetry_Int_Tables_number   1
_chemical_formula_structural   Hg3H6Pt(NCl4)2
_chemical_formula_sum   'Hg6 H12 Pt2 N4 Cl16'
_cell_volume   890.99358277
_cell_formula_units_Z   2
loop_
 _symmetry_equiv_pos_site_id
 _symmetry_equiv_pos_as_xyz
  1  'x, y, z'
loop_
 _atom_site_type_symbol
 _atom_site_label
 _atom_site_symmetry_multiplicity
 _atom_site_fract_x
 _atom_site_fract_y
 _atom_site_fract_z
 _atom_site_occupancy
  Hg  Hg0  1  -0.00000000  0.00000000  0.50000000  1.0
  Hg  Hg1  1  0.00000000  0.00000000  0.00000000  1.0
  Hg  Hg2  1  1.18414437  0.79625668  0.42938865  1.0
  Hg  Hg3  1  0.79625668  0.18414437  0.07061135  1.0
  Hg  Hg4  1  0.81585563  0.20374332  0.57061135  1.0
  Hg  Hg5  1  0.20374332  -0.18414437  0.92938865  1.0
  H  H6  1  0.69417585  0.48083625  0.69344984  1.0
  H  H7  1  0.48083625  -0.30582415  0.80655016  1.0
  H  H8  1  1.30582415  0.51916375  0.30655016  1.0
  H  H9  1  0.51916375  0.30582415  0.19344984  1.0
  H  H10  1  0.53346895  0.34691478  0.78204440  1.0
  H  H11  1  1.34691478  0.53346895  0.71795560  1.0
  H  H12  1  0.46653105  -0.34691478  0.21795560  1.0
  H  H13  1  0.65308522  0.46653105  0.28204440  1.0
  H  H14  1  0.46530226  0.38195181  0.66611900  1.0
  H  H15  1  1.38195181  0.46530226  0.83388100  1.0
  H  H16  1  0.53469774  -0.38195181  0.33388100  1.0
  H  H17  1  0.61804819  0.53469774  0.16611900  1.0
  Pt  Pt18  1  0.72702884  0.72702884  0.75000000  1.0
  Pt  Pt19  1  0.27297116  0.27297116  0.25000000  1.0
  N  N20  1  0.58786263  0.45144274  0.72009437  1.0
  N  N21  1  0.45144274  -0.41213737  0.77990563  1.0
  N  N22  1  1.41213737  0.54855726  0.27990563  1.0
  N  N23  1  0.54855726  0.41213737  0.22009437  1.0
  Cl  Cl24  1  1.22027690  0.33668407  0.53638416  1.0
  Cl  Cl25  1  0.33668407  0.22027690  0.96361584  1.0
  Cl  Cl26  1  0.77972310  0.66331593  0.46361584  1.0
  Cl  Cl27  1  0.66331593  -0.22027690  0.03638416  1.0
  Cl  Cl28  1  0.40310872  0.09738504  0.50689779  1.0
  Cl  Cl29  1  1.09738504  0.40310872  -0.00689779  1.0
  Cl  Cl30  1  0.59689128  -0.09738504  0.49310221  1.0
  Cl  Cl31  1  0.90261496  0.59689128  1.00689779  1.0
  Cl  Cl32  1  0.97336943  0.49424460  0.35546488  1.0
  Cl  Cl33  1  0.49424460  -0.02663057  0.14453512  1.0
  Cl  Cl34  1  1.02663057  0.50575540  0.64453512  1.0
  Cl  Cl35  1  0.50575540  0.02663057  0.85546488  1.0
  Cl  Cl36  1  0.03837636  -0.11940205  0.72295957  1.0
  Cl  Cl37  1  0.88059795  0.03837636  0.77704043  1.0
  Cl  Cl38  1  0.96162364  0.11940205  0.27704043  1.0
  Cl  Cl39  1  1.11940205  0.96162364  0.22295957  1.0
