# generated using pymatgen
data_Ca3AlN3
_symmetry_space_group_name_H-M   'P 1'
_cell_length_a   6.89528221
_cell_length_b   6.13313373
_cell_length_c   9.83815371
_cell_angle_alpha   90.00000000
_cell_angle_beta   93.75392399
_cell_angle_gamma   90.00000000
_symmetry_Int_Tables_number   1
_chemical_formula_structural   Ca3AlN3
_chemical_formula_sum   'Ca12 Al4 N12'
_cell_volume   415.15978495
_cell_formula_units_Z   4
loop_
 _symmetry_equiv_pos_site_id
 _symmetry_equiv_pos_as_xyz
  1  'x, y, z'
loop_
 _atom_site_type_symbol
 _atom_site_label
 _atom_site_symmetry_multiplicity
 _atom_site_fract_x
 _atom_site_fract_y
 _atom_site_fract_z
 _atom_site_occupancy
  Ca  Ca0  1  0.92381418  0.35901387  0.34906704  1.0
  Ca  Ca1  1  0.92381418  0.14098613  0.84906704  1.0
  Ca  Ca2  1  0.07618582  0.85901387  0.15093296  1.0
  Ca  Ca3  1  0.07618582  0.64098613  0.65093296  1.0
  Ca  Ca4  1  0.62991174  0.20405879  0.07676519  1.0
  Ca  Ca5  1  0.62991174  0.29594121  0.57676519  1.0
  Ca  Ca6  1  0.37008826  0.70405879  0.42323481  1.0
  Ca  Ca7  1  0.37008826  0.79594121  0.92323481  1.0
  Ca  Ca8  1  0.35525108  0.21618738  0.30608438  1.0
  Ca  Ca9  1  0.35525108  0.28381262  0.80608438  1.0
  Ca  Ca10  1  0.64474892  0.71618738  0.19391562  1.0
  Ca  Ca11  1  0.64474892  0.78381262  0.69391562  1.0
  Al  Al12  1  0.83995399  0.90874582  0.43900722  1.0
  Al  Al13  1  0.83995399  0.59125418  0.93900722  1.0
  Al  Al14  1  0.16004601  0.40874582  0.06099278  1.0
  Al  Al15  1  0.16004601  0.09125418  0.56099278  1.0
  N  N16  1  0.89484173  0.46197027  0.11743486  1.0
  N  N17  1  0.89484173  0.03802973  0.61743486  1.0
  N  N18  1  0.10515827  0.96197027  0.38256514  1.0
  N  N19  1  0.10515827  0.53802973  0.88256514  1.0
  N  N20  1  0.74051141  0.87703226  0.97037734  1.0
  N  N21  1  0.74051141  0.62296774  0.47037734  1.0
  N  N22  1  0.25948859  0.37703226  0.52962266  1.0
  N  N23  1  0.25948859  0.12296774  0.02962266  1.0
  N  N24  1  0.66254816  0.06786349  0.32077624  1.0
  N  N25  1  0.66254816  0.43213651  0.82077624  1.0
  N  N26  1  0.33745184  0.56786349  0.17922376  1.0
  N  N27  1  0.33745184  0.93213651  0.67922376  1.0
