# generated using pymatgen
data_Al2GeO6
_symmetry_space_group_name_H-M   'P 1'
_cell_length_a   9.39567153
_cell_length_b   8.73864162
_cell_length_c   4.73088884
_cell_angle_alpha   90.00000000
_cell_angle_beta   90.00000000
_cell_angle_gamma   90.00000000
_symmetry_Int_Tables_number   1
_chemical_formula_structural   Al2GeO6
_chemical_formula_sum   'Al8 Ge4 O24'
_cell_volume   388.43155056
_cell_formula_units_Z   4
loop_
 _symmetry_equiv_pos_site_id
 _symmetry_equiv_pos_as_xyz
  1  'x, y, z'
loop_
 _atom_site_type_symbol
 _atom_site_label
 _atom_site_symmetry_multiplicity
 _atom_site_fract_x
 _atom_site_fract_y
 _atom_site_fract_z
 _atom_site_occupancy
  Al  Al0  1  0.87247053  0.41874299  0.40568774  1.0
  Al  Al1  1  0.87247053  0.08125701  0.40568774  1.0
  Al  Al2  1  0.37247053  0.41874299  0.09431226  1.0
  Al  Al3  1  0.37247053  0.08125701  0.09431226  1.0
  Al  Al4  1  0.12752947  0.91874299  0.59431226  1.0
  Al  Al5  1  0.12752947  0.58125701  0.59431226  1.0
  Al  Al6  1  0.62752947  0.91874299  0.90568774  1.0
  Al  Al7  1  0.62752947  0.58125701  0.90568774  1.0
  Ge  Ge8  1  0.56480632  0.25000000  0.59852694  1.0
  Ge  Ge9  1  0.06480632  0.25000000  0.90147306  1.0
  Ge  Ge10  1  0.43519368  0.75000000  0.40147306  1.0
  Ge  Ge11  1  0.93519368  0.75000000  0.09852694  1.0
  O  O12  1  0.96337468  0.25000000  0.21856049  1.0
  O  O13  1  0.46337468  0.25000000  0.28143951  1.0
  O  O14  1  0.03662532  0.75000000  0.78143951  1.0
  O  O15  1  0.53662532  0.75000000  0.71856049  1.0
  O  O16  1  0.98851133  0.91316606  0.29545056  1.0
  O  O17  1  0.98851133  0.58683394  0.29545056  1.0
  O  O18  1  0.48851133  0.91316606  0.20454944  1.0
  O  O19  1  0.48851133  0.58683394  0.20454944  1.0
  O  O20  1  0.01148867  0.41316606  0.70454944  1.0
  O  O21  1  0.01148867  0.08683394  0.70454944  1.0
  O  O22  1  0.51148867  0.41316606  0.79545056  1.0
  O  O23  1  0.51148867  0.08683394  0.79545056  1.0
  O  O24  1  0.74261737  0.45664702  0.12207415  1.0
  O  O25  1  0.74261737  0.04335298  0.12207415  1.0
  O  O26  1  0.24261737  0.45664702  0.37792585  1.0
  O  O27  1  0.24261737  0.04335298  0.37792585  1.0
  O  O28  1  0.25738263  0.95664702  0.87792585  1.0
  O  O29  1  0.25738263  0.54335298  0.87792585  1.0
  O  O30  1  0.75738263  0.95664702  0.62207415  1.0
  O  O31  1  0.75738263  0.54335298  0.62207415  1.0
  O  O32  1  0.75371284  0.25000000  0.54407868  1.0
  O  O33  1  0.25371284  0.25000000  0.95592132  1.0
  O  O34  1  0.24628716  0.75000000  0.45592132  1.0
  O  O35  1  0.74628716  0.75000000  0.04407868  1.0
