# generated using pymatgen
data_Sr3(AlSi)2
_symmetry_space_group_name_H-M   'P 1'
_cell_length_a   10.14515777
_cell_length_b   10.14515777
_cell_length_c   10.14515777
_cell_angle_alpha   156.06742104
_cell_angle_beta   152.43274644
_cell_angle_gamma   36.82292157
_symmetry_Int_Tables_number   1
_chemical_formula_structural   Sr3(AlSi)2
_chemical_formula_sum   'Sr3 Al2 Si2'
_cell_volume   195.76530264
_cell_formula_units_Z   1
loop_
 _symmetry_equiv_pos_site_id
 _symmetry_equiv_pos_as_xyz
  1  'x, y, z'
loop_
 _atom_site_type_symbol
 _atom_site_label
 _atom_site_symmetry_multiplicity
 _atom_site_fract_x
 _atom_site_fract_y
 _atom_site_fract_z
 _atom_site_occupancy
  Sr  Sr0  1  0.81503505  0.31503505  0.50000000  1.0
  Sr  Sr1  1  0.18496495  0.68496495  0.50000000  1.0
  Sr  Sr2  1  0.00000000  0.00000000  0.00000000  1.0
  Al  Al3  1  0.56692419  0.56692419  1.00000000  1.0
  Al  Al4  1  0.43307581  0.43307581  0.00000000  1.0
  Si  Si5  1  0.63931535  0.13931535  0.50000000  1.0
  Si  Si6  1  0.36068465  0.86068465  0.50000000  1.0
