# generated using pymatgen
data_SiO2
_symmetry_space_group_name_H-M   'P 1'
_cell_length_a   10.87290732
_cell_length_b   10.87290732
_cell_length_c   10.87290732
_cell_angle_alpha   115.18702124
_cell_angle_beta   115.18702124
_cell_angle_gamma   115.18702124
_symmetry_Int_Tables_number   1
_chemical_formula_structural   SiO2
_chemical_formula_sum   'Si12 O24'
_cell_volume   706.97382204
_cell_formula_units_Z   12
loop_
 _symmetry_equiv_pos_site_id
 _symmetry_equiv_pos_as_xyz
  1  'x, y, z'
loop_
 _atom_site_type_symbol
 _atom_site_label
 _atom_site_symmetry_multiplicity
 _atom_site_fract_x
 _atom_site_fract_y
 _atom_site_fract_z
 _atom_site_occupancy
  Si  Si0  1  0.22917250  0.62839369  -0.21092125  1.0
  Si  Si1  1  0.62839369  0.78907875  0.22917250  1.0
  Si  Si2  1  1.78907875  0.22917250  0.62839369  1.0
  Si  Si3  1  1.22917250  0.78907875  0.62839369  1.0
  Si  Si4  1  0.78907875  0.62839369  0.22917250  1.0
  Si  Si5  1  0.62839369  0.22917250  -0.21092125  1.0
  Si  Si6  1  0.77082750  0.37160631  0.21092125  1.0
  Si  Si7  1  0.37160631  0.21092125  -0.22917250  1.0
  Si  Si8  1  1.21092125  0.77082750  0.37160631  1.0
  Si  Si9  1  1.77082750  0.21092125  0.37160631  1.0
  Si  Si10  1  0.21092125  0.37160631  -0.22917250  1.0
  Si  Si11  1  1.37160631  -0.22917250  0.21092125  1.0
  O  O12  1  0.50000000  0.72450253  0.27549747  1.0
  O  O13  1  1.72450253  0.27549747  0.50000000  1.0
  O  O14  1  0.27549747  0.50000000  -0.27549747  1.0
  O  O15  1  0.50000000  0.27549747  -0.27549747  1.0
  O  O16  1  1.27549747  0.72450253  0.50000000  1.0
  O  O17  1  0.72450253  0.50000000  0.27549747  1.0
  O  O18  1  0.67490771  0.18842478  0.18842478  1.0
  O  O19  1  1.18842478  1.18842478  0.67490771  1.0
  O  O20  1  1.18842478  -0.32509229  0.18842478  1.0
  O  O21  1  0.32509229  -0.18842478  -0.18842478  1.0
  O  O22  1  0.81157522  0.81157522  0.32509229  1.0
  O  O23  1  0.81157522  -0.67490771  -0.18842478  1.0
  O  O24  1  1.56387636  -0.00000000  0.43612364  1.0
  O  O25  1  0.00000000  0.43612364  -0.43612364  1.0
  O  O26  1  0.43612364  0.56387636  0.00000000  1.0
  O  O27  1  0.56387636  0.43612364  0.00000000  1.0
  O  O28  1  0.43612364  0.00000000  -0.43612364  1.0
  O  O29  1  1.00000000  0.56387636  0.43612364  1.0
  O  O30  1  1.28412901  -0.28412901  0.00000000  1.0
  O  O31  1  0.71587099  1.00000000  0.28412901  1.0
  O  O32  1  0.00000000  0.28412901  -0.28412901  1.0
  O  O33  1  0.28412901  0.00000000  -0.28412901  1.0
  O  O34  1  1.00000000  0.71587099  0.28412901  1.0
  O  O35  1  0.71587099  0.28412901  0.00000000  1.0
