# generated using pymatgen
data_TaAg7S6
_symmetry_space_group_name_H-M   'P 1'
_cell_length_a   7.99835682
_cell_length_b   7.26472427
_cell_length_c   13.42917327
_cell_angle_alpha   90.00000000
_cell_angle_beta   127.51445550
_cell_angle_gamma   90.00000000
_symmetry_Int_Tables_number   1
_chemical_formula_structural   TaAg7S6
_chemical_formula_sum   'Ta2 Ag14 S12'
_cell_volume   618.94455013
_cell_formula_units_Z   2
loop_
 _symmetry_equiv_pos_site_id
 _symmetry_equiv_pos_as_xyz
  1  'x, y, z'
loop_
 _atom_site_type_symbol
 _atom_site_label
 _atom_site_symmetry_multiplicity
 _atom_site_fract_x
 _atom_site_fract_y
 _atom_site_fract_z
 _atom_site_occupancy
  Ta  Ta0  1  0.51401709  0.75080594  0.31089470  1.0
  Ta  Ta1  1  0.51401709  0.24919406  0.81089470  1.0
  Ag  Ag2  1  -0.04138466  0.42532290  0.49643020  1.0
  Ag  Ag3  1  -0.04138466  0.57467710  -0.00356980  1.0
  Ag  Ag4  1  0.93428630  0.98908767  0.04069658  1.0
  Ag  Ag5  1  0.93428630  0.01091233  0.54069658  1.0
  Ag  Ag6  1  0.91071281  0.96644006  0.24583084  1.0
  Ag  Ag7  1  0.91071281  0.03355994  0.74583084  1.0
  Ag  Ag8  1  0.78932242  0.34769130  0.11639384  1.0
  Ag  Ag9  1  0.78932242  0.65230870  0.61639384  1.0
  Ag  Ag10  1  0.54579379  0.79360523  0.84138815  1.0
  Ag  Ag11  1  0.54579379  0.20639477  0.34138815  1.0
  Ag  Ag12  1  0.39839328  0.85945940  0.99346742  1.0
  Ag  Ag13  1  0.39839328  0.14054060  0.49346742  1.0
  Ag  Ag14  1  0.23465979  0.47494307  0.31632402  1.0
  Ag  Ag15  1  0.23465979  0.52505693  0.81632402  1.0
  S  S16  1  1.02489670  0.73114593  0.84775701  1.0
  S  S17  1  1.02489670  0.26885407  0.34775701  1.0
  S  S18  1  0.87158019  0.75231054  0.40148273  1.0
  S  S19  1  0.87158019  0.24768946  0.90148273  1.0
  S  S20  1  0.76491430  0.72991584  0.07768331  1.0
  S  S21  1  0.76491430  0.27008416  0.57768331  1.0
  S  S22  1  0.37078923  0.49140649  0.18641420  1.0
  S  S23  1  0.37078923  0.50859351  0.68641420  1.0
  S  S24  1  0.35080359  0.98249040  0.16415837  1.0
  S  S25  1  0.35080359  0.01750960  0.66415837  1.0
  S  S26  1  0.42421517  0.76786587  0.44607862  1.0
  S  S27  1  0.42421517  0.23213413  0.94607862  1.0
