# generated using pymatgen
data_BaLaAgSe3
_symmetry_space_group_name_H-M   'P 1'
_cell_length_a   7.51816574
_cell_length_b   7.51816574
_cell_length_c   11.20617223
_cell_angle_alpha   90.00000000
_cell_angle_beta   90.00000000
_cell_angle_gamma   145.92861928
_symmetry_Int_Tables_number   1
_chemical_formula_structural   BaLaAgSe3
_chemical_formula_sum   'Ba2 La2 Ag2 Se6'
_cell_volume   354.84918211
_cell_formula_units_Z   2
loop_
 _symmetry_equiv_pos_site_id
 _symmetry_equiv_pos_as_xyz
  1  'x, y, z'
loop_
 _atom_site_type_symbol
 _atom_site_label
 _atom_site_symmetry_multiplicity
 _atom_site_fract_x
 _atom_site_fract_y
 _atom_site_fract_z
 _atom_site_occupancy
  Ba  Ba0  1  -0.24903212  0.24903212  0.75000000  1.0
  Ba  Ba1  1  0.24903212  0.75096788  0.25000000  1.0
  La  La2  1  0.00000000  0.00000000  0.00000000  1.0
  La  La3  1  0.00000000  0.00000000  0.50000000  1.0
  Ag  Ag4  1  0.47312981  0.52687019  0.75000000  1.0
  Ag  Ag5  1  -0.47312981  0.47312981  0.25000000  1.0
  Se  Se6  1  0.36118140  0.63881860  0.93823657  1.0
  Se  Se7  1  0.36118140  0.63881860  0.56176343  1.0
  Se  Se8  1  -0.36118140  0.36118140  0.43823657  1.0
  Se  Se9  1  -0.36118140  0.36118140  0.06176343  1.0
  Se  Se10  1  0.08223799  0.91776201  0.75000000  1.0
  Se  Se11  1  -0.08223799  0.08223799  0.25000000  1.0
