# generated using pymatgen
data_Li2Ti6O13
_symmetry_space_group_name_H-M   'P 1'
_cell_length_a   7.86592518
_cell_length_b   7.86592518
_cell_length_c   9.37355925
_cell_angle_alpha   80.68976670
_cell_angle_beta   99.31023330
_cell_angle_gamma   152.32046975
_symmetry_Int_Tables_number   1
_chemical_formula_structural   Li2Ti6O13
_chemical_formula_sum   'Li2 Ti6 O13'
_cell_volume   265.64420511
_cell_formula_units_Z   1
loop_
 _symmetry_equiv_pos_site_id
 _symmetry_equiv_pos_as_xyz
  1  'x, y, z'
loop_
 _atom_site_type_symbol
 _atom_site_label
 _atom_site_symmetry_multiplicity
 _atom_site_fract_x
 _atom_site_fract_y
 _atom_site_fract_z
 _atom_site_occupancy
  Li  Li0  1  0.46640122  -0.46640122  0.74251111  1.0
  Li  Li1  1  0.53359878  0.46640122  0.25748889  1.0
  Ti  Ti2  1  0.88209291  0.11790709  0.91838402  1.0
  Ti  Ti3  1  0.11790709  -0.11790709  0.08161598  1.0
  Ti  Ti4  1  0.83421727  0.16578273  0.56655608  1.0
  Ti  Ti5  1  0.16578273  -0.16578273  0.43344392  1.0
  Ti  Ti6  1  0.22560538  -0.22560538  0.76308891  1.0
  Ti  Ti7  1  0.77439462  0.22560538  0.23691109  1.0
  O  O8  1  0.93127422  0.06872578  0.70364062  1.0
  O  O9  1  0.06872578  -0.06872578  0.29635938  1.0
  O  O10  1  0.86858901  0.13141099  0.38743278  1.0
  O  O11  1  0.13141099  -0.13141099  0.61256722  1.0
  O  O12  1  0.76169487  0.23830513  0.75674777  1.0
  O  O13  1  0.23830513  -0.23830513  0.24325223  1.0
  O  O14  1  0.70049687  0.29950313  0.42604222  1.0
  O  O15  1  0.29950313  -0.29950313  0.57395778  1.0
  O  O16  1  0.36411127  -0.36411127  0.87585251  1.0
  O  O17  1  0.63588873  0.36411127  0.12414749  1.0
  O  O18  1  0.16967058  -0.16967058  0.91762792  1.0
  O  O19  1  0.83032942  0.16967058  0.08237208  1.0
  O  O20  1  0.00000000  0.00000000  0.00000000  1.0
