# generated using pymatgen
data_CdBr2
_symmetry_space_group_name_H-M   'P 1'
_cell_length_a   14.22055897
_cell_length_b   14.22055897
_cell_length_c   14.22055897
_cell_angle_alpha   16.44535340
_cell_angle_beta   16.44535340
_cell_angle_gamma   16.44535340
_symmetry_Int_Tables_number   1
_chemical_formula_structural   CdBr2
_chemical_formula_sum   'Cd2 Br4'
_cell_volume   200.97110253
_cell_formula_units_Z   2
loop_
 _symmetry_equiv_pos_site_id
 _symmetry_equiv_pos_as_xyz
  1  'x, y, z'
loop_
 _atom_site_type_symbol
 _atom_site_label
 _atom_site_symmetry_multiplicity
 _atom_site_fract_x
 _atom_site_fract_y
 _atom_site_fract_z
 _atom_site_occupancy
  Cd  Cd0  1  1.50000000  0.50000000  0.50000000  1.0
  Cd  Cd1  1  0.00000000  0.00000000  0.00000000  1.0
  Br  Br2  1  0.87055655  0.87055655  0.87055655  1.0
  Br  Br3  1  1.12944345  1.12944345  0.12944345  1.0
  Br  Br4  1  0.70387046  0.70387046  0.70387046  1.0
  Br  Br5  1  1.29612954  1.29612954  0.29612954  1.0
