# generated using pymatgen
data_Ni(AgO)2
_symmetry_space_group_name_H-M   'P 1'
_cell_length_a   8.59514779
_cell_length_b   8.59514779
_cell_length_c   8.59514779
_cell_angle_alpha   19.52120570
_cell_angle_beta   19.52120570
_cell_angle_gamma   19.52120571
_symmetry_Int_Tables_number   1
_chemical_formula_structural   Ni(AgO)2
_chemical_formula_sum   'Ni1 Ag2 O2'
_cell_volume   61.99667706
_cell_formula_units_Z   1
loop_
 _symmetry_equiv_pos_site_id
 _symmetry_equiv_pos_as_xyz
  1  'x, y, z'
loop_
 _atom_site_type_symbol
 _atom_site_label
 _atom_site_symmetry_multiplicity
 _atom_site_fract_x
 _atom_site_fract_y
 _atom_site_fract_z
 _atom_site_occupancy
  Ni  Ni0  1  0.00000000  -0.00000000  0.00000000  1.0
  Ag  Ag1  1  0.78757277  0.78757277  0.78757277  1.0
  Ag  Ag2  1  1.21242723  1.21242723  0.21242723  1.0
  O  O3  1  1.62747627  0.62747627  0.62747627  1.0
  O  O4  1  1.37252373  0.37252373  0.37252373  1.0
