# generated using pymatgen
data_Lu3Ni2
_symmetry_space_group_name_H-M   'P 1'
_cell_length_a   7.07516902
_cell_length_b   7.07516902
_cell_length_c   7.07516902
_cell_angle_alpha   72.53955207
_cell_angle_beta   72.53955207
_cell_angle_gamma   72.53955207
_symmetry_Int_Tables_number   1
_chemical_formula_structural   Lu3Ni2
_chemical_formula_sum   'Lu9 Ni6'
_cell_volume   313.58260148
_cell_formula_units_Z   3
loop_
 _symmetry_equiv_pos_site_id
 _symmetry_equiv_pos_as_xyz
  1  'x, y, z'
loop_
 _atom_site_type_symbol
 _atom_site_label
 _atom_site_symmetry_multiplicity
 _atom_site_fract_x
 _atom_site_fract_y
 _atom_site_fract_z
 _atom_site_occupancy
  Lu  Lu0  1  0.79199398  0.79199398  -0.20800602  1.0
  Lu  Lu1  1  1.20800602  1.20800602  0.20800602  1.0
  Lu  Lu2  1  0.83005117  0.61102086  -0.66074871  1.0
  Lu  Lu3  1  0.38897914  0.66074871  -0.83005117  1.0
  Lu  Lu4  1  0.66074871  0.16994883  -0.61102086  1.0
  Lu  Lu5  1  0.16994883  0.38897914  -0.33925129  1.0
  Lu  Lu6  1  0.61102086  0.33925129  -0.16994883  1.0
  Lu  Lu7  1  0.33925129  0.83005117  -0.38897914  1.0
  Lu  Lu8  1  -0.00000000  0.00000000  -0.00000000  1.0
  Ni  Ni9  1  0.58752024  -0.04069813  0.14499878  1.0
  Ni  Ni10  1  1.04069813  -0.14499878  -0.58752024  1.0
  Ni  Ni11  1  0.85500122  -0.58752024  0.04069813  1.0
  Ni  Ni12  1  0.41247976  0.04069813  -0.14499878  1.0
  Ni  Ni13  1  0.95930187  0.14499878  -0.41247976  1.0
  Ni  Ni14  1  1.14499878  -0.41247976  -0.04069813  1.0
