# generated using pymatgen
data_TlFe3H6(SO7)2
_symmetry_space_group_name_H-M   'P 1'
_cell_length_a   7.38775664
_cell_length_b   7.38775664
_cell_length_c   7.38775664
_cell_angle_alpha   59.73123308
_cell_angle_beta   59.73123308
_cell_angle_gamma   59.73123308
_symmetry_Int_Tables_number   1
_chemical_formula_structural   TlFe3H6(SO7)2
_chemical_formula_sum   'Tl1 Fe3 H6 S2 O14'
_cell_volume   283.37645220
_cell_formula_units_Z   1
loop_
 _symmetry_equiv_pos_site_id
 _symmetry_equiv_pos_as_xyz
  1  'x, y, z'
loop_
 _atom_site_type_symbol
 _atom_site_label
 _atom_site_symmetry_multiplicity
 _atom_site_fract_x
 _atom_site_fract_y
 _atom_site_fract_z
 _atom_site_occupancy
  Fe  Fe0  1  0.50000000  1.00000000  -0.50000000  1.0
  Fe  Fe1  1  0.50000000  -0.50000000  0.00000000  1.0
  Fe  Fe2  1  -0.00000000  0.50000000  -0.50000000  1.0
  S  S3  1  0.80458938  0.80458938  -0.19541062  1.0
  S  S4  1  1.19541062  1.19541062  0.19541062  1.0
  O  O5  1  0.88632738  0.88632738  -0.11367262  1.0
  O  O6  1  1.11367262  1.11367262  0.11367262  1.0
  O  O7  1  0.23313241  0.23313241  -0.38054024  1.0
  O  O8  1  0.23313241  0.61945976  -0.76686759  1.0
  O  O9  1  0.38054024  0.76686759  -0.23313241  1.0
  O  O10  1  0.76686759  0.38054024  -0.23313241  1.0
  O  O11  1  0.76686759  0.76686759  -0.61945976  1.0
  O  O12  1  0.61945976  0.23313241  -0.76686759  1.0
  O  O13  1  1.33476725  1.33476725  0.00187252  1.0
  O  O14  1  1.33476725  1.00187252  0.33476725  1.0
  O  O15  1  0.99812748  0.66523275  -0.33476725  1.0
  O  O16  1  0.66523275  0.99812748  -0.33476725  1.0
  O  O17  1  0.66523275  0.66523275  -0.00187252  1.0
  O  O18  1  1.00187252  1.33476725  0.33476725  1.0
  Tl  Tl19  1  0.50000000  0.50000000  -0.50000000  1.0
  H  H20  1  0.19454029  0.19454029  -0.21990455  1.0
  H  H21  1  0.19454029  0.78009545  -0.80545971  1.0
  H  H22  1  0.21990455  0.80545971  -0.19454029  1.0
  H  H23  1  0.80545971  0.21990455  -0.19454029  1.0
  H  H24  1  0.80545971  0.80545971  -0.78009545  1.0
  H  H25  1  0.78009545  0.19454029  -0.80545971  1.0
