# generated using pymatgen
data_TaO2
_symmetry_space_group_name_H-M   'P 1'
_cell_length_a   10.68677475
_cell_length_b   10.68677475
_cell_length_c   10.68677475
_cell_angle_alpha   95.17667784
_cell_angle_beta   95.17667784
_cell_angle_gamma   145.03933252
_symmetry_Int_Tables_number   1
_chemical_formula_structural   TaO2
_chemical_formula_sum   'Ta16 O32'
_cell_volume   667.07036950
_cell_formula_units_Z   16
loop_
 _symmetry_equiv_pos_site_id
 _symmetry_equiv_pos_as_xyz
  1  'x, y, z'
loop_
 _atom_site_type_symbol
 _atom_site_label
 _atom_site_symmetry_multiplicity
 _atom_site_fract_x
 _atom_site_fract_y
 _atom_site_fract_z
 _atom_site_occupancy
  Ta  Ta0  1  0.60410363  0.60921098  1.25849036  1.0
  Ta  Ta1  1  1.09561327  0.85410363  0.49489265  1.0
  Ta  Ta2  1  0.35072062  0.34561327  0.74150964  1.0
  Ta  Ta3  1  1.35921098  1.60072062  1.50510735  1.0
  Ta  Ta4  1  1.14589637  1.64078902  1.24150964  1.0
  Ta  Ta5  1  0.65438673  1.39589637  1.00510735  1.0
  Ta  Ta6  1  1.39927938  0.90438673  0.75849036  1.0
  Ta  Ta7  1  1.39078902  0.64927938  0.99489265  1.0
  Ta  Ta8  1  1.16984430  1.15453480  0.25619399  1.0
  Ta  Ta9  1  0.66365031  0.41984430  0.51530950  1.0
  Ta  Ta10  1  1.89834081  1.91365031  1.74380601  1.0
  Ta  Ta11  1  0.90453480  1.14834081  1.48469050  1.0
  Ta  Ta12  1  0.58015570  1.09546520  1.24380601  1.0
  Ta  Ta13  1  1.08634969  0.83015570  0.98469050  1.0
  Ta  Ta14  1  0.85165919  0.33634969  0.75619399  1.0
  Ta  Ta15  1  0.84546520  1.10165919  1.01530950  1.0
  O  O16  1  0.72932079  0.59818788  0.40057004  1.0
  O  O17  1  1.07875075  0.97932079  0.63113291  1.0
  O  O18  1  1.19761784  1.32875075  1.59942996  1.0
  O  O19  1  1.34818788  1.44761784  1.36886709  1.0
  O  O20  1  1.02067921  1.65181212  1.09942996  1.0
  O  O21  1  0.67124925  0.27067921  0.86886709  1.0
  O  O22  1  1.55238216  0.92124925  0.90057004  1.0
  O  O23  1  0.40181212  0.80238216  1.13113291  1.0
  O  O24  1  0.17565756  0.04715820  0.38631310  1.0
  O  O25  1  0.53934446  0.42565756  0.62849936  1.0
  O  O26  1  0.66084509  0.78934446  1.61368690  1.0
  O  O27  1  0.79715820  0.91084509  1.37150064  1.0
  O  O28  1  0.57434244  1.20284180  1.11368690  1.0
  O  O29  1  1.21065554  0.82434244  0.87150064  1.0
  O  O30  1  1.08915491  0.46065554  0.88631310  1.0
  O  O31  1  0.95284180  1.33915491  1.12849936  1.0
  O  O32  1  0.41557039  0.55253201  1.12220089  1.0
  O  O33  1  1.04336950  1.66557039  1.36303838  1.0
  O  O34  1  0.43033112  0.29336950  0.87779911  1.0
  O  O35  1  1.30253201  0.68033112  0.63696162  1.0
  O  O36  1  1.33442961  1.69746799  1.37779911  1.0
  O  O37  1  0.70663050  0.58442961  0.13696162  1.0
  O  O38  1  1.31966888  0.95663050  0.62220089  1.0
  O  O39  1  1.44746799  1.56966888  1.86303838  1.0
  O  O40  1  0.94867885  1.06941711  1.14435264  1.0
  O  O41  1  0.55432621  1.19867885  1.37926175  1.0
  O  O42  1  0.92506447  0.80432621  0.85564736  1.0
  O  O43  1  0.81941711  0.17506447  0.62073825  1.0
  O  O44  1  0.80132115  1.18058289  1.35564736  1.0
  O  O45  1  0.19567379  0.05132115  0.12073825  1.0
  O  O46  1  0.82493553  0.44567379  0.64435264  1.0
  O  O47  1  0.93058289  1.07493553  1.87926175  1.0
