# generated using pymatgen
data_BaOsO2
_symmetry_space_group_name_H-M   'P 1'
_cell_length_a   7.90493476
_cell_length_b   7.90493476
_cell_length_c   7.90493476
_cell_angle_alpha   131.45546025
_cell_angle_beta   131.45546025
_cell_angle_gamma   71.09043998
_symmetry_Int_Tables_number   1
_chemical_formula_structural   BaOsO2
_chemical_formula_sum   'Ba4 Os4 O8'
_cell_volume   271.66553459
_cell_formula_units_Z   4
loop_
 _symmetry_equiv_pos_site_id
 _symmetry_equiv_pos_as_xyz
  1  'x, y, z'
loop_
 _atom_site_type_symbol
 _atom_site_label
 _atom_site_symmetry_multiplicity
 _atom_site_fract_x
 _atom_site_fract_y
 _atom_site_fract_z
 _atom_site_occupancy
  Ba  Ba0  1  0.37500000  0.62500000  0.75000000  1.0
  Ba  Ba1  1  0.87500000  0.62500000  1.25000000  1.0
  Ba  Ba2  1  0.37500000  1.12500000  0.75000000  1.0
  Ba  Ba3  1  0.37500000  0.62500000  0.25000000  1.0
  Os  Os4  1  0.87500000  0.12500000  0.75000000  1.0
  Os  Os5  1  0.37500000  0.12500000  0.25000000  1.0
  Os  Os6  1  0.87500000  0.62500000  0.75000000  1.0
  Os  Os7  1  0.87500000  1.12500000  1.25000000  1.0
  O  O8  1  1.16181971  0.97766450  1.81586619  1.0
  O  O9  1  0.58820169  0.90404648  1.31586619  1.0
  O  O10  1  1.02233550  0.83820169  1.18415521  1.0
  O  O11  1  1.09595352  1.41181971  1.68415521  1.0
  O  O12  1  0.16179831  0.34595352  0.18413381  1.0
  O  O13  1  0.58818029  0.27233550  0.68413381  1.0
  O  O14  1  0.65404648  0.83818029  0.81584479  1.0
  O  O15  1  0.72766450  0.41179831  0.31584479  1.0
