# generated using pymatgen
data_Ca3(AlSi)2
_symmetry_space_group_name_H-M   'P 1'
_cell_length_a   9.75354810
_cell_length_b   9.75354810
_cell_length_c   9.75354810
_cell_angle_alpha   155.82352759
_cell_angle_beta   153.13967654
_cell_angle_gamma   36.44774784
_symmetry_Int_Tables_number   1
_chemical_formula_structural   Ca3(AlSi)2
_chemical_formula_sum   'Ca3 Al2 Si2'
_cell_volume   171.46959429
_cell_formula_units_Z   1
loop_
 _symmetry_equiv_pos_site_id
 _symmetry_equiv_pos_as_xyz
  1  'x, y, z'
loop_
 _atom_site_type_symbol
 _atom_site_label
 _atom_site_symmetry_multiplicity
 _atom_site_fract_x
 _atom_site_fract_y
 _atom_site_fract_z
 _atom_site_occupancy
  Ca  Ca0  1  0.81347131  0.31347131  0.50000000  1.0
  Ca  Ca1  1  0.18652869  0.68652869  0.50000000  1.0
  Ca  Ca2  1  0.00000000  0.00000000  0.00000000  1.0
  Al  Al3  1  0.56859673  0.56859673  1.00000000  1.0
  Al  Al4  1  0.43140327  0.43140327  0.00000000  1.0
  Si  Si5  1  0.64442038  0.14442038  0.50000000  1.0
  Si  Si6  1  0.35557962  0.85557962  0.50000000  1.0
