# generated using pymatgen
data_SbXe2F9
_symmetry_space_group_name_H-M   'P 1'
_cell_length_a   8.75026937
_cell_length_b   8.75026937
_cell_length_c   10.75922931
_cell_angle_alpha   55.59110362
_cell_angle_beta   124.40889638
_cell_angle_gamma   122.94864024
_symmetry_Int_Tables_number   1
_chemical_formula_structural   SbXe2F9
_chemical_formula_sum   'Sb2 Xe4 F18'
_cell_volume   529.34374161
_cell_formula_units_Z   2
loop_
 _symmetry_equiv_pos_site_id
 _symmetry_equiv_pos_as_xyz
  1  'x, y, z'
loop_
 _atom_site_type_symbol
 _atom_site_label
 _atom_site_symmetry_multiplicity
 _atom_site_fract_x
 _atom_site_fract_y
 _atom_site_fract_z
 _atom_site_occupancy
  Sb  Sb0  1  1.00728398  0.71192828  0.55951569  1.0
  Sb  Sb1  1  1.28807172  -0.00728398  0.05951569  1.0
  Xe  Xe2  1  1.74391293  0.02604302  0.63112621  1.0
  Xe  Xe3  1  0.97395698  -0.74391293  0.13112621  1.0
  Xe  Xe4  1  1.37434020  -0.57266173  0.53194055  1.0
  Xe  Xe5  1  1.57266173  -0.37434020  0.03194055  1.0
  F  F6  1  0.82145318  0.79673249  0.52901243  1.0
  F  F7  1  0.20326751  0.17854682  0.02901243  1.0
  F  F8  1  0.57518191  0.45442673  0.74172531  1.0
  F  F9  1  0.54557327  0.42481809  0.24172531  1.0
  F  F10  1  1.02260474  -0.19078849  0.02571583  1.0
  F  F11  1  0.19078849  -0.02260474  0.52571583  1.0
  F  F12  1  0.81646833  0.45084860  0.58692282  1.0
  F  F13  1  1.54915140  0.18353167  0.08692282  1.0
  F  F14  1  1.11440609  0.64930942  0.78947796  1.0
  F  F15  1  1.35069058  -0.11440609  0.28947796  1.0
  F  F16  1  1.18973949  0.62395321  0.59014223  1.0
  F  F17  1  1.37604679  -0.18973949  0.09014223  1.0
  F  F18  1  0.80154592  0.12108285  0.97610440  1.0
  F  F19  1  0.87891715  -0.80154592  0.47610440  1.0
  F  F20  1  1.14986150  -0.57686779  0.29076581  1.0
  F  F21  1  0.57686779  -0.14986150  0.79076581  1.0
  F  F22  1  0.22234521  0.09993691  0.82815076  1.0
  F  F23  1  0.90006309  0.77765479  0.32815076  1.0
