# generated using pymatgen
data_As4Se3
_symmetry_space_group_name_H-M   'P 1'
_cell_length_a   10.05972075
_cell_length_b   8.42197070
_cell_length_c   11.29975518
_cell_angle_alpha   90.00000000
_cell_angle_beta   90.00000000
_cell_angle_gamma   90.00000000
_symmetry_Int_Tables_number   1
_chemical_formula_structural   As4Se3
_chemical_formula_sum   'As16 Se12'
_cell_volume   957.34546857
_cell_formula_units_Z   4
loop_
 _symmetry_equiv_pos_site_id
 _symmetry_equiv_pos_as_xyz
  1  'x, y, z'
loop_
 _atom_site_type_symbol
 _atom_site_label
 _atom_site_symmetry_multiplicity
 _atom_site_fract_x
 _atom_site_fract_y
 _atom_site_fract_z
 _atom_site_occupancy
  As  As0  1  0.65882186  0.89944998  0.27689776  1.0
  As  As1  1  0.65882186  0.60055002  0.27689776  1.0
  As  As2  1  0.15882186  0.89944998  0.22310224  1.0
  As  As3  1  0.15882186  0.60055002  0.22310224  1.0
  As  As4  1  0.34117814  0.39944998  0.72310224  1.0
  As  As5  1  0.34117814  0.10055002  0.72310224  1.0
  As  As6  1  0.84117814  0.39944998  0.77689776  1.0
  As  As7  1  0.84117814  0.10055002  0.77689776  1.0
  As  As8  1  0.99445513  0.75000000  0.09815370  1.0
  As  As9  1  0.49445513  0.75000000  0.40184630  1.0
  As  As10  1  0.00554487  0.25000000  0.90184630  1.0
  As  As11  1  0.50554487  0.25000000  0.59815370  1.0
  As  As12  1  0.82784186  0.75000000  0.55167582  1.0
  As  As13  1  0.32784186  0.75000000  0.94832418  1.0
  As  As14  1  0.17215814  0.25000000  0.44832418  1.0
  As  As15  1  0.67215814  0.25000000  0.05167582  1.0
  Se  Se16  1  0.83232220  0.96548471  0.41154588  1.0
  Se  Se17  1  0.83232220  0.53451529  0.41154588  1.0
  Se  Se18  1  0.33232220  0.96548471  0.08845412  1.0
  Se  Se19  1  0.33232220  0.53451529  0.08845412  1.0
  Se  Se20  1  0.16767780  0.46548471  0.58845412  1.0
  Se  Se21  1  0.16767780  0.03451529  0.58845412  1.0
  Se  Se22  1  0.66767780  0.46548471  0.91154588  1.0
  Se  Se23  1  0.66767780  0.03451529  0.91154588  1.0
  Se  Se24  1  0.59251450  0.75000000  0.59289861  1.0
  Se  Se25  1  0.09251450  0.75000000  0.90710139  1.0
  Se  Se26  1  0.40748550  0.25000000  0.40710139  1.0
  Se  Se27  1  0.90748550  0.25000000  0.09289861  1.0
