# generated using pymatgen
data_Cd3P2
_symmetry_space_group_name_H-M   'P 1'
_cell_length_a   10.81030707
_cell_length_b   10.81030707
_cell_length_c   10.81030707
_cell_angle_alpha   109.47122063
_cell_angle_beta   109.47122063
_cell_angle_gamma   109.47122063
_symmetry_Int_Tables_number   1
_chemical_formula_structural   Cd3P2
_chemical_formula_sum   'Cd24 P16'
_cell_volume   972.50579950
_cell_formula_units_Z   8
loop_
 _symmetry_equiv_pos_site_id
 _symmetry_equiv_pos_as_xyz
  1  'x, y, z'
loop_
 _atom_site_type_symbol
 _atom_site_label
 _atom_site_symmetry_multiplicity
 _atom_site_fract_x
 _atom_site_fract_y
 _atom_site_fract_z
 _atom_site_occupancy
  Cd  Cd0  1  0.54430502  0.51655662  0.76773292  1.0
  Cd  Cd1  1  1.04430502  0.27657211  1.02774840  1.0
  Cd  Cd2  1  0.24882371  0.77657211  0.73226708  1.0
  Cd  Cd3  1  0.74882371  1.01655662  0.47225160  1.0
  Cd  Cd4  1  0.52774840  1.25117629  0.98344338  1.0
  Cd  Cd5  1  1.02774840  1.04430502  0.27657211  1.0
  Cd  Cd6  1  0.76773292  0.54430502  0.51655662  1.0
  Cd  Cd7  1  1.26773292  0.75117629  1.22342789  1.0
  Cd  Cd8  1  0.77657211  0.73226708  0.24882371  1.0
  Cd  Cd9  1  1.27657211  1.02774840  1.04430502  1.0
  Cd  Cd10  1  0.98344338  0.52774840  1.25117629  1.0
  Cd  Cd11  1  1.48344338  1.23226708  1.45569498  1.0
  Cd  Cd12  1  1.75117629  1.22342789  1.26773292  1.0
  Cd  Cd13  1  1.25117629  0.98344338  1.52774840  1.0
  Cd  Cd14  1  1.45569498  1.48344338  1.23226708  1.0
  Cd  Cd15  1  0.95569498  1.72342789  0.97225160  1.0
  Cd  Cd16  1  1.23226708  1.45569498  1.48344338  1.0
  Cd  Cd17  1  0.73226708  1.24882371  0.77657211  1.0
  Cd  Cd18  1  1.47225160  0.74882371  1.01655662  1.0
  Cd  Cd19  1  0.97225160  0.95569498  1.72342789  1.0
  Cd  Cd20  1  1.01655662  1.47225160  0.74882371  1.0
  Cd  Cd21  1  0.51655662  0.76773292  0.54430502  1.0
  Cd  Cd22  1  1.22342789  1.26773292  1.75117629  1.0
  Cd  Cd23  1  0.72342789  0.97225160  0.95569498  1.0
  P  P24  1  1.73491846  1.48491846  1.25000000  1.0
  P  P25  1  1.23491846  0.98491846  1.25000000  1.0
  P  P26  1  0.75000000  0.76508154  0.01508154  1.0
  P  P27  1  0.25000000  1.23491846  0.98491846  1.0
  P  P28  1  0.25000000  0.73491846  0.48491846  1.0
  P  P29  1  0.75000000  1.26508154  0.51508154  1.0
  P  P30  1  1.48491846  1.25000000  1.73491846  1.0
  P  P31  1  0.98491846  0.25000000  1.23491846  1.0
  P  P32  1  0.01508154  0.75000000  0.76508154  1.0
  P  P33  1  0.51508154  0.75000000  0.26508154  1.0
  P  P34  1  0.26508154  0.51508154  0.75000000  1.0
  P  P35  1  0.76508154  1.01508154  0.75000000  1.0
  P  P36  1  1.00000000  0.50000000  1.00000000  1.0
  P  P37  1  0.50000000  0.50000000  0.50000000  1.0
  P  P38  1  1.00000000  1.00000000  1.50000000  1.0
  P  P39  1  1.50000000  1.00000000  1.00000000  1.0
