# generated using pymatgen
data_KCu3P3(O4F3)2
_symmetry_space_group_name_H-M   'P 1'
_cell_length_a   10.41995770
_cell_length_b   10.41995770
_cell_length_c   7.91387589
_cell_angle_alpha   77.94761482
_cell_angle_beta   102.05238518
_cell_angle_gamma   135.14066336
_symmetry_Int_Tables_number   1
_chemical_formula_structural   KCu3P3(O4F3)2
_chemical_formula_sum   'K2 Cu6 P6 O16 F12'
_cell_volume   590.42381854
_cell_formula_units_Z   2
loop_
 _symmetry_equiv_pos_site_id
 _symmetry_equiv_pos_as_xyz
  1  'x, y, z'
loop_
 _atom_site_type_symbol
 _atom_site_label
 _atom_site_symmetry_multiplicity
 _atom_site_fract_x
 _atom_site_fract_y
 _atom_site_fract_z
 _atom_site_occupancy
  F  F0  1  1.72591015  -0.22206731  0.59876686  1.0
  F  F1  1  1.22206731  -0.72591015  0.09876686  1.0
  F  F2  1  0.77793269  -0.27408985  0.90123314  1.0
  F  F3  1  1.27408985  0.22206731  0.40123314  1.0
  F  F4  1  1.82586177  0.05352641  0.86060593  1.0
  F  F5  1  0.94647359  -0.82586177  0.36060593  1.0
  F  F6  1  1.05352641  -0.17413823  0.63939407  1.0
  F  F7  1  1.17413823  -0.05352641  0.13939407  1.0
  F  F8  1  1.52733511  0.18171528  0.57177591  1.0
  F  F9  1  0.81828472  -0.52733511  0.07177591  1.0
  F  F10  1  1.18171528  -0.47266489  0.92822409  1.0
  F  F11  1  1.47266489  -0.18171528  0.42822409  1.0
  K  K12  1  0.17841544  0.17841544  0.75000000  1.0
  K  K13  1  0.82158456  0.82158456  0.25000000  1.0
  P  P14  1  1.64273636  -0.00917427  0.90546976  1.0
  P  P15  1  1.00917427  -0.64273636  0.40546976  1.0
  P  P16  1  0.99082573  -0.35726364  0.59453024  1.0
  P  P17  1  1.35726364  0.00917427  0.09453024  1.0
  P  P18  1  0.61970028  0.61970028  0.75000000  1.0
  P  P19  1  0.38029972  0.38029972  0.25000000  1.0
  O  O20  1  1.46119024  -0.41584227  0.78691306  1.0
  O  O21  1  1.41584227  -0.46119024  0.28691306  1.0
  O  O22  1  0.58415773  -0.53880976  0.71308694  1.0
  O  O23  1  1.53880976  0.41584227  0.21308694  1.0
  O  O24  1  1.69986521  0.16664336  0.93188037  1.0
  O  O25  1  0.83335664  -0.69986521  0.43188037  1.0
  O  O26  1  1.16664336  -0.30013479  0.56811963  1.0
  O  O27  1  1.30013479  -0.16664336  0.06811963  1.0
  O  O28  1  1.40431491  0.13962744  0.93133445  1.0
  O  O29  1  0.86037256  -0.40431491  0.43133445  1.0
  O  O30  1  1.13962744  -0.59568509  0.56866555  1.0
  O  O31  1  1.59568509  -0.13962744  0.06866555  1.0
  O  O32  1  1.50486858  -0.10369695  0.74538638  1.0
  O  O33  1  1.10369695  -0.50486858  0.24538638  1.0
  O  O34  1  0.89630305  -0.49513142  0.75461362  1.0
  O  O35  1  1.49513142  0.10369695  0.25461362  1.0
  Cu  Cu36  1  1.50000000  -0.00000000  0.50000000  1.0
  Cu  Cu37  1  1.00000000  -0.50000000  -0.00000000  1.0
  Cu  Cu38  1  1.63339352  0.30389669  0.81702471  1.0
  Cu  Cu39  1  0.69610331  -0.63339352  0.31702471  1.0
  Cu  Cu40  1  1.30389669  -0.36660648  0.68297529  1.0
  Cu  Cu41  1  1.36660648  -0.30389669  0.18297529  1.0
