# generated using pymatgen
data_KYSiS4
_symmetry_space_group_name_H-M   'P 1'
_cell_length_a   6.44180280
_cell_length_b   6.65377617
_cell_length_c   8.71590051
_cell_angle_alpha   90.00000000
_cell_angle_beta   107.13851367
_cell_angle_gamma   90.00000000
_symmetry_Int_Tables_number   1
_chemical_formula_structural   KYSiS4
_chemical_formula_sum   'K2 Y2 Si2 S8'
_cell_volume   356.99473725
_cell_formula_units_Z   2
loop_
 _symmetry_equiv_pos_site_id
 _symmetry_equiv_pos_as_xyz
  1  'x, y, z'
loop_
 _atom_site_type_symbol
 _atom_site_label
 _atom_site_symmetry_multiplicity
 _atom_site_fract_x
 _atom_site_fract_y
 _atom_site_fract_z
 _atom_site_occupancy
  K  K0  1  0.72861473  0.51197212  0.93356412  1.0
  K  K1  1  0.27138527  0.01197211  0.06643588  1.0
  Y  Y2  1  0.77098718  0.48947121  0.45082833  1.0
  Y  Y3  1  0.22901282  -0.01052879  0.54917167  1.0
  Si  Si4  1  0.77605497  0.02725793  0.67209100  1.0
  Si  Si5  1  0.22394503  0.52725793  0.32790900  1.0
  S  S6  1  0.97313656  0.76203176  0.69767409  1.0
  S  S7  1  0.02686344  0.26203176  0.30232591  1.0
  S  S8  1  0.98203196  0.75814307  0.28076629  1.0
  S  S9  1  0.01796804  0.25814307  0.71923371  1.0
  S  S10  1  0.57715376  0.02584329  0.82629527  1.0
  S  S11  1  0.42284624  0.52584329  0.17370473  1.0
  S  S12  1  0.42251492  0.58628062  0.56694306  1.0
  S  S13  1  0.57748508  0.08628062  0.43305694  1.0
