# generated using pymatgen
data_CuNiSbS3
_symmetry_space_group_name_H-M   'P 1'
_cell_length_a   4.92753920
_cell_length_b   7.50898059
_cell_length_c   12.37927840
_cell_angle_alpha   90.00000000
_cell_angle_beta   90.00000000
_cell_angle_gamma   90.00000000
_symmetry_Int_Tables_number   1
_chemical_formula_structural   CuNiSbS3
_chemical_formula_sum   'Cu4 Ni4 Sb4 S12'
_cell_volume   458.04315694
_cell_formula_units_Z   4
loop_
 _symmetry_equiv_pos_site_id
 _symmetry_equiv_pos_as_xyz
  1  'x, y, z'
loop_
 _atom_site_type_symbol
 _atom_site_label
 _atom_site_symmetry_multiplicity
 _atom_site_fract_x
 _atom_site_fract_y
 _atom_site_fract_z
 _atom_site_occupancy
  Cu  Cu0  1  0.52008655  0.62027832  0.93677303  1.0
  Cu  Cu1  1  0.02008655  0.87972168  0.06322697  1.0
  Cu  Cu2  1  0.47991345  0.12027832  0.56322697  1.0
  Cu  Cu3  1  0.97991345  0.37972168  0.43677303  1.0
  Ni  Ni4  1  0.99177010  0.86966432  0.74838556  1.0
  Ni  Ni5  1  0.49177010  0.63033568  0.25161444  1.0
  Ni  Ni6  1  0.00822990  0.36966432  0.75161444  1.0
  Ni  Ni7  1  0.50822990  0.13033568  0.24838556  1.0
  Sb  Sb8  1  0.55332313  0.62645503  0.63310755  1.0
  Sb  Sb9  1  0.05332313  0.87354497  0.36689245  1.0
  Sb  Sb10  1  0.44667687  0.12645503  0.86689245  1.0
  Sb  Sb11  1  0.94667687  0.37354497  0.13310755  1.0
  S  S12  1  0.77650774  0.86941008  0.90686935  1.0
  S  S13  1  0.27650774  0.63058992  0.09313065  1.0
  S  S14  1  0.22349226  0.36941008  0.59313065  1.0
  S  S15  1  0.72349226  0.13058992  0.40686935  1.0
  S  S16  1  0.21851525  0.62228672  0.79490488  1.0
  S  S17  1  0.71851525  0.87771328  0.20509512  1.0
  S  S18  1  0.78148475  0.12228672  0.70509512  1.0
  S  S19  1  0.28148475  0.37771328  0.29490488  1.0
  S  S20  1  0.21703330  0.87377235  0.59102000  1.0
  S  S21  1  0.71703330  0.62622765  0.40898000  1.0
  S  S22  1  0.78296670  0.37377235  0.90898000  1.0
  S  S23  1  0.28296670  0.12622765  0.09102000  1.0
