# generated using pymatgen
data_Zn7H10(SO9)2
_symmetry_space_group_name_H-M   'P 1'
_cell_length_a   5.56661960
_cell_length_b   9.12727664
_cell_length_c   8.08087278
_cell_angle_alpha   67.07295317
_cell_angle_beta   84.49230668
_cell_angle_gamma   85.52680465
_symmetry_Int_Tables_number   1
_chemical_formula_structural   Zn7H10(SO9)2
_chemical_formula_sum   'Zn7 H10 S2 O18'
_cell_volume   376.02385548
_cell_formula_units_Z   1
loop_
 _symmetry_equiv_pos_site_id
 _symmetry_equiv_pos_as_xyz
  1  'x, y, z'
loop_
 _atom_site_type_symbol
 _atom_site_label
 _atom_site_symmetry_multiplicity
 _atom_site_fract_x
 _atom_site_fract_y
 _atom_site_fract_z
 _atom_site_occupancy
  Zn  Zn0  1  -1.00291325  -0.66627979  -0.34087582  1.0
  Zn  Zn1  1  0.00291325  -0.33372021  -0.65912418  1.0
  Zn  Zn2  1  -0.49416136  -0.19205229  -0.81224447  1.0
  Zn  Zn3  1  -0.50583864  -0.80794771  -0.18775553  1.0
  Zn  Zn4  1  -0.46161722  -0.60681804  -0.65215222  1.0
  Zn  Zn5  1  -0.53838278  -0.39318196  -0.34784778  1.0
  Zn  Zn6  1  0.00000000  0.00000000  0.00000000  1.0
  H  H7  1  -0.88702137  -0.59936782  -0.67999577  1.0
  H  H8  1  -0.11297863  -0.40063218  -0.32000423  1.0
  H  H9  1  -0.76513190  -0.24908883  -1.01039951  1.0
  H  H10  1  -0.23486810  -0.75091117  0.01039951  1.0
  H  H11  1  -0.77631279  -0.92880728  -0.34212394  1.0
  H  H12  1  -0.22368721  -0.07119272  -0.65787606  1.0
  H  H13  1  -0.22137451  -0.39970622  -0.89593874  1.0
  H  H14  1  -0.77862549  -0.60029378  -0.10406126  1.0
  H  H15  1  -0.25704742  -0.84810386  -0.44536955  1.0
  H  H16  1  -0.74295258  -0.15189614  -0.55463045  1.0
  S  S17  1  -0.71218852  -0.82499950  -0.77644573  1.0
  S  S18  1  -0.28781148  -0.17500050  -0.22355427  1.0
  O  O19  1  -0.90434917  -0.69735500  -0.84089018  1.0
  O  O20  1  -0.09565083  -0.30264500  -0.15910982  1.0
  O  O21  1  -0.81455187  -0.55841649  -0.60025017  1.0
  O  O22  1  -0.18544813  -0.44158351  -0.39974983  1.0
  O  O23  1  -0.80187738  -0.21041399  -0.91293434  1.0
  O  O24  1  -0.19812262  -0.78958601  -0.08706566  1.0
  O  O25  1  -0.80208167  -0.88351575  -0.24963245  1.0
  O  O26  1  -0.19791833  -0.11648425  -0.75036755  1.0
  O  O27  1  -0.76491568  -0.93839639  -0.59035041  1.0
  O  O28  1  -0.23508432  -0.06160361  -0.40964959  1.0
  O  O29  1  -0.70173810  -0.25573175  -0.56468529  1.0
  O  O30  1  -0.29826190  -0.74426825  -0.43531471  1.0
  O  O31  1  -0.68076837  -0.91577066  -0.90155411  1.0
  O  O32  1  -0.31923163  -0.08422934  -0.09844589  1.0
  O  O33  1  -0.70873026  -0.59192269  -0.22375767  1.0
  O  O34  1  -0.29126974  -0.40807731  -0.77624233  1.0
  O  O35  1  -0.47381113  -0.74693150  -0.79336929  1.0
  O  O36  1  -0.52618887  -0.25306850  -0.20663071  1.0
