# generated using pymatgen
data_H24PtC8(NF3)2
_symmetry_space_group_name_H-M   'P 1'
_cell_length_a   8.21865847
_cell_length_b   8.21865847
_cell_length_c   8.21865847
_cell_angle_alpha   120.05627153
_cell_angle_beta   120.05627153
_cell_angle_gamma   89.90256245
_symmetry_Int_Tables_number   1
_chemical_formula_structural   H24PtC8(NF3)2
_chemical_formula_sum   'H24 Pt1 C8 N2 F6'
_cell_volume   392.20902110
_cell_formula_units_Z   1
loop_
 _symmetry_equiv_pos_site_id
 _symmetry_equiv_pos_as_xyz
  1  'x, y, z'
loop_
 _atom_site_type_symbol
 _atom_site_label
 _atom_site_symmetry_multiplicity
 _atom_site_fract_x
 _atom_site_fract_y
 _atom_site_fract_z
 _atom_site_occupancy
  H  H0  1  0.73416455  1.48822987  0.75946999  1.0
  H  H1  1  0.72875988  0.97469456  1.24053001  1.0
  H  H2  1  0.48822987  0.72875988  0.75406533  1.0
  H  H3  1  0.97469456  0.73416455  0.24593467  1.0
  H  H4  1  1.26583545  1.51177013  1.24053001  1.0
  H  H5  1  0.27124012  1.02530544  0.75946999  1.0
  H  H6  1  0.51177013  0.27124012  0.24593467  1.0
  H  H7  1  1.02530544  1.26583545  0.75406533  1.0
  H  H8  1  1.51367922  1.26994656  1.54002738  1.0
  H  H9  1  0.72991918  0.97365183  1.45997262  1.0
  H  H10  1  0.26994656  0.72991918  0.75626735  1.0
  H  H11  1  0.97365183  1.51367922  1.24373265  1.0
  H  H12  1  1.48632078  1.73005344  1.45997262  1.0
  H  H13  1  1.27008082  1.02634817  1.54002738  1.0
  H  H14  1  0.73005344  1.27008082  1.24373265  1.0
  H  H15  1  1.02634817  1.48632078  0.75626735  1.0
  H  H16  1  0.73329952  1.26776685  0.75738141  1.0
  H  H17  1  0.51038544  0.97591811  1.24261859  1.0
  H  H18  1  0.26776685  0.51038544  0.53446733  1.0
  H  H19  1  0.97591811  0.73329952  0.46553267  1.0
  H  H20  1  1.26670048  1.73223315  1.24261859  1.0
  H  H21  1  0.48961456  1.02408189  0.75738141  1.0
  H  H22  1  0.73223315  0.48961456  0.46553267  1.0
  H  H23  1  1.02408189  1.26670048  0.53446733  1.0
  Pt  Pt24  1  0.00000000  0.00000000  0.00000000  1.0
  C  C25  1  0.67716713  0.32477230  0.65094225  1.0
  C  C26  1  0.67383006  1.02622489  1.34905775  1.0
  C  C27  1  0.32477230  0.67383006  0.64760517  1.0
  C  C28  1  1.02622489  0.67716713  1.35239483  1.0
  C  C29  1  1.32283287  0.67522770  1.34905775  1.0
  C  C30  1  0.32616994  0.97377511  0.65094225  1.0
  C  C31  1  0.67522770  0.32616994  0.35239483  1.0
  C  C32  1  0.97377511  1.32283287  1.64760517  1.0
  N  N33  1  0.75000000  0.25000000  0.50000000  1.0
  N  N34  1  0.25000000  0.75000000  0.50000000  1.0
  F  F35  1  0.16967565  0.16967565  -0.00000000  1.0
  F  F36  1  0.83032435  0.83032435  0.00000000  1.0
  F  F37  1  1.17199219  1.16792368  1.33991587  1.0
  F  F38  1  0.82800781  0.83207632  1.66008413  1.0
  F  F39  1  0.16792368  0.82800781  0.99593149  1.0
  F  F40  1  0.83207632  1.17199219  1.00406851  1.0
