# generated using pymatgen
data_K3Mg2Cl7
_symmetry_space_group_name_H-M   'P 1'
_cell_length_a   13.31220402
_cell_length_b   13.31220402
_cell_length_c   13.31220402
_cell_angle_alpha   158.27985980
_cell_angle_beta   158.27985980
_cell_angle_gamma   30.90667334
_symmetry_Int_Tables_number   1
_chemical_formula_structural   K3Mg2Cl7
_chemical_formula_sum   'K3 Mg2 Cl7'
_cell_volume   322.87255688
_cell_formula_units_Z   1
loop_
 _symmetry_equiv_pos_site_id
 _symmetry_equiv_pos_as_xyz
  1  'x, y, z'
loop_
 _atom_site_type_symbol
 _atom_site_label
 _atom_site_symmetry_multiplicity
 _atom_site_fract_x
 _atom_site_fract_y
 _atom_site_fract_z
 _atom_site_occupancy
  K  K0  1  0.68221427  0.68221427  1.00000000  1.0
  K  K1  1  0.31778573  0.31778573  0.00000000  1.0
  K  K2  1  0.50000000  0.50000000  1.00000000  1.0
  Mg  Mg3  1  0.90060987  0.90060987  1.00000000  1.0
  Mg  Mg4  1  0.09939013  0.09939013  0.00000000  1.0
  Cl  Cl5  1  0.40382693  0.90382693  0.50000000  1.0
  Cl  Cl6  1  0.59617307  0.09617307  0.50000000  1.0
  Cl  Cl7  1  0.90382693  0.40382693  0.50000000  1.0
  Cl  Cl8  1  0.09617307  0.59617307  0.50000000  1.0
  Cl  Cl9  1  0.80443491  0.80443491  1.00000000  1.0
  Cl  Cl10  1  0.19556509  0.19556509  0.00000000  1.0
  Cl  Cl11  1  0.00000000  0.00000000  0.00000000  1.0
