# generated using pymatgen
data_MgNi2
_symmetry_space_group_name_H-M   'P 1'
_cell_length_a   5.45435498
_cell_length_b   5.45435532
_cell_length_c   2.76520714
_cell_angle_alpha   75.31609144
_cell_angle_beta   75.31610488
_cell_angle_gamma   29.36780369
_symmetry_Int_Tables_number   1
_chemical_formula_structural   MgNi2
_chemical_formula_sum   'Mg1 Ni2'
_cell_volume   38.93407304
_cell_formula_units_Z   1
loop_
 _symmetry_equiv_pos_site_id
 _symmetry_equiv_pos_as_xyz
  1  'x, y, z'
loop_
 _atom_site_type_symbol
 _atom_site_label
 _atom_site_symmetry_multiplicity
 _atom_site_fract_x
 _atom_site_fract_y
 _atom_site_fract_z
 _atom_site_occupancy
  Mg  Mg0  1  0.00000000  -0.00000000  0.00000000  1.0
  Ni  Ni1  1  -0.32089374  0.67910626  0.32089374  1.0
  Ni  Ni2  1  0.32089374  0.32089374  -0.32089374  1.0
