# generated using pymatgen
data_Lu2NiSn6
_symmetry_space_group_name_H-M   'P 1'
_cell_length_a   11.41946581
_cell_length_b   11.41946581
_cell_length_c   4.40877023
_cell_angle_alpha   90.00000000
_cell_angle_beta   90.00000000
_cell_angle_gamma   158.02123472
_symmetry_Int_Tables_number   1
_chemical_formula_structural   Lu2NiSn6
_chemical_formula_sum   'Lu2 Ni1 Sn6'
_cell_volume   215.17205417
_cell_formula_units_Z   1
loop_
 _symmetry_equiv_pos_site_id
 _symmetry_equiv_pos_as_xyz
  1  'x, y, z'
loop_
 _atom_site_type_symbol
 _atom_site_label
 _atom_site_symmetry_multiplicity
 _atom_site_fract_x
 _atom_site_fract_y
 _atom_site_fract_z
 _atom_site_occupancy
  Lu  Lu0  1  -0.67883566  0.67883566  0.50000000  1.0
  Lu  Lu1  1  -0.32116434  1.32116434  0.50000000  1.0
  Ni  Ni2  1  0.00000000  0.00000000  0.00000000  1.0
  Sn  Sn3  1  -0.92944645  0.92944645  0.50000000  1.0
  Sn  Sn4  1  -0.07055355  1.07055355  0.50000000  1.0
  Sn  Sn5  1  -0.79607702  0.79607702  0.00000000  1.0
  Sn  Sn6  1  -0.20392298  1.20392298  0.00000000  1.0
  Sn  Sn7  1  -0.57155322  0.57155322  0.00000000  1.0
  Sn  Sn8  1  -0.42844678  1.42844678  0.00000000  1.0
