# generated using pymatgen
data_EuMgPd
_symmetry_space_group_name_H-M   'P 1'
_cell_length_a   7.46705112
_cell_length_b   4.34750926
_cell_length_c   8.65554027
_cell_angle_alpha   90.00000000
_cell_angle_beta   90.00000000
_cell_angle_gamma   90.00000000
_symmetry_Int_Tables_number   1
_chemical_formula_structural   EuMgPd
_chemical_formula_sum   'Eu4 Mg4 Pd4'
_cell_volume   280.98544386
_cell_formula_units_Z   4
loop_
 _symmetry_equiv_pos_site_id
 _symmetry_equiv_pos_as_xyz
  1  'x, y, z'
loop_
 _atom_site_type_symbol
 _atom_site_label
 _atom_site_symmetry_multiplicity
 _atom_site_fract_x
 _atom_site_fract_y
 _atom_site_fract_z
 _atom_site_occupancy
  Eu  Eu0  1  0.96658219  0.75000000  0.67609699  1.0
  Eu  Eu1  1  0.46658219  0.75000000  0.82390301  1.0
  Eu  Eu2  1  0.03341781  0.25000000  0.32390301  1.0
  Eu  Eu3  1  0.53341781  0.25000000  0.17609699  1.0
  Mg  Mg4  1  0.86320212  0.75000000  0.06024891  1.0
  Mg  Mg5  1  0.36320212  0.75000000  0.43975109  1.0
  Mg  Mg6  1  0.13679788  0.25000000  0.93975109  1.0
  Mg  Mg7  1  0.63679788  0.25000000  0.56024891  1.0
  Pd  Pd8  1  0.73143089  0.75000000  0.37449337  1.0
  Pd  Pd9  1  0.23143089  0.75000000  0.12550663  1.0
  Pd  Pd10  1  0.26856911  0.25000000  0.62550663  1.0
  Pd  Pd11  1  0.76856911  0.25000000  0.87449337  1.0
