# generated using pymatgen
data_ZrTi(PbO3)2
_symmetry_space_group_name_H-M   'P 1'
_cell_length_a   3.99419510
_cell_length_b   3.99419510
_cell_length_c   8.96866865
_cell_angle_alpha   90.00000000
_cell_angle_beta   90.00000000
_cell_angle_gamma   90.00000000
_symmetry_Int_Tables_number   1
_chemical_formula_structural   ZrTi(PbO3)2
_chemical_formula_sum   'Zr1 Ti1 Pb2 O6'
_cell_volume   143.08250263
_cell_formula_units_Z   1
loop_
 _symmetry_equiv_pos_site_id
 _symmetry_equiv_pos_as_xyz
  1  'x, y, z'
loop_
 _atom_site_type_symbol
 _atom_site_label
 _atom_site_symmetry_multiplicity
 _atom_site_fract_x
 _atom_site_fract_y
 _atom_site_fract_z
 _atom_site_occupancy
  Zr  Zr0  1  0.50000000  0.50000000  0.74713409  1.0
  Ti  Ti1  1  0.50000000  0.50000000  0.25266224  1.0
  Pb  Pb2  1  0.00000000  0.00000000  -0.01300930  1.0
  Pb  Pb3  1  0.00000000  0.00000000  0.45912919  1.0
  O  O4  1  0.00000000  0.50000000  0.28981892  1.0
  O  O5  1  0.50000000  0.00000000  0.28981892  1.0
  O  O6  1  0.50000000  0.50000000  0.05733594  1.0
  O  O7  1  0.00000000  0.50000000  0.81057890  1.0
  O  O8  1  0.50000000  0.00000000  0.81057890  1.0
  O  O9  1  0.50000000  0.50000000  0.53065220  1.0
