# generated using pymatgen
data_Mg2SiO4
_symmetry_space_group_name_H-M   'P 1'
_cell_length_a   5.90029995
_cell_length_b   5.90029995
_cell_length_c   5.90029995
_cell_angle_alpha   145.48306584
_cell_angle_beta   145.48306584
_cell_angle_gamma   49.61522670
_symmetry_Int_Tables_number   1
_chemical_formula_structural   Mg2SiO4
_chemical_formula_sum   'Mg2 Si1 O4'
_cell_volume   65.64769042
_cell_formula_units_Z   1
loop_
 _symmetry_equiv_pos_site_id
 _symmetry_equiv_pos_as_xyz
  1  'x, y, z'
loop_
 _atom_site_type_symbol
 _atom_site_label
 _atom_site_symmetry_multiplicity
 _atom_site_fract_x
 _atom_site_fract_y
 _atom_site_fract_z
 _atom_site_occupancy
  Mg  Mg0  1  0.65012814  0.65012814  1.00000000  1.0
  Mg  Mg1  1  0.34987186  0.34987186  0.00000000  1.0
  Si  Si2  1  0.00000000  0.00000000  0.00000000  1.0
  O  O3  1  0.00000000  0.50000000  0.50000000  1.0
  O  O4  1  0.50000000  0.00000000  0.50000000  1.0
  O  O5  1  0.83283098  0.83283098  1.00000000  1.0
  O  O6  1  0.16716902  0.16716902  -0.00000000  1.0
