# generated using pymatgen
data_KCuMoO5
_symmetry_space_group_name_H-M   'P 1'
_cell_length_a   8.85967668
_cell_length_b   6.61973606
_cell_length_c   8.77236686
_cell_angle_alpha   90.00000000
_cell_angle_beta   90.00000000
_cell_angle_gamma   90.00000000
_symmetry_Int_Tables_number   1
_chemical_formula_structural   KCuMoO5
_chemical_formula_sum   'K4 Cu4 Mo4 O20'
_cell_volume   514.48809818
_cell_formula_units_Z   4
loop_
 _symmetry_equiv_pos_site_id
 _symmetry_equiv_pos_as_xyz
  1  'x, y, z'
loop_
 _atom_site_type_symbol
 _atom_site_label
 _atom_site_symmetry_multiplicity
 _atom_site_fract_x
 _atom_site_fract_y
 _atom_site_fract_z
 _atom_site_occupancy
  O  O0  1  0.93176041  1.02011326  0.19717447  1.0
  O  O1  1  0.93176041  0.47988674  0.19717447  1.0
  O  O2  1  0.43176041  1.02011326  0.30282553  1.0
  O  O3  1  0.43176041  0.47988674  0.30282553  1.0
  O  O4  1  0.06823959  0.52011326  0.80282553  1.0
  O  O5  1  0.06823959  -0.02011326  0.80282553  1.0
  O  O6  1  0.56823959  0.52011326  0.69717447  1.0
  O  O7  1  0.56823959  -0.02011326  0.69717447  1.0
  O  O8  1  0.72630385  0.75000000  0.35212744  1.0
  O  O9  1  0.22630385  0.75000000  0.14787256  1.0
  O  O10  1  0.27369615  0.25000000  0.64787256  1.0
  O  O11  1  0.77369615  0.25000000  0.85212744  1.0
  O  O12  1  0.52809913  0.75000000  0.07785619  1.0
  O  O13  1  0.02809913  0.75000000  0.42214381  1.0
  O  O14  1  0.47190087  0.25000000  0.92214381  1.0
  O  O15  1  0.97190087  0.25000000  0.57785619  1.0
  O  O16  1  0.40791101  0.75000000  0.48368400  1.0
  O  O17  1  0.90791101  0.75000000  1.01631600  1.0
  O  O18  1  0.59208899  0.25000000  0.51631600  1.0
  O  O19  1  0.09208899  0.25000000  -0.01631600  1.0
  Mo  Mo20  1  0.90544879  0.75000000  0.26839843  1.0
  Mo  Mo21  1  0.40544879  0.75000000  0.23160157  1.0
  Mo  Mo22  1  0.09455121  0.25000000  0.73160157  1.0
  Mo  Mo23  1  0.59455121  0.25000000  0.76839843  1.0
  Cu  Cu24  1  0.00000000  0.00000000  0.00000000  1.0
  Cu  Cu25  1  0.00000000  0.50000000  0.00000000  1.0
  Cu  Cu26  1  0.50000000  0.00000000  0.50000000  1.0
  Cu  Cu27  1  0.50000000  0.50000000  0.50000000  1.0
  K  K28  1  0.83962334  0.75000000  0.67576329  1.0
  K  K29  1  0.33962334  0.75000000  0.82423671  1.0
  K  K30  1  0.16037666  0.25000000  0.32423671  1.0
  K  K31  1  0.66037666  0.25000000  0.17576329  1.0
