# generated using pymatgen
data_KBaPO4
_symmetry_space_group_name_H-M   'P 1'
_cell_length_a   7.80848051
_cell_length_b   5.73197732
_cell_length_c   10.13739859
_cell_angle_alpha   90.00000000
_cell_angle_beta   90.00000000
_cell_angle_gamma   90.00000000
_symmetry_Int_Tables_number   1
_chemical_formula_structural   KBaPO4
_chemical_formula_sum   'K4 Ba4 P4 O16'
_cell_volume   453.73002286
_cell_formula_units_Z   4
loop_
 _symmetry_equiv_pos_site_id
 _symmetry_equiv_pos_as_xyz
  1  'x, y, z'
loop_
 _atom_site_type_symbol
 _atom_site_label
 _atom_site_symmetry_multiplicity
 _atom_site_fract_x
 _atom_site_fract_y
 _atom_site_fract_z
 _atom_site_occupancy
  K  K0  1  0.83818179  0.75000000  0.41808006  1.0
  K  K1  1  0.33818179  0.75000000  0.08191994  1.0
  K  K2  1  0.16181821  0.25000000  0.58191994  1.0
  K  K3  1  0.66181821  0.25000000  0.91808006  1.0
  Ba  Ba4  1  0.50499682  0.75000000  0.69368472  1.0
  Ba  Ba5  1  0.00499682  0.75000000  0.80631528  1.0
  Ba  Ba6  1  0.49500318  0.25000000  0.30631528  1.0
  Ba  Ba7  1  -0.00499682  0.25000000  0.19368472  1.0
  P  P8  1  0.76662114  0.75000000  0.08346879  1.0
  P  P9  1  0.26662114  0.75000000  0.41653121  1.0
  P  P10  1  0.23337886  0.25000000  0.91653121  1.0
  P  P11  1  0.73337886  0.25000000  0.58346879  1.0
  O  O12  1  0.70216456  0.97412636  0.15598275  1.0
  O  O13  1  0.70216456  0.52587364  0.15598275  1.0
  O  O14  1  0.20216456  0.97412636  0.34401725  1.0
  O  O15  1  0.20216456  0.52587364  0.34401725  1.0
  O  O16  1  0.29783544  0.47412636  0.84401725  1.0
  O  O17  1  0.29783544  0.02587364  0.84401725  1.0
  O  O18  1  0.79783544  0.47412636  0.65598275  1.0
  O  O19  1  0.79783544  0.02587364  0.65598275  1.0
  O  O20  1  0.96720940  0.75000000  0.08175125  1.0
  O  O21  1  0.46720940  0.75000000  0.41824875  1.0
  O  O22  1  0.03279060  0.25000000  0.91824875  1.0
  O  O23  1  0.53279060  0.25000000  0.58175125  1.0
  O  O24  1  0.19649731  0.75000000  0.56188474  1.0
  O  O25  1  0.69649731  0.75000000  0.93811526  1.0
  O  O26  1  0.80350269  0.25000000  0.43811526  1.0
  O  O27  1  0.30350269  0.25000000  0.06188474  1.0
