# generated using pymatgen
data_SbS4N4Cl5
_symmetry_space_group_name_H-M   'P 1'
_cell_length_a   7.57375930
_cell_length_b   13.19922115
_cell_length_c   16.13482543
_cell_angle_alpha   90.00000000
_cell_angle_beta   107.84341463
_cell_angle_gamma   90.00000000
_symmetry_Int_Tables_number   1
_chemical_formula_structural   SbS4N4Cl5
_chemical_formula_sum   'Sb4 S16 N16 Cl20'
_cell_volume   1535.37425596
_cell_formula_units_Z   4
loop_
 _symmetry_equiv_pos_site_id
 _symmetry_equiv_pos_as_xyz
  1  'x, y, z'
loop_
 _atom_site_type_symbol
 _atom_site_label
 _atom_site_symmetry_multiplicity
 _atom_site_fract_x
 _atom_site_fract_y
 _atom_site_fract_z
 _atom_site_occupancy
  Sb  Sb0  1  0.82710915  0.28089695  0.40362961  1.0
  Sb  Sb1  1  0.82710915  0.21910305  0.90362961  1.0
  Sb  Sb2  1  0.17289085  0.78089695  0.09637039  1.0
  Sb  Sb3  1  0.17289085  0.71910305  0.59637039  1.0
  S  S4  1  0.85179404  0.99380280  0.80187353  1.0
  S  S5  1  0.85179404  0.50619720  0.30187353  1.0
  S  S6  1  0.14820596  0.49380280  0.69812647  1.0
  S  S7  1  0.14820596  0.00619720  0.19812647  1.0
  S  S8  1  0.69402692  0.91265951  0.31019167  1.0
  S  S9  1  0.69402692  0.58734049  0.81019167  1.0
  S  S10  1  0.30597308  0.41265951  0.18980833  1.0
  S  S11  1  0.30597308  0.08734049  0.68980833  1.0
  S  S12  1  0.63736809  0.42932952  0.12612147  1.0
  S  S13  1  0.63736809  0.07067048  0.62612147  1.0
  S  S14  1  0.36263191  0.92932952  0.37387853  1.0
  S  S15  1  0.36263191  0.57067048  0.87387853  1.0
  S  S16  1  0.45775849  -0.01051632  0.13825701  1.0
  S  S17  1  0.45775849  0.51051632  0.63825701  1.0
  S  S18  1  0.54224151  0.48948368  0.36174299  1.0
  S  S19  1  0.54224151  1.01051632  0.86174299  1.0
  N  N20  1  0.78721145  0.48858307  0.19877594  1.0
  N  N21  1  0.78721145  0.01141693  0.69877594  1.0
  N  N22  1  0.21278855  0.98858307  0.30122406  1.0
  N  N23  1  0.21278855  0.51141693  0.80122406  1.0
  N  N24  1  0.73113568  0.43425264  0.35015752  1.0
  N  N25  1  0.73113568  0.06574736  0.85015752  1.0
  N  N26  1  0.26886432  0.93425264  0.14984248  1.0
  N  N27  1  0.26886432  0.56574736  0.64984248  1.0
  N  N28  1  0.63722399  0.96624035  0.21911809  1.0
  N  N29  1  0.63722399  0.53375965  0.71911809  1.0
  N  N30  1  0.36277601  0.46624035  0.28088191  1.0
  N  N31  1  0.36277601  0.03375965  0.78088191  1.0
  N  N32  1  0.46056180  0.38224601  0.14584994  1.0
  N  N33  1  0.46056180  0.11775399  0.64584994  1.0
  N  N34  1  0.53943820  0.88224601  0.35415006  1.0
  N  N35  1  0.53943820  0.61775399  0.85415006  1.0
  Cl  Cl36  1  0.93296172  0.11870328  0.46541811  1.0
  Cl  Cl37  1  0.93296172  0.38129672  0.96541811  1.0
  Cl  Cl38  1  0.06703828  0.61870328  0.03458189  1.0
  Cl  Cl39  1  0.06703828  0.88129672  0.53458189  1.0
  Cl  Cl40  1  0.89631607  0.24285443  0.27011581  1.0
  Cl  Cl41  1  0.89631607  0.25714557  0.77011581  1.0
  Cl  Cl42  1  0.10368393  0.74285443  0.22988419  1.0
  Cl  Cl43  1  0.10368393  0.75714557  0.72988419  1.0
  Cl  Cl44  1  0.86893239  0.85532212  0.03759614  1.0
  Cl  Cl45  1  0.86893239  0.64467788  0.53759614  1.0
  Cl  Cl46  1  0.13106761  0.35532212  0.46240386  1.0
  Cl  Cl47  1  0.13106761  0.14467788  0.96240386  1.0
  Cl  Cl48  1  0.74558118  0.16730070  0.03116605  1.0
  Cl  Cl49  1  0.74558118  0.33269930  0.53116605  1.0
  Cl  Cl50  1  0.25441882  0.66730070  0.46883395  1.0
  Cl  Cl51  1  0.25441882  0.83269930  0.96883395  1.0
  Cl  Cl52  1  0.51306237  0.21870869  0.33966492  1.0
  Cl  Cl53  1  0.51306237  0.28129131  0.83966492  1.0
  Cl  Cl54  1  0.48693763  0.71870869  0.16033508  1.0
  Cl  Cl55  1  0.48693763  0.78129131  0.66033508  1.0
