# generated using pymatgen
data_Y2Sn5
_symmetry_space_group_name_H-M   'P 1'
_cell_length_a   4.38228876
_cell_length_b   4.44999574
_cell_length_c   19.25449807
_cell_angle_alpha   90.00000000
_cell_angle_beta   90.00000000
_cell_angle_gamma   90.00000000
_symmetry_Int_Tables_number   1
_chemical_formula_structural   Y2Sn5
_chemical_formula_sum   'Y4 Sn10'
_cell_volume   375.48516874
_cell_formula_units_Z   2
loop_
 _symmetry_equiv_pos_site_id
 _symmetry_equiv_pos_as_xyz
  1  'x, y, z'
loop_
 _atom_site_type_symbol
 _atom_site_label
 _atom_site_symmetry_multiplicity
 _atom_site_fract_x
 _atom_site_fract_y
 _atom_site_fract_z
 _atom_site_occupancy
  Y  Y0  1  0.00000000  0.00000000  0.12879598  1.0
  Y  Y1  1  0.50000000  0.50000000  0.87120402  1.0
  Y  Y2  1  0.00000000  0.50000000  0.69976185  1.0
  Y  Y3  1  0.50000000  0.00000000  0.30023815  1.0
  Sn  Sn4  1  0.00000000  0.50000000  0.00085517  1.0
  Sn  Sn5  1  0.50000000  0.00000000  0.99914483  1.0
  Sn  Sn6  1  0.00000000  0.00000000  0.42450480  1.0
  Sn  Sn7  1  0.50000000  0.50000000  0.57549520  1.0
  Sn  Sn8  1  0.00000000  0.50000000  0.26462521  1.0
  Sn  Sn9  1  0.50000000  0.00000000  0.73537479  1.0
  Sn  Sn10  1  0.00000000  0.00000000  0.57679856  1.0
  Sn  Sn11  1  0.50000000  0.50000000  0.42320144  1.0
  Sn  Sn12  1  0.00000000  0.00000000  0.84301998  1.0
  Sn  Sn13  1  0.50000000  0.50000000  0.15698002  1.0
