# generated using pymatgen
data_NbPRu
_symmetry_space_group_name_H-M   'P 1'
_cell_length_a   6.35475729
_cell_length_b   3.73704187
_cell_length_c   7.20023392
_cell_angle_alpha   90.00000000
_cell_angle_beta   90.00000000
_cell_angle_gamma   90.00000000
_symmetry_Int_Tables_number   1
_chemical_formula_structural   NbPRu
_chemical_formula_sum   'Nb4 P4 Ru4'
_cell_volume   170.99111201
_cell_formula_units_Z   4
loop_
 _symmetry_equiv_pos_site_id
 _symmetry_equiv_pos_as_xyz
  1  'x, y, z'
loop_
 _atom_site_type_symbol
 _atom_site_label
 _atom_site_symmetry_multiplicity
 _atom_site_fract_x
 _atom_site_fract_y
 _atom_site_fract_z
 _atom_site_occupancy
  Nb  Nb0  1  0.97542442  0.75000000  0.67239325  1.0
  Nb  Nb1  1  0.47542442  0.75000000  0.82760675  1.0
  Nb  Nb2  1  0.02457558  0.25000000  0.32760675  1.0
  Nb  Nb3  1  0.52457558  0.25000000  0.17239325  1.0
  P  P4  1  0.73092816  0.75000000  0.37575602  1.0
  P  P5  1  0.23092816  0.75000000  0.12424398  1.0
  P  P6  1  0.26907184  0.25000000  0.62424398  1.0
  P  P7  1  0.76907184  0.25000000  0.87575602  1.0
  Ru  Ru8  1  0.85485154  0.75000000  0.06212884  1.0
  Ru  Ru9  1  0.35485154  0.75000000  0.43787116  1.0
  Ru  Ru10  1  0.14514846  0.25000000  0.93787116  1.0
  Ru  Ru11  1  0.64514846  0.25000000  0.56212884  1.0
