# generated using pymatgen
data_HfCrP
_symmetry_space_group_name_H-M   'P 1'
_cell_length_a   6.36227574
_cell_length_b   3.62630057
_cell_length_c   7.54734940
_cell_angle_alpha   90.00000000
_cell_angle_beta   90.00000000
_cell_angle_gamma   90.00000000
_symmetry_Int_Tables_number   1
_chemical_formula_structural   HfCrP
_chemical_formula_sum   'Hf4 Cr4 P4'
_cell_volume   174.12885380
_cell_formula_units_Z   4
loop_
 _symmetry_equiv_pos_site_id
 _symmetry_equiv_pos_as_xyz
  1  'x, y, z'
loop_
 _atom_site_type_symbol
 _atom_site_label
 _atom_site_symmetry_multiplicity
 _atom_site_fract_x
 _atom_site_fract_y
 _atom_site_fract_z
 _atom_site_occupancy
  Hf  Hf0  1  0.96795276  0.75000000  0.67409919  1.0
  Hf  Hf1  1  0.46795276  0.75000000  0.82590081  1.0
  Hf  Hf2  1  0.03204724  0.25000000  0.32590081  1.0
  Hf  Hf3  1  0.53204724  0.25000000  0.17409919  1.0
  Cr  Cr4  1  0.85951576  0.75000000  0.05929067  1.0
  Cr  Cr5  1  0.35951576  0.75000000  0.44070933  1.0
  Cr  Cr6  1  0.14048424  0.25000000  0.94070933  1.0
  Cr  Cr7  1  0.64048424  0.25000000  0.55929067  1.0
  P  P8  1  0.72855746  0.75000000  0.36807960  1.0
  P  P9  1  0.22855746  0.75000000  0.13192040  1.0
  P  P10  1  0.27144254  0.25000000  0.63192040  1.0
  P  P11  1  0.77144254  0.25000000  0.86807960  1.0
