# generated using pymatgen
data_TlCuS2
_symmetry_space_group_name_H-M   'P 1'
_cell_length_a   6.96680047
_cell_length_b   6.96680047
_cell_length_c   6.96680047
_cell_angle_alpha   131.83378350
_cell_angle_beta   131.83378350
_cell_angle_gamma   70.49167479
_symmetry_Int_Tables_number   1
_chemical_formula_structural   TlCuS2
_chemical_formula_sum   'Tl2 Cu2 S4'
_cell_volume   183.93515807
_cell_formula_units_Z   2
loop_
 _symmetry_equiv_pos_site_id
 _symmetry_equiv_pos_as_xyz
  1  'x, y, z'
loop_
 _atom_site_type_symbol
 _atom_site_label
 _atom_site_symmetry_multiplicity
 _atom_site_fract_x
 _atom_site_fract_y
 _atom_site_fract_z
 _atom_site_occupancy
  Tl  Tl0  1  0.75000000  0.25000000  0.50000000  1.0
  Tl  Tl1  1  1.00000000  1.00000000  1.00000000  1.0
  Cu  Cu2  1  0.25000000  0.75000000  0.50000000  1.0
  Cu  Cu3  1  0.50000000  0.50000000  0.00000000  1.0
  S  S4  1  1.17372012  1.12500000  1.54872012  1.0
  S  S5  1  1.37500000  0.82627988  0.95127988  1.0
  S  S6  1  0.87500000  1.42372012  1.04872012  1.0
  S  S7  1  0.57627988  0.62500000  0.45127988  1.0
