# generated using pymatgen
data_BaBClF4
_symmetry_space_group_name_H-M   'P 1'
_cell_length_a   5.30603471
_cell_length_b   9.46717280
_cell_length_c   4.84390662
_cell_angle_alpha   90.00000000
_cell_angle_beta   90.00000000
_cell_angle_gamma   90.00000000
_symmetry_Int_Tables_number   1
_chemical_formula_structural   BaBClF4
_chemical_formula_sum   'Ba2 B2 Cl2 F8'
_cell_volume   243.32467560
_cell_formula_units_Z   2
loop_
 _symmetry_equiv_pos_site_id
 _symmetry_equiv_pos_as_xyz
  1  'x, y, z'
loop_
 _atom_site_type_symbol
 _atom_site_label
 _atom_site_symmetry_multiplicity
 _atom_site_fract_x
 _atom_site_fract_y
 _atom_site_fract_z
 _atom_site_occupancy
  Ba  Ba0  1  0.50000000  0.20055369  0.97832857  1.0
  Ba  Ba1  1  0.00000000  0.79944631  0.47832857  1.0
  B  B2  1  0.50000000  0.63292098  0.90738099  1.0
  B  B3  1  0.00000000  0.36707902  0.40738099  1.0
  Cl  Cl4  1  0.50000000  0.98293376  0.47854666  1.0
  Cl  Cl5  1  0.00000000  0.01706624  -0.02145334  1.0
  F  F6  1  0.28009443  0.70111293  1.01115353  1.0
  F  F7  1  0.78009443  0.29888707  0.51115353  1.0
  F  F8  1  0.71990557  0.70111293  1.01115353  1.0
  F  F9  1  0.21990557  0.29888707  0.51115353  1.0
  F  F10  1  0.50000000  0.64770446  0.61662067  1.0
  F  F11  1  0.00000000  0.35229554  0.11662067  1.0
  F  F12  1  0.50000000  0.49017425  0.98521606  1.0
  F  F13  1  0.00000000  0.50982575  0.48521606  1.0
