# generated using pymatgen
data_K2ZnCl4
_symmetry_space_group_name_H-M   'P 1'
_cell_length_a   9.01318358
_cell_length_b   7.32044165
_cell_length_c   12.97696399
_cell_angle_alpha   90.00000000
_cell_angle_beta   90.00000000
_cell_angle_gamma   90.00000000
_symmetry_Int_Tables_number   1
_chemical_formula_structural   K2ZnCl4
_chemical_formula_sum   'K8 Zn4 Cl16'
_cell_volume   856.22637089
_cell_formula_units_Z   4
loop_
 _symmetry_equiv_pos_site_id
 _symmetry_equiv_pos_as_xyz
  1  'x, y, z'
loop_
 _atom_site_type_symbol
 _atom_site_label
 _atom_site_symmetry_multiplicity
 _atom_site_fract_x
 _atom_site_fract_y
 _atom_site_fract_z
 _atom_site_occupancy
  K  K0  1  0.88179012  0.75000000  0.44051943  1.0
  K  K1  1  0.38179012  0.75000000  0.05948057  1.0
  K  K2  1  0.11820988  0.25000000  0.55948057  1.0
  K  K3  1  0.61820988  0.25000000  0.94051943  1.0
  K  K4  1  0.52048170  0.75000000  0.68154997  1.0
  K  K5  1  0.02048170  0.75000000  0.81845003  1.0
  K  K6  1  0.47951830  0.25000000  0.31845003  1.0
  K  K7  1  0.97951830  0.25000000  0.18154997  1.0
  Zn  Zn8  1  0.78338019  0.75000000  0.07201257  1.0
  Zn  Zn9  1  0.28338019  0.75000000  0.42798743  1.0
  Zn  Zn10  1  0.21661981  0.25000000  0.92798743  1.0
  Zn  Zn11  1  0.71661981  0.25000000  0.57201257  1.0
  Cl  Cl12  1  0.67840329  1.00155701  0.14730360  1.0
  Cl  Cl13  1  0.67840329  0.49844299  0.14730360  1.0
  Cl  Cl14  1  0.17840329  1.00155701  0.35269640  1.0
  Cl  Cl15  1  0.17840329  0.49844299  0.35269640  1.0
  Cl  Cl16  1  0.32159671  0.50155701  0.85269640  1.0
  Cl  Cl17  1  0.32159671  -0.00155701  0.85269640  1.0
  Cl  Cl18  1  0.82159671  0.50155701  0.64730360  1.0
  Cl  Cl19  1  0.82159671  -0.00155701  0.64730360  1.0
  Cl  Cl20  1  0.03330604  0.75000000  0.07516744  1.0
  Cl  Cl21  1  0.53330604  0.75000000  0.42483256  1.0
  Cl  Cl22  1  0.96669396  0.25000000  0.92483256  1.0
  Cl  Cl23  1  0.46669396  0.25000000  0.57516744  1.0
  Cl  Cl24  1  0.19122482  0.75000000  0.59405093  1.0
  Cl  Cl25  1  0.69122482  0.75000000  0.90594907  1.0
  Cl  Cl26  1  0.80877518  0.25000000  0.40594907  1.0
  Cl  Cl27  1  0.30877518  0.25000000  0.09405093  1.0
