# generated using pymatgen
data_Lu2MgS4
_symmetry_space_group_name_H-M   'P 1'
_cell_length_a   7.77759296
_cell_length_b   7.77759296
_cell_length_c   7.77759296
_cell_angle_alpha   60.00000000
_cell_angle_beta   60.00000000
_cell_angle_gamma   60.00000000
_symmetry_Int_Tables_number   1
_chemical_formula_structural   Lu2MgS4
_chemical_formula_sum   'Lu4 Mg2 S8'
_cell_volume   332.67535860
_cell_formula_units_Z   2
loop_
 _symmetry_equiv_pos_site_id
 _symmetry_equiv_pos_as_xyz
  1  'x, y, z'
loop_
 _atom_site_type_symbol
 _atom_site_label
 _atom_site_symmetry_multiplicity
 _atom_site_fract_x
 _atom_site_fract_y
 _atom_site_fract_z
 _atom_site_occupancy
  Lu  Lu0  1  0.12500000  0.12500000  1.62500000  1.0
  Lu  Lu1  1  0.12500000  0.62500000  0.12500000  1.0
  Lu  Lu2  1  0.62500000  0.12500000  1.12500000  1.0
  Lu  Lu3  1  0.12500000  0.12500000  0.12500000  1.0
  Mg  Mg4  1  0.75000000  -0.25000000  0.75000000  1.0
  Mg  Mg5  1  0.50000000  0.50000000  -0.50000000  1.0
  S  S6  1  0.36932717  0.36932717  -0.10798152  1.0
  S  S7  1  0.36932717  -0.10798152  0.36932717  1.0
  S  S8  1  -0.10798152  0.36932717  0.36932717  1.0
  S  S9  1  0.36932717  0.36932717  0.36932717  1.0
  S  S10  1  -0.11932717  0.88067283  0.35798152  1.0
  S  S11  1  0.88067283  -0.64201848  0.88067283  1.0
  S  S12  1  -0.64201848  0.88067283  0.88067283  1.0
  S  S13  1  0.88067283  -0.11932717  0.88067283  1.0
