# generated using pymatgen
data_KCr2In3(H3O7)2
_symmetry_space_group_name_H-M   'P 1'
_cell_length_a   7.57887473
_cell_length_b   7.57887473
_cell_length_c   7.57887473
_cell_angle_alpha   62.96305317
_cell_angle_beta   62.96305317
_cell_angle_gamma   62.96305316
_symmetry_Int_Tables_number   1
_chemical_formula_structural   KCr2In3(H3O7)2
_chemical_formula_sum   'K1 Cr2 In3 H6 O14'
_cell_volume   328.07637601
_cell_formula_units_Z   1
loop_
 _symmetry_equiv_pos_site_id
 _symmetry_equiv_pos_as_xyz
  1  'x, y, z'
loop_
 _atom_site_type_symbol
 _atom_site_label
 _atom_site_symmetry_multiplicity
 _atom_site_fract_x
 _atom_site_fract_y
 _atom_site_fract_z
 _atom_site_occupancy
  K  K0  1  0.50000000  0.50000000  -0.50000000  1.0
  Cr  Cr1  1  0.81455871  0.81455871  -0.18544129  1.0
  Cr  Cr2  1  1.18544129  1.18544129  0.18544129  1.0
  In  In3  1  0.50000000  1.00000000  -0.50000000  1.0
  In  In4  1  0.50000000  -0.50000000  -0.00000000  1.0
  In  In5  1  -0.00000000  0.50000000  -0.50000000  1.0
  H  H6  1  0.19158516  0.19158516  -0.22535258  1.0
  H  H7  1  0.19158516  0.77464742  -0.80841484  1.0
  H  H8  1  1.22535258  -0.19158516  -0.19158516  1.0
  H  H9  1  0.80841484  0.22535258  -0.19158516  1.0
  H  H10  1  0.80841484  -0.19158516  0.22535258  1.0
  H  H11  1  0.77464742  0.19158516  -0.80841484  1.0
  O  O12  1  0.24121283  0.24121283  -0.37850576  1.0
  O  O13  1  0.24121283  0.62149424  -0.75878717  1.0
  O  O14  1  0.37850576  0.75878717  -0.24121283  1.0
  O  O15  1  0.75878717  0.37850576  -0.24121283  1.0
  O  O16  1  0.75878717  0.75878717  -0.62149424  1.0
  O  O17  1  0.62149424  0.24121283  -0.75878717  1.0
  O  O18  1  0.33114944  0.33114944  -0.00936776  1.0
  O  O19  1  0.33114944  0.99063224  -0.66885056  1.0
  O  O20  1  1.00936776  -0.33114944  -0.33114944  1.0
  O  O21  1  0.66885056  0.00936776  -0.33114944  1.0
  O  O22  1  0.66885056  -0.33114944  0.00936776  1.0
  O  O23  1  0.99063224  0.33114944  -0.66885056  1.0
  O  O24  1  0.90479384  0.90479384  -0.09520616  1.0
  O  O25  1  1.09520616  1.09520616  0.09520616  1.0
