# generated using pymatgen
data_HfSiS
_symmetry_space_group_name_H-M   'P 1'
_cell_length_a   3.53439048
_cell_length_b   3.53439048
_cell_length_c   8.03482579
_cell_angle_alpha   90.00000000
_cell_angle_beta   90.00000000
_cell_angle_gamma   90.00000000
_symmetry_Int_Tables_number   1
_chemical_formula_structural   HfSiS
_chemical_formula_sum   'Hf2 Si2 S2'
_cell_volume   100.37036942
_cell_formula_units_Z   2
loop_
 _symmetry_equiv_pos_site_id
 _symmetry_equiv_pos_as_xyz
  1  'x, y, z'
loop_
 _atom_site_type_symbol
 _atom_site_label
 _atom_site_symmetry_multiplicity
 _atom_site_fract_x
 _atom_site_fract_y
 _atom_site_fract_z
 _atom_site_occupancy
  Hf  Hf0  1  0.50000000  0.00000000  0.26846122  1.0
  Hf  Hf1  1  0.00000000  0.50000000  0.73153878  1.0
  Si  Si2  1  0.00000000  0.00000000  0.00000000  1.0
  Si  Si3  1  0.50000000  0.50000000  0.00000000  1.0
  S  S4  1  0.50000000  0.00000000  0.62015995  1.0
  S  S5  1  0.00000000  0.50000000  0.37984005  1.0
