# generated using pymatgen
data_SrH2O3
_symmetry_space_group_name_H-M   'P 1'
_cell_length_a   3.72474214
_cell_length_b   5.37877813
_cell_length_c   7.03454668
_cell_angle_alpha   90.00000000
_cell_angle_beta   90.00000000
_cell_angle_gamma   90.00000000
_symmetry_Int_Tables_number   1
_chemical_formula_structural   SrH2O3
_chemical_formula_sum   'Sr2 H4 O6'
_cell_volume   140.93405871
_cell_formula_units_Z   2
loop_
 _symmetry_equiv_pos_site_id
 _symmetry_equiv_pos_as_xyz
  1  'x, y, z'
loop_
 _atom_site_type_symbol
 _atom_site_label
 _atom_site_symmetry_multiplicity
 _atom_site_fract_x
 _atom_site_fract_y
 _atom_site_fract_z
 _atom_site_occupancy
  Sr  Sr0  1  0.50000000  0.54211466  0.43765405  1.0
  Sr  Sr1  1  0.50000000  0.45788534  -0.06234595  1.0
  H  H2  1  0.71089712  0.97825439  0.13065121  1.0
  H  H3  1  0.71089712  0.02174561  0.63065121  1.0
  H  H4  1  0.28910288  0.97825439  0.13065121  1.0
  H  H5  1  0.28910288  0.02174561  0.63065121  1.0
  O  O6  1  0.00000000  0.58547271  0.69248469  1.0
  O  O7  1  0.00000000  0.41452729  0.19248469  1.0
  O  O8  1  0.50000000  0.86212983  0.15167653  1.0
  O  O9  1  0.50000000  0.13787017  0.65167653  1.0
  O  O10  1  0.00000000  0.80967172  0.56438231  1.0
  O  O11  1  0.00000000  0.19032828  0.06438231  1.0
