# generated using pymatgen
data_LiIn(MoO4)2
_symmetry_space_group_name_H-M   'P 1'
_cell_length_a   7.21513925
_cell_length_b   8.19251795
_cell_length_c   13.02848113
_cell_angle_alpha   90.00000000
_cell_angle_beta   103.87550590
_cell_angle_gamma   90.00000000
_symmetry_Int_Tables_number   1
_chemical_formula_structural   LiIn(MoO4)2
_chemical_formula_sum   'Li4 In4 Mo8 O32'
_cell_volume   747.64290337
_cell_formula_units_Z   4
loop_
 _symmetry_equiv_pos_site_id
 _symmetry_equiv_pos_as_xyz
  1  'x, y, z'
loop_
 _atom_site_type_symbol
 _atom_site_label
 _atom_site_symmetry_multiplicity
 _atom_site_fract_x
 _atom_site_fract_y
 _atom_site_fract_z
 _atom_site_occupancy
  Li  Li0  1  0.53789415  0.85821027  0.85930120  1.0
  Li  Li1  1  0.53789415  0.64178973  0.35930120  1.0
  Li  Li2  1  0.46210585  0.35821027  0.64069880  1.0
  Li  Li3  1  0.46210585  0.14178973  0.14069880  1.0
  In  In4  1  0.88142593  0.83919670  0.53187421  1.0
  In  In5  1  0.88142593  0.66080330  0.03187421  1.0
  In  In6  1  0.11857407  0.33919670  0.96812579  1.0
  In  In7  1  0.11857407  0.16080330  0.46812579  1.0
  Mo  Mo8  1  0.97993936  0.41544868  0.67132586  1.0
  Mo  Mo9  1  0.97993936  0.08455132  0.17132586  1.0
  Mo  Mo10  1  0.02006064  0.91544868  0.82867414  1.0
  Mo  Mo11  1  0.02006064  0.58455132  0.32867414  1.0
  Mo  Mo12  1  0.40529601  0.79045205  0.57803989  1.0
  Mo  Mo13  1  0.40529601  0.70954795  0.07803989  1.0
  Mo  Mo14  1  0.59470399  0.29045205  0.92196011  1.0
  Mo  Mo15  1  0.59470399  0.20954795  0.42196011  1.0
  O  O16  1  0.96053118  0.61356387  0.61428937  1.0
  O  O17  1  0.96053118  0.88643613  0.11428937  1.0
  O  O18  1  0.03946882  0.11356387  0.88571063  1.0
  O  O19  1  0.03946882  0.38643613  0.38571063  1.0
  O  O20  1  0.92693631  0.93634756  0.68940750  1.0
  O  O21  1  0.92693631  0.56365244  0.18940750  1.0
  O  O22  1  0.07306369  0.43634756  0.81059250  1.0
  O  O23  1  0.07306369  0.06365244  0.31059250  1.0
  O  O24  1  0.86432160  0.78834960  0.88457931  1.0
  O  O25  1  0.86432160  0.71165040  0.38457931  1.0
  O  O26  1  0.13567840  0.28834960  0.61542069  1.0
  O  O27  1  0.13567840  0.21165040  0.11542069  1.0
  O  O28  1  0.82451628  0.40689844  0.96919844  1.0
  O  O29  1  0.82451628  0.09310156  0.46919844  1.0
  O  O30  1  0.17548372  0.90689844  0.53080156  1.0
  O  O31  1  0.17548372  0.59310156  0.03080156  1.0
  O  O32  1  0.57749843  0.68743669  0.99691232  1.0
  O  O33  1  0.57749843  0.81256331  0.49691232  1.0
  O  O34  1  0.42250157  0.18743669  0.50308768  1.0
  O  O35  1  0.42250157  0.31256331  0.00308768  1.0
  O  O36  1  0.50906388  0.86073068  0.70359768  1.0
  O  O37  1  0.50906388  0.63926932  0.20359768  1.0
  O  O38  1  0.49093612  0.36073068  0.79640232  1.0
  O  O39  1  0.49093612  0.13926932  0.29640232  1.0
  O  O40  1  0.36797508  0.58374881  0.59097645  1.0
  O  O41  1  0.36797508  0.91625119  0.09097645  1.0
  O  O42  1  0.63202492  0.08374881  0.90902355  1.0
  O  O43  1  0.63202492  0.41625119  0.40902355  1.0
  O  O44  1  0.24867401  0.83238738  0.85473343  1.0
  O  O45  1  0.24867401  0.66761262  0.35473343  1.0
  O  O46  1  0.75132599  0.33238738  0.64526657  1.0
  O  O47  1  0.75132599  0.16761262  0.14526657  1.0
