# generated using pymatgen
data_Mg2SnSe4
_symmetry_space_group_name_H-M   'P 1'
_cell_length_a   13.80747586
_cell_length_b   7.98286205
_cell_length_c   6.58520806
_cell_angle_alpha   90.00000000
_cell_angle_beta   90.00000000
_cell_angle_gamma   90.00000000
_symmetry_Int_Tables_number   1
_chemical_formula_structural   Mg2SnSe4
_chemical_formula_sum   'Mg8 Sn4 Se16'
_cell_volume   725.84254065
_cell_formula_units_Z   4
loop_
 _symmetry_equiv_pos_site_id
 _symmetry_equiv_pos_as_xyz
  1  'x, y, z'
loop_
 _atom_site_type_symbol
 _atom_site_label
 _atom_site_symmetry_multiplicity
 _atom_site_fract_x
 _atom_site_fract_y
 _atom_site_fract_z
 _atom_site_occupancy
  Mg  Mg0  1  0.00000000  0.50000000  0.00000000  1.0
  Mg  Mg1  1  0.50000000  0.00000000  0.50000000  1.0
  Mg  Mg2  1  0.00000000  0.00000000  0.00000000  1.0
  Mg  Mg3  1  0.50000000  0.50000000  0.50000000  1.0
  Mg  Mg4  1  0.26864730  0.75000000  -0.00177125  1.0
  Mg  Mg5  1  0.76864730  0.75000000  0.50177125  1.0
  Mg  Mg6  1  0.73135270  0.25000000  1.00177125  1.0
  Mg  Mg7  1  0.23135270  0.25000000  0.49822875  1.0
  Sn  Sn8  1  0.08808901  0.75000000  0.57956467  1.0
  Sn  Sn9  1  0.58808901  0.75000000  0.92043533  1.0
  Sn  Sn10  1  0.91191099  0.25000000  0.42043533  1.0
  Sn  Sn11  1  0.41191099  0.25000000  0.07956467  1.0
  Se  Se12  1  0.09293681  0.75000000  0.19399988  1.0
  Se  Se13  1  0.59293681  0.75000000  0.30600012  1.0
  Se  Se14  1  0.90706319  0.25000000  0.80600012  1.0
  Se  Se15  1  0.40706319  0.25000000  0.69399988  1.0
  Se  Se16  1  0.92194493  0.75000000  0.75724784  1.0
  Se  Se17  1  0.42194493  0.75000000  0.74275216  1.0
  Se  Se18  1  0.07805507  0.25000000  0.24275216  1.0
  Se  Se19  1  0.57805507  0.25000000  0.25724784  1.0
  Se  Se20  1  0.16914922  0.50254776  0.76191240  1.0
  Se  Se21  1  0.66914922  0.99745224  0.73808760  1.0
  Se  Se22  1  0.83085078  0.00254776  0.23808760  1.0
  Se  Se23  1  0.33085078  0.49745224  0.26191240  1.0
  Se  Se24  1  0.83085078  0.49745224  0.23808760  1.0
  Se  Se25  1  0.33085078  0.00254776  0.26191240  1.0
  Se  Se26  1  0.16914922  0.99745224  0.76191240  1.0
  Se  Se27  1  0.66914922  0.50254776  0.73808760  1.0
