# generated using pymatgen
data_AsH6C3N
_symmetry_space_group_name_H-M   'P 1'
_cell_length_a   8.63792335
_cell_length_b   6.78661945
_cell_length_c   6.73282830
_cell_angle_alpha   55.74733105
_cell_angle_beta   70.73457774
_cell_angle_gamma   75.27008369
_symmetry_Int_Tables_number   1
_chemical_formula_structural   AsH6C3N
_chemical_formula_sum   'As2 H12 C6 N2'
_cell_volume   306.77922876
_cell_formula_units_Z   2
loop_
 _symmetry_equiv_pos_site_id
 _symmetry_equiv_pos_as_xyz
  1  'x, y, z'
loop_
 _atom_site_type_symbol
 _atom_site_label
 _atom_site_symmetry_multiplicity
 _atom_site_fract_x
 _atom_site_fract_y
 _atom_site_fract_z
 _atom_site_occupancy
  As  As0  1  -0.35040775  -0.19800911  -0.13067935  1.0
  As  As1  1  -0.64959225  -0.80199089  -0.86932065  1.0
  H  H2  1  -0.20432951  -0.00888511  -1.01095546  1.0
  H  H3  1  -0.79567049  -0.99111489  0.01095546  1.0
  H  H4  1  -0.15154065  -0.32522293  -0.86888369  1.0
  H  H5  1  -0.84845935  -0.67477707  -0.13111631  1.0
  H  H6  1  -0.05280315  -0.12719922  -0.18526301  1.0
  H  H7  1  -0.94719685  -0.87280077  -0.81473699  1.0
  H  H8  1  -0.30321857  -0.40502852  -0.36968829  1.0
  H  H9  1  -0.69678143  -0.59497148  -0.63031171  1.0
  H  H10  1  -0.10919800  -0.32291255  -0.40305541  1.0
  H  H11  1  -0.89080200  -0.67708745  -0.59694459  1.0
  H  H12  1  -0.20286075  -0.57435511  -0.11815749  1.0
  H  H13  1  -0.79713925  -0.42564489  -0.88184251  1.0
  C  C14  1  -0.32734335  -0.89499875  -0.45112188  1.0
  C  C15  1  -0.67265665  -0.10500125  -0.54887812  1.0
  C  C16  1  -0.16702794  -0.15808178  -0.04190972  1.0
  C  C17  1  -0.83297206  -0.84191822  -0.95809028  1.0
  C  C18  1  -0.22556582  -0.39604078  -0.27562682  1.0
  C  C19  1  -0.77443418  -0.60395922  -0.72437318  1.0
  N  N20  1  -0.32477173  -0.71213764  -0.63841746  1.0
  N  N21  1  -0.67522827  -0.28786236  -0.36158254  1.0
