# generated using pymatgen
data_LaBr3
_symmetry_space_group_name_H-M   'P 1'
_cell_length_a   8.14329274
_cell_length_b   8.14329274
_cell_length_c   4.50726273
_cell_angle_alpha   90.00000000
_cell_angle_beta   90.00000000
_cell_angle_gamma   120.00000000
_symmetry_Int_Tables_number   1
_chemical_formula_structural   LaBr3
_chemical_formula_sum   'La2 Br6'
_cell_volume   258.84727690
_cell_formula_units_Z   2
loop_
 _symmetry_equiv_pos_site_id
 _symmetry_equiv_pos_as_xyz
  1  'x, y, z'
loop_
 _atom_site_type_symbol
 _atom_site_label
 _atom_site_symmetry_multiplicity
 _atom_site_fract_x
 _atom_site_fract_y
 _atom_site_fract_z
 _atom_site_occupancy
  La  La0  1  0.33333333  0.66666667  0.25000000  1.0
  La  La1  1  0.66666667  0.33333333  0.75000000  1.0
  Br  Br2  1  0.69830174  0.61039182  0.25000000  1.0
  Br  Br3  1  0.61039182  0.91209007  0.75000000  1.0
  Br  Br4  1  0.91209007  0.30169826  0.25000000  1.0
  Br  Br5  1  0.38960818  0.08790993  0.25000000  1.0
  Br  Br6  1  0.30169826  0.38960818  0.75000000  1.0
  Br  Br7  1  0.08790993  0.69830174  0.75000000  1.0
