# generated using pymatgen
data_Ba3P3I2
_symmetry_space_group_name_H-M   'P 1'
_cell_length_a   17.50380984
_cell_length_b   4.57653843
_cell_length_c   14.33466339
_cell_angle_alpha   90.00000000
_cell_angle_beta   90.00000000
_cell_angle_gamma   90.00000000
_symmetry_Int_Tables_number   1
_chemical_formula_structural   Ba3P3I2
_chemical_formula_sum   'Ba12 P12 I8'
_cell_volume   1148.30484941
_cell_formula_units_Z   4
loop_
 _symmetry_equiv_pos_site_id
 _symmetry_equiv_pos_as_xyz
  1  'x, y, z'
loop_
 _atom_site_type_symbol
 _atom_site_label
 _atom_site_symmetry_multiplicity
 _atom_site_fract_x
 _atom_site_fract_y
 _atom_site_fract_z
 _atom_site_occupancy
  Ba  Ba0  1  0.15961420  0.75000000  0.21278128  1.0
  Ba  Ba1  1  0.65961420  0.75000000  0.28721872  1.0
  Ba  Ba2  1  0.84038580  0.25000000  0.78721872  1.0
  Ba  Ba3  1  0.34038580  0.25000000  0.71278128  1.0
  Ba  Ba4  1  0.14456466  0.75000000  0.54284844  1.0
  Ba  Ba5  1  0.64456466  0.75000000  0.95715156  1.0
  Ba  Ba6  1  0.85543534  0.25000000  0.45715156  1.0
  Ba  Ba7  1  0.35543534  0.25000000  0.04284844  1.0
  Ba  Ba8  1  0.87054382  0.75000000  0.11476942  1.0
  Ba  Ba9  1  0.37054382  0.75000000  0.38523058  1.0
  Ba  Ba10  1  0.12945618  0.25000000  0.88523058  1.0
  Ba  Ba11  1  0.62945618  0.25000000  0.61476942  1.0
  P  P12  1  0.28530207  0.75000000  0.87507564  1.0
  P  P13  1  0.78530207  0.75000000  0.62492436  1.0
  P  P14  1  0.71469793  0.25000000  0.12492436  1.0
  P  P15  1  0.21469793  0.25000000  0.37507564  1.0
  P  P16  1  0.22421992  0.75000000  0.00582238  1.0
  P  P17  1  0.72421992  0.75000000  0.49417762  1.0
  P  P18  1  0.77578008  0.25000000  0.99417762  1.0
  P  P19  1  0.27578008  0.25000000  0.50582238  1.0
  P  P20  1  0.21062769  0.75000000  0.75418932  1.0
  P  P21  1  0.71062769  0.75000000  0.74581068  1.0
  P  P22  1  0.78937231  0.25000000  0.24581068  1.0
  P  P23  1  0.28937231  0.25000000  0.25418932  1.0
  I  I24  1  0.49195273  0.75000000  0.13367824  1.0
  I  I25  1  0.99195273  0.75000000  0.36632176  1.0
  I  I26  1  0.50804727  0.25000000  0.86632176  1.0
  I  I27  1  0.00804727  0.25000000  0.63367824  1.0
  I  I28  1  0.46980496  0.75000000  0.61354337  1.0
  I  I29  1  0.96980496  0.75000000  0.88645663  1.0
  I  I30  1  0.53019504  0.25000000  0.38645663  1.0
  I  I31  1  0.03019504  0.25000000  0.11354337  1.0
