# generated using pymatgen
data_Ta2N3
_symmetry_space_group_name_H-M   'P 1'
_cell_length_a   8.22354582
_cell_length_b   2.99614327
_cell_length_c   8.17971802
_cell_angle_alpha   90.00000000
_cell_angle_beta   90.00000000
_cell_angle_gamma   90.00000000
_symmetry_Int_Tables_number   1
_chemical_formula_structural   Ta2N3
_chemical_formula_sum   'Ta8 N12'
_cell_volume   201.53942997
_cell_formula_units_Z   4
loop_
 _symmetry_equiv_pos_site_id
 _symmetry_equiv_pos_as_xyz
  1  'x, y, z'
loop_
 _atom_site_type_symbol
 _atom_site_label
 _atom_site_symmetry_multiplicity
 _atom_site_fract_x
 _atom_site_fract_y
 _atom_site_fract_z
 _atom_site_occupancy
  Ta  Ta0  1  -0.02071985  0.75000000  0.68709401  1.0
  Ta  Ta1  1  0.47928015  0.75000000  0.81290599  1.0
  Ta  Ta2  1  1.02071985  0.25000000  0.31290599  1.0
  Ta  Ta3  1  0.52071985  0.25000000  0.18709401  1.0
  Ta  Ta4  1  0.80576630  0.75000000  0.00500494  1.0
  Ta  Ta5  1  0.30576630  0.75000000  0.49499506  1.0
  Ta  Ta6  1  0.19423370  0.25000000  0.99499506  1.0
  Ta  Ta7  1  0.69423370  0.25000000  0.50500494  1.0
  N  N8  1  0.87912419  0.75000000  0.45087359  1.0
  N  N9  1  0.37912419  0.75000000  0.04912641  1.0
  N  N10  1  0.12087581  0.25000000  0.54912641  1.0
  N  N11  1  0.62087581  0.25000000  0.95087359  1.0
  N  N12  1  0.72001108  0.75000000  0.70011475  1.0
  N  N13  1  0.22001108  0.75000000  0.79988525  1.0
  N  N14  1  0.27998892  0.25000000  0.29988525  1.0
  N  N15  1  0.77998892  0.25000000  0.20011475  1.0
  N  N16  1  0.54634070  0.75000000  0.37479455  1.0
  N  N17  1  0.04634070  0.75000000  0.12520545  1.0
  N  N18  1  0.45365930  0.25000000  0.62520545  1.0
  N  N19  1  0.95365930  0.25000000  0.87479455  1.0
