# generated using pymatgen
data_H7O4
_symmetry_space_group_name_H-M   'P 1'
_cell_length_a   6.11419801
_cell_length_b   6.11419801
_cell_length_c   6.11419801
_cell_angle_alpha   132.73009835
_cell_angle_beta   89.49121802
_cell_angle_gamma   109.28905925
_symmetry_Int_Tables_number   1
_chemical_formula_structural   H7O4
_chemical_formula_sum   'H14 O8'
_cell_volume   150.64056735
_cell_formula_units_Z   2
loop_
 _symmetry_equiv_pos_site_id
 _symmetry_equiv_pos_as_xyz
  1  'x, y, z'
loop_
 _atom_site_type_symbol
 _atom_site_label
 _atom_site_symmetry_multiplicity
 _atom_site_fract_x
 _atom_site_fract_y
 _atom_site_fract_z
 _atom_site_occupancy
  H  H0  1  0.50000000  0.50000000  0.50000000  1.0
  H  H1  1  1.00000000  1.00000000  1.50000000  1.0
  H  H2  1  1.00000000  0.50000000  1.00000000  1.0
  H  H3  1  0.50000000  1.00000000  1.00000000  1.0
  H  H4  1  1.63183342  0.75000000  0.88183342  1.0
  H  H5  1  0.86816658  0.75000000  0.11816658  1.0
  H  H6  1  0.36816658  0.25000000  0.11816658  1.0
  H  H7  1  1.13183342  0.25000000  0.88183342  1.0
  H  H8  1  0.75000000  1.47621823  0.72621823  1.0
  H  H9  1  0.75000000  1.02378177  0.27378177  1.0
  H  H10  1  0.25000000  0.52378177  0.27378177  1.0
  H  H11  1  0.25000000  0.97621823  0.72621823  1.0
  H  H12  1  0.00000000  0.50000000  0.50000000  1.0
  H  H13  1  0.50000000  1.00000000  0.50000000  1.0
  O  O14  1  1.69531159  1.58982468  1.64805625  1.0
  O  O15  1  0.94176843  1.04725534  0.35194375  1.0
  O  O16  1  0.80468841  1.45274466  0.89451309  1.0
  O  O17  1  1.55823157  0.91017532  1.10548691  1.0
  O  O18  1  0.30468841  0.41017532  0.35194375  1.0
  O  O19  1  1.05823157  0.95274466  1.64805625  1.0
  O  O20  1  1.19531159  0.54725534  1.10548691  1.0
  O  O21  1  0.44176843  1.08982468  0.89451309  1.0
