# generated using pymatgen
data_Li3GaSiO5
_symmetry_space_group_name_H-M   'P 1'
_cell_length_a   5.42988348
_cell_length_b   15.72544048
_cell_length_c   4.90914926
_cell_angle_alpha   90.00000000
_cell_angle_beta   90.00000000
_cell_angle_gamma   90.00000000
_symmetry_Int_Tables_number   1
_chemical_formula_structural   Li3GaSiO5
_chemical_formula_sum   'Li12 Ga4 Si4 O20'
_cell_volume   419.17904748
_cell_formula_units_Z   4
loop_
 _symmetry_equiv_pos_site_id
 _symmetry_equiv_pos_as_xyz
  1  'x, y, z'
loop_
 _atom_site_type_symbol
 _atom_site_label
 _atom_site_symmetry_multiplicity
 _atom_site_fract_x
 _atom_site_fract_y
 _atom_site_fract_z
 _atom_site_occupancy
  Li  Li0  1  0.33526518  0.50526893  0.51646005  1.0
  Li  Li1  1  0.83526518  0.99473107  0.51646005  1.0
  Li  Li2  1  0.66473482  0.49473107  0.01646005  1.0
  Li  Li3  1  0.16473482  0.00526893  0.01646005  1.0
  Li  Li4  1  0.32167784  0.69491977  0.51408569  1.0
  Li  Li5  1  0.82167784  0.80508023  0.51408569  1.0
  Li  Li6  1  0.67832216  0.30508023  0.01408569  1.0
  Li  Li7  1  0.17832216  0.19491977  0.01408569  1.0
  Li  Li8  1  0.16639259  0.59246340  0.01320180  1.0
  Li  Li9  1  0.66639259  0.90753660  0.01320180  1.0
  Li  Li10  1  0.83360741  0.40753660  0.51320180  1.0
  Li  Li11  1  0.33360741  0.09246340  0.51320180  1.0
  Ga  Ga12  1  0.16928035  0.80087594  0.01376878  1.0
  Ga  Ga13  1  0.66928035  0.69912406  0.01376878  1.0
  Ga  Ga14  1  0.83071965  0.19912406  0.51376878  1.0
  Ga  Ga15  1  0.33071965  0.30087594  0.51376878  1.0
  Si  Si16  1  0.33345967  0.90234780  0.51922366  1.0
  Si  Si17  1  0.83345967  0.59765220  0.51922366  1.0
  Si  Si18  1  0.66654033  0.09765220  0.01922366  1.0
  Si  Si19  1  0.16654033  0.40234780  0.01922366  1.0
  O  O20  1  0.34006983  0.70293432  0.11128063  1.0
  O  O21  1  0.84006983  0.79706568  0.11128063  1.0
  O  O22  1  0.65993017  0.29706568  0.61128063  1.0
  O  O23  1  0.15993017  0.20293432  0.61128063  1.0
  O  O24  1  0.31805638  0.89510897  0.17665550  1.0
  O  O25  1  0.81805638  0.60489103  0.17665550  1.0
  O  O26  1  0.68194362  0.10489103  0.67665550  1.0
  O  O27  1  0.18194362  0.39510897  0.67665550  1.0
  O  O28  1  0.18662693  0.81314767  0.63090024  1.0
  O  O29  1  0.68662693  0.68685233  0.63090024  1.0
  O  O30  1  0.81337307  0.18685233  0.13090024  1.0
  O  O31  1  0.31337307  0.31314767  0.13090024  1.0
  O  O32  1  0.18354787  0.98586191  0.61824512  1.0
  O  O33  1  0.68354787  0.51413809  0.61824512  1.0
  O  O34  1  0.81645213  0.01413809  0.11824512  1.0
  O  O35  1  0.31645213  0.48586191  0.11824512  1.0
  O  O36  1  0.11919654  0.60132209  0.61617854  1.0
  O  O37  1  0.61919654  0.89867791  0.61617854  1.0
  O  O38  1  0.88080346  0.39867791  0.11617854  1.0
  O  O39  1  0.38080346  0.10132209  0.11617854  1.0
