# generated using pymatgen
data_ZnH12(SO6)2
_symmetry_space_group_name_H-M   'P 1'
_cell_length_a   6.76967408
_cell_length_b   6.53943996
_cell_length_c   7.01842381
_cell_angle_alpha   96.75527766
_cell_angle_beta   101.85133868
_cell_angle_gamma   95.06152306
_symmetry_Int_Tables_number   1
_chemical_formula_structural   ZnH12(SO6)2
_chemical_formula_sum   'Zn1 H12 S2 O12'
_cell_volume   299.94501153
_cell_formula_units_Z   1
loop_
 _symmetry_equiv_pos_site_id
 _symmetry_equiv_pos_as_xyz
  1  'x, y, z'
loop_
 _atom_site_type_symbol
 _atom_site_label
 _atom_site_symmetry_multiplicity
 _atom_site_fract_x
 _atom_site_fract_y
 _atom_site_fract_z
 _atom_site_occupancy
  Zn  Zn0  1  0.00000000  0.00000000  0.00000000  1.0
  H  H1  1  -0.40678268  -0.06412994  -0.18375851  1.0
  H  H2  1  -0.59321732  -0.93587006  -0.81624149  1.0
  H  H3  1  -0.32929538  -0.82364687  -0.16971934  1.0
  H  H4  1  -0.67070462  -0.17635313  -0.83028066  1.0
  H  H5  1  -0.18362084  -0.39044693  -0.03555647  1.0
  H  H6  1  -0.81637916  -0.60955307  -0.96444353  1.0
  H  H7  1  -0.15267820  -0.29065240  -0.81407071  1.0
  H  H8  1  -0.84732180  -0.70934760  -0.18592929  1.0
  H  H9  1  -0.83926775  -0.19589030  -0.29005848  1.0
  H  H10  1  -0.16073225  -0.80410970  -0.70994152  1.0
  H  H11  1  -0.07351969  -0.20539227  -0.38628712  1.0
  H  H12  1  -0.92648031  -0.79460773  -0.61371288  1.0
  S  S13  1  -0.54702382  -0.50087019  -0.35874379  1.0
  S  S14  1  -0.45297618  -0.49912981  -0.64125621  1.0
  O  O15  1  -0.30244330  -0.95149102  -0.11285371  1.0
  O  O16  1  -0.69755670  -0.04850898  -0.88714629  1.0
  O  O17  1  -0.09251840  -0.29219030  -0.93017576  1.0
  O  O18  1  -0.90748160  -0.70780970  -0.06982424  1.0
  O  O19  1  -0.96303270  -0.13021983  -0.28210229  1.0
  O  O20  1  -0.03696730  -0.86978017  -0.71789771  1.0
  O  O21  1  -0.36928654  -0.55947159  -0.22443359  1.0
  O  O22  1  -0.63071346  -0.44052841  -0.77556641  1.0
  O  O23  1  -0.72662637  -0.65726271  -0.40023470  1.0
  O  O24  1  -0.27337363  -0.34273729  -0.59976530  1.0
  O  O25  1  -0.59063511  -0.28676912  -0.30593761  1.0
  O  O26  1  -0.40936489  -0.71323088  -0.69406239  1.0
