# generated using pymatgen
data_CoSiNi
_symmetry_space_group_name_H-M   'P 1'
_cell_length_a   4.99645287
_cell_length_b   3.68208483
_cell_length_c   7.07202279
_cell_angle_alpha   90.00000000
_cell_angle_beta   90.00000000
_cell_angle_gamma   90.00000000
_symmetry_Int_Tables_number   1
_chemical_formula_structural   CoSiNi
_chemical_formula_sum   'Co4 Si4 Ni4'
_cell_volume   130.10657270
_cell_formula_units_Z   4
loop_
 _symmetry_equiv_pos_site_id
 _symmetry_equiv_pos_as_xyz
  1  'x, y, z'
loop_
 _atom_site_type_symbol
 _atom_site_label
 _atom_site_symmetry_multiplicity
 _atom_site_fract_x
 _atom_site_fract_y
 _atom_site_fract_z
 _atom_site_occupancy
  Co  Co0  1  0.95969253  0.75000000  0.70726514  1.0
  Co  Co1  1  0.45969253  0.75000000  0.79273486  1.0
  Co  Co2  1  0.04030747  0.25000000  0.29273486  1.0
  Co  Co3  1  0.54030747  0.25000000  0.20726514  1.0
  Si  Si4  1  0.79170854  0.75000000  0.38693053  1.0
  Si  Si5  1  0.29170854  0.75000000  0.11306947  1.0
  Si  Si6  1  0.20829146  0.25000000  0.61306947  1.0
  Si  Si7  1  0.70829146  0.25000000  0.88693053  1.0
  Ni  Ni8  1  0.83224133  0.75000000  0.06225701  1.0
  Ni  Ni9  1  0.33224133  0.75000000  0.43774299  1.0
  Ni  Ni10  1  0.16775867  0.25000000  0.93774299  1.0
  Ni  Ni11  1  0.66775867  0.25000000  0.56225701  1.0
