# generated using pymatgen
data_La(Ni5P2)2
_symmetry_space_group_name_H-M   'P 1'
_cell_length_a   9.28015334
_cell_length_b   3.66761565
_cell_length_c   22.16570533
_cell_angle_alpha   90.00000000
_cell_angle_beta   90.00000000
_cell_angle_gamma   90.00000000
_symmetry_Int_Tables_number   1
_chemical_formula_structural   La(Ni5P2)2
_chemical_formula_sum   'La4 Ni40 P16'
_cell_volume   754.43273535
_cell_formula_units_Z   4
loop_
 _symmetry_equiv_pos_site_id
 _symmetry_equiv_pos_as_xyz
  1  'x, y, z'
loop_
 _atom_site_type_symbol
 _atom_site_label
 _atom_site_symmetry_multiplicity
 _atom_site_fract_x
 _atom_site_fract_y
 _atom_site_fract_z
 _atom_site_occupancy
  La  La0  1  0.79725550  0.75000000  0.89308507  1.0
  La  La1  1  0.29725550  0.75000000  0.60691493  1.0
  La  La2  1  0.20274450  0.25000000  0.10691493  1.0
  La  La3  1  0.70274450  0.25000000  0.39308507  1.0
  Ni  Ni4  1  0.97727576  0.75000000  0.69295797  1.0
  Ni  Ni5  1  0.47727576  0.75000000  0.80704203  1.0
  Ni  Ni6  1  0.02272424  0.25000000  0.30704203  1.0
  Ni  Ni7  1  0.52272424  0.25000000  0.19295797  1.0
  Ni  Ni8  1  0.96607371  0.75000000  0.03894546  1.0
  Ni  Ni9  1  0.46607371  0.75000000  0.46105454  1.0
  Ni  Ni10  1  0.03392629  0.25000000  0.96105454  1.0
  Ni  Ni11  1  0.53392629  0.25000000  0.53894546  1.0
  Ni  Ni12  1  0.95192829  0.75000000  0.58203620  1.0
  Ni  Ni13  1  0.45192829  0.75000000  0.91796380  1.0
  Ni  Ni14  1  0.04807171  0.25000000  0.41796380  1.0
  Ni  Ni15  1  0.54807171  0.25000000  0.08203620  1.0
  Ni  Ni16  1  0.91757576  0.75000000  0.46993167  1.0
  Ni  Ni17  1  0.41757576  0.75000000  0.03006833  1.0
  Ni  Ni18  1  0.08242424  0.25000000  0.53006833  1.0
  Ni  Ni19  1  0.58242424  0.25000000  0.96993167  1.0
  Ni  Ni20  1  0.84450206  0.75000000  0.28455915  1.0
  Ni  Ni21  1  0.34450206  0.75000000  0.21544085  1.0
  Ni  Ni22  1  0.15549794  0.25000000  0.71544085  1.0
  Ni  Ni23  1  0.65549794  0.25000000  0.78455915  1.0
  Ni  Ni24  1  0.70823139  0.75000000  0.17355278  1.0
  Ni  Ni25  1  0.20823139  0.75000000  0.32644722  1.0
  Ni  Ni26  1  0.29176861  0.25000000  0.82644722  1.0
  Ni  Ni27  1  0.79176861  0.25000000  0.67355278  1.0
  Ni  Ni28  1  0.69310249  0.75000000  0.03410495  1.0
  Ni  Ni29  1  0.19310249  0.75000000  0.46589505  1.0
  Ni  Ni30  1  0.30689751  0.25000000  0.96589505  1.0
  Ni  Ni31  1  0.80689751  0.25000000  0.53410495  1.0
  Ni  Ni32  1  0.67404447  0.75000000  0.59932946  1.0
  Ni  Ni33  1  0.17404447  0.75000000  0.90067054  1.0
  Ni  Ni34  1  0.32595553  0.25000000  0.40067054  1.0
  Ni  Ni35  1  0.82595553  0.25000000  0.09932946  1.0
  Ni  Ni36  1  0.59407311  0.75000000  0.70353066  1.0
  Ni  Ni37  1  0.09407311  0.75000000  0.79646934  1.0
  Ni  Ni38  1  0.40592689  0.25000000  0.29646934  1.0
  Ni  Ni39  1  0.90592689  0.25000000  0.20353066  1.0
  Ni  Ni40  1  0.58054638  0.75000000  0.27938899  1.0
  Ni  Ni41  1  0.08054638  0.75000000  0.22061101  1.0
  Ni  Ni42  1  0.41945362  0.25000000  0.72061101  1.0
  Ni  Ni43  1  0.91945362  0.25000000  0.77938899  1.0
  P  P44  1  0.98110534  0.75000000  0.36902109  1.0
  P  P45  1  0.48110534  0.75000000  0.13097891  1.0
  P  P46  1  0.01889466  0.25000000  0.63097891  1.0
  P  P47  1  0.51889466  0.25000000  0.86902109  1.0
  P  P48  1  0.93641258  0.75000000  0.14002323  1.0
  P  P49  1  0.43641258  0.75000000  0.35997677  1.0
  P  P50  1  0.06358742  0.25000000  0.85997677  1.0
  P  P51  1  0.56358742  0.25000000  0.64002323  1.0
  P  P52  1  0.79220929  0.75000000  0.75531706  1.0
  P  P53  1  0.29220929  0.75000000  0.74468294  1.0
  P  P54  1  0.20779071  0.25000000  0.24468294  1.0
  P  P55  1  0.70779071  0.25000000  0.25531706  1.0
  P  P56  1  0.68548292  0.75000000  0.50194740  1.0
  P  P57  1  0.18548292  0.75000000  0.99805260  1.0
  P  P58  1  0.31451708  0.25000000  0.49805260  1.0
  P  P59  1  0.81451708  0.25000000  0.00194740  1.0
