# generated using pymatgen
data_CaAsO6
_symmetry_space_group_name_H-M   'P 1'
_cell_length_a   8.51028036
_cell_length_b   8.51028036
_cell_length_c   5.01582109
_cell_angle_alpha   72.93038459
_cell_angle_beta   107.06961541
_cell_angle_gamma   51.62649434
_symmetry_Int_Tables_number   1
_chemical_formula_structural   CaAsO6
_chemical_formula_sum   'Ca2 As2 O12'
_cell_volume   210.36004750
_cell_formula_units_Z   2
loop_
 _symmetry_equiv_pos_site_id
 _symmetry_equiv_pos_as_xyz
  1  'x, y, z'
loop_
 _atom_site_type_symbol
 _atom_site_label
 _atom_site_symmetry_multiplicity
 _atom_site_fract_x
 _atom_site_fract_y
 _atom_site_fract_z
 _atom_site_occupancy
  Ca  Ca0  1  1.60884094  0.06338273  0.77225836  1.0
  Ca  Ca1  1  0.93661727  0.39115906  0.27225836  1.0
  As  As2  1  1.11623433  0.57066716  0.77227570  1.0
  As  As3  1  1.42933284  -0.11623433  0.27227570  1.0
  O  O4  1  1.04839744  0.86297173  0.04089954  1.0
  O  O5  1  1.13702827  -0.04839744  0.54089954  1.0
  O  O6  1  1.40927251  0.50232823  0.50446948  1.0
  O  O7  1  0.49767177  0.59072749  0.00446948  1.0
  O  O8  1  0.61118158  0.57609814  0.64788160  1.0
  O  O9  1  1.42390186  0.38881842  0.14788160  1.0
  O  O10  1  0.93464474  0.87820303  0.39680330  1.0
  O  O11  1  1.12179697  0.06535526  -0.10319670  1.0
  O  O12  1  0.91541145  0.65609680  0.88083555  1.0
  O  O13  1  1.34390320  0.08458855  0.38083555  1.0
  O  O14  1  1.20150957  0.36994474  0.66357647  1.0
  O  O15  1  1.63005526  -0.20150957  0.16357647  1.0
