# generated using pymatgen
data_InH4NCl4
_symmetry_space_group_name_H-M   'P 1'
_cell_length_a   9.17315242
_cell_length_b   9.17315242
_cell_length_c   9.17315242
_cell_angle_alpha   132.81838377
_cell_angle_beta   132.81838377
_cell_angle_gamma   68.93950957
_symmetry_Int_Tables_number   1
_chemical_formula_structural   InH4NCl4
_chemical_formula_sum   'In2 H8 N2 Cl8'
_cell_volume   407.68577148
_cell_formula_units_Z   2
loop_
 _symmetry_equiv_pos_site_id
 _symmetry_equiv_pos_as_xyz
  1  'x, y, z'
loop_
 _atom_site_type_symbol
 _atom_site_label
 _atom_site_symmetry_multiplicity
 _atom_site_fract_x
 _atom_site_fract_y
 _atom_site_fract_z
 _atom_site_occupancy
  In  In0  1  0.75000000  0.25000000  0.50000000  1.0
  In  In1  1  1.00000000  1.00000000  1.00000000  1.0
  H  H2  1  1.24346033  0.81956762  1.64295794  1.0
  H  H3  1  0.17660967  0.60050239  0.35704206  1.0
  H  H4  1  1.35050239  1.49346033  1.92389271  1.0
  H  H5  1  0.56956762  0.42660967  0.07610729  1.0
  H  H6  1  0.50653967  1.43043238  0.85704206  1.0
  H  H7  1  1.57339033  0.64949761  1.14295794  1.0
  H  H8  1  0.39949761  0.75653967  0.57610729  1.0
  H  H9  1  1.18043238  0.82339033  1.42389271  1.0
  N  N10  1  0.25000000  0.75000000  0.50000000  1.0
  N  N11  1  0.50000000  0.50000000  0.00000000  1.0
  Cl  Cl12  1  0.81199251  0.93202014  1.41763592  1.0
  Cl  Cl13  1  0.51438422  0.39435659  0.58236408  1.0
  Cl  Cl14  1  1.14435659  1.06199251  1.37997237  1.0
  Cl  Cl15  1  0.68202014  0.76438422  0.62002763  1.0
  Cl  Cl16  1  0.93800749  1.31797986  1.08236408  1.0
  Cl  Cl17  1  1.23561578  0.85564341  0.91763592  1.0
  Cl  Cl18  1  0.60564341  1.18800749  1.12002763  1.0
  Cl  Cl19  1  1.06797986  0.48561578  0.87997237  1.0
