# generated using pymatgen
data_ZnP2PdO7
_symmetry_space_group_name_H-M   'P 1'
_cell_length_a   12.46324490
_cell_length_b   5.93974388
_cell_length_c   6.88049982
_cell_angle_alpha   90.00000000
_cell_angle_beta   90.00000000
_cell_angle_gamma   90.00000000
_symmetry_Int_Tables_number   1
_chemical_formula_structural   ZnP2PdO7
_chemical_formula_sum   'Zn4 P8 Pd4 O28'
_cell_volume   509.35296136
_cell_formula_units_Z   4
loop_
 _symmetry_equiv_pos_site_id
 _symmetry_equiv_pos_as_xyz
  1  'x, y, z'
loop_
 _atom_site_type_symbol
 _atom_site_label
 _atom_site_symmetry_multiplicity
 _atom_site_fract_x
 _atom_site_fract_y
 _atom_site_fract_z
 _atom_site_occupancy
  Zn  Zn0  1  0.25000198  0.75000000  0.24999379  1.0
  Zn  Zn1  1  0.75000198  0.75000000  0.25000621  1.0
  Zn  Zn2  1  0.74999802  0.25000000  0.75000621  1.0
  Zn  Zn3  1  0.24999802  0.25000000  0.74999379  1.0
  P  P4  1  0.38450145  0.75000000  0.83008415  1.0
  P  P5  1  0.88450145  0.75000000  0.66991585  1.0
  P  P6  1  0.61549855  0.25000000  0.16991585  1.0
  P  P7  1  0.11549855  0.25000000  0.33008415  1.0
  P  P8  1  0.11549906  0.75000000  0.66991425  1.0
  P  P9  1  0.61549906  0.75000000  0.83008575  1.0
  P  P10  1  0.88450094  0.25000000  0.33008575  1.0
  P  P11  1  0.38450094  0.25000000  0.16991425  1.0
  Pd  Pd12  1  0.50000000  0.00000000  0.50000000  1.0
  Pd  Pd13  1  0.50000000  0.50000000  0.50000000  1.0
  Pd  Pd14  1  0.00000000  0.00000000  -0.00000000  1.0
  Pd  Pd15  1  0.00000000  0.50000000  0.00000000  1.0
  O  O16  1  0.38134394  0.97077083  0.70595809  1.0
  O  O17  1  0.38134394  0.52922917  0.70595809  1.0
  O  O18  1  0.88134394  0.97077083  0.79404191  1.0
  O  O19  1  0.88134394  0.52922917  0.79404191  1.0
  O  O20  1  0.61865606  0.47077083  0.29404191  1.0
  O  O21  1  0.61865606  0.02922917  0.29404191  1.0
  O  O22  1  0.11865606  0.47077083  0.20595809  1.0
  O  O23  1  0.11865606  0.02922917  0.20595809  1.0
  O  O24  1  0.11865316  0.97077014  0.79404177  1.0
  O  O25  1  0.11865316  0.52922986  0.79404177  1.0
  O  O26  1  0.61865316  0.97077014  0.70595823  1.0
  O  O27  1  0.61865316  0.52922986  0.70595823  1.0
  O  O28  1  0.88134684  0.47077014  0.20595823  1.0
  O  O29  1  0.88134684  0.02922986  0.20595823  1.0
  O  O30  1  0.38134684  0.47077014  0.29404177  1.0
  O  O31  1  0.38134684  0.02922986  0.29404177  1.0
  O  O32  1  0.49999981  0.75000000  0.93950930  1.0
  O  O33  1  0.99999981  0.75000000  0.56049070  1.0
  O  O34  1  0.50000019  0.25000000  0.06049070  1.0
  O  O35  1  0.00000019  0.25000000  0.43950930  1.0
  O  O36  1  0.29764529  0.75000000  0.98186829  1.0
  O  O37  1  0.79764529  0.75000000  0.51813171  1.0
  O  O38  1  0.70235471  0.25000000  0.01813171  1.0
  O  O39  1  0.20235471  0.25000000  0.48186829  1.0
  O  O40  1  0.20235268  0.75000000  0.51812426  1.0
  O  O41  1  0.70235268  0.75000000  0.98187574  1.0
  O  O42  1  0.79764732  0.25000000  0.48187574  1.0
  O  O43  1  0.29764732  0.25000000  0.01812426  1.0
