# generated using pymatgen
data_LuPO4
_symmetry_space_group_name_H-M   'P 1'
_cell_length_a   5.72463735
_cell_length_b   5.72463735
_cell_length_c   5.72463735
_cell_angle_alpha   105.97263659
_cell_angle_beta   105.97263659
_cell_angle_gamma   116.72081442
_symmetry_Int_Tables_number   1
_chemical_formula_structural   LuPO4
_chemical_formula_sum   'Lu2 P2 O8'
_cell_volume   142.66327955
_cell_formula_units_Z   2
loop_
 _symmetry_equiv_pos_site_id
 _symmetry_equiv_pos_as_xyz
  1  'x, y, z'
loop_
 _atom_site_type_symbol
 _atom_site_label
 _atom_site_symmetry_multiplicity
 _atom_site_fract_x
 _atom_site_fract_y
 _atom_site_fract_z
 _atom_site_occupancy
  Lu  Lu0  1  0.25000000  0.75000000  0.50000000  1.0
  Lu  Lu1  1  0.50000000  0.50000000  -0.00000000  1.0
  P  P2  1  0.00000000  0.00000000  0.00000000  1.0
  P  P3  1  0.75000000  1.25000000  0.50000000  1.0
  O  O4  1  0.16303188  0.98699198  0.82396010  1.0
  O  O5  1  0.73699198  0.41303188  0.32396010  1.0
  O  O6  1  1.08907178  1.41303188  0.67603990  1.0
  O  O7  1  0.16303188  0.33907178  0.17603990  1.0
  O  O8  1  0.58696812  1.26300802  0.67603990  1.0
  O  O9  1  1.01300802  0.83696812  1.17603990  1.0
  O  O10  1  1.66092822  0.83696812  0.82396010  1.0
  O  O11  1  0.58696812  0.91092822  0.32396010  1.0
