# generated using pymatgen
data_ZrZn22
_symmetry_space_group_name_H-M   'P 1'
_cell_length_a   9.99299166
_cell_length_b   9.99299166
_cell_length_c   9.99299166
_cell_angle_alpha   60.00000000
_cell_angle_beta   60.00000000
_cell_angle_gamma   60.00000000
_symmetry_Int_Tables_number   1
_chemical_formula_structural   ZrZn22
_chemical_formula_sum   'Zr2 Zn44'
_cell_volume   705.62112866
_cell_formula_units_Z   2
loop_
 _symmetry_equiv_pos_site_id
 _symmetry_equiv_pos_as_xyz
  1  'x, y, z'
loop_
 _atom_site_type_symbol
 _atom_site_label
 _atom_site_symmetry_multiplicity
 _atom_site_fract_x
 _atom_site_fract_y
 _atom_site_fract_z
 _atom_site_occupancy
  Zr  Zr0  1  0.25000000  0.25000000  0.25000000  1.0
  Zr  Zr1  1  0.00000000  1.00000000  0.00000000  1.0
  Zn  Zn2  1  0.62500000  -0.37500000  1.12500000  1.0
  Zn  Zn3  1  0.62500000  0.12500000  0.62500000  1.0
  Zn  Zn4  1  1.12500000  -0.37500000  0.62500000  1.0
  Zn  Zn5  1  0.62500000  -0.37500000  0.62500000  1.0
  Zn  Zn6  1  0.12500000  0.12500000  1.62500000  1.0
  Zn  Zn7  1  0.12500000  0.62500000  0.12500000  1.0
  Zn  Zn8  1  0.62500000  0.12500000  1.12500000  1.0
  Zn  Zn9  1  0.12500000  0.12500000  0.12500000  1.0
  Zn  Zn10  1  0.61037971  -0.38962029  0.88962029  1.0
  Zn  Zn11  1  0.88962029  -0.38962029  0.88962029  1.0
  Zn  Zn12  1  0.61037971  -0.11037971  0.88962029  1.0
  Zn  Zn13  1  0.88962029  -0.11037971  0.61037971  1.0
  Zn  Zn14  1  0.61037971  -0.11037971  0.61037971  1.0
  Zn  Zn15  1  0.88962029  -0.38962029  0.61037971  1.0
  Zn  Zn16  1  -0.36037971  0.63962029  0.36037971  1.0
  Zn  Zn17  1  0.36037971  0.63962029  0.36037971  1.0
  Zn  Zn18  1  -0.36037971  1.36037971  0.36037971  1.0
  Zn  Zn19  1  0.36037971  0.36037971  -0.36037971  1.0
  Zn  Zn20  1  0.63962029  0.36037971  0.63962029  1.0
  Zn  Zn21  1  0.36037971  0.63962029  -0.36037971  1.0
  Zn  Zn22  1  0.44387326  -0.07046160  0.18271508  1.0
  Zn  Zn23  1  0.44387326  0.44387326  0.18271508  1.0
  Zn  Zn24  1  -0.07046160  0.44387326  0.18271508  1.0
  Zn  Zn25  1  0.44387326  0.18271508  -0.07046160  1.0
  Zn  Zn26  1  -0.07046160  0.18271508  0.44387326  1.0
  Zn  Zn27  1  0.44387326  0.18271508  0.44387326  1.0
  Zn  Zn28  1  0.18271508  0.44387326  0.44387326  1.0
  Zn  Zn29  1  0.18271508  -0.07046160  0.44387326  1.0
  Zn  Zn30  1  0.18271508  0.44387326  -0.07046160  1.0
  Zn  Zn31  1  -0.07046160  0.44387326  0.44387326  1.0
  Zn  Zn32  1  0.44387326  0.44387326  -0.07046160  1.0
  Zn  Zn33  1  0.44387326  -0.07046160  0.44387326  1.0
  Zn  Zn34  1  0.80612674  -0.67953840  1.06728492  1.0
  Zn  Zn35  1  0.80612674  -0.19387326  1.06728492  1.0
  Zn  Zn36  1  -0.67953840  0.80612674  1.06728492  1.0
  Zn  Zn37  1  -0.19387326  1.06728492  0.32046160  1.0
  Zn  Zn38  1  -0.67953840  1.06728492  0.80612674  1.0
  Zn  Zn39  1  0.80612674  0.06728492  0.80612674  1.0
  Zn  Zn40  1  1.06728492  -0.19387326  0.80612674  1.0
  Zn  Zn41  1  1.06728492  -0.67953840  0.80612674  1.0
  Zn  Zn42  1  0.06728492  0.80612674  0.32046160  1.0
  Zn  Zn43  1  -0.67953840  0.80612674  0.80612674  1.0
  Zn  Zn44  1  -0.19387326  0.80612674  0.32046160  1.0
  Zn  Zn45  1  0.80612674  -0.67953840  0.80612674  1.0
