# generated using pymatgen
data_SiO2
_symmetry_space_group_name_H-M   'P 1'
_cell_length_a   8.96329224
_cell_length_b   8.03872389
_cell_length_c   8.96333448
_cell_angle_alpha   90.00000000
_cell_angle_beta   90.00045005
_cell_angle_gamma   90.00000000
_symmetry_Int_Tables_number   1
_chemical_formula_structural   SiO2
_chemical_formula_sum   'Si16 O32'
_cell_volume   645.83900639
_cell_formula_units_Z   16
loop_
 _symmetry_equiv_pos_site_id
 _symmetry_equiv_pos_as_xyz
  1  'x, y, z'
loop_
 _atom_site_type_symbol
 _atom_site_label
 _atom_site_symmetry_multiplicity
 _atom_site_fract_x
 _atom_site_fract_y
 _atom_site_fract_z
 _atom_site_occupancy
  Si  Si0  1  0.15787742  0.61656943  0.84913814  1.0
  Si  Si1  1  0.84212258  0.11656943  0.65086186  1.0
  Si  Si2  1  0.84212258  0.38343057  0.15086186  1.0
  Si  Si3  1  0.15787742  0.88343057  0.34913814  1.0
  Si  Si4  1  0.65761825  0.11574645  0.34857609  1.0
  Si  Si5  1  0.34238175  0.61574645  0.15142391  1.0
  Si  Si6  1  0.34238175  0.88425355  0.65142391  1.0
  Si  Si7  1  0.65761825  0.38425355  0.84857609  1.0
  Si  Si8  1  0.59869819  0.86589216  0.09213747  1.0
  Si  Si9  1  0.40130181  0.36589216  0.40786253  1.0
  Si  Si10  1  0.40130181  0.13410784  0.90786253  1.0
  Si  Si11  1  0.59869819  0.63410784  0.59213747  1.0
  Si  Si12  1  0.09902908  0.36641180  0.59237772  1.0
  Si  Si13  1  0.90097092  0.86641180  0.90762228  1.0
  Si  Si14  1  0.90097092  0.63358820  0.40762228  1.0
  Si  Si15  1  0.09902908  0.13358820  0.09237772  1.0
  O  O16  1  0.74890902  0.24942727  0.24862790  1.0
  O  O17  1  0.25109098  0.74942727  0.25137210  1.0
  O  O18  1  0.25109098  0.75057273  0.75137210  1.0
  O  O19  1  0.74890902  0.25057273  0.74862790  1.0
  O  O20  1  0.50000000  0.00000000  0.00000000  1.0
  O  O21  1  0.50000000  0.50000000  0.50000000  1.0
  O  O22  1  0.00000000  0.50000000  0.50000000  1.0
  O  O23  1  0.00000000  0.00000000  0.00000000  1.0
  O  O24  1  0.75105274  0.07648699  0.49908345  1.0
  O  O25  1  0.24894726  0.57648699  0.00091655  1.0
  O  O26  1  0.24894726  0.92351301  0.50091655  1.0
  O  O27  1  0.75105274  0.42351301  0.99908345  1.0
  O  O28  1  0.24995022  0.32645718  0.49986621  1.0
  O  O29  1  0.75004978  0.82645718  0.00013379  1.0
  O  O30  1  0.75004978  0.67354282  0.50013379  1.0
  O  O31  1  0.24995022  0.17354282  0.99986621  1.0
  O  O32  1  0.99354799  0.69352634  0.88695592  1.0
  O  O33  1  0.00645201  0.19352634  0.61304408  1.0
  O  O34  1  0.00645201  0.30647366  0.11304408  1.0
  O  O35  1  0.99354799  0.80647366  0.38695592  1.0
  O  O36  1  0.49375864  0.19272027  0.38842185  1.0
  O  O37  1  0.50624136  0.69272027  0.11157815  1.0
  O  O38  1  0.50624136  0.80727973  0.61157815  1.0
  O  O39  1  0.49375864  0.30727973  0.88842185  1.0
  O  O40  1  0.63711732  0.94247240  0.25649434  1.0
  O  O41  1  0.36288268  0.44247240  0.24350566  1.0
  O  O42  1  0.36288268  0.05752760  0.74350566  1.0
  O  O43  1  0.63711732  0.55752760  0.75649434  1.0
  O  O44  1  0.13832731  0.44376097  0.75620373  1.0
  O  O45  1  0.86167269  0.94376097  0.74379627  1.0
  O  O46  1  0.86167269  0.55623903  0.24379627  1.0
  O  O47  1  0.13832731  0.05623903  0.25620373  1.0
