# generated using pymatgen
data_Ti(MoS2)2
_symmetry_space_group_name_H-M   'P 1'
_cell_length_a   6.76269288
_cell_length_b   6.76269288
_cell_length_c   6.01975341
_cell_angle_alpha   67.23733941
_cell_angle_beta   112.76266059
_cell_angle_gamma   152.69927902
_symmetry_Int_Tables_number   1
_chemical_formula_structural   Ti(MoS2)2
_chemical_formula_sum   'Ti1 Mo2 S4'
_cell_volume   115.83193378
_cell_formula_units_Z   1
loop_
 _symmetry_equiv_pos_site_id
 _symmetry_equiv_pos_as_xyz
  1  'x, y, z'
loop_
 _atom_site_type_symbol
 _atom_site_label
 _atom_site_symmetry_multiplicity
 _atom_site_fract_x
 _atom_site_fract_y
 _atom_site_fract_z
 _atom_site_occupancy
  Ti  Ti0  1  0.00000000  0.00000000  0.00000000  1.0
  Mo  Mo1  1  0.74167275  -0.74167275  0.68597891  1.0
  Mo  Mo2  1  1.25832725  -0.25832725  0.31402109  1.0
  S  S3  1  0.89025353  -0.89025353  0.55627505  1.0
  S  S4  1  1.10974647  -0.10974647  0.44372495  1.0
  S  S5  1  0.63753091  -0.63753091  0.97119940  1.0
  S  S6  1  1.36246909  -0.36246909  0.02880060  1.0
