# generated using pymatgen
data_Na2Hg3S4
_symmetry_space_group_name_H-M   'P 1'
_cell_length_a   7.59137626
_cell_length_b   14.23909954
_cell_length_c   8.46805459
_cell_angle_alpha   90.00000000
_cell_angle_beta   90.00000000
_cell_angle_gamma   90.00000000
_symmetry_Int_Tables_number   1
_chemical_formula_structural   Na2Hg3S4
_chemical_formula_sum   'Na8 Hg12 S16'
_cell_volume   915.34895984
_cell_formula_units_Z   4
loop_
 _symmetry_equiv_pos_site_id
 _symmetry_equiv_pos_as_xyz
  1  'x, y, z'
loop_
 _atom_site_type_symbol
 _atom_site_label
 _atom_site_symmetry_multiplicity
 _atom_site_fract_x
 _atom_site_fract_y
 _atom_site_fract_z
 _atom_site_occupancy
  Na  Na0  1  0.06311586  0.39268786  0.11806456  1.0
  Na  Na1  1  0.06311586  0.10731214  0.61806456  1.0
  Na  Na2  1  0.56311586  0.39268786  0.38193544  1.0
  Na  Na3  1  0.56311586  0.10731214  0.88193544  1.0
  Na  Na4  1  0.93688414  0.89268786  0.38193544  1.0
  Na  Na5  1  0.93688414  0.60731214  0.88193544  1.0
  Na  Na6  1  0.43688414  0.89268786  0.11806456  1.0
  Na  Na7  1  0.43688414  0.60731214  0.61806456  1.0
  Hg  Hg8  1  0.26971861  0.19150458  0.27553413  1.0
  Hg  Hg9  1  0.26971861  0.30849542  0.77553413  1.0
  Hg  Hg10  1  0.76971861  0.19150458  0.22446587  1.0
  Hg  Hg11  1  0.76971861  0.30849542  0.72446587  1.0
  Hg  Hg12  1  0.73028139  0.69150458  0.22446587  1.0
  Hg  Hg13  1  0.73028139  0.80849542  0.72446587  1.0
  Hg  Hg14  1  0.23028139  0.69150458  0.27553413  1.0
  Hg  Hg15  1  0.23028139  0.80849542  0.77553413  1.0
  Hg  Hg16  1  0.50000000  0.50000000  0.00000000  1.0
  Hg  Hg17  1  0.50000000  0.00000000  0.50000000  1.0
  Hg  Hg18  1  0.00000000  0.50000000  0.50000000  1.0
  Hg  Hg19  1  0.00000000  0.00000000  0.00000000  1.0
  S  S20  1  0.49261856  0.26563640  0.10936901  1.0
  S  S21  1  0.49261856  0.23436360  0.60936901  1.0
  S  S22  1  0.99261856  0.26563640  0.39063099  1.0
  S  S23  1  0.99261856  0.23436360  0.89063099  1.0
  S  S24  1  0.50738144  0.76563640  0.39063099  1.0
  S  S25  1  0.50738144  0.73436360  0.89063099  1.0
  S  S26  1  0.00738144  0.76563640  0.10936901  1.0
  S  S27  1  0.00738144  0.73436360  0.60936901  1.0
  S  S28  1  0.24142684  0.01593816  0.34783674  1.0
  S  S29  1  0.24142684  0.48406184  0.84783674  1.0
  S  S30  1  0.74142684  0.01593816  0.15216326  1.0
  S  S31  1  0.74142684  0.48406184  0.65216326  1.0
  S  S32  1  0.75857316  0.51593816  0.15216326  1.0
  S  S33  1  0.75857316  0.98406184  0.65216326  1.0
  S  S34  1  0.25857316  0.51593816  0.34783674  1.0
  S  S35  1  0.25857316  0.98406184  0.84783674  1.0
