# generated using pymatgen
data_Fe(SbO3)2
_symmetry_space_group_name_H-M   'P 1'
_cell_length_a   4.76251797
_cell_length_b   4.76251797
_cell_length_c   9.55217499
_cell_angle_alpha   90.00000000
_cell_angle_beta   90.00000000
_cell_angle_gamma   90.00000000
_symmetry_Int_Tables_number   1
_chemical_formula_structural   Fe(SbO3)2
_chemical_formula_sum   'Fe2 Sb4 O12'
_cell_volume   216.65839628
_cell_formula_units_Z   2
loop_
 _symmetry_equiv_pos_site_id
 _symmetry_equiv_pos_as_xyz
  1  'x, y, z'
loop_
 _atom_site_type_symbol
 _atom_site_label
 _atom_site_symmetry_multiplicity
 _atom_site_fract_x
 _atom_site_fract_y
 _atom_site_fract_z
 _atom_site_occupancy
  Fe  Fe0  1  0.50000000  0.50000000  0.50000000  1.0
  Fe  Fe1  1  0.00000000  0.00000000  0.00000000  1.0
  Sb  Sb2  1  0.50000000  0.50000000  0.16750722  1.0
  Sb  Sb3  1  0.50000000  0.50000000  0.83249278  1.0
  Sb  Sb4  1  0.00000000  0.00000000  0.66750722  1.0
  Sb  Sb5  1  0.00000000  0.00000000  0.33249278  1.0
  O  O6  1  0.19473937  0.80526063  0.16797499  1.0
  O  O7  1  0.19473937  0.80526063  0.83202501  1.0
  O  O8  1  0.69473937  0.69473937  0.66797499  1.0
  O  O9  1  0.69473937  0.69473937  0.33202501  1.0
  O  O10  1  0.80526063  0.19473937  0.16797499  1.0
  O  O11  1  0.80526063  0.19473937  0.83202501  1.0
  O  O12  1  0.30526063  0.30526063  0.66797499  1.0
  O  O13  1  0.30526063  0.30526063  0.33202501  1.0
  O  O14  1  0.19233818  0.80766182  0.50000000  1.0
  O  O15  1  0.69233818  0.69233818  0.00000000  1.0
  O  O16  1  0.80766182  0.19233818  0.50000000  1.0
  O  O17  1  0.30766182  0.30766182  0.00000000  1.0
