# generated using pymatgen
data_La10C4I15
_symmetry_space_group_name_H-M   'P 1'
_cell_length_a   12.00801605
_cell_length_b   10.86822292
_cell_length_c   9.95171274
_cell_angle_alpha   70.73605812
_cell_angle_beta   65.47631228
_cell_angle_gamma   70.30932684
_symmetry_Int_Tables_number   1
_chemical_formula_structural   La10C4I15
_chemical_formula_sum   'La10 C4 I15'
_cell_volume   1084.76980730
_cell_formula_units_Z   1
loop_
 _symmetry_equiv_pos_site_id
 _symmetry_equiv_pos_as_xyz
  1  'x, y, z'
loop_
 _atom_site_type_symbol
 _atom_site_label
 _atom_site_symmetry_multiplicity
 _atom_site_fract_x
 _atom_site_fract_y
 _atom_site_fract_z
 _atom_site_occupancy
  La  La0  1  0.89673484  -0.31162351  0.07447024  1.0
  La  La1  1  0.10326516  -0.68837649  -0.07447024  1.0
  La  La2  1  0.65778657  -0.95887820  0.24320374  1.0
  La  La3  1  0.34221343  -0.04112180  -0.24320374  1.0
  La  La4  1  0.95599010  -0.93281967  -0.16093514  1.0
  La  La5  1  0.04400990  -0.06718033  0.16093514  1.0
  La  La6  1  0.74280115  -0.61569289  -0.02185914  1.0
  La  La7  1  0.25719885  -0.38430711  0.02185914  1.0
  La  La8  1  0.83570001  -0.75507119  -0.67905413  1.0
  La  La9  1  0.16429999  -0.24492881  0.67905413  1.0
  C  C10  1  0.93680886  -0.80056080  0.04485704  1.0
  C  C11  1  0.06319114  -0.19943920  -0.04485704  1.0
  C  C12  1  0.83401914  -0.86175734  0.11806480  1.0
  C  C13  1  0.16598086  -0.13824266  -0.11806480  1.0
  I  I14  1  0.64999010  -0.46958816  0.25632686  1.0
  I  I15  1  0.35000990  -0.53041184  -0.25632686  1.0
  I  I16  1  0.17808969  -0.76781934  0.60784389  1.0
  I  I17  1  0.82191031  -0.23218066  -0.60784389  1.0
  I  I18  1  0.93817553  -0.40694256  -0.22965958  1.0
  I  I19  1  0.06182447  -0.59305744  0.22965958  1.0
  I  I20  1  0.46797405  -0.68686828  0.13500150  1.0
  I  I21  1  0.53202595  -0.31313172  -0.13500150  1.0
  I  I22  1  0.78185431  -0.66788002  -0.33601787  1.0
  I  I23  1  0.21814569  -0.33211998  0.33601787  1.0
  I  I24  1  0.29525234  -0.94562274  0.05493380  1.0
  I  I25  1  0.70474766  -0.05437726  -0.05493380  1.0
  I  I26  1  0.58673224  -0.86909524  -0.44748906  1.0
  I  I27  1  0.41326776  -0.13090476  0.44748906  1.0
  I  I28  1  0.00000000  0.00000000  0.50000000  1.0
