# generated using pymatgen
data_YbClO
_symmetry_space_group_name_H-M   'P 1'
_cell_length_a   10.09809356
_cell_length_b   10.09809356
_cell_length_c   10.09809356
_cell_angle_alpha   21.59495657
_cell_angle_beta   21.59495657
_cell_angle_gamma   21.59495657
_symmetry_Int_Tables_number   1
_chemical_formula_structural   YbClO
_chemical_formula_sum   'Yb2 Cl2 O2'
_cell_volume   122.22338241
_cell_formula_units_Z   2
loop_
 _symmetry_equiv_pos_site_id
 _symmetry_equiv_pos_as_xyz
  1  'x, y, z'
loop_
 _atom_site_type_symbol
 _atom_site_label
 _atom_site_symmetry_multiplicity
 _atom_site_fract_x
 _atom_site_fract_y
 _atom_site_fract_z
 _atom_site_occupancy
  Yb  Yb0  1  0.88156327  0.88156327  0.88156327  1.0
  Yb  Yb1  1  1.11843673  1.11843673  0.11843673  1.0
  Cl  Cl2  1  1.60601857  0.60601857  0.60601857  1.0
  Cl  Cl3  1  1.39398143  0.39398143  0.39398143  1.0
  O  O4  1  0.80480896  0.80480896  0.80480896  1.0
  O  O5  1  1.19519104  1.19519104  0.19519104  1.0
