# generated using pymatgen
data_CuSe
_symmetry_space_group_name_H-M   'P 1'
_cell_length_a   4.02558090
_cell_length_b   4.02558090
_cell_length_c   17.53365788
_cell_angle_alpha   90.00000000
_cell_angle_beta   90.00000000
_cell_angle_gamma   120.00000000
_symmetry_Int_Tables_number   1
_chemical_formula_structural   CuSe
_chemical_formula_sum   'Cu6 Se6'
_cell_volume   246.07091117
_cell_formula_units_Z   6
loop_
 _symmetry_equiv_pos_site_id
 _symmetry_equiv_pos_as_xyz
  1  'x, y, z'
loop_
 _atom_site_type_symbol
 _atom_site_label
 _atom_site_symmetry_multiplicity
 _atom_site_fract_x
 _atom_site_fract_y
 _atom_site_fract_z
 _atom_site_occupancy
  Cu  Cu0  1  0.33333333  0.66666667  0.39227286  1.0
  Cu  Cu1  1  0.33333333  0.66666667  0.10772714  1.0
  Cu  Cu2  1  0.66666667  0.33333333  0.89227286  1.0
  Cu  Cu3  1  0.66666667  0.33333333  0.60772714  1.0
  Cu  Cu4  1  0.33333333  0.66666667  0.75000000  1.0
  Cu  Cu5  1  0.66666667  0.33333333  0.25000000  1.0
  Se  Se6  1  -0.00000000  -0.00000000  0.43060056  1.0
  Se  Se7  1  0.00000000  0.00000000  0.06939944  1.0
  Se  Se8  1  -0.00000000  -0.00000000  0.93060056  1.0
  Se  Se9  1  0.00000000  0.00000000  0.56939944  1.0
  Se  Se10  1  0.33333333  0.66666667  0.25000000  1.0
  Se  Se11  1  0.66666667  0.33333333  0.75000000  1.0
