# generated using pymatgen
data_Mg(BH4)2
_symmetry_space_group_name_H-M   'P 1'
_cell_length_a   8.23288015
_cell_length_b   8.21940390
_cell_length_c   7.62003934
_cell_angle_alpha   62.49863920
_cell_angle_beta   62.31902807
_cell_angle_gamma   55.18233273
_symmetry_Int_Tables_number   1
_chemical_formula_structural   Mg(BH4)2
_chemical_formula_sum   'Mg4 B8 H32'
_cell_volume   360.92147674
_cell_formula_units_Z   4
loop_
 _symmetry_equiv_pos_site_id
 _symmetry_equiv_pos_as_xyz
  1  'x, y, z'
loop_
 _atom_site_type_symbol
 _atom_site_label
 _atom_site_symmetry_multiplicity
 _atom_site_fract_x
 _atom_site_fract_y
 _atom_site_fract_z
 _atom_site_occupancy
  Mg  Mg0  1  0.00000000  1.00000000  -0.00000000  1.0
  Mg  Mg1  1  0.25000000  0.25000000  0.25000000  1.0
  Mg  Mg2  1  0.50000000  0.50000000  0.50000000  1.0
  Mg  Mg3  1  0.75000000  -0.25000000  0.75000000  1.0
  B  B4  1  0.37448315  0.87516215  0.40948055  1.0
  B  B5  1  0.34087415  0.40948055  -0.12483785  1.0
  B  B6  1  0.40948055  0.34087415  0.37448315  1.0
  B  B7  1  -0.12483785  1.37448315  0.34087415  1.0
  B  B8  1  0.87551685  -0.62516215  0.84051945  1.0
  B  B9  1  -0.09087415  0.84051945  0.37483785  1.0
  B  B10  1  0.84051945  -0.09087415  0.87551685  1.0
  B  B11  1  -0.62516215  0.87551685  0.90912585  1.0
  H  H12  1  0.35682753  0.23496462  -0.04943332  1.0
  H  H13  1  0.45764117  -0.04943332  0.23496462  1.0
  H  H14  1  -0.04943332  0.45764117  0.35682753  1.0
  H  H15  1  0.23496462  0.35682753  0.45764117  1.0
  H  H16  1  -0.10682753  1.01503538  0.29943332  1.0
  H  H17  1  0.79235883  0.29943332  1.01503538  1.0
  H  H18  1  0.29943332  0.79235883  -0.10682753  1.0
  H  H19  1  1.01503538  -0.10682753  0.79235883  1.0
  H  H20  1  0.23997544  0.99874578  0.51093889  1.0
  H  H21  1  0.25033988  0.51093889  -0.00125422  1.0
  H  H22  1  0.51093889  0.25033988  0.23997544  1.0
  H  H23  1  -0.00125422  1.23997544  0.25033988  1.0
  H  H24  1  0.01002456  0.25125422  1.73906111  1.0
  H  H25  1  -0.00033988  0.73906111  0.25125422  1.0
  H  H26  1  0.73906111  -0.00033988  1.01002456  1.0
  H  H27  1  0.25125422  0.01002456  -0.00033988  1.0
  H  H28  1  -0.20097894  1.29015148  0.51411423  1.0
  H  H29  1  0.39671324  0.51411423  0.29015148  1.0
  H  H30  1  0.51411423  0.39671324  -0.20097894  1.0
  H  H31  1  0.29015148  0.79902106  0.39671324  1.0
  H  H32  1  -0.54902106  0.95984852  0.73588577  1.0
  H  H33  1  0.85328676  -0.26411423  0.95984852  1.0
  H  H34  1  -0.26411423  0.85328676  0.45097894  1.0
  H  H35  1  0.95984852  -0.54902106  0.85328676  1.0
  H  H36  1  0.49747442  0.23984566  0.51025876  1.0
  H  H37  1  -0.24757884  0.51025876  0.23984566  1.0
  H  H38  1  0.51025876  -0.24757884  0.49747442  1.0
  H  H39  1  0.23984566  0.49747442  -0.24757884  1.0
  H  H40  1  0.75252558  0.01015434  0.73974124  1.0
  H  H41  1  0.49757884  0.73974124  0.01015434  1.0
  H  H42  1  0.73974124  0.49757884  0.75252558  1.0
  H  H43  1  0.01015434  0.75252558  0.49757884  1.0
