# generated using pymatgen
data_Na4Ni(PO4)6
_symmetry_space_group_name_H-M   'P 1'
_cell_length_a   8.95691831
_cell_length_b   6.90135349
_cell_length_c   8.88815528
_cell_angle_alpha   107.24445789
_cell_angle_beta   103.58002749
_cell_angle_gamma   87.99536051
_symmetry_Int_Tables_number   1
_chemical_formula_structural   Na4Ni(PO4)6
_chemical_formula_sum   'Na4 Ni1 P6 O24'
_cell_volume   509.69822775
_cell_formula_units_Z   1
loop_
 _symmetry_equiv_pos_site_id
 _symmetry_equiv_pos_as_xyz
  1  'x, y, z'
loop_
 _atom_site_type_symbol
 _atom_site_label
 _atom_site_symmetry_multiplicity
 _atom_site_fract_x
 _atom_site_fract_y
 _atom_site_fract_z
 _atom_site_occupancy
  O  O0  1  0.61814610  0.87384010  -0.59952777  1.0
  O  O1  1  0.38185390  0.12615990  -0.40047223  1.0
  O  O2  1  0.87267781  0.70603206  -0.54048861  1.0
  O  O3  1  0.12732219  0.29396794  -0.45951139  1.0
  O  O4  1  0.69029232  0.74525425  -0.35042378  1.0
  O  O5  1  0.30970768  0.25474575  -0.64957622  1.0
  O  O6  1  0.70412594  0.59645526  -0.82212605  1.0
  O  O7  1  0.29587406  0.40354474  -0.17787395  1.0
  O  O8  1  0.43257897  0.57759558  -0.77749303  1.0
  O  O9  1  0.56742103  0.42240442  -0.22250697  1.0
  O  O10  1  0.04234014  0.74933335  -0.97467072  1.0
  O  O11  1  0.95765986  0.25066665  -0.02532928  1.0
  O  O12  1  0.96533841  0.08148086  -0.79926249  1.0
  O  O13  1  0.03466159  0.91851914  -0.20073751  1.0
  O  O14  1  0.82108746  0.85787511  -0.04221708  1.0
  O  O15  1  0.17891254  0.14212489  -0.95778292  1.0
  O  O16  1  1.03566401  0.55883895  -0.24576904  1.0
  O  O17  1  -0.03566401  0.44116105  -0.75423096  1.0
  O  O18  1  0.73365847  0.35269261  -0.64730789  1.0
  O  O19  1  0.26634153  0.64730739  -0.35269211  1.0
  O  O20  1  0.51115900  0.85177929  -0.89447171  1.0
  O  O21  1  0.48884100  0.14822071  -0.10552829  1.0
  O  O22  1  0.16961369  0.93884285  -0.63396045  1.0
  O  O23  1  0.83038631  0.06115715  -0.36603955  1.0
  P  P24  1  0.75470968  0.85247602  -0.44851975  1.0
  P  P25  1  0.24529032  0.14752398  -0.55148025  1.0
  P  P26  1  0.55207992  0.72159510  -0.78331328  1.0
  P  P27  1  0.44792008  0.27840490  -0.21668672  1.0
  P  P28  1  0.81883383  0.50202396  -0.69299786  1.0
  P  P29  1  0.18116617  0.49797604  -0.30700214  1.0
  Ni  Ni30  1  0.00000000  0.00000000  0.00000000  1.0
  Na  Na31  1  0.77951743  0.40532991  -0.34147096  1.0
  Na  Na32  1  0.22048257  0.59467009  -0.65852904  1.0
  Na  Na33  1  0.48069019  0.21195422  -0.82513702  1.0
  Na  Na34  1  0.51930981  0.78804578  -0.17486298  1.0
