# generated using pymatgen
data_Be3Fe4Si3SO12
_symmetry_space_group_name_H-M   'P 1'
_cell_length_a   8.22139434
_cell_length_b   8.22139434
_cell_length_c   8.22139434
_cell_angle_alpha   90.00000000
_cell_angle_beta   90.00000000
_cell_angle_gamma   90.00000000
_symmetry_Int_Tables_number   1
_chemical_formula_structural   Be3Fe4Si3SO12
_chemical_formula_sum   'Be6 Fe8 Si6 S2 O24'
_cell_volume   555.69493635
_cell_formula_units_Z   2
loop_
 _symmetry_equiv_pos_site_id
 _symmetry_equiv_pos_as_xyz
  1  'x, y, z'
loop_
 _atom_site_type_symbol
 _atom_site_label
 _atom_site_symmetry_multiplicity
 _atom_site_fract_x
 _atom_site_fract_y
 _atom_site_fract_z
 _atom_site_occupancy
  Be  Be0  1  0.25000000  0.00000000  0.50000000  1.0
  Be  Be1  1  0.75000000  0.00000000  0.50000000  1.0
  Be  Be2  1  0.50000000  0.25000000  0.00000000  1.0
  Be  Be3  1  0.50000000  0.75000000  0.00000000  1.0
  Be  Be4  1  0.00000000  0.50000000  0.25000000  1.0
  Be  Be5  1  0.00000000  0.50000000  0.75000000  1.0
  Fe  Fe6  1  0.33631634  0.33631634  0.66368366  1.0
  Fe  Fe7  1  0.33631634  0.66368366  0.33631634  1.0
  Fe  Fe8  1  0.83631634  0.83631634  0.16368366  1.0
  Fe  Fe9  1  0.83631634  0.16368366  0.83631634  1.0
  Fe  Fe10  1  0.66368366  0.33631634  0.33631634  1.0
  Fe  Fe11  1  0.66368366  0.66368366  0.66368366  1.0
  Fe  Fe12  1  0.16368366  0.83631634  0.83631634  1.0
  Fe  Fe13  1  0.16368366  0.16368366  0.16368366  1.0
  Si  Si14  1  0.25000000  0.50000000  0.00000000  1.0
  Si  Si15  1  0.75000000  0.50000000  0.00000000  1.0
  Si  Si16  1  0.00000000  0.25000000  0.50000000  1.0
  Si  Si17  1  0.00000000  0.75000000  0.50000000  1.0
  Si  Si18  1  0.50000000  0.00000000  0.25000000  1.0
  Si  Si19  1  0.50000000  0.00000000  0.75000000  1.0
  S  S20  1  0.50000000  0.50000000  0.50000000  1.0
  S  S21  1  0.00000000  0.00000000  0.00000000  1.0
  O  O22  1  0.36098095  0.09165048  0.63871196  1.0
  O  O23  1  0.36098095  0.90834952  0.36128804  1.0
  O  O24  1  0.86098095  0.86128804  0.40834952  1.0
  O  O25  1  0.86098095  0.13871196  0.59165048  1.0
  O  O26  1  0.36128804  0.36098095  0.90834952  1.0
  O  O27  1  0.36128804  0.63901905  0.09165048  1.0
  O  O28  1  0.86128804  0.59165048  0.13901905  1.0
  O  O29  1  0.86128804  0.40834952  0.86098095  1.0
  O  O30  1  0.09165048  0.36128804  0.63901905  1.0
  O  O31  1  0.09165048  0.63871196  0.36098095  1.0
  O  O32  1  0.59165048  0.86098095  0.13871196  1.0
  O  O33  1  0.59165048  0.13901905  0.86128804  1.0
  O  O34  1  0.63901905  0.09165048  0.36128804  1.0
  O  O35  1  0.63901905  0.90834952  0.63871196  1.0
  O  O36  1  0.13901905  0.86128804  0.59165048  1.0
  O  O37  1  0.13901905  0.13871196  0.40834952  1.0
  O  O38  1  0.63871196  0.36098095  0.09165048  1.0
  O  O39  1  0.63871196  0.63901905  0.90834952  1.0
  O  O40  1  0.13871196  0.59165048  0.86098095  1.0
  O  O41  1  0.13871196  0.40834952  0.13901905  1.0
  O  O42  1  0.90834952  0.36128804  0.36098095  1.0
  O  O43  1  0.90834952  0.63871196  0.63901905  1.0
  O  O44  1  0.40834952  0.86098095  0.86128804  1.0
  O  O45  1  0.40834952  0.13901905  0.13871196  1.0
