# generated using pymatgen
data_I2N3
_symmetry_space_group_name_H-M   'P 1'
_cell_length_a   13.25614483
_cell_length_b   13.25614483
_cell_length_c   4.20236871
_cell_angle_alpha   90.00000000
_cell_angle_beta   90.00000000
_cell_angle_gamma   90.00000000
_symmetry_Int_Tables_number   1
_chemical_formula_structural   I2N3
_chemical_formula_sum   'I8 N12'
_cell_volume   738.46282110
_cell_formula_units_Z   4
loop_
 _symmetry_equiv_pos_site_id
 _symmetry_equiv_pos_as_xyz
  1  'x, y, z'
loop_
 _atom_site_type_symbol
 _atom_site_label
 _atom_site_symmetry_multiplicity
 _atom_site_fract_x
 _atom_site_fract_y
 _atom_site_fract_z
 _atom_site_occupancy
  N  N0  1  0.55155664  0.94845374  0.55800716  1.0
  N  N1  1  1.05155664  0.44845374  0.44199284  1.0
  N  N2  1  0.94845374  0.44844336  0.44199284  1.0
  N  N3  1  0.44845374  -0.05155664  0.55800716  1.0
  N  N4  1  0.44844336  0.05154626  0.55800716  1.0
  N  N5  1  -0.05155664  0.55154626  0.44199284  1.0
  N  N6  1  0.05154626  0.55155664  0.44199284  1.0
  N  N7  1  0.55154626  1.05155664  0.55800716  1.0
  N  N8  1  0.25000000  0.75000000  0.00000000  1.0
  N  N9  1  0.75000000  0.25000000  0.00000000  1.0
  N  N10  1  0.75000000  0.75000000  -0.00000000  1.0
  N  N11  1  0.25000000  0.25000000  0.00000000  1.0
  I  I12  1  0.16055343  0.33948069  0.73630687  1.0
  I  I13  1  0.66055343  0.83948069  0.26369313  1.0
  I  I14  1  0.33948069  0.83944657  0.26369313  1.0
  I  I15  1  0.83948069  0.33944657  0.73630687  1.0
  I  I16  1  0.83944657  0.66051931  0.73630687  1.0
  I  I17  1  0.33944657  0.16051931  0.26369313  1.0
  I  I18  1  0.66051931  0.16055343  0.26369313  1.0
  I  I19  1  0.16051931  0.66055343  0.73630687  1.0
