# generated using pymatgen
data_Bi12IrO20
_symmetry_space_group_name_H-M   'P 1'
_cell_length_a   8.99611912
_cell_length_b   8.99611912
_cell_length_c   8.99611912
_cell_angle_alpha   109.47122063
_cell_angle_beta   109.47122063
_cell_angle_gamma   109.47122063
_symmetry_Int_Tables_number   1
_chemical_formula_structural   Bi12IrO20
_chemical_formula_sum   'Bi12 Ir1 O20'
_cell_volume   560.45881211
_cell_formula_units_Z   1
loop_
 _symmetry_equiv_pos_site_id
 _symmetry_equiv_pos_as_xyz
  1  'x, y, z'
loop_
 _atom_site_type_symbol
 _atom_site_label
 _atom_site_symmetry_multiplicity
 _atom_site_fract_x
 _atom_site_fract_y
 _atom_site_fract_z
 _atom_site_occupancy
  Bi  Bi0  1  0.49748687  0.33758459  0.19518968  1.0
  Bi  Bi1  1  1.14239492  1.30229720  0.80481032  1.0
  Bi  Bi2  1  0.19518968  0.49748687  0.33758459  1.0
  Bi  Bi3  1  1.15990228  0.85760508  1.66241541  1.0
  Bi  Bi4  1  0.33758459  0.19518968  0.49748687  1.0
  Bi  Bi5  1  0.69770280  0.84009772  0.50251313  1.0
  Bi  Bi6  1  0.85760508  1.66241541  1.15990228  1.0
  Bi  Bi7  1  0.50251313  0.69770280  0.84009772  1.0
  Bi  Bi8  1  0.84009772  0.50251313  0.69770280  1.0
  Bi  Bi9  1  0.80481032  1.14239492  1.30229720  1.0
  Bi  Bi10  1  1.30229720  0.80481032  1.14239492  1.0
  Bi  Bi11  1  1.66241541  1.15990228  0.85760508  1.0
  Ir  Ir12  1  0.00000000  0.00000000  0.00000000  1.0
  O  O13  1  0.38675598  0.38675598  0.38675598  1.0
  O  O14  1  1.00000000  1.00000000  0.61324402  1.0
  O  O15  1  1.00000000  0.61324402  1.00000000  1.0
  O  O16  1  0.61324402  1.00000000  1.00000000  1.0
  O  O17  1  0.78395020  0.78395020  0.78395020  1.0
  O  O18  1  1.00000000  1.00000000  0.21604980  1.0
  O  O19  1  1.00000000  0.21604980  1.00000000  1.0
  O  O20  1  0.21604980  1.00000000  1.00000000  1.0
  O  O21  1  0.73384874  0.62321407  0.37392407  1.0
  O  O22  1  1.24929001  1.35992467  0.62607593  1.0
  O  O23  1  0.37392407  0.73384874  0.62321407  1.0
  O  O24  1  1.11063467  0.75070999  1.37678593  1.0
  O  O25  1  0.62321407  0.37392407  0.73384874  1.0
  O  O26  1  0.64007533  0.88936533  0.26615126  1.0
  O  O27  1  0.75070999  1.37678593  1.11063467  1.0
  O  O28  1  0.26615126  0.64007533  0.88936533  1.0
  O  O29  1  0.88936533  0.26615126  0.64007533  1.0
  O  O30  1  0.62607593  1.24929001  1.35992467  1.0
  O  O31  1  1.35992467  0.62607593  1.24929001  1.0
  O  O32  1  1.37678593  1.11063467  0.75070999  1.0
