# generated using pymatgen
data_Nb4Zn2C
_symmetry_space_group_name_H-M   'P 1'
_cell_length_a   8.41704303
_cell_length_b   8.41704303
_cell_length_c   8.41704303
_cell_angle_alpha   60.00000000
_cell_angle_beta   60.00000000
_cell_angle_gamma   60.00000000
_symmetry_Int_Tables_number   1
_chemical_formula_structural   Nb4Zn2C
_chemical_formula_sum   'Nb16 Zn8 C4'
_cell_volume   421.66120354
_cell_formula_units_Z   4
loop_
 _symmetry_equiv_pos_site_id
 _symmetry_equiv_pos_as_xyz
  1  'x, y, z'
loop_
 _atom_site_type_symbol
 _atom_site_label
 _atom_site_symmetry_multiplicity
 _atom_site_fract_x
 _atom_site_fract_y
 _atom_site_fract_z
 _atom_site_occupancy
  Nb  Nb0  1  1.43955626  0.43955626  0.06044374  1.0
  Nb  Nb1  1  1.06044374  0.43955626  0.06044374  1.0
  Nb  Nb2  1  1.43955626  0.06044374  0.06044374  1.0
  Nb  Nb3  1  1.06044374  0.06044374  0.43955626  1.0
  Nb  Nb4  1  1.43955626  0.06044374  0.43955626  1.0
  Nb  Nb5  1  1.06044374  0.43955626  0.43955626  1.0
  Nb  Nb6  1  0.81044374  0.81044374  -0.81044374  1.0
  Nb  Nb7  1  1.18955626  -0.18955626  0.18955626  1.0
  Nb  Nb8  1  -0.18955626  0.18955626  0.18955626  1.0
  Nb  Nb9  1  0.18955626  0.18955626  -0.18955626  1.0
  Nb  Nb10  1  0.81044374  -0.81044374  0.81044374  1.0
  Nb  Nb11  1  -0.81044374  0.81044374  0.81044374  1.0
  Nb  Nb12  1  0.62500000  0.62500000  1.12500000  1.0
  Nb  Nb13  1  0.62500000  1.12500000  0.62500000  1.0
  Nb  Nb14  1  1.12500000  0.62500000  0.62500000  1.0
  Nb  Nb15  1  0.62500000  0.62500000  0.62500000  1.0
  Zn  Zn16  1  0.83923235  -0.16076765  0.48230296  1.0
  Zn  Zn17  1  0.83923235  -0.51769704  0.83923235  1.0
  Zn  Zn18  1  0.48230296  0.83923235  0.83923235  1.0
  Zn  Zn19  1  0.83923235  0.83923235  0.83923235  1.0
  Zn  Zn20  1  1.41076765  0.41076765  -0.23230296  1.0
  Zn  Zn21  1  1.41076765  -0.23230296  0.41076765  1.0
  Zn  Zn22  1  0.76769704  0.41076765  0.41076765  1.0
  Zn  Zn23  1  1.41076765  0.41076765  0.41076765  1.0
  C  C24  1  0.12500000  0.12500000  1.62500000  1.0
  C  C25  1  0.12500000  0.62500000  1.12500000  1.0
  C  C26  1  1.62500000  0.12500000  0.12500000  1.0
  C  C27  1  1.12500000  0.12500000  0.12500000  1.0
