# generated using pymatgen
data_Ga5Ir3
_symmetry_space_group_name_H-M   'P 1'
_cell_length_a   5.87649904
_cell_length_b   5.87649904
_cell_length_c   14.37106398
_cell_angle_alpha   90.00000000
_cell_angle_beta   90.00000000
_cell_angle_gamma   90.00000000
_symmetry_Int_Tables_number   1
_chemical_formula_structural   Ga5Ir3
_chemical_formula_sum   'Ga20 Ir12'
_cell_volume   496.27941474
_cell_formula_units_Z   4
loop_
 _symmetry_equiv_pos_site_id
 _symmetry_equiv_pos_as_xyz
  1  'x, y, z'
loop_
 _atom_site_type_symbol
 _atom_site_label
 _atom_site_symmetry_multiplicity
 _atom_site_fract_x
 _atom_site_fract_y
 _atom_site_fract_z
 _atom_site_occupancy
  Ga  Ga0  1  0.14833765  0.27118445  0.55247073  1.0
  Ga  Ga1  1  0.35166235  0.77118445  0.05247073  1.0
  Ga  Ga2  1  0.72881555  0.14833765  0.44752927  1.0
  Ga  Ga3  1  0.77118445  0.64833765  0.94752927  1.0
  Ga  Ga4  1  0.85166235  0.72881555  0.55247073  1.0
  Ga  Ga5  1  0.64833765  0.22881555  0.05247073  1.0
  Ga  Ga6  1  0.27118445  0.85166235  0.44752927  1.0
  Ga  Ga7  1  0.22881555  0.35166235  0.94752927  1.0
  Ga  Ga8  1  0.19242692  0.15526306  0.15251192  1.0
  Ga  Ga9  1  0.30757308  0.65526306  0.65251192  1.0
  Ga  Ga10  1  0.84473694  0.19242692  0.84748808  1.0
  Ga  Ga11  1  0.65526306  0.69242692  0.34748808  1.0
  Ga  Ga12  1  0.80757308  0.84473694  0.15251192  1.0
  Ga  Ga13  1  0.69242692  0.34473694  0.65251192  1.0
  Ga  Ga14  1  0.15526306  0.80757308  0.84748808  1.0
  Ga  Ga15  1  0.34473694  0.30757308  0.34748808  1.0
  Ga  Ga16  1  0.33141646  0.16858354  0.75000000  1.0
  Ga  Ga17  1  0.16858354  0.66858354  0.25000000  1.0
  Ga  Ga18  1  0.83141646  0.33141646  0.25000000  1.0
  Ga  Ga19  1  0.66858354  0.83141646  0.75000000  1.0
  Ir  Ir20  1  0.00000000  0.50000000  0.08627307  1.0
  Ir  Ir21  1  0.50000000  0.00000000  0.58627307  1.0
  Ir  Ir22  1  0.50000000  0.00000000  0.91372693  1.0
  Ir  Ir23  1  0.00000000  0.50000000  0.41372693  1.0
  Ir  Ir24  1  0.50000000  0.50000000  0.82756754  1.0
  Ir  Ir25  1  0.00000000  0.00000000  0.32756754  1.0
  Ir  Ir26  1  0.50000000  0.50000000  0.17243246  1.0
  Ir  Ir27  1  0.00000000  0.00000000  0.67243246  1.0
  Ir  Ir28  1  0.00000000  0.50000000  0.75000000  1.0
  Ir  Ir29  1  0.50000000  0.00000000  0.25000000  1.0
  Ir  Ir30  1  0.50000000  0.50000000  0.50000000  1.0
  Ir  Ir31  1  0.00000000  0.00000000  0.00000000  1.0
