# generated using pymatgen
data_Y3Al2(Ni2H3)3
_symmetry_space_group_name_H-M   'P 1'
_cell_length_a   7.97955304
_cell_length_b   7.97955304
_cell_length_c   7.97955304
_cell_angle_alpha   109.47122063
_cell_angle_beta   109.47122063
_cell_angle_gamma   109.47122063
_symmetry_Int_Tables_number   1
_chemical_formula_structural   Y3Al2(Ni2H3)3
_chemical_formula_sum   'Y6 Al4 Ni12 H18'
_cell_volume   391.12340680
_cell_formula_units_Z   2
loop_
 _symmetry_equiv_pos_site_id
 _symmetry_equiv_pos_as_xyz
  1  'x, y, z'
loop_
 _atom_site_type_symbol
 _atom_site_label
 _atom_site_symmetry_multiplicity
 _atom_site_fract_x
 _atom_site_fract_y
 _atom_site_fract_z
 _atom_site_occupancy
  Y  Y0  1  0.73120912  0.73120912  0.00000000  1.0
  Y  Y1  1  0.26879088  -0.00000000  0.26879088  1.0
  Y  Y2  1  -0.00000000  0.26879088  0.26879088  1.0
  Y  Y3  1  0.26879088  0.26879088  0.00000000  1.0
  Y  Y4  1  0.73120912  0.00000000  0.73120912  1.0
  Y  Y5  1  -0.00000000  0.73120912  0.73120912  1.0
  Al  Al6  1  1.00000000  1.00000000  0.50000000  1.0
  Al  Al7  1  1.00000000  1.50000000  1.00000000  1.0
  Al  Al8  1  1.50000000  1.00000000  1.00000000  1.0
  Al  Al9  1  0.50000000  0.50000000  0.50000000  1.0
  Ni  Ni10  1  0.33865752  0.33865752  0.67731505  1.0
  Ni  Ni11  1  0.66134248  1.00000000  0.33865752  1.0
  Ni  Ni12  1  1.00000000  0.66134248  0.33865752  1.0
  Ni  Ni13  1  0.66134248  1.33865752  1.00000000  1.0
  Ni  Ni14  1  1.33865752  1.67731505  1.33865752  1.0
  Ni  Ni15  1  1.00000000  1.33865752  0.66134248  1.0
  Ni  Ni16  1  1.33865752  0.66134248  1.00000000  1.0
  Ni  Ni17  1  1.33865752  1.00000000  0.66134248  1.0
  Ni  Ni18  1  1.67731505  1.33865752  1.33865752  1.0
  Ni  Ni19  1  0.66134248  0.66134248  0.32268495  1.0
  Ni  Ni20  1  0.66134248  0.32268495  0.66134248  1.0
  Ni  Ni21  1  0.32268495  0.66134248  0.66134248  1.0
  H  H22  1  1.00000000  1.00000000  0.73486430  1.0
  H  H23  1  1.00000000  1.73486430  1.00000000  1.0
  H  H24  1  1.73486430  1.00000000  1.00000000  1.0
  H  H25  1  0.26513570  0.26513570  0.26513570  1.0
  H  H26  1  1.00000000  1.00000000  0.26513570  1.0
  H  H27  1  1.00000000  1.26513570  1.00000000  1.0
  H  H28  1  1.26513570  1.00000000  1.00000000  1.0
  H  H29  1  0.73486430  0.73486430  0.73486430  1.0
  H  H30  1  0.50000000  0.75000000  0.25000000  1.0
  H  H31  1  1.25000000  0.75000000  0.50000000  1.0
  H  H32  1  0.25000000  0.50000000  0.75000000  1.0
  H  H33  1  0.50000000  0.25000000  0.75000000  1.0
  H  H34  1  0.75000000  0.50000000  0.25000000  1.0
  H  H35  1  0.75000000  1.25000000  0.50000000  1.0
  H  H36  1  0.50000000  0.50000000  0.00000000  1.0
  H  H37  1  0.50000000  0.00000000  0.50000000  1.0
  H  H38  1  -0.00000000  0.50000000  0.50000000  1.0
  H  H39  1  0.00000000  0.00000000  0.00000000  1.0
