# generated using pymatgen
data_K2CdSn
_symmetry_space_group_name_H-M   'P 1'
_cell_length_a   6.99112628
_cell_length_b   6.99112628
_cell_length_c   6.54557358
_cell_angle_alpha   90.00000000
_cell_angle_beta   90.00000000
_cell_angle_gamma   103.80861965
_symmetry_Int_Tables_number   1
_chemical_formula_structural   K2CdSn
_chemical_formula_sum   'K4 Cd2 Sn2'
_cell_volume   310.67423226
_cell_formula_units_Z   2
loop_
 _symmetry_equiv_pos_site_id
 _symmetry_equiv_pos_as_xyz
  1  'x, y, z'
loop_
 _atom_site_type_symbol
 _atom_site_label
 _atom_site_symmetry_multiplicity
 _atom_site_fract_x
 _atom_site_fract_y
 _atom_site_fract_z
 _atom_site_occupancy
  K  K0  1  0.18613402  0.52490981  0.25000000  1.0
  K  K1  1  0.47509019  0.81386598  0.75000000  1.0
  K  K2  1  -0.46642985  1.17785543  0.25000000  1.0
  K  K3  1  -0.17785543  1.46642985  0.75000000  1.0
  Cd  Cd4  1  0.00402259  -0.00402259  0.50000000  1.0
  Cd  Cd5  1  0.00402259  -0.00402259  0.00000000  1.0
  Sn  Sn6  1  -0.26175821  1.72982590  0.25000000  1.0
  Sn  Sn7  1  -0.72982590  1.26175821  0.75000000  1.0
