# generated using pymatgen
data_KAuBr4
_symmetry_space_group_name_H-M   'P 1'
_cell_length_a   9.64773239
_cell_length_b   6.85406015
_cell_length_c   13.12513817
_cell_angle_alpha   90.00000000
_cell_angle_beta   98.16150745
_cell_angle_gamma   90.00000000
_symmetry_Int_Tables_number   1
_chemical_formula_structural   KAuBr4
_chemical_formula_sum   'K4 Au4 Br16'
_cell_volume   859.12430999
_cell_formula_units_Z   4
loop_
 _symmetry_equiv_pos_site_id
 _symmetry_equiv_pos_as_xyz
  1  'x, y, z'
loop_
 _atom_site_type_symbol
 _atom_site_label
 _atom_site_symmetry_multiplicity
 _atom_site_fract_x
 _atom_site_fract_y
 _atom_site_fract_z
 _atom_site_occupancy
  K  K0  1  0.78917022  0.93717230  0.31544290  1.0
  K  K1  1  0.78917022  0.56282770  0.81544290  1.0
  K  K2  1  0.21082978  0.43717230  0.18455710  1.0
  K  K3  1  0.21082978  0.06282770  0.68455710  1.0
  Au  Au4  1  0.50000000  0.50000000  0.50000000  1.0
  Au  Au5  1  0.50000000  0.00000000  0.00000000  1.0
  Au  Au6  1  -0.00000000  0.50000000  0.50000000  1.0
  Au  Au7  1  0.00000000  0.00000000  0.00000000  1.0
  Br  Br8  1  0.91410764  0.43680233  0.31604506  1.0
  Br  Br9  1  0.91410764  0.06319767  0.81604506  1.0
  Br  Br10  1  0.08589236  0.93680233  0.18395494  1.0
  Br  Br11  1  0.08589236  0.56319767  0.68395494  1.0
  Br  Br12  1  0.87460890  0.29378870  0.04709006  1.0
  Br  Br13  1  0.87460890  0.20621130  0.54709006  1.0
  Br  Br14  1  0.12539110  0.79378870  0.45290994  1.0
  Br  Br15  1  0.12539110  0.70621130  0.95290994  1.0
  Br  Br16  1  0.50273462  0.14373023  0.17274864  1.0
  Br  Br17  1  0.50273462  0.35626977  0.67274864  1.0
  Br  Br18  1  0.49726538  0.64373023  0.32725136  1.0
  Br  Br19  1  0.49726538  0.85626977  0.82725136  1.0
  Br  Br20  1  0.33516722  0.24264861  0.42803002  1.0
  Br  Br21  1  0.33516722  0.25735139  0.92803002  1.0
  Br  Br22  1  0.66483278  0.74264861  0.07196998  1.0
  Br  Br23  1  0.66483278  0.75735139  0.57196998  1.0
