# generated using pymatgen
data_Gd4Pt
_symmetry_space_group_name_H-M   'P 1'
_cell_length_a   7.83999610
_cell_length_b   7.83999610
_cell_length_c   7.83999610
_cell_angle_alpha   60.00000000
_cell_angle_beta   60.00000000
_cell_angle_gamma   60.00000000
_symmetry_Int_Tables_number   1
_chemical_formula_structural   Gd4Pt
_chemical_formula_sum   'Gd8 Pt2'
_cell_volume   340.74739283
_cell_formula_units_Z   2
loop_
 _symmetry_equiv_pos_site_id
 _symmetry_equiv_pos_as_xyz
  1  'x, y, z'
loop_
 _atom_site_type_symbol
 _atom_site_label
 _atom_site_symmetry_multiplicity
 _atom_site_fract_x
 _atom_site_fract_y
 _atom_site_fract_z
 _atom_site_occupancy
  Gd  Gd0  1  -0.11062826  0.88937174  0.33188479  1.0
  Gd  Gd1  1  0.88937174  -0.66811521  0.88937174  1.0
  Gd  Gd2  1  0.36062826  0.36062826  0.36062826  1.0
  Gd  Gd3  1  -0.08188479  0.36062826  0.36062826  1.0
  Gd  Gd4  1  -0.66811521  0.88937174  0.88937174  1.0
  Gd  Gd5  1  0.88937174  -0.11062826  0.88937174  1.0
  Gd  Gd6  1  0.36062826  -0.08188479  0.36062826  1.0
  Gd  Gd7  1  0.36062826  0.36062826  -0.08188479  1.0
  Pt  Pt8  1  0.50000000  0.50000000  -0.50000000  1.0
  Pt  Pt9  1  0.75000000  -0.25000000  0.75000000  1.0
