# generated using pymatgen
data_CsW3Br3Cl4
_symmetry_space_group_name_H-M   'P 1'
_cell_length_a   10.13884303
_cell_length_b   10.13884303
_cell_length_c   15.57339351
_cell_angle_alpha   90.00000000
_cell_angle_beta   90.00000000
_cell_angle_gamma   120.00000000
_symmetry_Int_Tables_number   1
_chemical_formula_structural   CsW3Br3Cl4
_chemical_formula_sum   'Cs4 W12 Br12 Cl16'
_cell_volume   1386.40682613
_cell_formula_units_Z   4
loop_
 _symmetry_equiv_pos_site_id
 _symmetry_equiv_pos_as_xyz
  1  'x, y, z'
loop_
 _atom_site_type_symbol
 _atom_site_label
 _atom_site_symmetry_multiplicity
 _atom_site_fract_x
 _atom_site_fract_y
 _atom_site_fract_z
 _atom_site_occupancy
  Cs  Cs0  1  0.33333333  0.66666667  0.28627310  1.0
  Cs  Cs1  1  0.66666667  0.33333333  0.78627310  1.0
  Cs  Cs2  1  0.00000000  0.00000000  0.03523357  1.0
  Cs  Cs3  1  0.00000000  0.00000000  0.53523357  1.0
  W  W4  1  0.66585087  0.48287779  0.21750030  1.0
  W  W5  1  0.48287779  0.66585087  0.71750030  1.0
  W  W6  1  0.81702692  0.33414913  0.21750030  1.0
  W  W7  1  0.51712221  0.18297308  0.21750030  1.0
  W  W8  1  0.33414913  0.81702692  0.71750030  1.0
  W  W9  1  0.18297308  0.51712221  0.71750030  1.0
  W  W10  1  0.81738744  0.48249284  0.35501163  1.0
  W  W11  1  0.48249284  0.81738744  0.85501163  1.0
  W  W12  1  0.66510540  0.18261256  0.35501163  1.0
  W  W13  1  0.51750716  0.33489460  0.35501163  1.0
  W  W14  1  0.18261256  0.66510540  0.85501163  1.0
  W  W15  1  0.33489460  0.51750716  0.85501163  1.0
  Br  Br16  1  0.30766560  0.95903493  0.12811199  1.0
  Br  Br17  1  0.95903493  0.30766560  0.62811199  1.0
  Br  Br18  1  0.65136933  0.69233440  0.12811199  1.0
  Br  Br19  1  0.04096507  0.34863067  0.12811199  1.0
  Br  Br20  1  0.69233440  0.65136933  0.62811199  1.0
  Br  Br21  1  0.34863067  0.04096507  0.62811199  1.0
  Br  Br22  1  0.04167455  0.69144950  0.44443415  1.0
  Br  Br23  1  0.69144950  0.04167455  0.94443415  1.0
  Br  Br24  1  0.64977495  0.95832545  0.44443415  1.0
  Br  Br25  1  0.30855050  0.35022505  0.44443415  1.0
  Br  Br26  1  0.95832545  0.64977495  0.94443415  1.0
  Br  Br27  1  0.35022505  0.30855050  0.94443415  1.0
  Cl  Cl28  1  0.95080017  0.62129745  0.21892579  1.0
  Cl  Cl29  1  0.62129745  0.95080017  0.71892579  1.0
  Cl  Cl30  1  0.67049728  0.04919983  0.21892579  1.0
  Cl  Cl31  1  0.37870255  0.32950272  0.21892579  1.0
  Cl  Cl32  1  0.04919983  0.67049728  0.71892579  1.0
  Cl  Cl33  1  0.32950272  0.37870255  0.71892579  1.0
  Cl  Cl34  1  0.33333333  0.66666667  -0.01731735  1.0
  Cl  Cl35  1  0.66666667  0.33333333  0.48268265  1.0
  Cl  Cl36  1  0.33333333  0.66666667  0.58986844  1.0
  Cl  Cl37  1  0.66666667  0.33333333  0.08986844  1.0
  Cl  Cl38  1  0.67188174  0.62197170  0.35359689  1.0
  Cl  Cl39  1  0.62197170  0.67188174  0.85359689  1.0
  Cl  Cl40  1  0.95008996  0.32811826  0.35359689  1.0
  Cl  Cl41  1  0.37802830  0.04991004  0.35359689  1.0
  Cl  Cl42  1  0.32811826  0.95008996  0.85359689  1.0
  Cl  Cl43  1  0.04991004  0.37802830  0.85359689  1.0
