# generated using pymatgen
data_Sc2Nb3Si4
_symmetry_space_group_name_H-M   'P 1'
_cell_length_a   6.71095337
_cell_length_b   13.12818527
_cell_length_c   6.90428788
_cell_angle_alpha   90.00000000
_cell_angle_beta   90.00000000
_cell_angle_gamma   90.00000000
_symmetry_Int_Tables_number   1
_chemical_formula_structural   Sc2Nb3Si4
_chemical_formula_sum   'Sc8 Nb12 Si16'
_cell_volume   608.28598365
_cell_formula_units_Z   4
loop_
 _symmetry_equiv_pos_site_id
 _symmetry_equiv_pos_as_xyz
  1  'x, y, z'
loop_
 _atom_site_type_symbol
 _atom_site_label
 _atom_site_symmetry_multiplicity
 _atom_site_fract_x
 _atom_site_fract_y
 _atom_site_fract_z
 _atom_site_occupancy
  Sc  Sc0  1  0.49791850  0.90425016  0.67416117  1.0
  Sc  Sc1  1  0.49791850  0.59574984  0.67416117  1.0
  Sc  Sc2  1  0.99791850  0.90425016  0.82583883  1.0
  Sc  Sc3  1  0.99791850  0.59574984  0.82583883  1.0
  Sc  Sc4  1  0.50208150  0.40425016  0.32583883  1.0
  Sc  Sc5  1  0.50208150  0.09574984  0.32583883  1.0
  Sc  Sc6  1  0.00208150  0.40425016  0.17416117  1.0
  Sc  Sc7  1  0.00208150  0.09574984  0.17416117  1.0
  Nb  Nb8  1  0.33784235  0.25000000  -0.00544722  1.0
  Nb  Nb9  1  0.83784235  0.25000000  0.50544722  1.0
  Nb  Nb10  1  0.66215765  0.75000000  1.00544722  1.0
  Nb  Nb11  1  0.16215765  0.75000000  0.49455278  1.0
  Nb  Nb12  1  0.16305023  0.37477123  0.67571177  1.0
  Nb  Nb13  1  0.16305023  0.12522877  0.67571177  1.0
  Nb  Nb14  1  0.66305023  0.37477123  0.82428823  1.0
  Nb  Nb15  1  0.66305023  0.12522877  0.82428823  1.0
  Nb  Nb16  1  0.83694977  0.87477123  0.32428823  1.0
  Nb  Nb17  1  0.83694977  0.62522877  0.32428823  1.0
  Nb  Nb18  1  0.33694977  0.87477123  0.17571177  1.0
  Nb  Nb19  1  0.33694977  0.62522877  0.17571177  1.0
  Si  Si20  1  0.20513200  0.25000000  0.36314542  1.0
  Si  Si21  1  0.70513200  0.25000000  0.13685458  1.0
  Si  Si22  1  0.79486800  0.75000000  0.63685458  1.0
  Si  Si23  1  0.29486800  0.75000000  0.86314542  1.0
  Si  Si24  1  0.46027905  0.25000000  0.61281961  1.0
  Si  Si25  1  0.96027905  0.25000000  0.88718039  1.0
  Si  Si26  1  0.53972095  0.75000000  0.38718039  1.0
  Si  Si27  1  0.03972095  0.75000000  0.11281961  1.0
  Si  Si28  1  0.33196470  0.46057575  0.96768516  1.0
  Si  Si29  1  0.33196470  0.03942425  0.96768516  1.0
  Si  Si30  1  0.83196470  0.46057575  0.53231484  1.0
  Si  Si31  1  0.83196470  0.03942425  0.53231484  1.0
  Si  Si32  1  0.66803530  0.96057575  0.03231484  1.0
  Si  Si33  1  0.66803530  0.53942425  0.03231484  1.0
  Si  Si34  1  0.16803530  0.96057575  0.46768516  1.0
  Si  Si35  1  0.16803530  0.53942425  0.46768516  1.0
