# generated using pymatgen
data_Na2Au
_symmetry_space_group_name_H-M   'P 1'
_cell_length_a   5.92861252
_cell_length_b   5.92861252
_cell_length_c   5.92861252
_cell_angle_alpha   103.00722746
_cell_angle_beta   103.00722746
_cell_angle_gamma   123.35686530
_symmetry_Int_Tables_number   1
_chemical_formula_structural   Na2Au
_chemical_formula_sum   'Na4 Au2'
_cell_volume   153.21880778
_cell_formula_units_Z   2
loop_
 _symmetry_equiv_pos_site_id
 _symmetry_equiv_pos_as_xyz
  1  'x, y, z'
loop_
 _atom_site_type_symbol
 _atom_site_label
 _atom_site_symmetry_multiplicity
 _atom_site_fract_x
 _atom_site_fract_y
 _atom_site_fract_z
 _atom_site_occupancy
  Na  Na0  1  0.82896569  0.32896569  1.15793138  1.0
  Na  Na1  1  0.67103431  0.82896569  0.50000000  1.0
  Na  Na2  1  1.32896569  1.17103431  1.50000000  1.0
  Na  Na3  1  0.17103431  0.67103431  0.84206862  1.0
  Au  Au4  1  0.25000000  0.25000000  0.00000000  1.0
  Au  Au5  1  0.75000000  0.75000000  0.00000000  1.0
