# generated using pymatgen
data_Ca2Zn2CuP3
_symmetry_space_group_name_H-M   'P 1'
_cell_length_a   4.04323857
_cell_length_b   4.04323857
_cell_length_c   21.52702859
_cell_angle_alpha   90.00000000
_cell_angle_beta   90.00000000
_cell_angle_gamma   120.00000000
_symmetry_Int_Tables_number   1
_chemical_formula_structural   Ca2Zn2CuP3
_chemical_formula_sum   'Ca4 Zn4 Cu2 P6'
_cell_volume   304.77086956
_cell_formula_units_Z   2
loop_
 _symmetry_equiv_pos_site_id
 _symmetry_equiv_pos_as_xyz
  1  'x, y, z'
loop_
 _atom_site_type_symbol
 _atom_site_label
 _atom_site_symmetry_multiplicity
 _atom_site_fract_x
 _atom_site_fract_y
 _atom_site_fract_z
 _atom_site_occupancy
  Ca  Ca0  1  0.00000000  0.00000000  0.34137422  1.0
  Ca  Ca1  1  0.00000000  0.00000000  0.15862578  1.0
  Ca  Ca2  1  0.00000000  0.00000000  0.84137422  1.0
  Ca  Ca3  1  0.00000000  0.00000000  0.65862578  1.0
  Zn  Zn4  1  0.33333333  0.66666667  0.95742935  1.0
  Zn  Zn5  1  0.33333333  0.66666667  0.54257065  1.0
  Zn  Zn6  1  0.66666667  0.33333333  0.45742935  1.0
  Zn  Zn7  1  0.66666667  0.33333333  0.04257065  1.0
  Cu  Cu8  1  0.33333333  0.66666667  0.25000000  1.0
  Cu  Cu9  1  0.66666667  0.33333333  0.75000000  1.0
  P  P10  1  0.33333333  0.66666667  0.42440588  1.0
  P  P11  1  0.33333333  0.66666667  0.07559412  1.0
  P  P12  1  0.66666667  0.33333333  0.92440588  1.0
  P  P13  1  0.66666667  0.33333333  0.57559412  1.0
  P  P14  1  0.33333333  0.66666667  0.75000000  1.0
  P  P15  1  0.66666667  0.33333333  0.25000000  1.0
