# generated using pymatgen
data_CsSbClF3
_symmetry_space_group_name_H-M   'P 1'
_cell_length_a   9.30646604
_cell_length_b   9.30646604
_cell_length_c   9.30646604
_cell_angle_alpha   115.26243695
_cell_angle_beta   115.26243695
_cell_angle_gamma   98.42240641
_symmetry_Int_Tables_number   1
_chemical_formula_structural   CsSbClF3
_chemical_formula_sum   'Cs4 Sb4 Cl4 F12'
_cell_volume   603.68650665
_cell_formula_units_Z   4
loop_
 _symmetry_equiv_pos_site_id
 _symmetry_equiv_pos_as_xyz
  1  'x, y, z'
loop_
 _atom_site_type_symbol
 _atom_site_label
 _atom_site_symmetry_multiplicity
 _atom_site_fract_x
 _atom_site_fract_y
 _atom_site_fract_z
 _atom_site_occupancy
  Cs  Cs0  1  0.20011999  0.20011999  -0.00000000  1.0
  Cs  Cs1  1  0.79988001  0.79988001  -0.00000000  1.0
  Cs  Cs2  1  0.75000000  1.25000000  0.50000000  1.0
  Cs  Cs3  1  1.25000000  0.75000000  0.50000000  1.0
  Sb  Sb4  1  0.75518703  0.75518703  0.42375069  1.0
  Sb  Sb5  1  1.24481297  0.66856366  1.00000000  1.0
  Sb  Sb6  1  0.66856366  1.24481297  1.00000000  1.0
  Sb  Sb7  1  0.33143634  0.33143634  0.57624931  1.0
  Cl  Cl8  1  0.00000000  0.71116175  0.71116175  1.0
  Cl  Cl9  1  0.71116175  0.00000000  0.71116175  1.0
  Cl  Cl10  1  0.28883825  0.00000000  0.28883825  1.0
  Cl  Cl11  1  0.00000000  0.28883825  0.28883825  1.0
  F  F12  1  0.64566489  0.84186998  0.25509666  1.0
  F  F13  1  1.35433511  0.60943177  1.19620509  1.0
  F  F14  1  0.84186998  0.64566489  0.25509666  1.0
  F  F15  1  1.15813002  1.41322668  0.80379491  1.0
  F  F16  1  1.41322668  1.15813002  0.80379491  1.0
  F  F17  1  0.58677332  0.39056823  0.74490334  1.0
  F  F18  1  0.60943177  1.35433511  1.19620509  1.0
  F  F19  1  0.39056823  0.58677332  0.74490334  1.0
  F  F20  1  0.96573367  0.96573367  0.56081793  1.0
  F  F21  1  1.03426633  0.59508425  1.00000000  1.0
  F  F22  1  0.59508425  1.03426633  1.00000000  1.0
  F  F23  1  0.40491575  0.40491575  0.43918207  1.0
