# generated using pymatgen
data_LaSbPd
_symmetry_space_group_name_H-M   'P 1'
_cell_length_a   4.65271913
_cell_length_b   4.65271913
_cell_length_c   8.17406648
_cell_angle_alpha   90.00000000
_cell_angle_beta   90.00000000
_cell_angle_gamma   120.00000000
_symmetry_Int_Tables_number   1
_chemical_formula_structural   LaSbPd
_chemical_formula_sum   'La2 Sb2 Pd2'
_cell_volume   153.24364384
_cell_formula_units_Z   2
loop_
 _symmetry_equiv_pos_site_id
 _symmetry_equiv_pos_as_xyz
  1  'x, y, z'
loop_
 _atom_site_type_symbol
 _atom_site_label
 _atom_site_symmetry_multiplicity
 _atom_site_fract_x
 _atom_site_fract_y
 _atom_site_fract_z
 _atom_site_occupancy
  La  La0  1  0.00000000  0.00000000  0.00301182  1.0
  La  La1  1  -0.00000000  -0.00000000  0.50301182  1.0
  Sb  Sb2  1  0.33333333  0.66666667  0.26548158  1.0
  Sb  Sb3  1  0.66666667  0.33333333  0.76548158  1.0
  Pd  Pd4  1  0.33333333  0.66666667  0.72250660  1.0
  Pd  Pd5  1  0.66666667  0.33333333  0.22250660  1.0
