# generated using pymatgen
data_Zr4In5Co2
_symmetry_space_group_name_H-M   'P 1'
_cell_length_a   7.56991389
_cell_length_b   3.29223319
_cell_length_c   9.09804998
_cell_angle_alpha   90.00000000
_cell_angle_beta   94.84935988
_cell_angle_gamma   90.00000000
_symmetry_Int_Tables_number   1
_chemical_formula_structural   Zr4In5Co2
_chemical_formula_sum   'Zr4 In5 Co2'
_cell_volume   225.92924853
_cell_formula_units_Z   1
loop_
 _symmetry_equiv_pos_site_id
 _symmetry_equiv_pos_as_xyz
  1  'x, y, z'
loop_
 _atom_site_type_symbol
 _atom_site_label
 _atom_site_symmetry_multiplicity
 _atom_site_fract_x
 _atom_site_fract_y
 _atom_site_fract_z
 _atom_site_occupancy
  Zr  Zr0  1  0.70002959  0.50000000  0.43932469  1.0
  Zr  Zr1  1  0.29997041  0.50000000  0.56067531  1.0
  Zr  Zr2  1  0.68417973  0.50000000  0.83974474  1.0
  Zr  Zr3  1  0.31582027  0.50000000  0.16025526  1.0
  In  In4  1  0.96102907  0.00000000  0.66708040  1.0
  In  In5  1  0.03897093  0.00000000  0.33291960  1.0
  In  In6  1  0.34403576  -0.00000000  0.85917290  1.0
  In  In7  1  0.65596424  -0.00000000  0.14082710  1.0
  In  In8  1  0.00000000  0.00000000  0.00000000  1.0
  Co  Co9  1  0.57766595  0.00000000  0.63310355  1.0
  Co  Co10  1  0.42233405  0.00000000  0.36689645  1.0
