# generated using pymatgen
data_Re24Mo5
_symmetry_space_group_name_H-M   'P 1'
_cell_length_a   8.32993196
_cell_length_b   8.32993196
_cell_length_c   8.32993196
_cell_angle_alpha   109.47122063
_cell_angle_beta   109.47122063
_cell_angle_gamma   109.47122063
_symmetry_Int_Tables_number   1
_chemical_formula_structural   Re24Mo5
_chemical_formula_sum   'Re24 Mo5'
_cell_volume   444.94104523
_cell_formula_units_Z   1
loop_
 _symmetry_equiv_pos_site_id
 _symmetry_equiv_pos_as_xyz
  1  'x, y, z'
loop_
 _atom_site_type_symbol
 _atom_site_label
 _atom_site_symmetry_multiplicity
 _atom_site_fract_x
 _atom_site_fract_y
 _atom_site_fract_z
 _atom_site_occupancy
  Re  Re0  1  0.59825956  0.59825956  0.28291552  1.0
  Re  Re1  1  0.28291552  0.59825956  0.59825956  1.0
  Re  Re2  1  0.59825956  0.28291552  0.59825956  1.0
  Re  Re3  1  1.31534404  1.31534404  0.71708448  1.0
  Re  Re4  1  1.00000000  0.68465596  1.40174044  1.0
  Re  Re5  1  0.68465596  1.00000000  1.40174044  1.0
  Re  Re6  1  0.68465596  1.40174044  1.00000000  1.0
  Re  Re7  1  1.00000000  1.40174044  0.68465596  1.0
  Re  Re8  1  1.31534404  0.71708448  1.31534404  1.0
  Re  Re9  1  1.40174044  0.68465596  1.00000000  1.0
  Re  Re10  1  0.71708448  1.31534404  1.31534404  1.0
  Re  Re11  1  1.40174044  1.00000000  0.68465596  1.0
  Re  Re12  1  0.62443064  0.62443064  0.81785611  1.0
  Re  Re13  1  0.81785611  0.62443064  0.62443064  1.0
  Re  Re14  1  0.62443064  0.81785611  0.62443064  1.0
  Re  Re15  1  0.80657453  0.80657453  0.18214389  1.0
  Re  Re16  1  1.00000000  1.19342547  0.37556936  1.0
  Re  Re17  1  1.19342547  1.00000000  0.37556936  1.0
  Re  Re18  1  1.19342547  0.37556936  1.00000000  1.0
  Re  Re19  1  1.00000000  0.37556936  1.19342547  1.0
  Re  Re20  1  0.80657453  0.18214389  0.80657453  1.0
  Re  Re21  1  0.37556936  1.19342547  1.00000000  1.0
  Re  Re22  1  0.18214389  0.80657453  0.80657453  1.0
  Re  Re23  1  0.37556936  1.00000000  1.19342547  1.0
  Mo  Mo24  1  0.00000000  0.00000000  0.00000000  1.0
  Mo  Mo25  1  0.35897843  0.35897843  0.35897843  1.0
  Mo  Mo26  1  1.00000000  1.00000000  0.64102157  1.0
  Mo  Mo27  1  1.00000000  0.64102157  1.00000000  1.0
  Mo  Mo28  1  0.64102157  1.00000000  1.00000000  1.0
