# generated using pymatgen
data_RbP4N7
_symmetry_space_group_name_H-M   'P 1'
_cell_length_a   10.01087622
_cell_length_b   12.45732942
_cell_length_c   4.73766325
_cell_angle_alpha   90.00000000
_cell_angle_beta   90.00000000
_cell_angle_gamma   90.00000000
_symmetry_Int_Tables_number   1
_chemical_formula_structural   RbP4N7
_chemical_formula_sum   'Rb4 P16 N28'
_cell_volume   590.82821808
_cell_formula_units_Z   4
loop_
 _symmetry_equiv_pos_site_id
 _symmetry_equiv_pos_as_xyz
  1  'x, y, z'
loop_
 _atom_site_type_symbol
 _atom_site_label
 _atom_site_symmetry_multiplicity
 _atom_site_fract_x
 _atom_site_fract_y
 _atom_site_fract_z
 _atom_site_occupancy
  Rb  Rb0  1  0.35253630  0.75000000  0.23066825  1.0
  Rb  Rb1  1  0.85253630  0.75000000  0.26933175  1.0
  Rb  Rb2  1  0.64746370  0.25000000  0.76933175  1.0
  Rb  Rb3  1  0.14746370  0.25000000  0.73066825  1.0
  P  P4  1  0.08860100  0.62999213  0.71523729  1.0
  P  P5  1  0.58860100  0.87000787  0.78476271  1.0
  P  P6  1  0.91139900  0.12999213  0.28476271  1.0
  P  P7  1  0.41139900  0.37000787  0.21523729  1.0
  P  P8  1  0.91139900  0.37000787  0.28476271  1.0
  P  P9  1  0.41139900  0.12999213  0.21523729  1.0
  P  P10  1  0.08860100  0.87000787  0.71523729  1.0
  P  P11  1  0.58860100  0.62999213  0.78476271  1.0
  P  P12  1  0.34304219  0.49993003  0.72329518  1.0
  P  P13  1  0.84304219  1.00006997  0.77670482  1.0
  P  P14  1  0.65695781  -0.00006997  0.27670482  1.0
  P  P15  1  0.15695781  0.50006997  0.22329518  1.0
  P  P16  1  0.65695781  0.50006997  0.27670482  1.0
  P  P17  1  0.15695781  -0.00006997  0.22329518  1.0
  P  P18  1  0.34304219  1.00006997  0.72329518  1.0
  P  P19  1  0.84304219  0.49993003  0.77670482  1.0
  N  N20  1  0.12758494  0.75000000  0.79861984  1.0
  N  N21  1  0.62758494  0.75000000  0.70138016  1.0
  N  N22  1  0.87241506  0.25000000  0.20138016  1.0
  N  N23  1  0.37241506  0.25000000  0.29861984  1.0
  N  N24  1  0.11532276  0.60650374  0.38542858  1.0
  N  N25  1  0.61532276  0.89349626  0.11457142  1.0
  N  N26  1  0.88467724  0.10650374  0.61457142  1.0
  N  N27  1  0.38467724  0.39349626  0.88542858  1.0
  N  N28  1  0.88467724  0.39349626  0.61457142  1.0
  N  N29  1  0.38467724  0.10650374  0.88542858  1.0
  N  N30  1  0.11532276  0.89349626  0.38542858  1.0
  N  N31  1  0.61532276  0.60650374  0.11457142  1.0
  N  N32  1  0.43993569  0.60005752  0.68076640  1.0
  N  N33  1  0.93993569  0.89994248  0.81923360  1.0
  N  N34  1  0.56006431  0.10005752  0.31923360  1.0
  N  N35  1  0.06006431  0.39994248  0.18076640  1.0
  N  N36  1  0.56006431  0.39994248  0.31923360  1.0
  N  N37  1  0.06006431  0.10005752  0.18076640  1.0
  N  N38  1  0.43993569  0.89994248  0.68076640  1.0
  N  N39  1  0.93993569  0.60005752  0.81923360  1.0
  N  N40  1  0.20059819  0.54439304  0.88800446  1.0
  N  N41  1  0.70059819  0.95560696  0.61199554  1.0
  N  N42  1  0.79940181  0.04439304  0.11199554  1.0
  N  N43  1  0.29940181  0.45560696  0.38800446  1.0
  N  N44  1  0.79940181  0.45560696  0.11199554  1.0
  N  N45  1  0.29940181  0.04439304  0.38800446  1.0
  N  N46  1  0.20059819  0.95560696  0.88800446  1.0
  N  N47  1  0.70059819  0.54439304  0.61199554  1.0
