# generated using pymatgen
data_Ca2CrSbO6
_symmetry_space_group_name_H-M   'P 1'
_cell_length_a   5.45200806
_cell_length_b   5.57892773
_cell_length_c   9.46795385
_cell_angle_alpha   90.00000000
_cell_angle_beta   124.85260668
_cell_angle_gamma   90.00000000
_symmetry_Int_Tables_number   1
_chemical_formula_structural   Ca2CrSbO6
_chemical_formula_sum   'Ca4 Cr2 Sb2 O12'
_cell_volume   236.32410667
_cell_formula_units_Z   2
loop_
 _symmetry_equiv_pos_site_id
 _symmetry_equiv_pos_as_xyz
  1  'x, y, z'
loop_
 _atom_site_type_symbol
 _atom_site_label
 _atom_site_symmetry_multiplicity
 _atom_site_fract_x
 _atom_site_fract_y
 _atom_site_fract_z
 _atom_site_occupancy
  Ca  Ca0  1  0.26357618  0.44943571  0.75092893  1.0
  Ca  Ca1  1  0.26357618  0.05056429  0.25092893  1.0
  Ca  Ca2  1  0.73642382  0.55056429  0.24907107  1.0
  Ca  Ca3  1  0.73642382  0.94943571  0.74907107  1.0
  Cr  Cr4  1  0.50000000  0.50000000  0.50000000  1.0
  Cr  Cr5  1  0.50000000  0.00000000  0.00000000  1.0
  Sb  Sb6  1  0.00000000  0.50000000  0.00000000  1.0
  Sb  Sb7  1  -0.00000000  0.00000000  0.50000000  1.0
  O  O8  1  0.15728188  0.02937146  0.75073629  1.0
  O  O9  1  0.15728188  0.47062854  0.25073629  1.0
  O  O10  1  0.84271812  0.97062854  0.24926371  1.0
  O  O11  1  0.84271812  0.52937146  0.74926371  1.0
  O  O12  1  0.34635807  0.20491443  0.54813530  1.0
  O  O13  1  0.34635807  0.29508557  0.04813530  1.0
  O  O14  1  0.65364193  0.79508557  0.45186470  1.0
  O  O15  1  0.65364193  0.70491443  0.95186470  1.0
  O  O16  1  0.74790693  0.29510223  0.45059785  1.0
  O  O17  1  0.74790693  0.20489777  0.95059785  1.0
  O  O18  1  0.25209307  0.70489777  0.54940215  1.0
  O  O19  1  0.25209307  0.79510223  0.04940215  1.0
