# generated using pymatgen
data_Ba3(LiSn2)4
_symmetry_space_group_name_H-M   'P 1'
_cell_length_a   9.94845819
_cell_length_b   9.94845819
_cell_length_c   6.88691443
_cell_angle_alpha   81.74444395
_cell_angle_beta   98.25555605
_cell_angle_gamma   140.18701049
_symmetry_Int_Tables_number   1
_chemical_formula_structural   Ba3(LiSn2)4
_chemical_formula_sum   'Ba3 Li4 Sn8'
_cell_volume   431.30515385
_cell_formula_units_Z   1
loop_
 _symmetry_equiv_pos_site_id
 _symmetry_equiv_pos_as_xyz
  1  'x, y, z'
loop_
 _atom_site_type_symbol
 _atom_site_label
 _atom_site_symmetry_multiplicity
 _atom_site_fract_x
 _atom_site_fract_y
 _atom_site_fract_z
 _atom_site_occupancy
  Ba  Ba0  1  1.32312416  -0.32312416  0.68554647  1.0
  Ba  Ba1  1  0.67687584  -0.67687584  0.31445353  1.0
  Ba  Ba2  1  0.00000000  0.00000000  0.00000000  1.0
  Li  Li3  1  0.78670408  -0.78670408  0.86735516  1.0
  Li  Li4  1  1.21329592  -0.21329592  0.13264484  1.0
  Li  Li5  1  0.78423659  0.78423659  0.50000000  1.0
  Li  Li6  1  0.21576341  0.21576341  0.50000000  1.0
  Sn  Sn7  1  1.41359720  0.11119692  0.80501771  1.0
  Sn  Sn8  1  0.88880308  -0.41359720  0.80501771  1.0
  Sn  Sn9  1  1.11119692  -0.58640280  0.19498229  1.0
  Sn  Sn10  1  1.58640280  -0.11119692  0.19498229  1.0
  Sn  Sn11  1  0.87150176  -0.87150176  0.54988289  1.0
  Sn  Sn12  1  1.12849824  -0.12849824  0.45011711  1.0
  Sn  Sn13  1  0.51642907  -0.51642907  0.79769580  1.0
  Sn  Sn14  1  1.48357093  -0.48357093  0.20230420  1.0
