# generated using pymatgen
data_Gd5Ge3B
_symmetry_space_group_name_H-M   'P 1'
_cell_length_a   8.73486977
_cell_length_b   8.73486977
_cell_length_c   6.44837694
_cell_angle_alpha   90.00000000
_cell_angle_beta   90.00000000
_cell_angle_gamma   120.00000000
_symmetry_Int_Tables_number   1
_chemical_formula_structural   Gd5Ge3B
_chemical_formula_sum   'Gd10 Ge6 B2'
_cell_volume   426.08271567
_cell_formula_units_Z   2
loop_
 _symmetry_equiv_pos_site_id
 _symmetry_equiv_pos_as_xyz
  1  'x, y, z'
loop_
 _atom_site_type_symbol
 _atom_site_label
 _atom_site_symmetry_multiplicity
 _atom_site_fract_x
 _atom_site_fract_y
 _atom_site_fract_z
 _atom_site_occupancy
  Gd  Gd0  1  0.76232866  0.76232866  0.25000000  1.0
  Gd  Gd1  1  0.76232866  0.00000000  0.75000000  1.0
  Gd  Gd2  1  -0.00000000  0.76232866  0.75000000  1.0
  Gd  Gd3  1  0.00000000  0.23767134  0.25000000  1.0
  Gd  Gd4  1  0.23767134  0.23767134  0.75000000  1.0
  Gd  Gd5  1  0.23767134  0.00000000  0.25000000  1.0
  Gd  Gd6  1  0.33333333  0.66666667  0.50000000  1.0
  Gd  Gd7  1  0.33333333  0.66666667  0.00000000  1.0
  Gd  Gd8  1  0.66666667  0.33333333  0.50000000  1.0
  Gd  Gd9  1  0.66666667  0.33333333  0.00000000  1.0
  Ge  Ge10  1  0.39989323  0.39989323  0.25000000  1.0
  Ge  Ge11  1  0.39989323  0.00000000  0.75000000  1.0
  Ge  Ge12  1  -0.00000000  0.39989323  0.75000000  1.0
  Ge  Ge13  1  0.00000000  0.60010677  0.25000000  1.0
  Ge  Ge14  1  0.60010677  0.60010677  0.75000000  1.0
  Ge  Ge15  1  0.60010677  0.00000000  0.25000000  1.0
  B  B16  1  0.00000000  0.00000000  0.50000000  1.0
  B  B17  1  0.00000000  0.00000000  0.00000000  1.0
