# generated using pymatgen
data_Cr4Re6Ni5
_symmetry_space_group_name_H-M   'P 1'
_cell_length_a   9.08736833
_cell_length_b   9.08736833
_cell_length_c   4.59461912
_cell_angle_alpha   90.00000000
_cell_angle_beta   90.00000000
_cell_angle_gamma   90.00000000
_symmetry_Int_Tables_number   1
_chemical_formula_structural   Cr4Re6Ni5
_chemical_formula_sum   'Cr8 Re12 Ni10'
_cell_volume   379.42485682
_cell_formula_units_Z   2
loop_
 _symmetry_equiv_pos_site_id
 _symmetry_equiv_pos_as_xyz
  1  'x, y, z'
loop_
 _atom_site_type_symbol
 _atom_site_label
 _atom_site_symmetry_multiplicity
 _atom_site_fract_x
 _atom_site_fract_y
 _atom_site_fract_z
 _atom_site_occupancy
  Cr  Cr0  1  0.31423179  0.68576821  0.25163536  1.0
  Cr  Cr1  1  0.68576821  0.31423179  0.25163536  1.0
  Cr  Cr2  1  0.18576821  0.18576821  0.75163536  1.0
  Cr  Cr3  1  0.81423179  0.81423179  0.75163536  1.0
  Cr  Cr4  1  0.68576821  0.31423179  0.74836464  1.0
  Cr  Cr5  1  0.31423179  0.68576821  0.74836464  1.0
  Cr  Cr6  1  0.81423179  0.81423179  0.24836464  1.0
  Cr  Cr7  1  0.18576821  0.18576821  0.24836464  1.0
  Re  Re8  1  0.09848776  0.90151224  0.50000000  1.0
  Re  Re9  1  0.90151224  0.09848776  0.50000000  1.0
  Re  Re10  1  0.40151224  0.40151224  0.00000000  1.0
  Re  Re11  1  0.59848776  0.59848776  0.00000000  1.0
  Re  Re12  1  0.36491634  0.96706354  0.50000000  1.0
  Re  Re13  1  0.63508366  0.03293646  0.50000000  1.0
  Re  Re14  1  0.13508366  0.46706354  0.00000000  1.0
  Re  Re15  1  0.86491634  0.53293646  0.00000000  1.0
  Re  Re16  1  0.96706354  0.36491634  0.50000000  1.0
  Re  Re17  1  0.03293646  0.63508366  0.50000000  1.0
  Re  Re18  1  0.46706354  0.13508366  0.00000000  1.0
  Re  Re19  1  0.53293646  0.86491634  0.00000000  1.0
  Ni  Ni20  1  0.50000000  0.50000000  0.50000000  1.0
  Ni  Ni21  1  0.00000000  0.00000000  0.00000000  1.0
  Ni  Ni22  1  0.43721102  0.24431164  0.50000000  1.0
  Ni  Ni23  1  0.56278898  0.75568836  0.50000000  1.0
  Ni  Ni24  1  0.06278898  0.74431164  0.00000000  1.0
  Ni  Ni25  1  0.93721102  0.25568836  0.00000000  1.0
  Ni  Ni26  1  0.24431164  0.43721102  0.50000000  1.0
  Ni  Ni27  1  0.75568836  0.56278898  0.50000000  1.0
  Ni  Ni28  1  0.74431164  0.06278898  0.00000000  1.0
  Ni  Ni29  1  0.25568836  0.93721102  0.00000000  1.0
