# generated using pymatgen
data_BePd3
_symmetry_space_group_name_H-M   'P 1'
_cell_length_a   5.04266839
_cell_length_b   5.04266839
_cell_length_c   7.66831327
_cell_angle_alpha   90.00000000
_cell_angle_beta   90.00000000
_cell_angle_gamma   146.85866031
_symmetry_Int_Tables_number   1
_chemical_formula_structural   BePd3
_chemical_formula_sum   'Be2 Pd6'
_cell_volume   106.60429442
_cell_formula_units_Z   2
loop_
 _symmetry_equiv_pos_site_id
 _symmetry_equiv_pos_as_xyz
  1  'x, y, z'
loop_
 _atom_site_type_symbol
 _atom_site_label
 _atom_site_symmetry_multiplicity
 _atom_site_fract_x
 _atom_site_fract_y
 _atom_site_fract_z
 _atom_site_occupancy
  Be  Be0  1  -0.25378823  0.25378823  0.75000000  1.0
  Be  Be1  1  0.25378823  0.74621177  0.25000000  1.0
  Pd  Pd2  1  0.13630786  0.86369214  0.93883798  1.0
  Pd  Pd3  1  0.13630786  0.86369214  0.56116202  1.0
  Pd  Pd4  1  -0.13630786  0.13630786  0.43883798  1.0
  Pd  Pd5  1  -0.13630786  0.13630786  0.06116202  1.0
  Pd  Pd6  1  0.43207280  0.56792720  0.75000000  1.0
  Pd  Pd7  1  -0.43207280  0.43207280  0.25000000  1.0
