# generated using pymatgen
data_Ga4Bi2O9
_symmetry_space_group_name_H-M   'P 1'
_cell_length_a   8.03650089
_cell_length_b   8.45343247
_cell_length_c   5.99688464
_cell_angle_alpha   90.00000000
_cell_angle_beta   90.00000000
_cell_angle_gamma   90.00000000
_symmetry_Int_Tables_number   1
_chemical_formula_structural   Ga4Bi2O9
_chemical_formula_sum   'Ga8 Bi4 O18'
_cell_volume   407.40445983
_cell_formula_units_Z   2
loop_
 _symmetry_equiv_pos_site_id
 _symmetry_equiv_pos_as_xyz
  1  'x, y, z'
loop_
 _atom_site_type_symbol
 _atom_site_label
 _atom_site_symmetry_multiplicity
 _atom_site_fract_x
 _atom_site_fract_y
 _atom_site_fract_z
 _atom_site_occupancy
  Ga  Ga0  1  0.35176964  0.66255712  -0.00000000  1.0
  Ga  Ga1  1  0.85176964  0.83744288  -0.00000000  1.0
  Ga  Ga2  1  0.64823036  0.33744288  -0.00000000  1.0
  Ga  Ga3  1  0.14823036  0.16255712  -0.00000000  1.0
  Ga  Ga4  1  0.50000000  0.00000000  0.75846039  1.0
  Ga  Ga5  1  0.50000000  0.00000000  0.24153961  1.0
  Ga  Ga6  1  0.00000000  0.50000000  0.75846039  1.0
  Ga  Ga7  1  0.00000000  0.50000000  0.24153961  1.0
  Bi  Bi8  1  0.17725643  0.82529885  0.50000000  1.0
  Bi  Bi9  1  0.67725643  0.67470115  0.50000000  1.0
  Bi  Bi10  1  0.82274357  0.17470115  0.50000000  1.0
  Bi  Bi11  1  0.32274357  0.32529885  0.50000000  1.0
  O  O12  1  0.37316711  0.79044980  0.74284260  1.0
  O  O13  1  0.37316711  0.79044980  0.25715740  1.0
  O  O14  1  0.87316711  0.70955020  0.74284260  1.0
  O  O15  1  0.87316711  0.70955020  0.25715740  1.0
  O  O16  1  0.62683289  0.20955020  0.74284260  1.0
  O  O17  1  0.62683289  0.20955020  0.25715740  1.0
  O  O18  1  0.12683289  0.29044980  0.74284260  1.0
  O  O19  1  0.12683289  0.29044980  0.25715740  1.0
  O  O20  1  0.14954747  0.56481431  0.50000000  1.0
  O  O21  1  0.64954747  0.93518569  0.50000000  1.0
  O  O22  1  0.85045253  0.43518569  0.50000000  1.0
  O  O23  1  0.35045253  0.06481431  0.50000000  1.0
  O  O24  1  0.13269083  0.59109487  0.00000000  1.0
  O  O25  1  0.63269083  0.90890513  0.00000000  1.0
  O  O26  1  0.86730917  0.40890513  0.00000000  1.0
  O  O27  1  0.36730917  0.09109487  0.00000000  1.0
  O  O28  1  0.50000000  0.50000000  0.00000000  1.0
  O  O29  1  0.00000000  0.00000000  0.00000000  1.0
