# generated using pymatgen
data_CoH12(BrO7)2
_symmetry_space_group_name_H-M   'P 1'
_cell_length_a   7.77007606
_cell_length_b   7.77007606
_cell_length_c   6.54068776
_cell_angle_alpha   90.00000000
_cell_angle_beta   90.00000000
_cell_angle_gamma   120.00000000
_symmetry_Int_Tables_number   1
_chemical_formula_structural   CoH12(BrO7)2
_chemical_formula_sum   'Co1 H12 Br2 O14'
_cell_volume   341.98305580
_cell_formula_units_Z   1
loop_
 _symmetry_equiv_pos_site_id
 _symmetry_equiv_pos_as_xyz
  1  'x, y, z'
loop_
 _atom_site_type_symbol
 _atom_site_label
 _atom_site_symmetry_multiplicity
 _atom_site_fract_x
 _atom_site_fract_y
 _atom_site_fract_z
 _atom_site_occupancy
  Co  Co0  1  -0.00000000  -0.00000000  0.00000000  1.0
  H  H1  1  0.73099986  0.66761674  0.21049474  1.0
  H  H2  1  0.73099986  0.06338312  0.21049474  1.0
  H  H3  1  0.66761674  0.73099986  0.78950526  1.0
  H  H4  1  0.66761674  0.93661688  0.78950526  1.0
  H  H5  1  0.93661688  0.66761674  0.21049474  1.0
  H  H6  1  0.93661688  0.26900014  0.21049474  1.0
  H  H7  1  0.33238326  0.26900014  0.21049474  1.0
  H  H8  1  0.33238326  0.06338312  0.21049474  1.0
  H  H9  1  0.26900014  0.93661688  0.78950526  1.0
  H  H10  1  0.26900014  0.33238326  0.78950526  1.0
  H  H11  1  0.06338312  0.73099986  0.78950526  1.0
  H  H12  1  0.06338312  0.33238326  0.78950526  1.0
  Br  Br13  1  0.33333333  0.66666667  0.31852804  1.0
  Br  Br14  1  0.66666667  0.33333333  0.68147196  1.0
  O  O15  1  0.10145959  0.55072979  0.22863790  1.0
  O  O16  1  0.55072979  0.10145959  0.77136210  1.0
  O  O17  1  0.55072979  0.44927021  0.77136210  1.0
  O  O18  1  0.44927021  0.55072979  0.22863790  1.0
  O  O19  1  0.44927021  0.89854041  0.22863790  1.0
  O  O20  1  0.89854041  0.44927021  0.77136210  1.0
  O  O21  1  0.25161445  0.12580723  0.18537597  1.0
  O  O22  1  0.12580723  0.25161445  0.81462403  1.0
  O  O23  1  0.12580723  0.87419277  0.81462403  1.0
  O  O24  1  0.87419277  0.12580723  0.18537597  1.0
  O  O25  1  0.87419277  0.74838555  0.18537597  1.0
  O  O26  1  0.74838555  0.87419277  0.81462403  1.0
  O  O27  1  0.33333333  0.66666667  0.56996068  1.0
  O  O28  1  0.66666667  0.33333333  0.43003932  1.0
