# generated using pymatgen
data_Sm2SiTeO4
_symmetry_space_group_name_H-M   'P 1'
_cell_length_a   6.44730924
_cell_length_b   7.08283579
_cell_length_c   11.53866799
_cell_angle_alpha   90.00000000
_cell_angle_beta   90.00000000
_cell_angle_gamma   90.00000000
_symmetry_Int_Tables_number   1
_chemical_formula_structural   Sm2SiTeO4
_chemical_formula_sum   'Sm8 Si4 Te4 O16'
_cell_volume   526.91595772
_cell_formula_units_Z   4
loop_
 _symmetry_equiv_pos_site_id
 _symmetry_equiv_pos_as_xyz
  1  'x, y, z'
loop_
 _atom_site_type_symbol
 _atom_site_label
 _atom_site_symmetry_multiplicity
 _atom_site_fract_x
 _atom_site_fract_y
 _atom_site_fract_z
 _atom_site_occupancy
  Sm  Sm0  1  0.90513636  0.97367190  0.75000000  1.0
  Sm  Sm1  1  0.90513636  0.52632810  0.25000000  1.0
  Sm  Sm2  1  0.09486364  0.47367190  0.75000000  1.0
  Sm  Sm3  1  0.09486364  0.02632810  0.25000000  1.0
  Sm  Sm4  1  0.37926456  0.75000000  0.00000000  1.0
  Sm  Sm5  1  0.37926456  0.75000000  0.50000000  1.0
  Sm  Sm6  1  0.62073544  0.25000000  0.00000000  1.0
  Sm  Sm7  1  0.62073544  0.25000000  0.50000000  1.0
  Si  Si8  1  0.87726823  0.75000000  0.00000000  1.0
  Si  Si9  1  0.87726823  0.75000000  0.50000000  1.0
  Si  Si10  1  0.12273177  0.25000000  0.00000000  1.0
  Si  Si11  1  0.12273177  0.25000000  0.50000000  1.0
  Te  Te12  1  0.56029480  0.60443982  0.75000000  1.0
  Te  Te13  1  0.56029480  0.89556018  0.25000000  1.0
  Te  Te14  1  0.43970520  0.10443982  0.75000000  1.0
  Te  Te15  1  0.43970520  0.39556018  0.25000000  1.0
  O  O16  1  0.72298551  0.92772864  0.97024769  1.0
  O  O17  1  0.72298551  0.92772864  0.52975231  1.0
  O  O18  1  0.72298551  0.57227136  0.47024769  1.0
  O  O19  1  0.72298551  0.57227136  0.02975231  1.0
  O  O20  1  0.27701449  0.42772864  0.97024769  1.0
  O  O21  1  0.27701449  0.42772864  0.52975231  1.0
  O  O22  1  0.27701449  0.07227136  0.47024769  1.0
  O  O23  1  0.27701449  0.07227136  0.02975231  1.0
  O  O24  1  0.96460595  0.23548853  0.88536929  1.0
  O  O25  1  0.96460595  0.23548853  0.61463071  1.0
  O  O26  1  0.96460595  0.26451147  0.38536929  1.0
  O  O27  1  0.96460595  0.26451147  0.11463071  1.0
  O  O28  1  0.03539405  0.73548853  0.88536929  1.0
  O  O29  1  0.03539405  0.73548853  0.61463071  1.0
  O  O30  1  0.03539405  0.76451147  0.38536929  1.0
  O  O31  1  0.03539405  0.76451147  0.11463071  1.0
