# generated using pymatgen
data_VCl3
_symmetry_space_group_name_H-M   'P 1'
_cell_length_a   7.48502981
_cell_length_b   7.48502981
_cell_length_c   7.48502981
_cell_angle_alpha   49.02219119
_cell_angle_beta   49.02219119
_cell_angle_gamma   49.02219119
_symmetry_Int_Tables_number   1
_chemical_formula_structural   VCl3
_chemical_formula_sum   'V2 Cl6'
_cell_volume   219.47426239
_cell_formula_units_Z   2
loop_
 _symmetry_equiv_pos_site_id
 _symmetry_equiv_pos_as_xyz
  1  'x, y, z'
loop_
 _atom_site_type_symbol
 _atom_site_label
 _atom_site_symmetry_multiplicity
 _atom_site_fract_x
 _atom_site_fract_y
 _atom_site_fract_z
 _atom_site_occupancy
  V  V0  1  0.16666720  0.16666720  0.16666720  1.0
  V  V1  1  0.83333280  -0.16666720  -0.16666720  1.0
  Cl  Cl2  1  0.43110504  0.05759742  -0.19535695  1.0
  Cl  Cl3  1  1.19535695  -0.43110504  -0.05759742  1.0
  Cl  Cl4  1  0.94240258  0.19535695  -0.43110504  1.0
  Cl  Cl5  1  0.56889496  -0.05759742  0.19535695  1.0
  Cl  Cl6  1  0.80464305  -0.56889496  0.05759742  1.0
  Cl  Cl7  1  0.05759742  0.80464305  -0.56889496  1.0
