# generated using pymatgen
data_TaPt3
_symmetry_space_group_name_H-M   'P 1'
_cell_length_a   4.60420180
_cell_length_b   5.59573854
_cell_length_c   4.92146737
_cell_angle_alpha   90.00000000
_cell_angle_beta   90.00000000
_cell_angle_gamma   90.00000000
_symmetry_Int_Tables_number   1
_chemical_formula_structural   TaPt3
_chemical_formula_sum   'Ta2 Pt6'
_cell_volume   126.79623984
_cell_formula_units_Z   2
loop_
 _symmetry_equiv_pos_site_id
 _symmetry_equiv_pos_as_xyz
  1  'x, y, z'
loop_
 _atom_site_type_symbol
 _atom_site_label
 _atom_site_symmetry_multiplicity
 _atom_site_fract_x
 _atom_site_fract_y
 _atom_site_fract_z
 _atom_site_occupancy
  Ta  Ta0  1  0.50000000  0.00000000  0.16018514  1.0
  Ta  Ta1  1  0.00000000  0.50000000  0.83981486  1.0
  Pt  Pt2  1  0.50000000  0.74996846  0.66595279  1.0
  Pt  Pt3  1  0.50000000  0.25003154  0.66595279  1.0
  Pt  Pt4  1  0.00000000  0.24996846  0.33404721  1.0
  Pt  Pt5  1  0.00000000  0.75003154  0.33404721  1.0
  Pt  Pt6  1  0.50000000  0.50000000  0.15850845  1.0
  Pt  Pt7  1  0.00000000  0.00000000  0.84149155  1.0
