# generated using pymatgen
data_ZnClO
_symmetry_space_group_name_H-M   'P 1'
_cell_length_a   5.65314836
_cell_length_b   12.07589502
_cell_length_c   6.52596107
_cell_angle_alpha   90.00000000
_cell_angle_beta   90.00000000
_cell_angle_gamma   90.00000000
_symmetry_Int_Tables_number   1
_chemical_formula_structural   ZnClO
_chemical_formula_sum   'Zn8 Cl8 O8'
_cell_volume   445.50664965
_cell_formula_units_Z   8
loop_
 _symmetry_equiv_pos_site_id
 _symmetry_equiv_pos_as_xyz
  1  'x, y, z'
loop_
 _atom_site_type_symbol
 _atom_site_label
 _atom_site_symmetry_multiplicity
 _atom_site_fract_x
 _atom_site_fract_y
 _atom_site_fract_z
 _atom_site_occupancy
  Zn  Zn0  1  0.23872543  0.51157452  0.37410556  1.0
  Zn  Zn1  1  0.23872543  -0.01157452  0.87410556  1.0
  Zn  Zn2  1  0.73872543  0.51157452  0.12589444  1.0
  Zn  Zn3  1  0.73872543  -0.01157452  0.62589444  1.0
  Zn  Zn4  1  0.76127457  0.01157452  0.12589444  1.0
  Zn  Zn5  1  0.76127457  0.48842548  0.62589444  1.0
  Zn  Zn6  1  0.26127457  0.01157452  0.37410556  1.0
  Zn  Zn7  1  0.26127457  0.48842548  0.87410556  1.0
  Cl  Cl8  1  0.45694159  0.14217345  0.07710877  1.0
  Cl  Cl9  1  0.45694159  0.35782655  0.57710877  1.0
  Cl  Cl10  1  0.95694159  0.14217345  0.42289123  1.0
  Cl  Cl11  1  0.95694159  0.35782655  0.92289123  1.0
  Cl  Cl12  1  0.54305841  0.64217345  0.42289123  1.0
  Cl  Cl13  1  0.54305841  0.85782655  0.92289123  1.0
  Cl  Cl14  1  0.04305841  0.64217345  0.07710877  1.0
  Cl  Cl15  1  0.04305841  0.85782655  0.57710877  1.0
  O  O16  1  0.41433359  0.44573592  0.13877591  1.0
  O  O17  1  0.41433359  0.05426408  0.63877591  1.0
  O  O18  1  0.91433359  0.44573592  0.36122409  1.0
  O  O19  1  0.91433359  0.05426408  0.86122409  1.0
  O  O20  1  0.58566641  0.94573592  0.36122409  1.0
  O  O21  1  0.58566641  0.55426408  0.86122409  1.0
  O  O22  1  0.08566641  0.94573592  0.13877591  1.0
  O  O23  1  0.08566641  0.55426408  0.63877591  1.0
