# generated using pymatgen
data_Zr2InCu2
_symmetry_space_group_name_H-M   'P 1'
_cell_length_a   7.27357957
_cell_length_b   7.27357957
_cell_length_c   6.82920739
_cell_angle_alpha   90.00000000
_cell_angle_beta   90.00000000
_cell_angle_gamma   90.00000000
_symmetry_Int_Tables_number   1
_chemical_formula_structural   Zr2InCu2
_chemical_formula_sum   'Zr8 In4 Cu8'
_cell_volume   361.29894232
_cell_formula_units_Z   4
loop_
 _symmetry_equiv_pos_site_id
 _symmetry_equiv_pos_as_xyz
  1  'x, y, z'
loop_
 _atom_site_type_symbol
 _atom_site_label
 _atom_site_symmetry_multiplicity
 _atom_site_fract_x
 _atom_site_fract_y
 _atom_site_fract_z
 _atom_site_occupancy
  Zr  Zr0  1  0.19444340  0.19444340  0.50000000  1.0
  Zr  Zr1  1  0.69444340  0.30555660  0.00000000  1.0
  Zr  Zr2  1  0.80555660  0.80555660  0.50000000  1.0
  Zr  Zr3  1  0.30555660  0.69444340  0.00000000  1.0
  Zr  Zr4  1  0.34878378  0.65121622  0.50000000  1.0
  Zr  Zr5  1  0.84878378  0.84878378  0.00000000  1.0
  Zr  Zr6  1  0.65121622  0.34878378  0.50000000  1.0
  Zr  Zr7  1  0.15121622  0.15121622  0.00000000  1.0
  In  In8  1  0.50000000  0.00000000  0.25000000  1.0
  In  In9  1  0.50000000  0.00000000  0.75000000  1.0
  In  In10  1  0.00000000  0.50000000  0.75000000  1.0
  In  In11  1  0.00000000  0.50000000  0.25000000  1.0
  Cu  Cu12  1  0.12261254  0.87738746  0.29901595  1.0
  Cu  Cu13  1  0.12261254  0.87738746  0.70098405  1.0
  Cu  Cu14  1  0.62261254  0.62261254  0.79901595  1.0
  Cu  Cu15  1  0.62261254  0.62261254  0.20098405  1.0
  Cu  Cu16  1  0.87738746  0.12261254  0.29901595  1.0
  Cu  Cu17  1  0.87738746  0.12261254  0.70098405  1.0
  Cu  Cu18  1  0.37738746  0.37738746  0.79901595  1.0
  Cu  Cu19  1  0.37738746  0.37738746  0.20098405  1.0
