# generated using pymatgen
data_SrMo2Se2O11
_symmetry_space_group_name_H-M   'P 1'
_cell_length_a   8.96105524
_cell_length_b   8.21902463
_cell_length_c   8.38971166
_cell_angle_alpha   112.00774074
_cell_angle_beta   113.45735530
_cell_angle_gamma   83.42994388
_symmetry_Int_Tables_number   1
_chemical_formula_structural   SrMo2Se2O11
_chemical_formula_sum   'Sr2 Mo4 Se4 O22'
_cell_volume   525.10240959
_cell_formula_units_Z   2
loop_
 _symmetry_equiv_pos_site_id
 _symmetry_equiv_pos_as_xyz
  1  'x, y, z'
loop_
 _atom_site_type_symbol
 _atom_site_label
 _atom_site_symmetry_multiplicity
 _atom_site_fract_x
 _atom_site_fract_y
 _atom_site_fract_z
 _atom_site_occupancy
  Sr  Sr0  1  0.47689498  0.72672779  -0.56849276  1.0
  Sr  Sr1  1  0.52310502  0.27327221  -0.43150724  1.0
  Mo  Mo2  1  0.94823638  0.52585155  -0.29068436  1.0
  Mo  Mo3  1  0.05176362  0.47414845  -0.70931564  1.0
  Mo  Mo4  1  0.80759861  0.87991246  -0.71115428  1.0
  Mo  Mo5  1  0.19240139  0.12008754  -0.28884572  1.0
  Se  Se6  1  0.85334601  0.94590582  -0.25808716  1.0
  Se  Se7  1  0.14665399  0.05409418  -0.74191284  1.0
  Se  Se8  1  0.69103573  0.27921859  -0.74452406  1.0
  Se  Se9  1  0.30896427  0.72078141  -0.25547594  1.0
  O  O10  1  0.80563280  0.71908977  -0.37562873  1.0
  O  O11  1  0.19436720  0.28091023  -0.62437127  1.0
  O  O12  1  0.28186729  0.86826140  -0.37032069  1.0
  O  O13  1  0.71813271  0.13173860  -0.62967931  1.0
  O  O14  1  0.78992788  0.45650763  -0.26040882  1.0
  O  O15  1  0.21007212  0.54349237  -0.73959118  1.0
  O  O16  1  0.78503396  0.89488720  -0.91828615  1.0
  O  O17  1  0.21496604  0.10511280  -0.08171385  1.0
  O  O18  1  0.93585370  0.32005283  -0.91881539  1.0
  O  O19  1  0.06414630  0.67994717  -0.08118461  1.0
  O  O20  1  0.62630607  0.78836606  -0.74823627  1.0
  O  O21  1  0.37369393  0.21163394  -0.25176373  1.0
  O  O22  1  0.92802356  0.67647973  -0.71357270  1.0
  O  O23  1  0.07197644  0.32352027  -0.28642730  1.0
  O  O24  1  0.55173675  0.40093900  -0.67000404  1.0
  O  O25  1  0.44826325  0.59906100  -0.32999596  1.0
  O  O26  1  0.33732306  0.98650916  -0.66518389  1.0
  O  O27  1  0.66267694  0.01349084  -0.33481611  1.0
  O  O28  1  0.87296383  0.40899777  -0.59634424  1.0
  O  O29  1  0.12703617  0.59100223  -0.40365576  1.0
  O  O30  1  0.93499295  0.97631676  -0.40613237  1.0
  O  O31  1  0.06500705  0.02368324  -0.59386763  1.0
