# generated using pymatgen
data_BaGaCu2
_symmetry_space_group_name_H-M   'P 1'
_cell_length_a   6.22263411
_cell_length_b   6.22263411
_cell_length_c   6.22263411
_cell_angle_alpha   40.65676966
_cell_angle_beta   40.65676966
_cell_angle_gamma   40.65676966
_symmetry_Int_Tables_number   1
_chemical_formula_structural   BaGaCu2
_chemical_formula_sum   'Ba1 Ga1 Cu2'
_cell_volume   92.27337587
_cell_formula_units_Z   1
loop_
 _symmetry_equiv_pos_site_id
 _symmetry_equiv_pos_as_xyz
  1  'x, y, z'
loop_
 _atom_site_type_symbol
 _atom_site_label
 _atom_site_symmetry_multiplicity
 _atom_site_fract_x
 _atom_site_fract_y
 _atom_site_fract_z
 _atom_site_occupancy
  Ba  Ba0  1  0.00000000  0.00000000  0.00000000  1.0
  Ga  Ga1  1  1.50000000  0.50000000  0.50000000  1.0
  Cu  Cu2  1  0.81355858  0.81355858  0.81355858  1.0
  Cu  Cu3  1  1.18644142  1.18644142  0.18644142  1.0
