# generated using pymatgen
data_LiTaGeO5
_symmetry_space_group_name_H-M   'P 1'
_cell_length_a   7.65626490
_cell_length_b   8.18001765
_cell_length_c   7.59744021
_cell_angle_alpha   90.00000000
_cell_angle_beta   119.54047367
_cell_angle_gamma   90.00000000
_symmetry_Int_Tables_number   1
_chemical_formula_structural   LiTaGeO5
_chemical_formula_sum   'Li4 Ta4 Ge4 O20'
_cell_volume   413.96301823
_cell_formula_units_Z   4
loop_
 _symmetry_equiv_pos_site_id
 _symmetry_equiv_pos_as_xyz
  1  'x, y, z'
loop_
 _atom_site_type_symbol
 _atom_site_label
 _atom_site_symmetry_multiplicity
 _atom_site_fract_x
 _atom_site_fract_y
 _atom_site_fract_z
 _atom_site_occupancy
  Li  Li0  1  0.24990932  0.55897260  0.95556414  1.0
  Li  Li1  1  0.24990932  0.94102740  0.45556414  1.0
  Li  Li2  1  0.75009068  0.05897260  0.54443586  1.0
  Li  Li3  1  0.75009068  0.44102740  0.04443586  1.0
  Ta  Ta4  1  0.24944667  0.25826502  0.24312293  1.0
  Ta  Ta5  1  0.24944667  0.24173498  0.74312293  1.0
  Ta  Ta6  1  0.75055333  0.75826502  0.25687707  1.0
  Ta  Ta7  1  0.75055333  0.74173498  0.75687707  1.0
  Ge  Ge8  1  0.75013433  0.38879991  0.49144272  1.0
  Ge  Ge9  1  0.75013433  0.11120009  0.99144272  1.0
  Ge  Ge10  1  0.24986567  0.88879991  0.00855728  1.0
  Ge  Ge11  1  0.24986567  0.61120009  0.50855728  1.0
  O  O12  1  0.05172742  0.74536326  0.89994859  1.0
  O  O13  1  0.05172742  0.75463674  0.39994859  1.0
  O  O14  1  0.94827258  0.24536326  0.60005141  1.0
  O  O15  1  0.94827258  0.25463674  0.10005141  1.0
  O  O16  1  0.24939366  0.01491048  0.81957306  1.0
  O  O17  1  0.24939366  0.48508952  0.31957306  1.0
  O  O18  1  0.75060634  0.51491048  0.68042694  1.0
  O  O19  1  0.75060634  0.98508952  0.18042694  1.0
  O  O20  1  0.25117323  0.31863721  0.99989886  1.0
  O  O21  1  0.25117323  0.18136279  0.49989885  1.0
  O  O22  1  0.74882677  0.81863721  0.50010115  1.0
  O  O23  1  0.74882677  0.68136279  0.00010115  1.0
  O  O24  1  0.24772185  0.01229196  0.19810457  1.0
  O  O25  1  0.24772185  0.48770804  0.69810457  1.0
  O  O26  1  0.75227815  0.51229196  0.30189543  1.0
  O  O27  1  0.75227815  0.98770804  0.80189543  1.0
  O  O28  1  0.55108525  0.24603753  0.40046124  1.0
  O  O29  1  0.55108525  0.25396247  0.90046124  1.0
  O  O30  1  0.44891475  0.74603753  0.09953876  1.0
  O  O31  1  0.44891475  0.75396247  0.59953876  1.0
