# generated using pymatgen
data_KSbO3
_symmetry_space_group_name_H-M   'P 1'
_cell_length_a   7.52605992
_cell_length_b   7.52605992
_cell_length_c   7.52605992
_cell_angle_alpha   60.00000000
_cell_angle_beta   60.00000000
_cell_angle_gamma   60.00000000
_symmetry_Int_Tables_number   1
_chemical_formula_structural   KSbO3
_chemical_formula_sum   'K4 Sb4 O12'
_cell_volume   301.43107112
_cell_formula_units_Z   4
loop_
 _symmetry_equiv_pos_site_id
 _symmetry_equiv_pos_as_xyz
  1  'x, y, z'
loop_
 _atom_site_type_symbol
 _atom_site_label
 _atom_site_symmetry_multiplicity
 _atom_site_fract_x
 _atom_site_fract_y
 _atom_site_fract_z
 _atom_site_occupancy
  K  K0  1  0.62500000  0.62500000  1.12500000  1.0
  K  K1  1  0.62500000  1.12500000  0.62500000  1.0
  K  K2  1  1.12500000  0.62500000  0.62500000  1.0
  K  K3  1  0.62500000  0.62500000  0.62500000  1.0
  Sb  Sb4  1  0.12500000  0.12500000  1.62500000  1.0
  Sb  Sb5  1  0.12500000  0.62500000  1.12500000  1.0
  Sb  Sb6  1  1.62500000  0.12500000  0.12500000  1.0
  Sb  Sb7  1  1.12500000  0.12500000  0.12500000  1.0
  O  O8  1  1.44624147  0.44624147  0.05375853  1.0
  O  O9  1  1.05375853  0.44624147  0.05375853  1.0
  O  O10  1  1.44624147  0.05375853  0.05375853  1.0
  O  O11  1  1.05375853  0.05375853  0.44624147  1.0
  O  O12  1  1.44624147  0.05375853  0.44624147  1.0
  O  O13  1  1.05375853  0.44624147  0.44624147  1.0
  O  O14  1  0.80375853  0.80375853  -0.80375853  1.0
  O  O15  1  1.19624147  -0.19624147  0.19624147  1.0
  O  O16  1  -0.19624147  0.19624147  0.19624147  1.0
  O  O17  1  0.19624147  0.19624147  -0.19624147  1.0
  O  O18  1  0.80375853  -0.80375853  0.80375853  1.0
  O  O19  1  -0.80375853  0.80375853  0.80375853  1.0
