# generated using pymatgen
data_V2AsO4
_symmetry_space_group_name_H-M   'P 1'
_cell_length_a   7.94880381
_cell_length_b   7.94880381
_cell_length_c   6.44319423
_cell_angle_alpha   90.00000000
_cell_angle_beta   90.00000000
_cell_angle_gamma   90.00000000
_symmetry_Int_Tables_number   1
_chemical_formula_structural   V2AsO4
_chemical_formula_sum   'V8 As4 O16'
_cell_volume   407.10344710
_cell_formula_units_Z   4
loop_
 _symmetry_equiv_pos_site_id
 _symmetry_equiv_pos_as_xyz
  1  'x, y, z'
loop_
 _atom_site_type_symbol
 _atom_site_label
 _atom_site_symmetry_multiplicity
 _atom_site_fract_x
 _atom_site_fract_y
 _atom_site_fract_z
 _atom_site_occupancy
  V  V0  1  0.11108819  0.26641685  0.63473385  1.0
  V  V1  1  0.61108819  0.76641685  0.36526615  1.0
  V  V2  1  0.26641685  0.88891181  0.36526615  1.0
  V  V3  1  0.76641685  0.38891181  0.63473385  1.0
  V  V4  1  0.88891181  0.73358315  0.63473385  1.0
  V  V5  1  0.38891181  0.23358315  0.36526615  1.0
  V  V6  1  0.73358315  0.11108819  0.36526615  1.0
  V  V7  1  0.23358315  0.61108819  0.63473385  1.0
  As  As8  1  0.25000000  0.75000000  0.00000000  1.0
  As  As9  1  0.75000000  0.25000000  0.00000000  1.0
  As  As10  1  0.75000000  0.75000000  -0.00000000  1.0
  As  As11  1  0.25000000  0.25000000  -0.00000000  1.0
  O  O12  1  0.24621219  0.99608149  1.11780336  1.0
  O  O13  1  0.74621219  0.49608149  -0.11780336  1.0
  O  O14  1  0.99608149  0.75378781  -0.11780336  1.0
  O  O15  1  0.49608149  0.25378781  1.11780336  1.0
  O  O16  1  0.75378781  0.00391851  1.11780336  1.0
  O  O17  1  0.25378781  0.50391851  -0.11780336  1.0
  O  O18  1  0.00391851  0.24621219  -0.11780336  1.0
  O  O19  1  0.50391851  0.74621219  1.11780336  1.0
  O  O20  1  0.22727153  0.08762101  0.50889236  1.0
  O  O21  1  0.72727153  0.58762101  0.49110764  1.0
  O  O22  1  0.08762101  0.77272847  0.49110764  1.0
  O  O23  1  0.58762101  0.27272847  0.50889236  1.0
  O  O24  1  0.77272847  0.91237899  0.50889236  1.0
  O  O25  1  0.27272847  0.41237899  0.49110764  1.0
  O  O26  1  0.91237899  0.22727153  0.49110764  1.0
  O  O27  1  0.41237899  0.72727153  0.50889236  1.0
