# generated using pymatgen
data_SbAsPd5
_symmetry_space_group_name_H-M   'P 1'
_cell_length_a   8.76282100
_cell_length_b   8.76282100
_cell_length_c   8.76282100
_cell_angle_alpha   60.00000000
_cell_angle_beta   60.00000000
_cell_angle_gamma   60.00000000
_symmetry_Int_Tables_number   1
_chemical_formula_structural   SbAsPd5
_chemical_formula_sum   'Sb4 As4 Pd20'
_cell_volume   475.79165793
_cell_formula_units_Z   4
loop_
 _symmetry_equiv_pos_site_id
 _symmetry_equiv_pos_as_xyz
  1  'x, y, z'
loop_
 _atom_site_type_symbol
 _atom_site_label
 _atom_site_symmetry_multiplicity
 _atom_site_fract_x
 _atom_site_fract_y
 _atom_site_fract_z
 _atom_site_occupancy
  Sb  Sb0  1  0.62500000  0.62500000  1.12500000  1.0
  Sb  Sb1  1  0.62500000  1.12500000  0.62500000  1.0
  Sb  Sb2  1  1.12500000  0.62500000  0.62500000  1.0
  Sb  Sb3  1  0.62500000  0.62500000  0.62500000  1.0
  As  As4  1  0.12500000  0.12500000  1.62500000  1.0
  As  As5  1  0.12500000  0.62500000  1.12500000  1.0
  As  As6  1  1.62500000  0.12500000  0.12500000  1.0
  As  As7  1  1.12500000  0.12500000  0.12500000  1.0
  Pd  Pd8  1  1.46441317  0.46441317  0.03558683  1.0
  Pd  Pd9  1  1.03558683  0.46441317  0.03558683  1.0
  Pd  Pd10  1  1.46441317  0.03558683  0.03558683  1.0
  Pd  Pd11  1  1.03558683  0.03558683  0.46441317  1.0
  Pd  Pd12  1  1.46441317  0.03558683  0.46441317  1.0
  Pd  Pd13  1  1.03558683  0.46441317  0.46441317  1.0
  Pd  Pd14  1  0.78558683  0.78558683  -0.78558683  1.0
  Pd  Pd15  1  1.21441317  -0.21441317  0.21441317  1.0
  Pd  Pd16  1  -0.21441317  0.21441317  0.21441317  1.0
  Pd  Pd17  1  0.21441317  0.21441317  -0.21441317  1.0
  Pd  Pd18  1  0.78558683  -0.78558683  0.78558683  1.0
  Pd  Pd19  1  -0.78558683  0.78558683  0.78558683  1.0
  Pd  Pd20  1  1.41033574  0.41033574  -0.23100722  1.0
  Pd  Pd21  1  1.41033574  -0.23100722  0.41033574  1.0
  Pd  Pd22  1  0.76899278  0.41033574  0.41033574  1.0
  Pd  Pd23  1  1.41033574  0.41033574  0.41033574  1.0
  Pd  Pd24  1  0.83966426  0.83966426  0.48100722  1.0
  Pd  Pd25  1  0.83966426  0.48100722  0.83966426  1.0
  Pd  Pd26  1  0.48100722  0.83966426  0.83966426  1.0
  Pd  Pd27  1  0.83966426  0.83966426  0.83966426  1.0
