# generated using pymatgen
data_NbRh3
_symmetry_space_group_name_H-M   'P 1'
_cell_length_a   5.50943306
_cell_length_b   5.50943306
_cell_length_c   13.42778750
_cell_angle_alpha   90.00000000
_cell_angle_beta   90.00000000
_cell_angle_gamma   120.00000000
_symmetry_Int_Tables_number   1
_chemical_formula_structural   NbRh3
_chemical_formula_sum   'Nb6 Rh18'
_cell_volume   352.97903634
_cell_formula_units_Z   6
loop_
 _symmetry_equiv_pos_site_id
 _symmetry_equiv_pos_as_xyz
  1  'x, y, z'
loop_
 _atom_site_type_symbol
 _atom_site_label
 _atom_site_symmetry_multiplicity
 _atom_site_fract_x
 _atom_site_fract_y
 _atom_site_fract_z
 _atom_site_occupancy
  Nb  Nb0  1  0.00000000  0.00000000  0.25000000  1.0
  Nb  Nb1  1  0.00000000  0.00000000  0.75000000  1.0
  Nb  Nb2  1  0.33333333  0.66666667  0.41089776  1.0
  Nb  Nb3  1  0.33333333  0.66666667  0.08910224  1.0
  Nb  Nb4  1  0.66666667  0.33333333  0.91089776  1.0
  Nb  Nb5  1  0.66666667  0.33333333  0.58910224  1.0
  Rh  Rh6  1  0.16588184  0.83411816  0.91732937  1.0
  Rh  Rh7  1  0.16588184  0.83411816  0.58267063  1.0
  Rh  Rh8  1  0.16588184  0.33176367  0.91732937  1.0
  Rh  Rh9  1  0.16588184  0.33176367  0.58267063  1.0
  Rh  Rh10  1  0.83411816  0.16588184  0.41732937  1.0
  Rh  Rh11  1  0.83411816  0.16588184  0.08267063  1.0
  Rh  Rh12  1  0.83411816  0.66823633  0.41732937  1.0
  Rh  Rh13  1  0.83411816  0.66823633  0.08267063  1.0
  Rh  Rh14  1  0.66823633  0.83411816  0.91732937  1.0
  Rh  Rh15  1  0.66823633  0.83411816  0.58267063  1.0
  Rh  Rh16  1  0.33176367  0.16588184  0.41732937  1.0
  Rh  Rh17  1  0.33176367  0.16588184  0.08267063  1.0
  Rh  Rh18  1  0.50378479  0.49621521  0.25000000  1.0
  Rh  Rh19  1  0.50378479  0.00756958  0.25000000  1.0
  Rh  Rh20  1  0.49621521  0.50378479  0.75000000  1.0
  Rh  Rh21  1  0.49621521  0.99243042  0.75000000  1.0
  Rh  Rh22  1  0.99243042  0.49621521  0.25000000  1.0
  Rh  Rh23  1  0.00756958  0.50378479  0.75000000  1.0
