# generated using pymatgen
data_TlCd(NO2)3
_symmetry_space_group_name_H-M   'P 1'
_cell_length_a   5.47374220
_cell_length_b   5.47374220
_cell_length_c   5.47374220
_cell_angle_alpha   90.68402701
_cell_angle_beta   90.68402701
_cell_angle_gamma   90.68402701
_symmetry_Int_Tables_number   1
_chemical_formula_structural   TlCd(NO2)3
_chemical_formula_sum   'Tl1 Cd1 N3 O6'
_cell_volume   163.96811852
_cell_formula_units_Z   1
loop_
 _symmetry_equiv_pos_site_id
 _symmetry_equiv_pos_as_xyz
  1  'x, y, z'
loop_
 _atom_site_type_symbol
 _atom_site_label
 _atom_site_symmetry_multiplicity
 _atom_site_fract_x
 _atom_site_fract_y
 _atom_site_fract_z
 _atom_site_occupancy
  Tl  Tl0  1  0.47337660  0.47337660  0.47337660  1.0
  Cd  Cd1  1  -0.01039470  -0.01039470  -0.01039470  1.0
  N  N2  1  0.93114189  0.97628632  -0.46511246  1.0
  N  N3  1  0.97628632  0.53488754  -0.06885811  1.0
  N  N4  1  0.53488754  0.93114189  -0.02371368  1.0
  O  O5  1  0.94155226  0.16666070  0.40750522  1.0
  O  O6  1  1.16666070  0.40750522  -0.05844774  1.0
  O  O7  1  1.40750522  -0.05844774  0.16666070  1.0
  O  O8  1  0.92979383  0.77710348  0.42038686  1.0
  O  O9  1  0.77710348  1.42038686  -0.07020617  1.0
  O  O10  1  1.42038686  0.92979383  -0.22289652  1.0
