# generated using pymatgen
data_V5As3
_symmetry_space_group_name_H-M   'P 1'
_cell_length_a   6.44192087
_cell_length_b   7.69542616
_cell_length_c   9.16674999
_cell_angle_alpha   90.00000000
_cell_angle_beta   90.00000000
_cell_angle_gamma   90.00000000
_symmetry_Int_Tables_number   1
_chemical_formula_structural   V5As3
_chemical_formula_sum   'V20 As12'
_cell_volume   454.42628896
_cell_formula_units_Z   4
loop_
 _symmetry_equiv_pos_site_id
 _symmetry_equiv_pos_as_xyz
  1  'x, y, z'
loop_
 _atom_site_type_symbol
 _atom_site_label
 _atom_site_symmetry_multiplicity
 _atom_site_fract_x
 _atom_site_fract_y
 _atom_site_fract_z
 _atom_site_occupancy
  V  V0  1  0.28797950  0.94608510  0.56373942  1.0
  V  V1  1  0.28797950  0.55391490  0.56373942  1.0
  V  V2  1  0.78797950  0.94608510  0.93626058  1.0
  V  V3  1  0.78797950  0.55391490  0.93626058  1.0
  V  V4  1  0.71202050  0.44608510  0.43626058  1.0
  V  V5  1  0.71202050  0.05391490  0.43626058  1.0
  V  V6  1  0.21202050  0.44608510  0.06373942  1.0
  V  V7  1  0.21202050  0.05391490  0.06373942  1.0
  V  V8  1  0.45224013  0.75000000  0.01265587  1.0
  V  V9  1  0.95224013  0.75000000  0.48734413  1.0
  V  V10  1  0.54775987  0.25000000  0.98734413  1.0
  V  V11  1  0.04775987  0.25000000  0.51265587  1.0
  V  V12  1  0.14814882  0.75000000  0.78202041  1.0
  V  V13  1  0.64814882  0.75000000  0.71797959  1.0
  V  V14  1  0.85185118  0.25000000  0.21797959  1.0
  V  V15  1  0.35185118  0.25000000  0.28202041  1.0
  V  V16  1  0.27855951  0.75000000  0.26723164  1.0
  V  V17  1  0.77855951  0.75000000  0.23276836  1.0
  V  V18  1  0.72144049  0.25000000  0.73276836  1.0
  V  V19  1  0.22144049  0.25000000  0.76723164  1.0
  As  As20  1  0.42937054  0.99071207  0.82532441  1.0
  As  As21  1  0.42937054  0.50928793  0.82532441  1.0
  As  As22  1  0.92937054  0.99071207  0.67467559  1.0
  As  As23  1  0.92937054  0.50928793  0.67467559  1.0
  As  As24  1  0.57062946  0.49071207  0.17467559  1.0
  As  As25  1  0.57062946  0.00928793  0.17467559  1.0
  As  As26  1  0.07062946  0.49071207  0.32532441  1.0
  As  As27  1  0.07062946  0.00928793  0.32532441  1.0
  As  As28  1  0.05505285  0.75000000  0.04450577  1.0
  As  As29  1  0.55505285  0.75000000  0.45549423  1.0
  As  As30  1  0.94494715  0.25000000  0.95549423  1.0
  As  As31  1  0.44494715  0.25000000  0.54450577  1.0
