# generated using pymatgen
data_Cs2InCl5O
_symmetry_space_group_name_H-M   'P 1'
_cell_length_a   14.73016629
_cell_length_b   10.87315021
_cell_length_c   7.82976439
_cell_angle_alpha   90.00000000
_cell_angle_beta   90.00000000
_cell_angle_gamma   90.00000000
_symmetry_Int_Tables_number   1
_chemical_formula_structural   Cs2InCl5O
_chemical_formula_sum   'Cs8 In4 Cl20 O4'
_cell_volume   1254.04098645
_cell_formula_units_Z   4
loop_
 _symmetry_equiv_pos_site_id
 _symmetry_equiv_pos_as_xyz
  1  'x, y, z'
loop_
 _atom_site_type_symbol
 _atom_site_label
 _atom_site_symmetry_multiplicity
 _atom_site_fract_x
 _atom_site_fract_y
 _atom_site_fract_z
 _atom_site_occupancy
  Cl  Cl0  1  1.00122878  0.25000000  0.04700150  1.0
  Cl  Cl1  1  0.50122878  0.25000000  0.45299850  1.0
  Cl  Cl2  1  -0.00122878  0.75000000  0.95299850  1.0
  Cl  Cl3  1  0.49877122  0.75000000  0.54700150  1.0
  Cl  Cl4  1  0.74942125  0.25000000  0.54293097  1.0
  Cl  Cl5  1  0.24942125  0.25000000  0.95706903  1.0
  Cl  Cl6  1  0.25057875  0.75000000  0.45706903  1.0
  Cl  Cl7  1  0.75057875  0.75000000  0.04293097  1.0
  Cl  Cl8  1  0.74477672  0.25000000  0.06201204  1.0
  Cl  Cl9  1  0.24477672  0.25000000  0.43798796  1.0
  Cl  Cl10  1  0.25522328  0.75000000  0.93798796  1.0
  Cl  Cl11  1  0.75522328  0.75000000  0.56201204  1.0
  Cl  Cl12  1  0.88733342  0.47828991  0.30893348  1.0
  Cl  Cl13  1  0.88733342  1.02171009  0.30893348  1.0
  Cl  Cl14  1  0.38733342  0.47828991  0.19106652  1.0
  Cl  Cl15  1  0.38733342  1.02171009  0.19106652  1.0
  Cl  Cl16  1  0.11266658  -0.02171009  0.69106652  1.0
  Cl  Cl17  1  0.11266658  0.52171009  0.69106652  1.0
  Cl  Cl18  1  0.61266658  -0.02171009  0.80893348  1.0
  Cl  Cl19  1  0.61266658  0.52171009  0.80893348  1.0
  O  O20  1  -0.09084264  0.25000000  0.52396807  1.0
  O  O21  1  0.40915736  0.25000000  0.97603193  1.0
  O  O22  1  1.09084264  0.75000000  0.47603193  1.0
  O  O23  1  0.59084264  0.75000000  0.02396807  1.0
  Cs  Cs24  1  0.63249414  0.51285958  0.28857700  1.0
  Cs  Cs25  1  0.63249414  0.98714042  0.28857700  1.0
  Cs  Cs26  1  0.13249414  0.51285958  0.21142300  1.0
  Cs  Cs27  1  0.13249414  0.98714042  0.21142300  1.0
  Cs  Cs28  1  0.36750586  0.01285958  0.71142300  1.0
  Cs  Cs29  1  0.36750586  0.48714042  0.71142300  1.0
  Cs  Cs30  1  0.86750586  0.01285958  0.78857700  1.0
  Cs  Cs31  1  0.86750586  0.48714042  0.78857700  1.0
  In  In32  1  0.87480618  0.25000000  0.25580516  1.0
  In  In33  1  0.37480618  0.25000000  0.24419484  1.0
  In  In34  1  0.12519382  0.75000000  0.74419484  1.0
  In  In35  1  0.62519382  0.75000000  0.75580516  1.0
