# generated using pymatgen
data_Sr2NbCoO6
_symmetry_space_group_name_H-M   'P 1'
_cell_length_a   5.52945877
_cell_length_b   5.52945877
_cell_length_c   5.52945877
_cell_angle_alpha   120.01469512
_cell_angle_beta   120.01469512
_cell_angle_gamma   89.97454919
_symmetry_Int_Tables_number   1
_chemical_formula_structural   Sr2NbCoO6
_chemical_formula_sum   'Sr2 Nb1 Co1 O6'
_cell_volume   119.51883575
_cell_formula_units_Z   1
loop_
 _symmetry_equiv_pos_site_id
 _symmetry_equiv_pos_as_xyz
  1  'x, y, z'
loop_
 _atom_site_type_symbol
 _atom_site_label
 _atom_site_symmetry_multiplicity
 _atom_site_fract_x
 _atom_site_fract_y
 _atom_site_fract_z
 _atom_site_occupancy
  Sr  Sr0  1  0.25000000  0.75000000  0.50000000  1.0
  Sr  Sr1  1  0.75000000  0.25000000  0.50000000  1.0
  Nb  Nb2  1  0.00000000  0.00000000  0.00000000  1.0
  Co  Co3  1  0.50000000  0.50000000  1.00000000  1.0
  O  O4  1  0.73859309  0.75300781  1.49160090  1.0
  O  O5  1  0.24699219  0.73859309  0.98558528  1.0
  O  O6  1  0.26140691  0.24699219  0.50839910  1.0
  O  O7  1  0.75300781  0.26140691  1.01441472  1.0
  O  O8  1  0.74582202  0.74582202  1.00000000  1.0
  O  O9  1  0.25417798  0.25417798  0.00000000  1.0
