# generated using pymatgen
data_MnAuO2
_symmetry_space_group_name_H-M   'P 1'
_cell_length_a   3.20879028
_cell_length_b   3.20879028
_cell_length_c   6.32321649
_cell_angle_alpha   78.52020603
_cell_angle_beta   101.47979397
_cell_angle_gamma   125.45099118
_symmetry_Int_Tables_number   1
_chemical_formula_structural   MnAuO2
_chemical_formula_sum   'Mn1 Au1 O2'
_cell_volume   51.68940551
_cell_formula_units_Z   1
loop_
 _symmetry_equiv_pos_site_id
 _symmetry_equiv_pos_as_xyz
  1  'x, y, z'
loop_
 _atom_site_type_symbol
 _atom_site_label
 _atom_site_symmetry_multiplicity
 _atom_site_fract_x
 _atom_site_fract_y
 _atom_site_fract_z
 _atom_site_occupancy
  Mn  Mn0  1  0.00000000  -0.00000000  0.50000000  1.0
  Au  Au1  1  0.50000000  0.50000000  0.00000000  1.0
  O  O2  1  0.59730880  0.40269120  0.33600520  1.0
  O  O3  1  0.40269120  -0.40269120  0.66399480  1.0
