# generated using pymatgen
data_Li4SiPt3
_symmetry_space_group_name_H-M   'P 1'
_cell_length_a   6.79490725
_cell_length_b   6.79490725
_cell_length_c   6.79490725
_cell_angle_alpha   61.65391388
_cell_angle_beta   61.65391388
_cell_angle_gamma   61.65391388
_symmetry_Int_Tables_number   1
_chemical_formula_structural   Li4SiPt3
_chemical_formula_sum   'Li8 Si2 Pt6'
_cell_volume   230.06488004
_cell_formula_units_Z   2
loop_
 _symmetry_equiv_pos_site_id
 _symmetry_equiv_pos_as_xyz
  1  'x, y, z'
loop_
 _atom_site_type_symbol
 _atom_site_label
 _atom_site_symmetry_multiplicity
 _atom_site_fract_x
 _atom_site_fract_y
 _atom_site_fract_z
 _atom_site_occupancy
  Li  Li0  1  0.34203721  0.84241628  -0.44035445  1.0
  Li  Li1  1  0.44035445  0.15758372  -0.34203721  1.0
  Li  Li2  1  0.15758372  0.65796279  -0.55964555  1.0
  Li  Li3  1  0.65796279  0.44035445  -0.84241628  1.0
  Li  Li4  1  0.55964555  0.34203721  -0.15758372  1.0
  Li  Li5  1  0.84241628  0.55964555  -0.65796279  1.0
  Li  Li6  1  0.72583451  0.72583451  -0.27416549  1.0
  Li  Li7  1  1.27416549  1.27416549  0.27416549  1.0
  Si  Si8  1  0.89888477  0.89888477  -0.10111523  1.0
  Si  Si9  1  1.10111523  1.10111523  0.10111523  1.0
  Pt  Pt10  1  1.10799434  -0.50000000  -0.10799434  1.0
  Pt  Pt11  1  0.50000000  -0.10799434  0.10799434  1.0
  Pt  Pt12  1  0.89200566  0.10799434  -0.50000000  1.0
  Pt  Pt13  1  0.73630151  0.00000000  0.26369849  1.0
  Pt  Pt14  1  -0.00000000  0.26369849  -0.26369849  1.0
  Pt  Pt15  1  0.26369849  -0.26369849  0.00000000  1.0
