# generated using pymatgen
data_Ag2Se
_symmetry_space_group_name_H-M   'P 1'
_cell_length_a   7.09797531
_cell_length_b   7.09797531
_cell_length_c   4.26482964
_cell_angle_alpha   90.00000000
_cell_angle_beta   90.00000000
_cell_angle_gamma   147.06577818
_symmetry_Int_Tables_number   1
_chemical_formula_structural   Ag2Se
_chemical_formula_sum   'Ag4 Se2'
_cell_volume   116.81824951
_cell_formula_units_Z   2
loop_
 _symmetry_equiv_pos_site_id
 _symmetry_equiv_pos_as_xyz
  1  'x, y, z'
loop_
 _atom_site_type_symbol
 _atom_site_label
 _atom_site_symmetry_multiplicity
 _atom_site_fract_x
 _atom_site_fract_y
 _atom_site_fract_z
 _atom_site_occupancy
  Ag  Ag0  1  -0.92296487  0.92296487  0.25000000  1.0
  Ag  Ag1  1  -0.07703513  1.07703513  0.75000000  1.0
  Ag  Ag2  1  -0.25635434  1.25635434  0.25000000  1.0
  Ag  Ag3  1  -0.74364566  0.74364566  0.75000000  1.0
  Se  Se4  1  -0.60657607  0.60657607  0.25000000  1.0
  Se  Se5  1  -0.39342393  1.39342393  0.75000000  1.0
