# generated using pymatgen
data_K2Ga3
_symmetry_space_group_name_H-M   'P 1'
_cell_length_a   8.63784781
_cell_length_b   8.63784781
_cell_length_c   8.63784781
_cell_angle_alpha   138.00522921
_cell_angle_beta   138.00522921
_cell_angle_gamma   60.89498989
_symmetry_Int_Tables_number   1
_chemical_formula_structural   K2Ga3
_chemical_formula_sum   'K4 Ga6'
_cell_volume   285.35551295
_cell_formula_units_Z   2
loop_
 _symmetry_equiv_pos_site_id
 _symmetry_equiv_pos_as_xyz
  1  'x, y, z'
loop_
 _atom_site_type_symbol
 _atom_site_label
 _atom_site_symmetry_multiplicity
 _atom_site_fract_x
 _atom_site_fract_y
 _atom_site_fract_z
 _atom_site_occupancy
  K  K0  1  0.60976999  0.60976999  1.00000000  1.0
  K  K1  1  0.39023001  0.39023001  0.00000000  1.0
  K  K2  1  0.25000000  0.75000000  0.50000000  1.0
  K  K3  1  0.75000000  0.25000000  0.50000000  1.0
  Ga  Ga4  1  0.00000000  0.70523593  0.70523593  1.0
  Ga  Ga5  1  0.70523593  0.00000000  0.70523593  1.0
  Ga  Ga6  1  0.29476407  0.00000000  0.29476407  1.0
  Ga  Ga7  1  0.00000000  0.29476407  0.29476407  1.0
  Ga  Ga8  1  0.86023111  0.86023111  1.00000000  1.0
  Ga  Ga9  1  0.13976889  0.13976889  0.00000000  1.0
