# generated using pymatgen
data_Ba(BrF4)2
_symmetry_space_group_name_H-M   'P 1'
_cell_length_a   8.18920474
_cell_length_b   8.18920474
_cell_length_c   8.18920474
_cell_angle_alpha   104.23685191
_cell_angle_beta   104.23685191
_cell_angle_gamma   120.53989956
_symmetry_Int_Tables_number   1
_chemical_formula_structural   Ba(BrF4)2
_chemical_formula_sum   'Ba2 Br4 F16'
_cell_volume   410.74555104
_cell_formula_units_Z   2
loop_
 _symmetry_equiv_pos_site_id
 _symmetry_equiv_pos_as_xyz
  1  'x, y, z'
loop_
 _atom_site_type_symbol
 _atom_site_label
 _atom_site_symmetry_multiplicity
 _atom_site_fract_x
 _atom_site_fract_y
 _atom_site_fract_z
 _atom_site_occupancy
  Ba  Ba0  1  0.25000000  0.75000000  0.50000000  1.0
  Ba  Ba1  1  0.00000000  0.00000000  0.00000000  1.0
  Br  Br2  1  0.59727555  1.20457781  1.06566940  1.0
  Br  Br3  1  1.46839384  1.40272445  1.60730226  1.0
  Br  Br4  1  1.13890841  1.53160616  0.93433060  1.0
  Br  Br5  1  0.79542219  0.86109159  1.39269774  1.0
  F  F6  1  0.72802325  1.11324087  0.93437385  1.0
  F  F7  1  0.20635060  0.27197675  0.38521762  1.0
  F  F8  1  1.17886702  1.79364940  1.06562615  1.0
  F  F9  1  0.88675913  0.82113298  0.61478238  1.0
  F  F10  1  0.71927340  0.89318840  1.16732253  1.0
  F  F11  1  0.44804912  0.28072660  0.17391500  1.0
  F  F12  1  0.72586587  1.55195088  0.83267747  1.0
  F  F13  1  1.10681160  1.27413413  0.82608500  1.0
  F  F14  1  0.33483655  1.02523504  0.83069202  1.0
  F  F15  1  0.49585547  0.66516345  0.69039849  1.0
  F  F16  1  1.19454302  1.50414453  1.16930798  1.0
  F  F17  1  0.97476496  0.80545698  0.30960151  1.0
  F  F18  1  0.84792563  1.38079188  1.30014737  1.0
  F  F19  1  1.45222173  1.15207437  1.53286625  1.0
  F  F20  1  1.08064452  1.54777827  0.69985263  1.0
  F  F21  1  0.61920812  0.91935548  1.46713375  1.0
