# generated using pymatgen
data_LaGaIr
_symmetry_space_group_name_H-M   'P 1'
_cell_length_a   7.17225460
_cell_length_b   4.38585204
_cell_length_c   8.07541916
_cell_angle_alpha   90.00000000
_cell_angle_beta   90.00000000
_cell_angle_gamma   90.00000000
_symmetry_Int_Tables_number   1
_chemical_formula_structural   LaGaIr
_chemical_formula_sum   'La4 Ga4 Ir4'
_cell_volume   254.02399821
_cell_formula_units_Z   4
loop_
 _symmetry_equiv_pos_site_id
 _symmetry_equiv_pos_as_xyz
  1  'x, y, z'
loop_
 _atom_site_type_symbol
 _atom_site_label
 _atom_site_symmetry_multiplicity
 _atom_site_fract_x
 _atom_site_fract_y
 _atom_site_fract_z
 _atom_site_occupancy
  La  La0  1  0.96927575  0.75000000  0.68848438  1.0
  La  La1  1  0.46927575  0.75000000  0.81151562  1.0
  La  La2  1  0.03072425  0.25000000  0.31151562  1.0
  La  La3  1  0.53072425  0.25000000  0.18848438  1.0
  Ga  Ga4  1  0.85045641  0.75000000  0.06838407  1.0
  Ga  Ga5  1  0.35045641  0.75000000  0.43161593  1.0
  Ga  Ga6  1  0.14954359  0.25000000  0.93161593  1.0
  Ga  Ga7  1  0.64954359  0.25000000  0.56838407  1.0
  Ir  Ir8  1  0.72365861  0.75000000  0.38860337  1.0
  Ir  Ir9  1  0.22365861  0.75000000  0.11139663  1.0
  Ir  Ir10  1  0.27634139  0.25000000  0.61139663  1.0
  Ir  Ir11  1  0.77634139  0.25000000  0.88860337  1.0
