# generated using pymatgen
data_LuGaPt
_symmetry_space_group_name_H-M   'P 1'
_cell_length_a   6.74872103
_cell_length_b   4.39972402
_cell_length_c   7.67243607
_cell_angle_alpha   90.00000000
_cell_angle_beta   90.00000000
_cell_angle_gamma   90.00000000
_symmetry_Int_Tables_number   1
_chemical_formula_structural   LuGaPt
_chemical_formula_sum   'Lu4 Ga4 Pt4'
_cell_volume   227.81388474
_cell_formula_units_Z   4
loop_
 _symmetry_equiv_pos_site_id
 _symmetry_equiv_pos_as_xyz
  1  'x, y, z'
loop_
 _atom_site_type_symbol
 _atom_site_label
 _atom_site_symmetry_multiplicity
 _atom_site_fract_x
 _atom_site_fract_y
 _atom_site_fract_z
 _atom_site_occupancy
  Lu  Lu0  1  0.98662372  0.25000000  0.30102620  1.0
  Lu  Lu1  1  0.48662372  0.25000000  0.19897380  1.0
  Lu  Lu2  1  0.01337628  0.75000000  0.69897380  1.0
  Lu  Lu3  1  0.51337628  0.75000000  0.80102620  1.0
  Ga  Ga4  1  0.32598383  0.25000000  0.57527591  1.0
  Ga  Ga5  1  0.82598383  0.25000000  0.92472409  1.0
  Ga  Ga6  1  0.67401617  0.75000000  0.42472409  1.0
  Ga  Ga7  1  0.17401617  0.75000000  0.07527591  1.0
  Pt  Pt8  1  0.22787285  0.25000000  0.90148571  1.0
  Pt  Pt9  1  0.72787285  0.25000000  0.59851429  1.0
  Pt  Pt10  1  0.77212715  0.75000000  0.09851429  1.0
  Pt  Pt11  1  0.27212715  0.75000000  0.40148571  1.0
