# generated using pymatgen
data_BiTePd
_symmetry_space_group_name_H-M   'P 1'
_cell_length_a   6.76222474
_cell_length_b   6.76222474
_cell_length_c   6.76222474
_cell_angle_alpha   90.00000000
_cell_angle_beta   90.00000000
_cell_angle_gamma   90.00000000
_symmetry_Int_Tables_number   1
_chemical_formula_structural   BiTePd
_chemical_formula_sum   'Bi4 Te4 Pd4'
_cell_volume   309.22087267
_cell_formula_units_Z   4
loop_
 _symmetry_equiv_pos_site_id
 _symmetry_equiv_pos_as_xyz
  1  'x, y, z'
loop_
 _atom_site_type_symbol
 _atom_site_label
 _atom_site_symmetry_multiplicity
 _atom_site_fract_x
 _atom_site_fract_y
 _atom_site_fract_z
 _atom_site_occupancy
  Bi  Bi0  1  0.13151981  0.63151981  0.86848019  1.0
  Bi  Bi1  1  0.63151981  0.86848019  0.13151981  1.0
  Bi  Bi2  1  0.86848019  0.13151981  0.63151981  1.0
  Bi  Bi3  1  0.36848019  0.36848019  0.36848019  1.0
  Te  Te4  1  0.87417540  0.37417540  0.12582460  1.0
  Te  Te5  1  0.37417540  0.12582460  0.87417540  1.0
  Te  Te6  1  0.12582460  0.87417540  0.37417540  1.0
  Te  Te7  1  0.62582460  0.62582460  0.62582460  1.0
  Pd  Pd8  1  0.49604254  0.99604254  0.50395746  1.0
  Pd  Pd9  1  0.99604254  0.50395746  0.49604254  1.0
  Pd  Pd10  1  0.50395746  0.49604254  0.99604254  1.0
  Pd  Pd11  1  0.00395746  0.00395746  0.00395746  1.0
