# generated using pymatgen
data_Al11Pt4
_symmetry_space_group_name_H-M   'P 1'
_cell_length_a   11.02054723
_cell_length_b   11.02054723
_cell_length_c   11.02054723
_cell_angle_alpha   104.70012364
_cell_angle_beta   104.70012364
_cell_angle_gamma   119.50371132
_symmetry_Int_Tables_number   1
_chemical_formula_structural   Al11Pt4
_chemical_formula_sum   'Al44 Pt16'
_cell_volume   1006.30491130
_cell_formula_units_Z   4
loop_
 _symmetry_equiv_pos_site_id
 _symmetry_equiv_pos_as_xyz
  1  'x, y, z'
loop_
 _atom_site_type_symbol
 _atom_site_label
 _atom_site_symmetry_multiplicity
 _atom_site_fract_x
 _atom_site_fract_y
 _atom_site_fract_z
 _atom_site_occupancy
  Al  Al0  1  1.48636765  1.53151679  1.85972758  1.0
  Al  Al1  1  1.07821079  0.62335993  1.35972758  1.0
  Al  Al2  1  1.37335993  1.51363235  1.04514914  1.0
  Al  Al3  1  1.28151679  0.92178921  1.54514914  1.0
  Al  Al4  1  0.67178921  0.62664007  1.14027242  1.0
  Al  Al5  1  1.26363235  0.71848321  0.64027242  1.0
  Al  Al6  1  0.46848321  1.32821079  0.95485086  1.0
  Al  Al7  1  1.37664007  1.73636765  1.45485086  1.0
  Al  Al8  1  1.37500000  1.12500000  1.25000000  1.0
  Al  Al9  1  0.87500000  1.12500000  0.75000000  1.0
  Al  Al10  1  0.87500000  0.62500000  0.75000000  1.0
  Al  Al11  1  0.87500000  1.12500000  1.25000000  1.0
  Al  Al12  1  1.46736964  1.24158662  1.70866911  1.0
  Al  Al13  1  1.21708249  1.49129947  1.20866911  1.0
  Al  Al14  1  1.24129947  0.53263036  0.77421698  1.0
  Al  Al15  1  0.99158662  0.78291751  1.27421698  1.0
  Al  Al16  1  0.53291751  0.75870053  0.29133089  1.0
  Al  Al17  1  0.28263036  1.00841338  0.79133089  1.0
  Al  Al18  1  0.75841338  1.46708249  1.22578302  1.0
  Al  Al19  1  1.50870053  1.71736964  1.72578302  1.0
  Al  Al20  1  1.61290594  1.29664493  1.54371536  1.0
  Al  Al21  1  0.99707043  1.18080942  1.04371536  1.0
  Al  Al22  1  0.93080942  1.38709406  0.68373899  1.0
  Al  Al23  1  1.04664493  1.00292957  1.18373899  1.0
  Al  Al24  1  0.75292957  1.06919058  1.45628464  1.0
  Al  Al25  1  1.13709406  0.95335507  0.95628464  1.0
  Al  Al26  1  0.70335507  1.24707043  1.31626101  1.0
  Al  Al27  1  0.81919058  0.86290594  0.81626101  1.0
  Al  Al28  1  1.08547775  1.04375007  1.52693290  1.0
  Al  Al29  1  1.23318283  0.69145515  1.02693290  1.0
  Al  Al30  1  0.44145515  0.91452225  0.95827232  1.0
  Al  Al31  1  0.79375007  0.76681717  0.45827232  1.0
  Al  Al32  1  1.51681717  1.55854485  1.47306710  1.0
  Al  Al33  1  0.66452225  1.20624993  0.97306710  1.0
  Al  Al34  1  0.95624993  1.48318283  1.04172768  1.0
  Al  Al35  1  1.30854485  1.33547775  1.54172768  1.0
  Al  Al36  1  1.56931107  0.99400731  1.71462193  1.0
  Al  Al37  1  1.47061462  0.39531086  1.21462193  1.0
  Al  Al38  1  1.14531086  0.43068893  0.42469624  1.0
  Al  Al39  1  0.74400731  0.52938538  -0.07530376  1.0
  Al  Al40  1  1.27938538  1.85468914  1.28537807  1.0
  Al  Al41  1  0.18068893  1.25599269  0.78537807  1.0
  Al  Al42  1  1.00599269  0.72061462  1.57530376  1.0
  Al  Al43  1  1.60468914  1.81931107  2.07530376  1.0
  Pt  Pt44  1  0.70187671  0.98169861  0.94617096  1.0
  Pt  Pt45  1  0.71447234  0.49429424  0.44617096  1.0
  Pt  Pt46  1  1.24429424  1.29812329  1.27982190  1.0
  Pt  Pt47  1  0.73169861  1.28552766  0.77982190  1.0
  Pt  Pt48  1  1.03552766  0.75570576  1.05382904  1.0
  Pt  Pt49  1  1.04812329  1.26830139  1.55382904  1.0
  Pt  Pt50  1  1.01830139  0.96447234  0.72017810  1.0
  Pt  Pt51  1  1.50570576  0.95187671  1.22017810  1.0
  Pt  Pt52  1  1.29897179  1.09583731  1.43974757  1.0
  Pt  Pt53  1  1.09391026  1.39077578  0.93974757  1.0
  Pt  Pt54  1  0.14077578  0.70102821  0.79686552  1.0
  Pt  Pt55  1  0.84583731  0.90608974  1.29686552  1.0
  Pt  Pt56  1  1.65608974  1.85922422  1.56025243  1.0
  Pt  Pt57  1  0.45102821  1.15416269  1.06025243  1.0
  Pt  Pt58  1  0.90416269  1.34391026  1.20313448  1.0
  Pt  Pt59  1  1.60922422  1.54897179  1.70313448  1.0
