# generated using pymatgen
data_SiO2
_symmetry_space_group_name_H-M   'P 1'
_cell_length_a   5.77565744
_cell_length_b   5.77565744
_cell_length_c   11.31958502
_cell_angle_alpha   90.00000000
_cell_angle_beta   90.00000000
_cell_angle_gamma   93.96225461
_symmetry_Int_Tables_number   1
_chemical_formula_structural   SiO2
_chemical_formula_sum   'Si8 O16'
_cell_volume   376.69864784
_cell_formula_units_Z   8
loop_
 _symmetry_equiv_pos_site_id
 _symmetry_equiv_pos_as_xyz
  1  'x, y, z'
loop_
 _atom_site_type_symbol
 _atom_site_label
 _atom_site_symmetry_multiplicity
 _atom_site_fract_x
 _atom_site_fract_y
 _atom_site_fract_z
 _atom_site_occupancy
  Si  Si0  1  0.13105548  1.25945727  0.62135788  1.0
  Si  Si1  1  -0.13105548  0.74054273  0.62135788  1.0
  Si  Si2  1  0.25945727  1.13105548  0.37864212  1.0
  Si  Si3  1  -0.25945727  0.86894452  0.37864212  1.0
  Si  Si4  1  0.36894452  1.24054273  0.87864212  1.0
  Si  Si5  1  -0.36894452  0.75945727  0.87864212  1.0
  Si  Si6  1  0.24054273  1.36894452  0.12135788  1.0
  Si  Si7  1  -0.24054273  0.63105548  0.12135788  1.0
  O  O8  1  -0.00000000  0.50000000  0.62351677  1.0
  O  O9  1  0.50000000  1.00000000  0.37648323  1.0
  O  O10  1  0.50000000  1.00000000  0.87648323  1.0
  O  O11  1  -0.00000000  0.50000000  0.12351677  1.0
  O  O12  1  0.25000000  1.25000000  0.75000000  1.0
  O  O13  1  -0.25000000  0.75000000  0.75000000  1.0
  O  O14  1  0.25000000  1.25000000  0.25000000  1.0
  O  O15  1  -0.25000000  0.75000000  0.25000000  1.0
  O  O16  1  -0.28773711  0.71226289  0.50000000  1.0
  O  O17  1  0.28773711  1.28773711  0.50000000  1.0
  O  O18  1  -0.21226289  0.78773711  0.00000000  1.0
  O  O19  1  0.21226289  1.21226289  0.00000000  1.0
  O  O20  1  0.00000000  0.00000000  0.61399945  1.0
  O  O21  1  0.00000000  0.00000000  0.38600055  1.0
  O  O22  1  -0.50000000  0.50000000  0.88600055  1.0
  O  O23  1  -0.50000000  0.50000000  0.11399945  1.0
