# generated using pymatgen
data_CdSiP2
_symmetry_space_group_name_H-M   'P 1'
_cell_length_a   6.65868669
_cell_length_b   6.65868669
_cell_length_c   6.65868669
_cell_angle_alpha   129.08360954
_cell_angle_beta   129.08360954
_cell_angle_gamma   74.87607965
_symmetry_Int_Tables_number   1
_chemical_formula_structural   CdSiP2
_chemical_formula_sum   'Cd2 Si2 P4'
_cell_volume   173.25713491
_cell_formula_units_Z   2
loop_
 _symmetry_equiv_pos_site_id
 _symmetry_equiv_pos_as_xyz
  1  'x, y, z'
loop_
 _atom_site_type_symbol
 _atom_site_label
 _atom_site_symmetry_multiplicity
 _atom_site_fract_x
 _atom_site_fract_y
 _atom_site_fract_z
 _atom_site_occupancy
  Cd  Cd0  1  0.25000000  0.75000000  0.50000000  1.0
  Cd  Cd1  1  0.50000000  0.50000000  0.00000000  1.0
  Si  Si2  1  0.75000000  0.25000000  0.50000000  1.0
  Si  Si3  1  1.00000000  1.00000000  1.00000000  1.0
  P  P4  1  1.07965836  1.12500000  1.45465836  1.0
  P  P5  1  1.37500000  0.92034164  1.04534164  1.0
  P  P6  1  0.87500000  1.32965836  0.95465836  1.0
  P  P7  1  0.67034164  0.62500000  0.54534164  1.0
