# generated using pymatgen
data_SrH2(CO2)2
_symmetry_space_group_name_H-M   'P 1'
_cell_length_a   7.26351109
_cell_length_b   7.26351109
_cell_length_c   9.75814163
_cell_angle_alpha   90.00000000
_cell_angle_beta   90.00000000
_cell_angle_gamma   90.00000000
_symmetry_Int_Tables_number   1
_chemical_formula_structural   SrH2(CO2)2
_chemical_formula_sum   'Sr4 H8 C8 O16'
_cell_volume   514.82582646
_cell_formula_units_Z   4
loop_
 _symmetry_equiv_pos_site_id
 _symmetry_equiv_pos_as_xyz
  1  'x, y, z'
loop_
 _atom_site_type_symbol
 _atom_site_label
 _atom_site_symmetry_multiplicity
 _atom_site_fract_x
 _atom_site_fract_y
 _atom_site_fract_z
 _atom_site_occupancy
  Sr  Sr0  1  0.71993265  0.28006735  0.25000000  1.0
  Sr  Sr1  1  0.28006735  0.71993265  0.75000000  1.0
  Sr  Sr2  1  0.78006735  0.78006735  0.00000000  1.0
  Sr  Sr3  1  0.21993265  0.21993265  0.50000000  1.0
  H  H4  1  0.69952976  0.12964713  0.66824271  1.0
  H  H5  1  0.30047024  0.87035287  0.16824271  1.0
  H  H6  1  0.62964713  0.80047024  0.41824271  1.0
  H  H7  1  0.37035287  0.19952976  0.91824271  1.0
  H  H8  1  0.87035287  0.30047024  0.83175729  1.0
  H  H9  1  0.12964713  0.69952976  0.33175729  1.0
  H  H10  1  0.80047024  0.62964713  0.58175729  1.0
  H  H11  1  0.19952976  0.37035287  0.08175729  1.0
  C  C12  1  0.71393157  0.19043474  0.56426957  1.0
  C  C13  1  0.28606843  0.80956526  0.06426957  1.0
  C  C14  1  0.69043474  0.78606843  0.31426957  1.0
  C  C15  1  0.30956526  0.21393157  0.81426957  1.0
  C  C16  1  0.80956526  0.28606843  0.93573043  1.0
  C  C17  1  0.19043474  0.71393157  0.43573043  1.0
  C  C18  1  0.78606843  0.69043474  0.68573043  1.0
  C  C19  1  0.21393157  0.30956526  0.18573043  1.0
  O  O20  1  0.87383124  0.22210931  0.51918062  1.0
  O  O21  1  0.12616876  0.77789069  1.01918062  1.0
  O  O22  1  0.72210931  0.62616876  0.26918062  1.0
  O  O23  1  0.27789069  0.37383124  0.76918062  1.0
  O  O24  1  0.77789069  0.12616876  -0.01918062  1.0
  O  O25  1  0.22210931  0.87383124  0.48081938  1.0
  O  O26  1  0.62616876  0.72210931  0.73081938  1.0
  O  O27  1  0.37383124  0.27789069  0.23081938  1.0
  O  O28  1  0.56805682  0.22230087  0.49708726  1.0
  O  O29  1  0.43194318  0.77769913  -0.00291274  1.0
  O  O30  1  0.72230087  0.93194318  0.24708726  1.0
  O  O31  1  0.27769913  0.06805682  0.74708726  1.0
  O  O32  1  0.77769913  0.43194318  1.00291274  1.0
  O  O33  1  0.22230087  0.56805682  0.50291274  1.0
  O  O34  1  0.93194318  0.72230087  0.75291274  1.0
  O  O35  1  0.06805682  0.27769913  0.25291274  1.0
