# generated using pymatgen
data_ZnS
_symmetry_space_group_name_H-M   'P 1'
_cell_length_a   3.84964002
_cell_length_b   3.84964002
_cell_length_c   81.80515253
_cell_angle_alpha   90.00000000
_cell_angle_beta   90.00000000
_cell_angle_gamma   120.00000000
_symmetry_Int_Tables_number   1
_chemical_formula_structural   ZnS
_chemical_formula_sum   'Zn26 S26'
_cell_volume   1049.90869118
_cell_formula_units_Z   26
loop_
 _symmetry_equiv_pos_site_id
 _symmetry_equiv_pos_as_xyz
  1  'x, y, z'
loop_
 _atom_site_type_symbol
 _atom_site_label
 _atom_site_symmetry_multiplicity
 _atom_site_fract_x
 _atom_site_fract_y
 _atom_site_fract_z
 _atom_site_occupancy
  Zn  Zn0  1  0.00000000  0.00000000  0.03845215  1.0
  Zn  Zn1  1  -0.00000000  -0.00000000  0.15383422  1.0
  Zn  Zn2  1  -0.00000000  -0.00000000  0.30769397  1.0
  Zn  Zn3  1  0.00000000  0.00000000  0.42307108  1.0
  Zn  Zn4  1  -0.00000000  -0.00000000  0.57689895  1.0
  Zn  Zn5  1  0.00000000  0.00000000  0.65387362  1.0
  Zn  Zn6  1  0.00000000  0.00000000  0.80769388  1.0
  Zn  Zn7  1  -0.00000000  -0.00000000  0.92306240  1.0
  Zn  Zn8  1  0.66666667  0.33333333  0.11538068  1.0
  Zn  Zn9  1  0.66666667  0.33333333  0.23076231  1.0
  Zn  Zn10  1  0.66666667  0.33333333  0.34615173  1.0
  Zn  Zn11  1  0.66666667  0.33333333  0.46150760  1.0
  Zn  Zn12  1  0.66666667  0.33333333  0.53848444  1.0
  Zn  Zn13  1  0.66666667  0.33333333  0.69229183  1.0
  Zn  Zn14  1  0.66666667  0.33333333  0.76925967  1.0
  Zn  Zn15  1  0.66666667  0.33333333  0.88457353  1.0
  Zn  Zn16  1  0.66666667  0.33333333  0.96154642  1.0
  Zn  Zn17  1  0.33333333  0.66666667  -0.00003539  1.0
  Zn  Zn18  1  0.33333333  0.66666667  0.07694244  1.0
  Zn  Zn19  1  0.33333333  0.66666667  0.19227105  1.0
  Zn  Zn20  1  0.33333333  0.66666667  0.26925017  1.0
  Zn  Zn21  1  0.33333333  0.66666667  0.38461533  1.0
  Zn  Zn22  1  0.33333333  0.66666667  0.50000076  1.0
  Zn  Zn23  1  0.33333333  0.66666667  0.61538884  1.0
  Zn  Zn24  1  0.33333333  0.66666667  0.73077581  1.0
  Zn  Zn25  1  0.33333333  0.66666667  0.84614477  1.0
  S  S26  1  -0.00000000  -0.00000000  0.00957654  1.0
  S  S27  1  -0.00000000  -0.00000000  0.12499928  1.0
  S  S28  1  0.00000000  0.00000000  0.27886134  1.0
  S  S29  1  -0.00000000  -0.00000000  0.39423599  1.0
  S  S30  1  0.00000000  0.00000000  0.54808342  1.0
  S  S31  1  0.00000000  0.00000000  0.62504937  1.0
  S  S32  1  -0.00000000  -0.00000000  0.77886466  1.0
  S  S33  1  -0.00000000  -0.00000000  0.89418709  1.0
  S  S34  1  0.66666667  0.33333333  0.08654997  1.0
  S  S35  1  0.66666667  0.33333333  0.20188620  1.0
  S  S36  1  0.66666667  0.33333333  0.31731393  1.0
  S  S37  1  0.66666667  0.33333333  0.43268511  1.0
  S  S38  1  0.66666667  0.33333333  0.50966126  1.0
  S  S39  1  0.66666667  0.33333333  0.66347566  1.0
  S  S40  1  0.66666667  0.33333333  0.74043559  1.0
  S  S41  1  0.66666667  0.33333333  0.85575432  1.0
  S  S42  1  0.66666667  0.33333333  0.93272269  1.0
  S  S43  1  0.33333333  0.66666667  0.04811614  1.0
  S  S44  1  0.33333333  0.66666667  0.16344907  1.0
  S  S45  1  0.33333333  0.66666667  0.24042422  1.0
  S  S46  1  0.33333333  0.66666667  0.35577685  1.0
  S  S47  1  0.33333333  0.66666667  0.47112477  1.0
  S  S48  1  0.33333333  0.66666667  0.58651323  1.0
  S  S49  1  0.33333333  0.66666667  0.70190202  1.0
  S  S50  1  0.33333333  0.66666667  0.81731113  1.0
  S  S51  1  0.33333333  0.66666667  0.97114790  1.0
