# generated using pymatgen
data_GdO3
_symmetry_space_group_name_H-M   'P 1'
_cell_length_a   6.57629865
_cell_length_b   6.57629865
_cell_length_c   3.47272565
_cell_angle_alpha   90.00000000
_cell_angle_beta   90.00000000
_cell_angle_gamma   120.00000000
_symmetry_Int_Tables_number   1
_chemical_formula_structural   GdO3
_chemical_formula_sum   'Gd2 O6'
_cell_volume   130.06611300
_cell_formula_units_Z   2
loop_
 _symmetry_equiv_pos_site_id
 _symmetry_equiv_pos_as_xyz
  1  'x, y, z'
loop_
 _atom_site_type_symbol
 _atom_site_label
 _atom_site_symmetry_multiplicity
 _atom_site_fract_x
 _atom_site_fract_y
 _atom_site_fract_z
 _atom_site_occupancy
  Gd  Gd0  1  0.33333333  0.66666667  0.25000000  1.0
  Gd  Gd1  1  0.66666667  0.33333333  0.75000000  1.0
  O  O2  1  0.63272765  0.57473025  0.25000000  1.0
  O  O3  1  0.57473025  0.94200260  0.75000000  1.0
  O  O4  1  0.94200260  0.36727235  0.25000000  1.0
  O  O5  1  0.42526975  0.05799740  0.25000000  1.0
  O  O6  1  0.36727235  0.42526975  0.75000000  1.0
  O  O7  1  0.05799740  0.63272765  0.75000000  1.0
