# generated using pymatgen
data_TiS3
_symmetry_space_group_name_H-M   'P 1'
_cell_length_a   4.91015816
_cell_length_b   4.91015816
_cell_length_c   4.91015816
_cell_angle_alpha   115.06122095
_cell_angle_beta   115.06122095
_cell_angle_gamma   115.06122095
_symmetry_Int_Tables_number   1
_chemical_formula_structural   TiS3
_chemical_formula_sum   'Ti1 S3'
_cell_volume   65.88257445
_cell_formula_units_Z   1
loop_
 _symmetry_equiv_pos_site_id
 _symmetry_equiv_pos_as_xyz
  1  'x, y, z'
loop_
 _atom_site_type_symbol
 _atom_site_label
 _atom_site_symmetry_multiplicity
 _atom_site_fract_x
 _atom_site_fract_y
 _atom_site_fract_z
 _atom_site_occupancy
  Ti  Ti0  1  0.01761688  0.01761688  0.01761688  1.0
  S  S1  1  0.62186190  1.23865932  -0.37813810  1.0
  S  S2  1  0.62186190  0.62186190  0.23865932  1.0
  S  S3  1  1.23865932  0.62186190  0.62186190  1.0
