# generated using pymatgen
data_LaP3(HO)6
_symmetry_space_group_name_H-M   'P 1'
_cell_length_a   8.58019966
_cell_length_b   7.29531625
_cell_length_c   7.00860074
_cell_angle_alpha   75.76182220
_cell_angle_beta   79.51354818
_cell_angle_gamma   81.88909089
_symmetry_Int_Tables_number   1
_chemical_formula_structural   LaP3(HO)6
_chemical_formula_sum   'La2 P6 H12 O12'
_cell_volume   415.98584663
_cell_formula_units_Z   2
loop_
 _symmetry_equiv_pos_site_id
 _symmetry_equiv_pos_as_xyz
  1  'x, y, z'
loop_
 _atom_site_type_symbol
 _atom_site_label
 _atom_site_symmetry_multiplicity
 _atom_site_fract_x
 _atom_site_fract_y
 _atom_site_fract_z
 _atom_site_occupancy
  P  P0  1  -0.40521537  -0.70372239  -0.85935809  1.0
  P  P1  1  -0.59478463  -0.29627761  -0.14064191  1.0
  P  P2  1  -0.79831105  -0.76549791  -0.22059403  1.0
  P  P3  1  -0.20168895  -0.23450209  -0.77940597  1.0
  P  P4  1  -0.82150875  -0.13980637  -0.58716849  1.0
  P  P5  1  -0.17849125  -0.86019363  -0.41283151  1.0
  La  La6  1  -0.85324238  -0.59980042  -0.75139580  1.0
  La  La7  1  -0.14675762  -0.40019958  -0.24860420  1.0
  O  O8  1  -0.29098152  -0.66150912  -1.05675266  1.0
  O  O9  1  -0.70901848  -0.33849088  0.05675266  1.0
  O  O10  1  -0.57718277  -0.73081797  -0.86661233  1.0
  O  O11  1  -0.42281723  -0.26918203  -0.13338767  1.0
  O  O12  1  -0.91725826  -0.31262670  -0.56015650  1.0
  O  O13  1  -0.08274174  -0.68737330  -0.43984350  1.0
  O  O14  1  -0.73912071  -0.70181606  -0.44382001  1.0
  O  O15  1  -0.26087929  -0.29818394  -0.55617999  1.0
  O  O16  1  -0.89561917  -0.61264440  -0.11456070  1.0
  O  O17  1  -0.10438083  -0.38735560  -0.88543930  1.0
  O  O18  1  -0.88151548  -0.94663772  -0.71183816  1.0
  O  O19  1  -0.11848452  -0.05336228  -0.28816184  1.0
  H  H20  1  -0.40527041  -0.56051206  -0.75341208  1.0
  H  H21  1  -0.59472959  -0.43948794  -0.24658792  1.0
  H  H22  1  -0.33356651  -0.86777647  -0.73941316  1.0
  H  H23  1  -0.66643349  -0.13222353  -0.26058684  1.0
  H  H24  1  -0.89065687  -0.92033599  -0.18414779  1.0
  H  H25  1  -0.10934313  -0.07966401  -0.81585221  1.0
  H  H26  1  -0.66471215  -0.83822605  -0.12239987  1.0
  H  H27  1  -0.33528785  -0.16177395  -0.87760013  1.0
  H  H28  1  -0.66210908  -0.19040501  -0.67583799  1.0
  H  H29  1  -0.33789092  -0.80959499  -0.32416201  1.0
  H  H30  1  -0.46709921  -1.03997368  -0.49609039  1.0
  H  H31  1  -0.53290079  0.03997368  -0.50390961  1.0
