# generated using pymatgen
data_GeS
_symmetry_space_group_name_H-M   'P 1'
_cell_length_a   10.77354295
_cell_length_b   3.66350572
_cell_length_c   4.46561139
_cell_angle_alpha   90.00000000
_cell_angle_beta   90.00000000
_cell_angle_gamma   90.00000000
_symmetry_Int_Tables_number   1
_chemical_formula_structural   GeS
_chemical_formula_sum   'Ge4 S4'
_cell_volume   176.25293101
_cell_formula_units_Z   4
loop_
 _symmetry_equiv_pos_site_id
 _symmetry_equiv_pos_as_xyz
  1  'x, y, z'
loop_
 _atom_site_type_symbol
 _atom_site_label
 _atom_site_symmetry_multiplicity
 _atom_site_fract_x
 _atom_site_fract_y
 _atom_site_fract_z
 _atom_site_occupancy
  Ge  Ge0  1  0.37426246  0.75000000  0.86702741  1.0
  Ge  Ge1  1  0.87426246  0.75000000  0.63297259  1.0
  Ge  Ge2  1  0.62573754  0.25000000  0.13297259  1.0
  Ge  Ge3  1  0.12573754  0.25000000  0.36702741  1.0
  S  S4  1  0.15313816  0.75000000  0.00579006  1.0
  S  S5  1  0.65313816  0.75000000  0.49420994  1.0
  S  S6  1  0.84686184  0.25000000  0.99420994  1.0
  S  S7  1  0.34686184  0.25000000  0.50579006  1.0
