# generated using pymatgen
data_RbCuF3
_symmetry_space_group_name_H-M   'P 1'
_cell_length_a   5.93022041
_cell_length_b   5.93022041
_cell_length_c   5.93022041
_cell_angle_alpha   116.82290946
_cell_angle_beta   116.82290946
_cell_angle_gamma   95.59702350
_symmetry_Int_Tables_number   1
_chemical_formula_structural   RbCuF3
_chemical_formula_sum   'Rb2 Cu2 F6'
_cell_volume   153.75543665
_cell_formula_units_Z   2
loop_
 _symmetry_equiv_pos_site_id
 _symmetry_equiv_pos_as_xyz
  1  'x, y, z'
loop_
 _atom_site_type_symbol
 _atom_site_label
 _atom_site_symmetry_multiplicity
 _atom_site_fract_x
 _atom_site_fract_y
 _atom_site_fract_z
 _atom_site_occupancy
  Rb  Rb0  1  0.25000000  0.25000000  0.00000000  1.0
  Rb  Rb1  1  0.75000000  0.75000000  0.00000000  1.0
  Cu  Cu2  1  1.00000000  0.50000000  0.50000000  1.0
  Cu  Cu3  1  0.50000000  1.00000000  0.50000000  1.0
  F  F4  1  0.78562732  0.28562732  1.07125464  1.0
  F  F5  1  0.71437268  0.78562732  0.50000000  1.0
  F  F6  1  0.28562732  0.21437268  0.50000000  1.0
  F  F7  1  1.21437268  0.71437268  0.92874536  1.0
  F  F8  1  0.75000000  0.25000000  0.50000000  1.0
  F  F9  1  0.25000000  0.75000000  0.50000000  1.0
