# generated using pymatgen
data_WNCl3
_symmetry_space_group_name_H-M   'P 1'
_cell_length_a   9.31482957
_cell_length_b   8.43395532
_cell_length_c   8.71570898
_cell_angle_alpha   109.79912396
_cell_angle_beta   109.25601610
_cell_angle_gamma   98.13543686
_symmetry_Int_Tables_number   1
_chemical_formula_structural   WNCl3
_chemical_formula_sum   'W4 N4 Cl12'
_cell_volume   582.95739588
_cell_formula_units_Z   4
loop_
 _symmetry_equiv_pos_site_id
 _symmetry_equiv_pos_as_xyz
  1  'x, y, z'
loop_
 _atom_site_type_symbol
 _atom_site_label
 _atom_site_symmetry_multiplicity
 _atom_site_fract_x
 _atom_site_fract_y
 _atom_site_fract_z
 _atom_site_occupancy
  Cl  Cl0  1  -0.30503455  -0.06054072  -0.28870611  1.0
  Cl  Cl1  1  -0.69496545  -0.93945928  -0.71129389  1.0
  Cl  Cl2  1  -0.09773448  -0.95572063  -0.70252285  1.0
  Cl  Cl3  1  -0.90226552  -0.04427937  -0.29747715  1.0
  Cl  Cl4  1  -0.47745664  -0.64525362  -0.17256931  1.0
  Cl  Cl5  1  -0.52254336  -0.35474638  -0.82743069  1.0
  Cl  Cl6  1  -0.15700474  -0.42987247  -0.79392938  1.0
  Cl  Cl7  1  -0.84299526  -0.57012753  -0.20607062  1.0
  Cl  Cl8  1  -0.33783376  -0.60728524  -0.60002395  1.0
  Cl  Cl9  1  -0.66216624  -0.39271476  -0.39997605  1.0
  Cl  Cl10  1  0.05549222  -0.77854820  0.05759388  1.0
  Cl  Cl11  1  -1.05549222  -0.22145180  -1.05759388  1.0
  W  W12  1  -0.23070214  -0.05381669  -0.00650023  1.0
  W  W13  1  -0.76929786  -0.94618331  -0.99349977  1.0
  W  W14  1  -0.37817903  -0.65686031  -0.88858606  1.0
  W  W15  1  -0.62182097  -0.34313969  -0.11141394  1.0
  N  N16  1  -0.39552674  -0.21246603  -0.04592708  1.0
  N  N17  1  -0.60447326  -0.78753397  -0.95407292  1.0
  N  N18  1  -0.30641671  -0.83741988  -0.94697198  1.0
  N  N19  1  -0.69358329  -0.16258012  -0.05302802  1.0
