# generated using pymatgen
data_MoCl5
_symmetry_space_group_name_H-M   'P 1'
_cell_length_a   12.53807634
_cell_length_b   18.53857375
_cell_length_c   6.69095748
_cell_angle_alpha   90.00000000
_cell_angle_beta   90.00000000
_cell_angle_gamma   90.00000000
_symmetry_Int_Tables_number   1
_chemical_formula_structural   MoCl5
_chemical_formula_sum   'Mo8 Cl40'
_cell_volume   1555.23312775
_cell_formula_units_Z   8
loop_
 _symmetry_equiv_pos_site_id
 _symmetry_equiv_pos_as_xyz
  1  'x, y, z'
loop_
 _atom_site_type_symbol
 _atom_site_label
 _atom_site_symmetry_multiplicity
 _atom_site_fract_x
 _atom_site_fract_y
 _atom_site_fract_z
 _atom_site_occupancy
  Mo  Mo0  1  0.37680415  0.85520635  0.90754309  1.0
  Mo  Mo1  1  0.37680415  0.64479365  0.90754309  1.0
  Mo  Mo2  1  0.87680415  0.85520635  0.59245691  1.0
  Mo  Mo3  1  0.87680415  0.64479365  0.59245691  1.0
  Mo  Mo4  1  0.62319585  0.35520635  0.09245691  1.0
  Mo  Mo5  1  0.62319585  0.14479365  0.09245691  1.0
  Mo  Mo6  1  0.12319585  0.35520635  0.40754309  1.0
  Mo  Mo7  1  0.12319585  0.14479365  0.40754309  1.0
  Cl  Cl8  1  0.48360508  0.84252290  0.18143427  1.0
  Cl  Cl9  1  0.48360508  0.65747710  0.18143427  1.0
  Cl  Cl10  1  0.98360508  0.84252290  0.31856573  1.0
  Cl  Cl11  1  0.98360508  0.65747710  0.31856573  1.0
  Cl  Cl12  1  0.51639492  0.34252290  0.81856573  1.0
  Cl  Cl13  1  0.51639492  0.15747710  0.81856573  1.0
  Cl  Cl14  1  0.01639492  0.34252290  0.68143427  1.0
  Cl  Cl15  1  0.01639492  0.15747710  0.68143427  1.0
  Cl  Cl16  1  0.48618511  0.93653196  0.75861007  1.0
  Cl  Cl17  1  0.48618511  0.56346804  0.75861007  1.0
  Cl  Cl18  1  0.98618511  0.93653196  0.74138993  1.0
  Cl  Cl19  1  0.98618511  0.56346804  0.74138993  1.0
  Cl  Cl20  1  0.51381489  0.43653196  0.24138993  1.0
  Cl  Cl21  1  0.51381489  0.06346804  0.24138993  1.0
  Cl  Cl22  1  0.01381489  0.43653196  0.25861007  1.0
  Cl  Cl23  1  0.01381489  0.06346804  0.25861007  1.0
  Cl  Cl24  1  0.27098557  0.84249246  0.63268312  1.0
  Cl  Cl25  1  0.27098557  0.65750754  0.63268312  1.0
  Cl  Cl26  1  0.77098557  0.84249246  0.86731688  1.0
  Cl  Cl27  1  0.77098557  0.65750754  0.86731688  1.0
  Cl  Cl28  1  0.72901443  0.34249246  0.36731688  1.0
  Cl  Cl29  1  0.72901443  0.15750754  0.36731688  1.0
  Cl  Cl30  1  0.22901443  0.34249246  0.13268312  1.0
  Cl  Cl31  1  0.22901443  0.15750754  0.13268312  1.0
  Cl  Cl32  1  0.23317379  0.43574516  0.55791121  1.0
  Cl  Cl33  1  0.23317379  0.06425484  0.55791121  1.0
  Cl  Cl34  1  0.73317379  0.43574516  0.94208879  1.0
  Cl  Cl35  1  0.73317379  0.06425484  0.94208879  1.0
  Cl  Cl36  1  0.76682621  0.93574516  0.44208879  1.0
  Cl  Cl37  1  0.76682621  0.56425484  0.44208879  1.0
  Cl  Cl38  1  0.26682621  0.93574516  0.05791121  1.0
  Cl  Cl39  1  0.26682621  0.56425484  0.05791121  1.0
  Cl  Cl40  1  0.48193100  0.75000000  0.76501497  1.0
  Cl  Cl41  1  0.98193100  0.75000000  0.73498503  1.0
  Cl  Cl42  1  0.51806900  0.25000000  0.23498503  1.0
  Cl  Cl43  1  0.01806900  0.25000000  0.26501497  1.0
  Cl  Cl44  1  0.27168894  0.75000000  0.05025232  1.0
  Cl  Cl45  1  0.77168894  0.75000000  0.44974768  1.0
  Cl  Cl46  1  0.72831106  0.25000000  0.94974768  1.0
  Cl  Cl47  1  0.22831106  0.25000000  0.55025232  1.0
