# generated using pymatgen
data_Zn7P10
_symmetry_space_group_name_H-M   'P 1'
_cell_length_a   13.30713728
_cell_length_b   11.04916673
_cell_length_c   17.01302374
_cell_angle_alpha   51.42072270
_cell_angle_beta   40.47366580
_cell_angle_gamma   88.10561150
_symmetry_Int_Tables_number   1
_chemical_formula_structural   Zn7P10
_chemical_formula_sum   'Zn14 P20'
_cell_volume   626.49735617
_cell_formula_units_Z   2
loop_
 _symmetry_equiv_pos_site_id
 _symmetry_equiv_pos_as_xyz
  1  'x, y, z'
loop_
 _atom_site_type_symbol
 _atom_site_label
 _atom_site_symmetry_multiplicity
 _atom_site_fract_x
 _atom_site_fract_y
 _atom_site_fract_z
 _atom_site_occupancy
  Zn  Zn0  1  1.00314557  0.00314557  -0.00314557  1.0
  Zn  Zn1  1  0.25314557  0.25314557  0.24685443  1.0
  Zn  Zn2  1  -0.26412935  0.33178690  0.66787762  1.0
  Zn  Zn3  1  0.58212238  0.98553517  -0.48587065  1.0
  Zn  Zn4  1  0.33178690  -0.26412935  0.26446483  1.0
  Zn  Zn5  1  0.98553517  0.58212237  -0.08178690  1.0
  Zn  Zn6  1  0.27358489  0.18940034  0.57083822  1.0
  Zn  Zn7  1  0.67916178  0.28382345  -0.02358489  1.0
  Zn  Zn8  1  0.18940034  0.27358489  -0.03382345  1.0
  Zn  Zn9  1  0.28382345  0.67916178  0.06059966  1.0
  Zn  Zn10  1  0.41433335  -0.23146544  0.50689213  1.0
  Zn  Zn11  1  0.74310787  0.93976004  -0.16433335  1.0
  Zn  Zn12  1  -0.23146544  0.41433335  0.31023996  1.0
  Zn  Zn13  1  0.93976004  0.74310787  -0.51853456  1.0
  P  P14  1  0.20804356  -0.12788337  0.78789192  1.0
  P  P15  1  0.46210808  0.11805211  0.04195644  1.0
  P  P16  1  -0.12788337  0.20804356  0.13194789  1.0
  P  P17  1  0.11805211  0.46210808  0.37788337  1.0
  P  P18  1  0.63437896  0.59551560  -0.01239880  1.0
  P  P19  1  1.26239880  0.46749576  -0.38437896  1.0
  P  P20  1  0.59551560  0.63437896  -0.21749576  1.0
  P  P21  1  0.46749576  1.26239880  -0.34551560  1.0
  P  P22  1  0.53458089  0.33138243  0.24088668  1.0
  P  P23  1  1.00911332  0.35685000  -0.28458089  1.0
  P  P24  1  0.33138243  0.53458089  -0.10685000  1.0
  P  P25  1  0.35685000  1.00911332  -0.08138243  1.0
  P  P26  1  0.33569975  -0.02337154  0.42522295  1.0
  P  P27  1  0.82477705  0.98755116  -0.08569975  1.0
  P  P28  1  -0.02337154  0.33569975  0.26244884  1.0
  P  P29  1  0.98755116  0.82477705  -0.72662846  1.0
  P  P30  1  0.62502404  0.65717343  0.25545642  1.0
  P  P31  1  0.99454358  0.78765389  -0.37502404  1.0
  P  P32  1  0.65717343  0.62502404  -0.53765389  1.0
  P  P33  1  0.78765389  0.99454358  -0.40717343  1.0
