# generated using pymatgen
data_LiBIr
_symmetry_space_group_name_H-M   'P 1'
_cell_length_a   6.97368414
_cell_length_b   6.08053158
_cell_length_c   5.54153569
_cell_angle_alpha   73.58054728
_cell_angle_beta   56.75839541
_cell_angle_gamma   49.66105731
_symmetry_Int_Tables_number   1
_chemical_formula_structural   LiBIr
_chemical_formula_sum   'Li4 B4 Ir4'
_cell_volume   148.83840394
_cell_formula_units_Z   4
loop_
 _symmetry_equiv_pos_site_id
 _symmetry_equiv_pos_as_xyz
  1  'x, y, z'
loop_
 _atom_site_type_symbol
 _atom_site_label
 _atom_site_symmetry_multiplicity
 _atom_site_fract_x
 _atom_site_fract_y
 _atom_site_fract_z
 _atom_site_occupancy
  Li  Li0  1  0.62500000  0.62500000  0.12500000  1.0
  Li  Li1  1  0.62500000  0.62500000  -0.37500000  1.0
  Li  Li2  1  0.12500000  0.62500000  0.62500000  1.0
  Li  Li3  1  -0.37500000  1.12500000  0.62500000  1.0
  B  B4  1  1.42655025  0.07344975  0.42655025  1.0
  B  B5  1  0.07344975  1.42655025  0.07344975  1.0
  B  B6  1  0.82344975  0.17655025  -0.17655025  1.0
  B  B7  1  0.17655025  0.82344975  0.17655025  1.0
  Ir  Ir8  1  0.38324904  0.38324904  1.11675096  1.0
  Ir  Ir9  1  0.11675096  1.11675096  0.38324904  1.0
  Ir  Ir10  1  0.86675096  0.86675096  0.13324904  1.0
  Ir  Ir11  1  0.13324904  1.13324904  -0.13324904  1.0
