# generated using pymatgen
data_Mg2BiAsO6
_symmetry_space_group_name_H-M   'P 1'
_cell_length_a   7.43437197
_cell_length_b   7.43437197
_cell_length_c   5.47219599
_cell_angle_alpha   90.00000000
_cell_angle_beta   90.00000000
_cell_angle_gamma   114.81029637
_symmetry_Int_Tables_number   1
_chemical_formula_structural   Mg2BiAsO6
_chemical_formula_sum   'Mg4 Bi2 As2 O12'
_cell_volume   274.53236443
_cell_formula_units_Z   2
loop_
 _symmetry_equiv_pos_site_id
 _symmetry_equiv_pos_as_xyz
  1  'x, y, z'
loop_
 _atom_site_type_symbol
 _atom_site_label
 _atom_site_symmetry_multiplicity
 _atom_site_fract_x
 _atom_site_fract_y
 _atom_site_fract_z
 _atom_site_occupancy
  Mg  Mg0  1  -0.10409428  1.71161973  0.25000000  1.0
  Mg  Mg1  1  0.71161973  0.89590572  0.75000000  1.0
  Mg  Mg2  1  -0.71161973  1.10409428  0.25000000  1.0
  Mg  Mg3  1  0.10409428  0.28838027  0.75000000  1.0
  Bi  Bi4  1  0.40866179  0.59133821  0.25000000  1.0
  Bi  Bi5  1  -0.40866179  1.40866179  0.75000000  1.0
  As  As6  1  -0.19816863  1.19816863  0.25000000  1.0
  As  As7  1  0.19816863  0.80183137  0.75000000  1.0
  O  O8  1  -0.09358766  1.45150688  0.25000000  1.0
  O  O9  1  0.45150688  0.90641234  0.75000000  1.0
  O  O10  1  -0.45150688  1.09358766  0.25000000  1.0
  O  O11  1  0.09358766  0.54849312  0.75000000  1.0
  O  O12  1  0.11655788  0.88344212  0.49159946  1.0
  O  O13  1  0.11655788  0.88344212  0.00840054  1.0
  O  O14  1  -0.11655788  1.11655788  0.99159946  1.0
  O  O15  1  -0.11655788  1.11655788  0.50840054  1.0
  O  O16  1  0.67017776  0.67017776  0.50000000  1.0
  O  O17  1  0.67017776  0.67017776  0.00000000  1.0
  O  O18  1  0.32982224  0.32982224  0.50000000  1.0
  O  O19  1  0.32982224  0.32982224  0.00000000  1.0
