# generated using pymatgen
data_CuH8Br4(NO)2
_symmetry_space_group_name_H-M   'P 1'
_cell_length_a   8.33236443
_cell_length_b   8.33236443
_cell_length_c   8.04727425
_cell_angle_alpha   90.00000000
_cell_angle_beta   90.00000000
_cell_angle_gamma   90.00000000
_symmetry_Int_Tables_number   1
_chemical_formula_structural   CuH8Br4(NO)2
_chemical_formula_sum   'Cu2 H16 Br8 N4 O4'
_cell_volume   558.70854612
_cell_formula_units_Z   2
loop_
 _symmetry_equiv_pos_site_id
 _symmetry_equiv_pos_as_xyz
  1  'x, y, z'
loop_
 _atom_site_type_symbol
 _atom_site_label
 _atom_site_symmetry_multiplicity
 _atom_site_fract_x
 _atom_site_fract_y
 _atom_site_fract_z
 _atom_site_occupancy
  N  N0  1  0.50000000  0.50000000  0.00000000  1.0
  N  N1  1  0.00000000  0.00000000  0.00000000  1.0
  N  N2  1  0.50000000  0.50000000  0.50000000  1.0
  N  N3  1  0.00000000  0.00000000  0.50000000  1.0
  H  H4  1  0.44500678  0.41402236  0.92567306  1.0
  H  H5  1  0.05499322  0.91402236  0.07432694  1.0
  H  H6  1  0.58597764  0.44500678  0.07432694  1.0
  H  H7  1  0.91402236  0.94500678  0.92567306  1.0
  H  H8  1  0.55499322  0.58597764  0.92567306  1.0
  H  H9  1  0.94500678  0.08597764  0.07432694  1.0
  H  H10  1  0.41402236  0.55499322  0.07432694  1.0
  H  H11  1  0.08597764  0.05499322  0.92567306  1.0
  H  H12  1  0.92924659  0.42924659  0.02153535  1.0
  H  H13  1  0.57075341  0.92924659  0.97846465  1.0
  H  H14  1  0.07075341  0.57075341  0.02153535  1.0
  H  H15  1  0.42924659  0.07075341  0.97846465  1.0
  H  H16  1  0.92963467  0.42963467  0.41936425  1.0
  H  H17  1  0.57036533  0.92963467  0.58063575  1.0
  H  H18  1  0.07036533  0.57036533  0.41936425  1.0
  H  H19  1  0.42963467  0.07036533  0.58063575  1.0
  O  O20  1  0.00000000  0.50000000  0.95042416  1.0
  O  O21  1  0.50000000  0.00000000  0.04957584  1.0
  O  O22  1  0.00000000  0.50000000  0.48934861  1.0
  O  O23  1  0.50000000  0.00000000  0.51065139  1.0
  Br  Br24  1  0.80069819  0.30069819  0.72098604  1.0
  Br  Br25  1  0.69930181  0.80069819  0.27901396  1.0
  Br  Br26  1  0.19930181  0.69930181  0.72098604  1.0
  Br  Br27  1  0.30069819  0.19930181  0.27901396  1.0
  Br  Br28  1  0.80720539  0.30720539  0.21294692  1.0
  Br  Br29  1  0.69279461  0.80720539  0.78705308  1.0
  Br  Br30  1  0.19279461  0.69279461  0.21294692  1.0
  Br  Br31  1  0.30720539  0.19279461  0.78705308  1.0
  Cu  Cu32  1  0.00000000  0.50000000  0.72039551  1.0
  Cu  Cu33  1  0.50000000  0.00000000  0.27960449  1.0
