# generated using pymatgen
data_Cs3Ru2Cl9
_symmetry_space_group_name_H-M   'P 1'
_cell_length_a   7.48952354
_cell_length_b   7.48952354
_cell_length_c   18.07240384
_cell_angle_alpha   90.00000000
_cell_angle_beta   90.00000000
_cell_angle_gamma   120.00000000
_symmetry_Int_Tables_number   1
_chemical_formula_structural   Cs3Ru2Cl9
_chemical_formula_sum   'Cs6 Ru4 Cl18'
_cell_volume   877.91998289
_cell_formula_units_Z   2
loop_
 _symmetry_equiv_pos_site_id
 _symmetry_equiv_pos_as_xyz
  1  'x, y, z'
loop_
 _atom_site_type_symbol
 _atom_site_label
 _atom_site_symmetry_multiplicity
 _atom_site_fract_x
 _atom_site_fract_y
 _atom_site_fract_z
 _atom_site_occupancy
  Cs  Cs0  1  0.33333333  0.66666667  0.43104023  1.0
  Cs  Cs1  1  0.33333333  0.66666667  0.06895977  1.0
  Cs  Cs2  1  0.66666667  0.33333333  0.93104023  1.0
  Cs  Cs3  1  0.66666667  0.33333333  0.56895977  1.0
  Cs  Cs4  1  0.00000000  0.00000000  0.25000000  1.0
  Cs  Cs5  1  0.00000000  0.00000000  0.75000000  1.0
  Ru  Ru6  1  0.33333333  0.66666667  0.82340041  1.0
  Ru  Ru7  1  0.33333333  0.66666667  0.67659959  1.0
  Ru  Ru8  1  0.66666667  0.33333333  0.32340041  1.0
  Ru  Ru9  1  0.66666667  0.33333333  0.17659959  1.0
  Cl  Cl10  1  0.18524559  0.81475441  0.89937677  1.0
  Cl  Cl11  1  0.18524559  0.81475441  0.60062323  1.0
  Cl  Cl12  1  0.18524559  0.37049118  0.89937677  1.0
  Cl  Cl13  1  0.18524559  0.37049118  0.60062323  1.0
  Cl  Cl14  1  0.81475441  0.18524559  0.39937677  1.0
  Cl  Cl15  1  0.81475441  0.18524559  0.10062323  1.0
  Cl  Cl16  1  0.81475441  0.62950882  0.39937677  1.0
  Cl  Cl17  1  0.81475441  0.62950882  0.10062323  1.0
  Cl  Cl18  1  0.62950882  0.81475441  0.89937677  1.0
  Cl  Cl19  1  0.62950882  0.81475441  0.60062323  1.0
  Cl  Cl20  1  0.37049118  0.18524559  0.39937677  1.0
  Cl  Cl21  1  0.37049118  0.18524559  0.10062323  1.0
  Cl  Cl22  1  0.51227468  0.48772532  0.25000000  1.0
  Cl  Cl23  1  0.51227468  0.02454937  0.25000000  1.0
  Cl  Cl24  1  0.48772532  0.51227468  0.75000000  1.0
  Cl  Cl25  1  0.48772532  0.97545063  0.75000000  1.0
  Cl  Cl26  1  0.97545063  0.48772532  0.25000000  1.0
  Cl  Cl27  1  0.02454937  0.51227468  0.75000000  1.0
