# generated using pymatgen
data_SrS3
_symmetry_space_group_name_H-M   'P 1'
_cell_length_a   6.78618743
_cell_length_b   6.78618743
_cell_length_c   3.96467762
_cell_angle_alpha   90.00000000
_cell_angle_beta   90.00000000
_cell_angle_gamma   90.00000000
_symmetry_Int_Tables_number   1
_chemical_formula_structural   SrS3
_chemical_formula_sum   'Sr2 S6'
_cell_volume   182.58268082
_cell_formula_units_Z   2
loop_
 _symmetry_equiv_pos_site_id
 _symmetry_equiv_pos_as_xyz
  1  'x, y, z'
loop_
 _atom_site_type_symbol
 _atom_site_label
 _atom_site_symmetry_multiplicity
 _atom_site_fract_x
 _atom_site_fract_y
 _atom_site_fract_z
 _atom_site_occupancy
  Sr  Sr0  1  0.50000000  0.50000000  0.00000000  1.0
  Sr  Sr1  1  0.00000000  0.00000000  0.00000000  1.0
  S  S2  1  0.81482098  0.31482098  0.52484196  1.0
  S  S3  1  0.68517902  0.81482098  0.47515804  1.0
  S  S4  1  0.18517902  0.68517902  0.52484196  1.0
  S  S5  1  0.31482098  0.18517902  0.47515804  1.0
  S  S6  1  0.00000000  0.50000000  0.80634316  1.0
  S  S7  1  0.50000000  0.00000000  0.19365684  1.0
