# generated using pymatgen
data_SrMo2(PO4)4
_symmetry_space_group_name_H-M   'P 1'
_cell_length_a   8.04356115
_cell_length_b   7.83018963
_cell_length_c   12.43113244
_cell_angle_alpha   90.00000000
_cell_angle_beta   128.69318350
_cell_angle_gamma   90.00000000
_symmetry_Int_Tables_number   1
_chemical_formula_structural   SrMo2(PO4)4
_chemical_formula_sum   'Sr2 Mo4 P8 O32'
_cell_volume   611.09244183
_cell_formula_units_Z   2
loop_
 _symmetry_equiv_pos_site_id
 _symmetry_equiv_pos_as_xyz
  1  'x, y, z'
loop_
 _atom_site_type_symbol
 _atom_site_label
 _atom_site_symmetry_multiplicity
 _atom_site_fract_x
 _atom_site_fract_y
 _atom_site_fract_z
 _atom_site_occupancy
  Sr  Sr0  1  0.00000000  0.50000000  0.50000000  1.0
  Sr  Sr1  1  -0.00000000  0.00000000  -0.00000000  1.0
  Mo  Mo2  1  0.61163656  0.21910436  0.16417631  1.0
  Mo  Mo3  1  0.61163656  0.28089564  0.66417631  1.0
  Mo  Mo4  1  0.38836344  0.71910436  0.33582369  1.0
  Mo  Mo5  1  0.38836344  0.78089564  0.83582369  1.0
  P  P6  1  0.96431177  0.88579965  0.28895424  1.0
  P  P7  1  0.96431177  0.61420035  0.78895424  1.0
  P  P8  1  0.03568823  0.38579965  0.21104576  1.0
  P  P9  1  0.03568823  0.11420035  0.71104576  1.0
  P  P10  1  0.65440109  0.09813981  0.43679811  1.0
  P  P11  1  0.65440109  0.40186019  0.93679811  1.0
  P  P12  1  0.34559891  0.59813981  0.06320189  1.0
  P  P13  1  0.34559891  0.90186019  0.56320189  1.0
  O  O14  1  0.86198973  0.49624640  0.06677444  1.0
  O  O15  1  0.86198973  0.00375360  0.56677444  1.0
  O  O16  1  0.13801027  0.99624640  0.43322556  1.0
  O  O17  1  0.13801027  0.50375360  0.93322556  1.0
  O  O18  1  0.91742629  0.35175535  0.27087586  1.0
  O  O19  1  0.91742629  0.14824465  0.77087586  1.0
  O  O20  1  0.08257371  0.85175535  0.22912414  1.0
  O  O21  1  0.08257371  0.64824465  0.72912414  1.0
  O  O22  1  0.90398921  0.73093746  0.32880991  1.0
  O  O23  1  0.90398921  0.76906254  0.82880991  1.0
  O  O24  1  0.09601079  0.23093746  0.17119009  1.0
  O  O25  1  0.09601079  0.26906254  0.67119009  1.0
  O  O26  1  0.78200500  0.01359772  0.19278192  1.0
  O  O27  1  0.78200500  0.48640228  0.69278192  1.0
  O  O28  1  0.21799500  0.51359772  0.30721808  1.0
  O  O29  1  0.21799500  0.98640228  0.80721808  1.0
  O  O30  1  0.71893397  0.20599632  0.36327094  1.0
  O  O31  1  0.71893397  0.29400368  0.86327094  1.0
  O  O32  1  0.28106603  0.70599632  0.13672906  1.0
  O  O33  1  0.28106603  0.79400368  0.63672906  1.0
  O  O34  1  0.57530643  0.22227271  0.49227200  1.0
  O  O35  1  0.57530643  0.27772729  0.99227200  1.0
  O  O36  1  0.42469357  0.72227271  0.00772800  1.0
  O  O37  1  0.42469357  0.77772729  0.50772800  1.0
  O  O38  1  0.50473189  0.45937478  0.15933943  1.0
  O  O39  1  0.50473189  0.04062522  0.65933943  1.0
  O  O40  1  0.49526811  0.95937478  0.34066057  1.0
  O  O41  1  0.49526811  0.54062522  0.84066057  1.0
  O  O42  1  0.37396330  0.12157891  0.08716418  1.0
  O  O43  1  0.37396330  0.37842109  0.58716418  1.0
  O  O44  1  0.62603670  0.62157891  0.41283582  1.0
  O  O45  1  0.62603670  0.87842109  0.91283582  1.0
