# generated using pymatgen
data_Be3P2
_symmetry_space_group_name_H-M   'P 1'
_cell_length_a   8.82475794
_cell_length_b   8.82475794
_cell_length_c   8.82475794
_cell_angle_alpha   109.47122063
_cell_angle_beta   109.47122063
_cell_angle_gamma   109.47122063
_symmetry_Int_Tables_number   1
_chemical_formula_structural   Be3P2
_chemical_formula_sum   'Be24 P16'
_cell_volume   529.03756887
_cell_formula_units_Z   8
loop_
 _symmetry_equiv_pos_site_id
 _symmetry_equiv_pos_as_xyz
  1  'x, y, z'
loop_
 _atom_site_type_symbol
 _atom_site_label
 _atom_site_symmetry_multiplicity
 _atom_site_fract_x
 _atom_site_fract_y
 _atom_site_fract_z
 _atom_site_occupancy
  Be  Be0  1  0.50884414  0.50403490  0.75296989  1.0
  Be  Be1  1  1.00884414  0.25587425  1.00480924  1.0
  Be  Be2  1  0.25106501  0.75587425  0.74703011  1.0
  Be  Be3  1  0.75106501  1.00403490  0.49519076  1.0
  Be  Be4  1  0.50480924  1.24893499  0.99596510  1.0
  Be  Be5  1  1.00480924  1.00884414  0.25587425  1.0
  Be  Be6  1  0.75296989  0.50884414  0.50403490  1.0
  Be  Be7  1  1.25296989  0.74893499  1.24412575  1.0
  Be  Be8  1  0.75587425  0.74703011  0.25106501  1.0
  Be  Be9  1  1.25587425  1.00480924  1.00884414  1.0
  Be  Be10  1  0.99596510  0.50480924  1.24893499  1.0
  Be  Be11  1  1.49596510  1.24703011  1.49115586  1.0
  Be  Be12  1  1.74893499  1.24412575  1.25296989  1.0
  Be  Be13  1  1.24893499  0.99596510  1.50480924  1.0
  Be  Be14  1  1.49115586  1.49596510  1.24703011  1.0
  Be  Be15  1  0.99115586  1.74412575  0.99519076  1.0
  Be  Be16  1  1.24703011  1.49115586  1.49596510  1.0
  Be  Be17  1  0.74703011  1.25106501  0.75587425  1.0
  Be  Be18  1  1.49519076  0.75106501  1.00403490  1.0
  Be  Be19  1  0.99519076  0.99115586  1.74412575  1.0
  Be  Be20  1  1.00403490  1.49519076  0.75106501  1.0
  Be  Be21  1  0.50403490  0.75296989  0.50884414  1.0
  Be  Be22  1  1.24412575  1.25296989  1.74893499  1.0
  Be  Be23  1  0.74412575  0.99519076  0.99115586  1.0
  P  P24  1  1.74448487  1.49448487  1.25000000  1.0
  P  P25  1  1.24448487  0.99448487  1.25000000  1.0
  P  P26  1  0.75000000  0.75551513  0.00551513  1.0
  P  P27  1  0.25000000  1.24448487  0.99448487  1.0
  P  P28  1  0.25000000  0.74448487  0.49448487  1.0
  P  P29  1  0.75000000  1.25551513  0.50551513  1.0
  P  P30  1  1.49448487  1.25000000  1.74448487  1.0
  P  P31  1  0.99448487  0.25000000  1.24448487  1.0
  P  P32  1  0.00551513  0.75000000  0.75551513  1.0
  P  P33  1  0.50551513  0.75000000  0.25551513  1.0
  P  P34  1  0.25551513  0.50551513  0.75000000  1.0
  P  P35  1  0.75551513  1.00551513  0.75000000  1.0
  P  P36  1  1.00000000  0.50000000  1.00000000  1.0
  P  P37  1  0.50000000  0.50000000  0.50000000  1.0
  P  P38  1  1.00000000  1.00000000  1.50000000  1.0
  P  P39  1  1.50000000  1.00000000  1.00000000  1.0
