# generated using pymatgen
data_CsCaH2N9O
_symmetry_space_group_name_H-M   'P 1'
_cell_length_a   6.97289190
_cell_length_b   9.08545732
_cell_length_c   7.58731837
_cell_angle_alpha   72.00750670
_cell_angle_beta   80.25122621
_cell_angle_gamma   84.31802341
_symmetry_Int_Tables_number   1
_chemical_formula_structural   CsCaH2N9O
_chemical_formula_sum   'Cs2 Ca2 H4 N18 O2'
_cell_volume   450.00367887
_cell_formula_units_Z   2
loop_
 _symmetry_equiv_pos_site_id
 _symmetry_equiv_pos_as_xyz
  1  'x, y, z'
loop_
 _atom_site_type_symbol
 _atom_site_label
 _atom_site_symmetry_multiplicity
 _atom_site_fract_x
 _atom_site_fract_y
 _atom_site_fract_z
 _atom_site_occupancy
  Cs  Cs0  1  -0.75036737  -0.57746656  -0.19678294  1.0
  Cs  Cs1  1  -0.24963263  -0.42253344  -0.80321706  1.0
  Ca  Ca2  1  -0.18968952  -0.90124828  -0.81319784  1.0
  Ca  Ca3  1  -0.81031048  -0.09875172  -0.18680216  1.0
  H  H4  1  -0.52564642  -0.81746649  -0.53815925  1.0
  H  H5  1  -0.47435358  -0.18253351  -0.46184075  1.0
  H  H6  1  -0.34408624  -0.75025426  -0.49673249  1.0
  H  H7  1  -0.65591376  -0.24974574  -0.50326751  1.0
  N  N8  1  -0.97402070  -0.75389571  -0.68751055  1.0
  N  N9  1  -0.02597930  -0.24610429  -0.31248945  1.0
  N  N10  1  -0.88718300  -0.79925464  -0.55978437  1.0
  N  N11  1  -0.11281700  -0.20074536  -0.44021563  1.0
  N  N12  1  -0.83085374  -0.96719601  -0.93172262  1.0
  N  N13  1  -0.16914626  -0.03280399  -0.06827738  1.0
  N  N14  1  -0.79791317  -0.84348236  -0.43146342  1.0
  N  N15  1  -0.20208683  -0.15651764  -0.56853658  1.0
  N  N16  1  -0.80106055  -0.34348555  -0.93335776  1.0
  N  N17  1  -0.19893945  -0.65651445  -0.06664224  1.0
  N  N18  1  -0.75449625  -0.36138937  -0.78442967  1.0
  N  N19  1  -0.24550375  -0.63861063  -0.21557033  1.0
  N  N20  1  -0.70713115  -0.38206451  -0.63680558  1.0
  N  N21  1  -0.29286885  -0.61793549  -0.36319442  1.0
  N  N22  1  -0.68464708  -0.94183720  -0.88698995  1.0
  N  N23  1  -0.31535292  -0.05816280  -0.11301005  1.0
  N  N24  1  -0.54177877  -0.91409152  -0.84507088  1.0
  N  N25  1  -0.45822123  -0.08590848  -0.15492912  1.0
  O  O26  1  -0.38873756  -0.79170058  -0.58786028  1.0
  O  O27  1  -0.61126244  -0.20829942  -0.41213972  1.0
