# generated using pymatgen
data_Ni5P4
_symmetry_space_group_name_H-M   'P 1'
_cell_length_a   6.79392414
_cell_length_b   6.79392414
_cell_length_c   11.01532629
_cell_angle_alpha   90.00000000
_cell_angle_beta   90.00000000
_cell_angle_gamma   120.00000000
_symmetry_Int_Tables_number   1
_chemical_formula_structural   Ni5P4
_chemical_formula_sum   'Ni20 P16'
_cell_volume   440.32098559
_cell_formula_units_Z   4
loop_
 _symmetry_equiv_pos_site_id
 _symmetry_equiv_pos_as_xyz
  1  'x, y, z'
loop_
 _atom_site_type_symbol
 _atom_site_label
 _atom_site_symmetry_multiplicity
 _atom_site_fract_x
 _atom_site_fract_y
 _atom_site_fract_z
 _atom_site_occupancy
  Ni  Ni0  1  0.58582334  0.79291167  0.23786832  1.0
  Ni  Ni1  1  0.79291167  0.58582334  0.73786832  1.0
  Ni  Ni2  1  0.79291167  0.20708833  0.73786832  1.0
  Ni  Ni3  1  0.20708833  0.79291167  0.23786832  1.0
  Ni  Ni4  1  0.20708833  0.41417666  0.23786832  1.0
  Ni  Ni5  1  0.41417666  0.20708833  0.73786832  1.0
  Ni  Ni6  1  0.92611669  0.46305834  0.08911953  1.0
  Ni  Ni7  1  0.46305834  0.92611669  0.58911953  1.0
  Ni  Ni8  1  0.46305834  0.53694166  0.58911953  1.0
  Ni  Ni9  1  0.53694166  0.46305834  0.08911953  1.0
  Ni  Ni10  1  0.53694166  0.07388331  0.08911953  1.0
  Ni  Ni11  1  0.07388331  0.53694166  0.58911953  1.0
  Ni  Ni12  1  0.91914234  0.45957117  0.37968579  1.0
  Ni  Ni13  1  0.45957117  0.91914234  0.87968579  1.0
  Ni  Ni14  1  0.45957117  0.54042883  0.87968579  1.0
  Ni  Ni15  1  0.54042883  0.45957117  0.37968579  1.0
  Ni  Ni16  1  0.54042883  0.08085766  0.37968579  1.0
  Ni  Ni17  1  0.08085766  0.54042883  0.87968579  1.0
  Ni  Ni18  1  0.00000000  0.00000000  0.19937463  1.0
  Ni  Ni19  1  0.00000000  0.00000000  0.69937463  1.0
  P  P20  1  0.64169334  0.82084667  0.44225876  1.0
  P  P21  1  0.82084667  0.64169334  0.94225876  1.0
  P  P22  1  0.82084667  0.17915333  0.94225876  1.0
  P  P23  1  0.17915333  0.82084667  0.44225876  1.0
  P  P24  1  0.17915333  0.35830666  0.44225876  1.0
  P  P25  1  0.35830666  0.17915333  0.94225876  1.0
  P  P26  1  0.36353218  0.18176609  0.23148946  1.0
  P  P27  1  0.18176609  0.36353218  0.73148946  1.0
  P  P28  1  0.18176609  0.81823391  0.73148946  1.0
  P  P29  1  0.81823391  0.18176609  0.23148946  1.0
  P  P30  1  0.81823391  0.63646782  0.23148946  1.0
  P  P31  1  0.63646782  0.81823391  0.73148946  1.0
  P  P32  1  0.33333333  0.66666667  0.05885952  1.0
  P  P33  1  0.66666667  0.33333333  0.55885952  1.0
  P  P34  1  0.00000000  0.00000000  0.00030029  1.0
  P  P35  1  0.00000000  0.00000000  0.50030029  1.0
