# generated using pymatgen
data_SrAl2Au3
_symmetry_space_group_name_H-M   'P 1'
_cell_length_a   13.26494007
_cell_length_b   5.55548174
_cell_length_c   6.94658118
_cell_angle_alpha   90.00000000
_cell_angle_beta   90.00000000
_cell_angle_gamma   90.00000000
_symmetry_Int_Tables_number   1
_chemical_formula_structural   SrAl2Au3
_chemical_formula_sum   'Sr4 Al8 Au12'
_cell_volume   511.91532635
_cell_formula_units_Z   4
loop_
 _symmetry_equiv_pos_site_id
 _symmetry_equiv_pos_as_xyz
  1  'x, y, z'
loop_
 _atom_site_type_symbol
 _atom_site_label
 _atom_site_symmetry_multiplicity
 _atom_site_fract_x
 _atom_site_fract_y
 _atom_site_fract_z
 _atom_site_occupancy
  Sr  Sr0  1  0.08929545  0.75000000  0.84534062  1.0
  Sr  Sr1  1  0.58929545  0.75000000  0.65465938  1.0
  Sr  Sr2  1  0.91070455  0.25000000  0.15465938  1.0
  Sr  Sr3  1  0.41070455  0.25000000  0.34534062  1.0
  Al  Al4  1  0.34806596  0.00009181  0.85966900  1.0
  Al  Al5  1  0.34806596  0.49990819  0.85966900  1.0
  Al  Al6  1  0.84806596  0.00009181  0.64033100  1.0
  Al  Al7  1  0.84806596  0.49990819  0.64033100  1.0
  Al  Al8  1  0.65193404  0.50009181  0.14033100  1.0
  Al  Al9  1  0.65193404  0.99990819  0.14033100  1.0
  Al  Al10  1  0.15193404  0.50009181  0.35966900  1.0
  Al  Al11  1  0.15193404  0.99990819  0.35966900  1.0
  Au  Au12  1  0.49309176  0.75000000  0.09494213  1.0
  Au  Au13  1  0.99309176  0.75000000  0.40505787  1.0
  Au  Au14  1  0.50690824  0.25000000  0.90505787  1.0
  Au  Au15  1  0.00690824  0.25000000  0.59494213  1.0
  Au  Au16  1  0.28338082  0.75000000  0.15394007  1.0
  Au  Au17  1  0.78338082  0.75000000  0.34605993  1.0
  Au  Au18  1  0.71661918  0.25000000  0.84605993  1.0
  Au  Au19  1  0.21661918  0.25000000  0.65394007  1.0
  Au  Au20  1  0.30917892  0.75000000  0.55801706  1.0
  Au  Au21  1  0.80917892  0.75000000  0.94198294  1.0
  Au  Au22  1  0.69082108  0.25000000  0.44198294  1.0
  Au  Au23  1  0.19082108  0.25000000  0.05801706  1.0
