# generated using pymatgen
data_La2(SeO3)3
_symmetry_space_group_name_H-M   'P 1'
_cell_length_a   8.58817505
_cell_length_b   14.44169258
_cell_length_c   7.18085432
_cell_angle_alpha   90.00000000
_cell_angle_beta   90.00000000
_cell_angle_gamma   90.00000000
_symmetry_Int_Tables_number   1
_chemical_formula_structural   La2(SeO3)3
_chemical_formula_sum   'La8 Se12 O36'
_cell_volume   890.62544729
_cell_formula_units_Z   4
loop_
 _symmetry_equiv_pos_site_id
 _symmetry_equiv_pos_as_xyz
  1  'x, y, z'
loop_
 _atom_site_type_symbol
 _atom_site_label
 _atom_site_symmetry_multiplicity
 _atom_site_fract_x
 _atom_site_fract_y
 _atom_site_fract_z
 _atom_site_occupancy
  La  La0  1  0.20012156  0.93592284  0.82098576  1.0
  La  La1  1  0.20012156  0.56407716  0.82098576  1.0
  La  La2  1  0.70012156  0.93592284  0.67901424  1.0
  La  La3  1  0.70012156  0.56407716  0.67901424  1.0
  La  La4  1  0.79987844  0.43592284  0.17901424  1.0
  La  La5  1  0.79987844  0.06407716  0.17901424  1.0
  La  La6  1  0.29987844  0.43592284  0.32098576  1.0
  La  La7  1  0.29987844  0.06407716  0.32098576  1.0
  Se  Se8  1  0.45145941  0.37564381  0.82056556  1.0
  Se  Se9  1  0.45145941  0.12435619  0.82056556  1.0
  Se  Se10  1  0.95145941  0.37564381  0.67943444  1.0
  Se  Se11  1  0.95145941  0.12435619  0.67943444  1.0
  Se  Se12  1  0.54854059  0.87564381  0.17943444  1.0
  Se  Se13  1  0.54854059  0.62435619  0.17943444  1.0
  Se  Se14  1  0.04854059  0.87564381  0.32056556  1.0
  Se  Se15  1  0.04854059  0.62435619  0.32056556  1.0
  Se  Se16  1  0.45726113  0.75000000  0.59440720  1.0
  Se  Se17  1  0.95726113  0.75000000  0.90559280  1.0
  Se  Se18  1  0.54273887  0.25000000  0.40559280  1.0
  Se  Se19  1  0.04273887  0.25000000  0.09440720  1.0
  O  O20  1  0.44315906  0.84549445  0.73917327  1.0
  O  O21  1  0.44315906  0.65450555  0.73917327  1.0
  O  O22  1  0.94315906  0.84549445  0.76082673  1.0
  O  O23  1  0.94315906  0.65450555  0.76082673  1.0
  O  O24  1  0.55684094  0.34549445  0.26082673  1.0
  O  O25  1  0.55684094  0.15450555  0.26082673  1.0
  O  O26  1  0.05684094  0.34549445  0.23917327  1.0
  O  O27  1  0.05684094  0.15450555  0.23917327  1.0
  O  O28  1  0.42478721  0.46054731  0.65001577  1.0
  O  O29  1  0.42478721  0.03945269  0.65001577  1.0
  O  O30  1  0.92478721  0.46054731  0.84998423  1.0
  O  O31  1  0.92478721  0.03945269  0.84998423  1.0
  O  O32  1  0.57521279  0.96054731  0.34998423  1.0
  O  O33  1  0.57521279  0.53945269  0.34998423  1.0
  O  O34  1  0.07521279  0.96054731  0.15001577  1.0
  O  O35  1  0.07521279  0.53945269  0.15001577  1.0
  O  O36  1  0.38134845  0.92223654  0.09200075  1.0
  O  O37  1  0.38134845  0.57776346  0.09200075  1.0
  O  O38  1  0.88134845  0.92223654  0.40799925  1.0
  O  O39  1  0.88134845  0.57776346  0.40799925  1.0
  O  O40  1  0.61865155  0.42223654  0.90799925  1.0
  O  O41  1  0.61865155  0.07776346  0.90799925  1.0
  O  O42  1  0.11865155  0.42223654  0.59200075  1.0
  O  O43  1  0.11865155  0.07776346  0.59200075  1.0
  O  O44  1  0.30192555  0.40445606  0.97015418  1.0
  O  O45  1  0.30192555  0.09554394  0.97015418  1.0
  O  O46  1  0.80192555  0.40445606  0.52984582  1.0
  O  O47  1  0.80192555  0.09554394  0.52984582  1.0
  O  O48  1  0.69807445  0.90445606  0.02984582  1.0
  O  O49  1  0.69807445  0.59554394  0.02984582  1.0
  O  O50  1  0.19807445  0.90445606  0.47015418  1.0
  O  O51  1  0.19807445  0.59554394  0.47015418  1.0
  O  O52  1  0.15609221  0.75000000  0.92981196  1.0
  O  O53  1  0.65609221  0.75000000  0.57018804  1.0
  O  O54  1  0.84390779  0.25000000  0.07018804  1.0
  O  O55  1  0.34390779  0.25000000  0.42981196  1.0
