# generated using pymatgen
data_Zn2In2S5
_symmetry_space_group_name_H-M   'P 1'
_cell_length_a   15.58188518
_cell_length_b   15.58188518
_cell_length_c   15.58188518
_cell_angle_alpha   14.44529561
_cell_angle_beta   14.44529561
_cell_angle_gamma   14.44529561
_symmetry_Int_Tables_number   1
_chemical_formula_structural   Zn2In2S5
_chemical_formula_sum   'Zn2 In2 S5'
_cell_volume   204.96093844
_cell_formula_units_Z   1
loop_
 _symmetry_equiv_pos_site_id
 _symmetry_equiv_pos_as_xyz
  1  'x, y, z'
loop_
 _atom_site_type_symbol
 _atom_site_label
 _atom_site_symmetry_multiplicity
 _atom_site_fract_x
 _atom_site_fract_y
 _atom_site_fract_z
 _atom_site_occupancy
  Zn  Zn0  1  0.95159497  -0.04840503  -0.04840503  1.0
  Zn  Zn1  1  0.78179769  -0.21820231  -0.21820231  1.0
  In  In2  1  0.54492953  0.54492953  -0.45507047  1.0
  In  In3  1  0.36595087  0.36595087  -0.63404913  1.0
  S  S4  1  0.00029405  0.00029405  0.00029405  1.0
  S  S5  1  0.85573049  -0.14426951  -0.14426951  1.0
  S  S6  1  0.72731886  -0.27268114  -0.27268114  1.0
  S  S7  1  0.59939314  0.59939314  -0.40060686  1.0
  S  S8  1  0.46199040  0.46199040  -0.53800960  1.0
