# generated using pymatgen
data_Li3V(H4O3)4
_symmetry_space_group_name_H-M   'P 1'
_cell_length_a   5.95877903
_cell_length_b   7.33165817
_cell_length_c   6.51320063
_cell_angle_alpha   89.31566673
_cell_angle_beta   89.14394491
_cell_angle_gamma   89.47577781
_symmetry_Int_Tables_number   1
_chemical_formula_structural   Li3V(H4O3)4
_chemical_formula_sum   'Li3 V1 H16 O12'
_cell_volume   284.48345147
_cell_formula_units_Z   1
loop_
 _symmetry_equiv_pos_site_id
 _symmetry_equiv_pos_as_xyz
  1  'x, y, z'
loop_
 _atom_site_type_symbol
 _atom_site_label
 _atom_site_symmetry_multiplicity
 _atom_site_fract_x
 _atom_site_fract_y
 _atom_site_fract_z
 _atom_site_occupancy
  Li  Li0  1  -0.59669455  -0.06719995  -0.73712057  1.0
  Li  Li1  1  -0.00251583  -0.35567238  -0.23469492  1.0
  Li  Li2  1  -0.50301192  -0.58772501  -0.11858143  1.0
  V  V3  1  -0.08870359  -0.85477675  -0.61408791  1.0
  H  H4  1  -0.34938561  -0.31448808  -0.58318121  1.0
  H  H5  1  -0.54244224  -0.41908106  -0.69629167  1.0
  H  H6  1  -0.55004282  0.02249013  -0.12108542  1.0
  H  H7  1  -0.34896373  -0.10326319  -0.05036252  1.0
  H  H8  1  -0.04322880  -0.45520730  -0.61284253  1.0
  H  H9  1  -0.00858160  -0.23479752  -0.60822852  1.0
  H  H10  1  -0.04714801  -0.01416979  -0.19445852  1.0
  H  H11  1  -0.00955178  -0.08697202  0.03758573  1.0
  H  H12  1  -0.11351853  -0.60303516  0.02360465  1.0
  H  H13  1  -0.11144404  -0.67475007  -0.20806440  1.0
  H  H14  1  -0.61647882  -0.26405916  -0.15245560  1.0
  H  H15  1  -0.61864936  -0.35180212  -0.37390434  1.0
  H  H16  1  -0.50414381  -0.83132002  -0.40870882  1.0
  H  H17  1  -0.75331765  -0.80887162  -0.31532385  1.0
  H  H18  1  -0.50489951  -0.71252152  -0.75566637  1.0
  H  H19  1  -0.75337024  -0.63464924  -0.79644543  1.0
  O  O20  1  -0.01981438  -0.65311593  -0.73920246  1.0
  O  O21  1  -0.02056911  -0.83782437  -0.35773198  1.0
  O  O22  1  -0.37429007  -0.88809338  -0.63137815  1.0
  O  O23  1  -0.93389293  -0.03187587  -0.72029481  1.0
  O  O24  1  -0.51382646  -0.30739071  -0.61345640  1.0
  O  O25  1  -0.51542827  -0.08665931  -0.03188658  1.0
  O  O26  1  -0.07397589  -0.34170332  -0.53102525  1.0
  O  O27  1  -0.07184418  -0.12170458  -0.09908751  1.0
  O  O28  1  -0.16558598  -0.57073456  -0.11874758  1.0
  O  O29  1  -0.66819701  -0.37479683  -0.22811904  1.0
  O  O30  1  -0.58949958  -0.79906276  -0.27964694  1.0
  O  O31  1  -0.58929369  -0.61278653  -0.82915965  1.0
