# generated using pymatgen
data_Sr2CoSe2(ClO3)2
_symmetry_space_group_name_H-M   'P 1'
_cell_length_a   5.40819571
_cell_length_b   6.50537750
_cell_length_c   13.36354063
_cell_angle_alpha   90.00000000
_cell_angle_beta   110.85999293
_cell_angle_gamma   90.00000000
_symmetry_Int_Tables_number   1
_chemical_formula_structural   Sr2CoSe2(ClO3)2
_chemical_formula_sum   'Sr4 Co2 Se4 Cl4 O12'
_cell_volume   439.34335475
_cell_formula_units_Z   2
loop_
 _symmetry_equiv_pos_site_id
 _symmetry_equiv_pos_as_xyz
  1  'x, y, z'
loop_
 _atom_site_type_symbol
 _atom_site_label
 _atom_site_symmetry_multiplicity
 _atom_site_fract_x
 _atom_site_fract_y
 _atom_site_fract_z
 _atom_site_occupancy
  Sr  Sr0  1  0.28114919  0.29503188  0.26612935  1.0
  Sr  Sr1  1  0.28114919  0.20496812  0.76612935  1.0
  Sr  Sr2  1  0.71885081  0.79503188  0.23387065  1.0
  Sr  Sr3  1  0.71885081  0.70496812  0.73387065  1.0
  Co  Co4  1  -0.00000000  0.50000000  0.50000000  1.0
  Co  Co5  1  0.00000000  0.00000000  0.00000000  1.0
  Se  Se6  1  0.57952681  0.26058450  0.07419797  1.0
  Se  Se7  1  0.57952681  0.23941550  0.57419797  1.0
  Se  Se8  1  0.42047319  0.76058450  0.42580203  1.0
  Se  Se9  1  0.42047319  0.73941550  0.92580203  1.0
  Cl  Cl10  1  0.94799878  0.17458479  0.39504493  1.0
  Cl  Cl11  1  0.94799878  0.32541521  0.89504493  1.0
  Cl  Cl12  1  0.05200122  0.67458479  0.10495507  1.0
  Cl  Cl13  1  0.05200122  0.82541521  0.60495507  1.0
  O  O14  1  0.87865299  0.12619658  0.12058801  1.0
  O  O15  1  0.87865299  0.37380342  0.62058801  1.0
  O  O16  1  0.12134701  0.62619658  0.37941199  1.0
  O  O17  1  0.12134701  0.87380342  0.87941199  1.0
  O  O18  1  0.60981600  0.42524325  0.17663349  1.0
  O  O19  1  0.60981600  0.07475675  0.67663349  1.0
  O  O20  1  0.39018400  0.92524325  0.32336651  1.0
  O  O21  1  0.39018400  0.57475675  0.82336651  1.0
  O  O22  1  0.38461087  0.07143717  0.10410136  1.0
  O  O23  1  0.38461087  0.42856283  0.60410136  1.0
  O  O24  1  0.61538913  0.57143717  0.39589864  1.0
  O  O25  1  0.61538913  0.92856283  0.89589864  1.0
