# generated using pymatgen
data_SmVO4
_symmetry_space_group_name_H-M   'P 1'
_cell_length_a   6.10708411
_cell_length_b   6.10708411
_cell_length_c   6.10708411
_cell_angle_alpha   105.97895963
_cell_angle_beta   105.97895963
_cell_angle_gamma   116.70720399
_symmetry_Int_Tables_number   1
_chemical_formula_structural   SmVO4
_chemical_formula_sum   'Sm2 V2 O8'
_cell_volume   173.21683450
_cell_formula_units_Z   2
loop_
 _symmetry_equiv_pos_site_id
 _symmetry_equiv_pos_as_xyz
  1  'x, y, z'
loop_
 _atom_site_type_symbol
 _atom_site_label
 _atom_site_symmetry_multiplicity
 _atom_site_fract_x
 _atom_site_fract_y
 _atom_site_fract_z
 _atom_site_occupancy
  Sm  Sm0  1  0.25000000  0.75000000  0.50000000  1.0
  Sm  Sm1  1  0.50000000  0.50000000  0.00000000  1.0
  V  V2  1  0.00000000  0.00000000  0.00000000  1.0
  V  V3  1  0.75000000  1.25000000  0.50000000  1.0
  O  O4  1  0.17113832  0.35153851  0.18040019  1.0
  O  O5  1  1.10153851  1.42113832  0.68040019  1.0
  O  O6  1  0.74073813  0.42113832  0.31959981  1.0
  O  O7  1  0.17113832  0.99073813  0.81959981  1.0
  O  O8  1  0.57886168  0.89846149  0.31959981  1.0
  O  O9  1  1.64846149  0.82886168  0.81959981  1.0
  O  O10  1  1.00926187  0.82886168  1.18040019  1.0
  O  O11  1  0.57886168  1.25926187  0.68040019  1.0
