# generated using pymatgen
data_Ba2Gd(CuO2)4
_symmetry_space_group_name_H-M   'P 1'
_cell_length_a   13.89768066
_cell_length_b   13.89768066
_cell_length_c   3.90134128
_cell_angle_alpha   90.00000000
_cell_angle_beta   90.00000000
_cell_angle_gamma   163.82392333
_symmetry_Int_Tables_number   1
_chemical_formula_structural   Ba2Gd(CuO2)4
_chemical_formula_sum   'Ba2 Gd1 Cu4 O8'
_cell_volume   209.92507148
_cell_formula_units_Z   1
loop_
 _symmetry_equiv_pos_site_id
 _symmetry_equiv_pos_as_xyz
  1  'x, y, z'
loop_
 _atom_site_type_symbol
 _atom_site_label
 _atom_site_symmetry_multiplicity
 _atom_site_fract_x
 _atom_site_fract_y
 _atom_site_fract_z
 _atom_site_occupancy
  Ba  Ba0  1  0.36377863  0.63622137  0.50000000  1.0
  Ba  Ba1  1  -0.36377863  0.36377863  0.50000000  1.0
  Gd  Gd2  1  0.50000000  0.50000000  0.50000000  1.0
  Cu  Cu3  1  0.21311703  0.78688297  0.00000000  1.0
  Cu  Cu4  1  -0.21311703  0.21311703  0.00000000  1.0
  Cu  Cu5  1  0.06230515  0.93769485  0.00000000  1.0
  Cu  Cu6  1  -0.06230515  0.06230515  0.00000000  1.0
  O  O7  1  0.05370353  0.94629647  0.50000000  1.0
  O  O8  1  -0.05370353  0.05370353  0.50000000  1.0
  O  O9  1  0.44658732  0.55341268  0.00000000  1.0
  O  O10  1  -0.44658732  0.44658732  0.00000000  1.0
  O  O11  1  0.28183816  0.71816184  0.00000000  1.0
  O  O12  1  -0.28183816  0.28183816  0.00000000  1.0
  O  O13  1  0.14610215  0.85389785  0.00000000  1.0
  O  O14  1  -0.14610215  0.14610215  0.00000000  1.0
