# generated using pymatgen
data_HgPb2Br3O2
_symmetry_space_group_name_H-M   'P 1'
_cell_length_a   8.38083343
_cell_length_b   8.38083343
_cell_length_c   14.95529942
_cell_angle_alpha   90.00000000
_cell_angle_beta   90.00000000
_cell_angle_gamma   56.87707423
_symmetry_Int_Tables_number   1
_chemical_formula_structural   HgPb2Br3O2
_chemical_formula_sum   'Hg4 Pb8 Br12 O8'
_cell_volume   879.74016054
_cell_formula_units_Z   4
loop_
 _symmetry_equiv_pos_site_id
 _symmetry_equiv_pos_as_xyz
  1  'x, y, z'
loop_
 _atom_site_type_symbol
 _atom_site_label
 _atom_site_symmetry_multiplicity
 _atom_site_fract_x
 _atom_site_fract_y
 _atom_site_fract_z
 _atom_site_occupancy
  Br  Br0  1  -0.02116939  0.60055694  0.50163093  1.0
  Br  Br1  1  -0.10055694  0.52116939  0.00163093  1.0
  Br  Br2  1  -0.60055694  1.02116939  0.49836907  1.0
  Br  Br3  1  -0.52116939  1.10055694  0.99836907  1.0
  Br  Br4  1  -0.17421927  0.72606053  0.75012668  1.0
  Br  Br5  1  -0.22606053  0.67421927  0.25012668  1.0
  Br  Br6  1  -0.72606053  1.17421927  0.24987332  1.0
  Br  Br7  1  -0.67421927  1.22606053  0.74987332  1.0
  Br  Br8  1  -0.28311938  0.32415163  0.78761692  1.0
  Br  Br9  1  0.17584837  0.78311938  0.28761692  1.0
  Br  Br10  1  -0.32415163  1.28311938  0.21238308  1.0
  Br  Br11  1  -0.78311938  0.82415163  0.71238308  1.0
  O  O12  1  -0.12973491  0.27796572  0.56589708  1.0
  O  O13  1  0.22203428  0.62973491  0.06589708  1.0
  O  O14  1  -0.27796572  1.12973491  0.43410292  1.0
  O  O15  1  -0.62973491  0.77796572  0.93410292  1.0
  O  O16  1  -0.03161833  0.92279090  0.94026562  1.0
  O  O17  1  -0.42279090  0.53161833  0.44026562  1.0
  O  O18  1  -0.92279090  1.03161833  0.05973438  1.0
  O  O19  1  -0.53161833  1.42279090  0.55973438  1.0
  Pb  Pb20  1  -0.41271129  0.60978478  0.58738689  1.0
  Pb  Pb21  1  -0.10978478  0.91271129  0.08738689  1.0
  Pb  Pb22  1  0.39021522  0.41271129  0.41261311  1.0
  Pb  Pb23  1  0.08728871  0.10978478  0.91261311  1.0
  Pb  Pb24  1  0.21605042  0.61301823  0.90487553  1.0
  Pb  Pb25  1  -0.11301823  0.28394958  0.40487553  1.0
  Pb  Pb26  1  -0.61301823  0.78394958  0.09512447  1.0
  Pb  Pb27  1  -0.28394958  1.11301823  0.59512447  1.0
  Hg  Hg28  1  0.09776128  0.22971043  0.64340384  1.0
  Hg  Hg29  1  0.27028957  0.40223872  0.14340384  1.0
  Hg  Hg30  1  -0.22971043  0.90223872  0.35659616  1.0
  Hg  Hg31  1  -0.40223872  0.72971043  0.85659616  1.0
