# generated using pymatgen
data_K2SbF5
_symmetry_space_group_name_H-M   'P 1'
_cell_length_a   8.00832042
_cell_length_b   6.52010871
_cell_length_c   12.99762970
_cell_angle_alpha   90.00000000
_cell_angle_beta   112.88523378
_cell_angle_gamma   90.00000000
_symmetry_Int_Tables_number   1
_chemical_formula_structural   K2SbF5
_chemical_formula_sum   'K8 Sb4 F20'
_cell_volume   625.25151008
_cell_formula_units_Z   4
loop_
 _symmetry_equiv_pos_site_id
 _symmetry_equiv_pos_as_xyz
  1  'x, y, z'
loop_
 _atom_site_type_symbol
 _atom_site_label
 _atom_site_symmetry_multiplicity
 _atom_site_fract_x
 _atom_site_fract_y
 _atom_site_fract_z
 _atom_site_occupancy
  K  K0  1  0.99319768  0.24940855  0.11940711  1.0
  K  K1  1  0.99319768  0.25059145  0.61940711  1.0
  K  K2  1  0.00680232  0.74940855  0.38059289  1.0
  K  K3  1  0.00680232  0.75059145  0.88059289  1.0
  K  K4  1  0.31861498  0.23233946  0.44018628  1.0
  K  K5  1  0.31861498  0.26766054  0.94018628  1.0
  K  K6  1  0.68138502  0.73233946  0.05981372  1.0
  K  K7  1  0.68138502  0.76766054  0.55981372  1.0
  Sb  Sb8  1  0.69171756  0.26560742  0.30717599  1.0
  Sb  Sb9  1  0.69171756  0.23439258  0.80717599  1.0
  Sb  Sb10  1  0.30828244  0.76560742  0.19282401  1.0
  Sb  Sb11  1  0.30828244  0.73439258  0.69282401  1.0
  F  F12  1  0.94928868  0.18766346  0.40153879  1.0
  F  F13  1  0.94928868  0.31233654  0.90153879  1.0
  F  F14  1  0.05071132  0.68766346  0.09846121  1.0
  F  F15  1  0.05071132  0.81233654  0.59846121  1.0
  F  F16  1  0.82204513  0.45692645  0.22820005  1.0
  F  F17  1  0.82204513  0.04307355  0.72820005  1.0
  F  F18  1  0.17795487  0.95692645  0.27179995  1.0
  F  F19  1  0.17795487  0.54307355  0.77179995  1.0
  F  F20  1  0.75696011  0.50330124  0.42821833  1.0
  F  F21  1  0.75696011  -0.00330124  0.92821833  1.0
  F  F22  1  0.24303989  1.00330124  0.07178167  1.0
  F  F23  1  0.24303989  0.49669876  0.57178167  1.0
  F  F24  1  0.73308469  0.00863286  0.21652383  1.0
  F  F25  1  0.73308469  0.49136714  0.71652383  1.0
  F  F26  1  0.26691531  0.50863286  0.28347617  1.0
  F  F27  1  0.26691531  0.99136714  0.78347617  1.0
  F  F28  1  0.64572547  0.08987915  0.43351028  1.0
  F  F29  1  0.64572547  0.41012085  0.93351028  1.0
  F  F30  1  0.35427453  0.58987915  0.06648972  1.0
  F  F31  1  0.35427453  0.91012085  0.56648972  1.0
