# generated using pymatgen
data_Na2Tl
_symmetry_space_group_name_H-M   'P 1'
_cell_length_a   8.36314027
_cell_length_b   8.36314027
_cell_length_c   8.36314027
_cell_angle_alpha   60.00000000
_cell_angle_beta   60.00000000
_cell_angle_gamma   60.00000000
_symmetry_Int_Tables_number   1
_chemical_formula_structural   Na2Tl
_chemical_formula_sum   'Na8 Tl4'
_cell_volume   413.61201445
_cell_formula_units_Z   4
loop_
 _symmetry_equiv_pos_site_id
 _symmetry_equiv_pos_as_xyz
  1  'x, y, z'
loop_
 _atom_site_type_symbol
 _atom_site_label
 _atom_site_symmetry_multiplicity
 _atom_site_fract_x
 _atom_site_fract_y
 _atom_site_fract_z
 _atom_site_occupancy
  Na  Na0  1  -0.10578358  0.89421642  0.31735073  1.0
  Na  Na1  1  0.89421642  -0.68264927  0.89421642  1.0
  Na  Na2  1  0.35578358  0.35578358  0.35578358  1.0
  Na  Na3  1  -0.06735073  0.35578358  0.35578358  1.0
  Na  Na4  1  -0.68264927  0.89421642  0.89421642  1.0
  Na  Na5  1  0.89421642  -0.10578358  0.89421642  1.0
  Na  Na6  1  0.35578358  -0.06735073  0.35578358  1.0
  Na  Na7  1  0.35578358  0.35578358  -0.06735073  1.0
  Tl  Tl8  1  0.62500000  -0.37500000  1.12500000  1.0
  Tl  Tl9  1  0.62500000  0.12500000  0.62500000  1.0
  Tl  Tl10  1  0.62500000  -0.37500000  0.62500000  1.0
  Tl  Tl11  1  1.12500000  -0.37500000  0.62500000  1.0
