# generated using pymatgen
data_Ti3B4
_symmetry_space_group_name_H-M   'P 1'
_cell_length_a   7.22091389
_cell_length_b   7.22091389
_cell_length_c   7.22091389
_cell_angle_alpha   155.71549039
_cell_angle_beta   153.90823108
_cell_angle_gamma   35.94261710
_symmetry_Int_Tables_number   1
_chemical_formula_structural   Ti3B4
_chemical_formula_sum   'Ti3 B4'
_cell_volume   68.01837345
_cell_formula_units_Z   1
loop_
 _symmetry_equiv_pos_site_id
 _symmetry_equiv_pos_as_xyz
  1  'x, y, z'
loop_
 _atom_site_type_symbol
 _atom_site_label
 _atom_site_symmetry_multiplicity
 _atom_site_fract_x
 _atom_site_fract_y
 _atom_site_fract_z
 _atom_site_occupancy
  Ti  Ti0  1  0.81479186  0.31479186  0.50000000  1.0
  Ti  Ti1  1  0.18520814  0.68520814  0.50000000  1.0
  Ti  Ti2  1  0.00000000  0.00000000  0.00000000  1.0
  B  B3  1  0.63169729  0.13169729  0.50000000  1.0
  B  B4  1  0.36830271  0.86830271  0.50000000  1.0
  B  B5  1  0.56436303  0.56436303  1.00000000  1.0
  B  B6  1  0.43563697  0.43563697  -0.00000000  1.0
