# generated using pymatgen
data_Rb6Si10O23
_symmetry_space_group_name_H-M   'P 1'
_cell_length_a   9.54990218
_cell_length_b   9.54990218
_cell_length_c   8.20763999
_cell_angle_alpha   90.00000000
_cell_angle_beta   90.00000000
_cell_angle_gamma   59.52973067
_symmetry_Int_Tables_number   1
_chemical_formula_structural   Rb6Si10O23
_chemical_formula_sum   'Rb6 Si10 O23'
_cell_volume   645.16262278
_cell_formula_units_Z   1
loop_
 _symmetry_equiv_pos_site_id
 _symmetry_equiv_pos_as_xyz
  1  'x, y, z'
loop_
 _atom_site_type_symbol
 _atom_site_label
 _atom_site_symmetry_multiplicity
 _atom_site_fract_x
 _atom_site_fract_y
 _atom_site_fract_z
 _atom_site_occupancy
  Rb  Rb0  1  -0.23243065  0.47247537  0.50000000  1.0
  Rb  Rb1  1  -0.47247537  1.23243065  0.50000000  1.0
  Rb  Rb2  1  -0.24514065  0.48718112  0.00000000  1.0
  Rb  Rb3  1  -0.48718112  1.24514065  0.00000000  1.0
  Rb  Rb4  1  -0.99328331  0.99328331  0.50000000  1.0
  Rb  Rb5  1  -0.00331381  0.00331381  0.00000000  1.0
  Si  Si6  1  0.16577735  0.22509939  0.19043897  1.0
  Si  Si7  1  -0.22509939  0.83422265  0.19043897  1.0
  Si  Si8  1  0.16577735  0.22509939  0.80956103  1.0
  Si  Si9  1  -0.22509939  0.83422265  0.80956103  1.0
  Si  Si10  1  0.10045942  0.55542515  0.31184273  1.0
  Si  Si11  1  -0.55542515  0.89954058  0.31184273  1.0
  Si  Si12  1  0.10045942  0.55542515  0.68815727  1.0
  Si  Si13  1  -0.55542515  0.89954058  0.68815727  1.0
  Si  Si14  1  -0.64407510  0.64407510  0.19748839  1.0
  Si  Si15  1  -0.64407510  0.64407510  0.80251161  1.0
  O  O16  1  0.17520020  0.39536901  0.19556287  1.0
  O  O17  1  -0.39536901  0.82479980  0.19556287  1.0
  O  O18  1  0.17520020  0.39536901  0.80443713  1.0
  O  O19  1  -0.39536901  0.82479980  0.80443713  1.0
  O  O20  1  -0.00037711  0.24226416  0.24835046  1.0
  O  O21  1  -0.24226416  1.00037711  0.24835046  1.0
  O  O22  1  -0.00037711  0.24226416  0.75164954  1.0
  O  O23  1  -0.24226416  1.00037711  0.75164954  1.0
  O  O24  1  0.18271989  0.66417664  0.26915879  1.0
  O  O25  1  -0.66417664  0.81728011  0.26915879  1.0
  O  O26  1  0.18271989  0.66417664  0.73084121  1.0
  O  O27  1  -0.66417664  0.81728011  0.73084121  1.0
  O  O28  1  -0.09643828  0.66850300  0.29674622  1.0
  O  O29  1  -0.66850300  1.09643828  0.29674622  1.0
  O  O30  1  -0.09643828  0.66850300  0.70325378  1.0
  O  O31  1  -0.66850300  1.09643828  0.70325378  1.0
  O  O32  1  0.14415094  0.48846284  0.50000000  1.0
  O  O33  1  -0.48846284  0.85584906  0.50000000  1.0
  O  O34  1  -0.16048561  0.78279956  0.00000000  1.0
  O  O35  1  -0.78279956  1.16048561  0.00000000  1.0
  O  O36  1  -0.48189737  0.48189737  0.24325797  1.0
  O  O37  1  -0.48189737  0.48189737  0.75674203  1.0
  O  O38  1  -0.67804136  0.67804136  0.00000000  1.0
