# generated using pymatgen
data_CsLaCdTe3
_symmetry_space_group_name_H-M   'P 1'
_cell_length_a   8.97899130
_cell_length_b   8.97899130
_cell_length_c   12.30494368
_cell_angle_alpha   90.00000000
_cell_angle_beta   90.00000000
_cell_angle_gamma   149.71718806
_symmetry_Int_Tables_number   1
_chemical_formula_structural   CsLaCdTe3
_chemical_formula_sum   'Cs2 La2 Cd2 Te6'
_cell_volume   500.26100597
_cell_formula_units_Z   2
loop_
 _symmetry_equiv_pos_site_id
 _symmetry_equiv_pos_as_xyz
  1  'x, y, z'
loop_
 _atom_site_type_symbol
 _atom_site_label
 _atom_site_symmetry_multiplicity
 _atom_site_fract_x
 _atom_site_fract_y
 _atom_site_fract_z
 _atom_site_occupancy
  Cs  Cs0  1  -0.24994693  0.24994693  0.75000000  1.0
  Cs  Cs1  1  0.24994693  0.75005307  0.25000000  1.0
  La  La2  1  0.00000000  0.00000000  0.00000000  1.0
  La  La3  1  0.00000000  0.00000000  0.50000000  1.0
  Cd  Cd4  1  0.46540820  0.53459180  0.75000000  1.0
  Cd  Cd5  1  -0.46540820  0.46540820  0.25000000  1.0
  Te  Te6  1  0.37648082  0.62351918  0.94325716  1.0
  Te  Te7  1  0.37648082  0.62351918  0.55674284  1.0
  Te  Te8  1  -0.37648082  0.37648082  0.44325716  1.0
  Te  Te9  1  -0.37648082  0.37648082  0.05674284  1.0
  Te  Te10  1  0.06669376  0.93330624  0.75000000  1.0
  Te  Te11  1  -0.06669376  0.06669376  0.25000000  1.0
