# generated using pymatgen
data_YTl(WO4)2
_symmetry_space_group_name_H-M   'P 1'
_cell_length_a   7.58939444
_cell_length_b   7.58939444
_cell_length_c   7.61520981
_cell_angle_alpha   61.91818955
_cell_angle_beta   118.08181045
_cell_angle_gamma   91.80768937
_symmetry_Int_Tables_number   1
_chemical_formula_structural   YTl(WO4)2
_chemical_formula_sum   'Y2 Tl2 W4 O16'
_cell_volume   331.10092912
_cell_formula_units_Z   2
loop_
 _symmetry_equiv_pos_site_id
 _symmetry_equiv_pos_as_xyz
  1  'x, y, z'
loop_
 _atom_site_type_symbol
 _atom_site_label
 _atom_site_symmetry_multiplicity
 _atom_site_fract_x
 _atom_site_fract_y
 _atom_site_fract_z
 _atom_site_occupancy
  Y  Y0  1  0.77386496  0.77386496  0.25000000  1.0
  Y  Y1  1  0.22613504  0.22613504  0.75000000  1.0
  Tl  Tl2  1  0.20607461  0.20607461  0.25000000  1.0
  Tl  Tl3  1  0.79392539  0.79392539  0.75000000  1.0
  W  W4  1  0.69608691  0.30482037  0.23115734  1.0
  W  W5  1  0.69517963  0.30391309  0.73115734  1.0
  W  W6  1  1.30482037  -0.30391309  0.26884266  1.0
  W  W7  1  1.30391309  -0.30482037  0.76884266  1.0
  O  O8  1  1.58729566  -0.37155030  0.03407258  1.0
  O  O9  1  1.37155030  -0.58729566  0.53407258  1.0
  O  O10  1  0.62844970  0.58729566  0.46592742  1.0
  O  O11  1  0.41270434  0.37155030  0.96592742  1.0
  O  O12  1  0.78044027  0.04682936  0.30441067  1.0
  O  O13  1  0.95317064  0.21955973  0.80441067  1.0
  O  O14  1  1.04682936  -0.21955973  0.19558933  1.0
  O  O15  1  1.21955973  -0.04682936  0.69558933  1.0
  O  O16  1  1.37328244  -0.06509671  0.12264579  1.0
  O  O17  1  1.06509671  -0.37328244  0.62264579  1.0
  O  O18  1  0.93490329  0.37328244  0.37735421  1.0
  O  O19  1  0.62671756  0.06509671  0.87735421  1.0
  O  O20  1  0.61811828  0.23886261  0.44141653  1.0
  O  O21  1  0.76113739  0.38188172  0.94141653  1.0
  O  O22  1  1.23886261  -0.38188172  0.05858347  1.0
  O  O23  1  1.38188172  -0.23886261  0.55858347  1.0
