# generated using pymatgen
data_Y4Ti(SeO)4
_symmetry_space_group_name_H-M   'P 1'
_cell_length_a   8.13047830
_cell_length_b   8.13047830
_cell_length_c   9.68133840
_cell_angle_alpha   62.86381339
_cell_angle_beta   117.13618661
_cell_angle_gamma   153.58549181
_symmetry_Int_Tables_number   1
_chemical_formula_structural   Y4Ti(SeO)4
_chemical_formula_sum   'Y4 Ti1 Se4 O4'
_cell_volume   251.52536208
_cell_formula_units_Z   1
loop_
 _symmetry_equiv_pos_site_id
 _symmetry_equiv_pos_as_xyz
  1  'x, y, z'
loop_
 _atom_site_type_symbol
 _atom_site_label
 _atom_site_symmetry_multiplicity
 _atom_site_fract_x
 _atom_site_fract_y
 _atom_site_fract_z
 _atom_site_occupancy
  Y  Y0  1  1.47395338  -0.47395338  0.66804118  1.0
  Y  Y1  1  0.52604662  0.47395338  0.33195882  1.0
  Y  Y2  1  0.77803040  0.22196960  0.67181836  1.0
  Y  Y3  1  1.22196960  -0.22196960  0.32818164  1.0
  Ti  Ti4  1  0.00000000  0.00000000  0.00000000  1.0
  Se  Se5  1  0.88362137  -0.88362137  0.36737252  1.0
  Se  Se6  1  0.11637863  -0.11637863  0.63262748  1.0
  Se  Se7  1  0.37707412  -0.37707412  0.98352902  1.0
  Se  Se8  1  0.62292588  -0.62292588  0.01647098  1.0
  O  O9  1  0.94832862  -0.94832862  0.77741301  1.0
  O  O10  1  0.05167138  -0.05167138  0.22258699  1.0
  O  O11  1  0.68267845  0.31732155  0.41041463  1.0
  O  O12  1  1.31732155  -0.31732155  0.58958537  1.0
