# generated using pymatgen
data_KMnH2OF4
_symmetry_space_group_name_H-M   'P 1'
_cell_length_a   7.67143415
_cell_length_b   7.67143415
_cell_length_c   10.86659623
_cell_angle_alpha   76.84202313
_cell_angle_beta   103.15797687
_cell_angle_gamma   130.63884097
_symmetry_Int_Tables_number   1
_chemical_formula_structural   KMnH2OF4
_chemical_formula_sum   'K4 Mn4 H8 O4 F16'
_cell_volume   469.80349446
_cell_formula_units_Z   4
loop_
 _symmetry_equiv_pos_site_id
 _symmetry_equiv_pos_as_xyz
  1  'x, y, z'
loop_
 _atom_site_type_symbol
 _atom_site_label
 _atom_site_symmetry_multiplicity
 _atom_site_fract_x
 _atom_site_fract_y
 _atom_site_fract_z
 _atom_site_occupancy
  K  K0  1  0.31803842  0.15352781  0.94913724  1.0
  K  K1  1  0.84647219  0.68196158  0.44913724  1.0
  K  K2  1  1.15352781  0.31803842  0.55086276  1.0
  K  K3  1  0.68196158  -0.15352781  0.05086276  1.0
  Mn  Mn4  1  0.74420353  0.74420353  0.75000000  1.0
  Mn  Mn5  1  0.25579647  0.25579647  0.25000000  1.0
  Mn  Mn6  1  0.50000000  -0.00000000  0.50000000  1.0
  Mn  Mn7  1  1.00000000  0.50000000  -0.00000000  1.0
  H  H8  1  0.69107644  0.10665191  0.74861513  1.0
  H  H9  1  0.89334809  0.30892356  0.24861513  1.0
  H  H10  1  1.10665191  0.69107644  0.75138487  1.0
  H  H11  1  0.30892356  -0.10665191  0.25138487  1.0
  H  H12  1  0.58893016  0.23516663  0.69835777  1.0
  H  H13  1  0.76483337  0.41106984  0.19835777  1.0
  H  H14  1  1.23516663  0.58893016  0.80164223  1.0
  H  H15  1  0.41106984  -0.23516663  0.30164223  1.0
  O  O16  1  0.55864848  0.08949359  0.69712599  1.0
  O  O17  1  0.91050641  0.44135152  0.19712599  1.0
  O  O18  1  1.08949359  0.55864848  0.80287401  1.0
  O  O19  1  0.44135152  -0.08949359  0.30287401  1.0
  F  F20  1  0.47340316  -0.40195448  0.82179904  1.0
  F  F21  1  1.40195448  0.52659684  0.32179904  1.0
  F  F22  1  0.59804552  0.47340316  0.67820096  1.0
  F  F23  1  0.52659684  0.40195448  0.17820096  1.0
  F  F24  1  0.88048568  0.01786969  0.81373418  1.0
  F  F25  1  0.98213031  0.11951432  0.31373418  1.0
  F  F26  1  1.01786969  0.88048568  0.68626582  1.0
  F  F27  1  0.11951432  -0.01786969  0.18626582  1.0
  F  F28  1  0.65531532  -0.12777254  0.56459518  1.0
  F  F29  1  1.12777254  0.34468468  0.06459518  1.0
  F  F30  1  0.87222746  0.65531532  0.93540482  1.0
  F  F31  1  0.34468468  0.12777254  0.43540482  1.0
  F  F32  1  0.71632264  0.22400675  0.96393718  1.0
  F  F33  1  0.77599325  0.28367736  0.46393718  1.0
  F  F34  1  1.22400675  0.71632264  0.53606282  1.0
  F  F35  1  0.28367736  -0.22400675  0.03606282  1.0
