# generated using pymatgen
data_KMg3As3PdO12
_symmetry_space_group_name_H-M   'P 1'
_cell_length_a   9.00920499
_cell_length_b   9.00920499
_cell_length_c   6.85581392
_cell_angle_alpha   74.65662591
_cell_angle_beta   105.34337409
_cell_angle_gamma   86.62343147
_symmetry_Int_Tables_number   1
_chemical_formula_structural   KMg3As3PdO12
_chemical_formula_sum   'K2 Mg6 As6 Pd2 O24'
_cell_volume   512.50119171
_cell_formula_units_Z   2
loop_
 _symmetry_equiv_pos_site_id
 _symmetry_equiv_pos_as_xyz
  1  'x, y, z'
loop_
 _atom_site_type_symbol
 _atom_site_label
 _atom_site_symmetry_multiplicity
 _atom_site_fract_x
 _atom_site_fract_y
 _atom_site_fract_z
 _atom_site_occupancy
  K  K0  1  0.51240686  -0.48759314  0.75000000  1.0
  K  K1  1  1.48759314  0.48759314  0.25000000  1.0
  Mg  Mg2  1  1.56037392  0.12396472  0.62798624  1.0
  Mg  Mg3  1  0.87603528  -0.56037393  0.12798624  1.0
  Mg  Mg4  1  1.12396472  0.56037393  0.87201376  1.0
  Mg  Mg5  1  0.43962607  -0.12396472  0.37201376  1.0
  Mg  Mg6  1  1.24530629  0.24530629  0.75000000  1.0
  Mg  Mg7  1  0.75469371  -0.24530629  0.25000000  1.0
  As  As8  1  0.37880766  -0.14703949  0.87187674  1.0
  As  As9  1  1.14703949  0.62119234  0.37187674  1.0
  As  As10  1  0.85296051  -0.62119234  0.62812326  1.0
  As  As11  1  1.62119234  0.14703949  0.12812326  1.0
  As  As12  1  0.78005670  -0.21994330  0.75000000  1.0
  As  As13  1  1.21994330  0.21994330  0.25000000  1.0
  Pd  Pd14  1  0.99584863  -0.00415137  0.75000000  1.0
  Pd  Pd15  1  1.00415137  0.00415137  0.25000000  1.0
  O  O16  1  0.67053947  -0.25576597  0.52145723  1.0
  O  O17  1  1.25576597  0.32946053  0.02145723  1.0
  O  O18  1  0.74423403  -0.32946053  0.97854277  1.0
  O  O19  1  1.32946053  0.25576597  0.47854277  1.0
  O  O20  1  0.76825929  -0.01865417  0.72871524  1.0
  O  O21  1  1.01865417  0.23174071  0.22871524  1.0
  O  O22  1  0.98134583  -0.23174071  0.77128476  1.0
  O  O23  1  1.23174071  0.01865417  0.27128476  1.0
  O  O24  1  0.47508165  -0.09529059  0.67980736  1.0
  O  O25  1  1.09529059  0.52491835  0.17980736  1.0
  O  O26  1  0.90470941  -0.52491835  0.82019264  1.0
  O  O27  1  1.52491835  0.09529059  0.32019264  1.0
  O  O28  1  1.67803229  0.31247902  0.62449845  1.0
  O  O29  1  0.68752098  -0.67803229  0.12449845  1.0
  O  O30  1  1.31247902  0.67803229  0.87550155  1.0
  O  O31  1  0.32196771  -0.31247902  0.37550155  1.0
  O  O32  1  1.49165268  0.17010369  0.87914622  1.0
  O  O33  1  0.82989631  -0.49165268  0.37914622  1.0
  O  O34  1  1.17010369  0.49165268  0.62085378  1.0
  O  O35  1  0.50834732  -0.17010369  0.12085378  1.0
  O  O36  1  1.22925512  0.00667277  0.81235155  1.0
  O  O37  1  0.99332723  -0.22925512  0.31235155  1.0
  O  O38  1  1.00667277  0.22925512  0.68764845  1.0
  O  O39  1  0.77074488  -0.00667277  0.18764845  1.0
