# generated using pymatgen
data_KLiBeF4
_symmetry_space_group_name_H-M   'P 1'
_cell_length_a   5.13842613
_cell_length_b   5.13842613
_cell_length_c   8.73666682
_cell_angle_alpha   90.00000000
_cell_angle_beta   90.00000000
_cell_angle_gamma   120.00000000
_symmetry_Int_Tables_number   1
_chemical_formula_structural   KLiBeF4
_chemical_formula_sum   'K2 Li2 Be2 F8'
_cell_volume   199.77293022
_cell_formula_units_Z   2
loop_
 _symmetry_equiv_pos_site_id
 _symmetry_equiv_pos_as_xyz
  1  'x, y, z'
loop_
 _atom_site_type_symbol
 _atom_site_label
 _atom_site_symmetry_multiplicity
 _atom_site_fract_x
 _atom_site_fract_y
 _atom_site_fract_z
 _atom_site_occupancy
  Li  Li0  1  0.33333333  0.66666667  0.78948668  1.0
  Li  Li1  1  0.66666667  0.33333333  0.28948668  1.0
  K  K2  1  0.00000000  0.00000000  -0.01724474  1.0
  K  K3  1  0.00000000  0.00000000  0.48275526  1.0
  F  F4  1  0.33333333  0.66666667  1.00116389  1.0
  F  F5  1  0.66666667  0.33333333  0.50116389  1.0
  F  F6  1  0.34156188  0.96064107  0.23652795  1.0
  F  F7  1  0.96064107  0.61907919  0.73652795  1.0
  F  F8  1  0.61907919  0.65843812  0.23652795  1.0
  F  F9  1  0.03935893  0.38092081  0.23652795  1.0
  F  F10  1  0.65843812  0.03935893  0.73652795  1.0
  F  F11  1  0.38092081  0.34156188  0.73652795  1.0
  Be  Be12  1  0.33333333  0.66666667  0.18101032  1.0
  Be  Be13  1  0.66666667  0.33333333  0.68101032  1.0
