# generated using pymatgen
data_BaAlAu
_symmetry_space_group_name_H-M   'P 1'
_cell_length_a   7.03354148
_cell_length_b   7.03354148
_cell_length_c   7.03354148
_cell_angle_alpha   90.00000000
_cell_angle_beta   90.00000000
_cell_angle_gamma   90.00000000
_symmetry_Int_Tables_number   1
_chemical_formula_structural   BaAlAu
_chemical_formula_sum   'Ba4 Al4 Au4'
_cell_volume   347.95426082
_cell_formula_units_Z   4
loop_
 _symmetry_equiv_pos_site_id
 _symmetry_equiv_pos_as_xyz
  1  'x, y, z'
loop_
 _atom_site_type_symbol
 _atom_site_label
 _atom_site_symmetry_multiplicity
 _atom_site_fract_x
 _atom_site_fract_y
 _atom_site_fract_z
 _atom_site_occupancy
  Ba  Ba0  1  0.10951424  0.60951424  0.89048576  1.0
  Ba  Ba1  1  0.60951424  0.89048576  0.10951424  1.0
  Ba  Ba2  1  0.89048576  0.10951424  0.60951424  1.0
  Ba  Ba3  1  0.39048576  0.39048576  0.39048576  1.0
  Al  Al4  1  0.40672653  0.90672653  0.59327347  1.0
  Al  Al5  1  0.90672653  0.59327347  0.40672653  1.0
  Al  Al6  1  0.59327347  0.40672653  0.90672653  1.0
  Al  Al7  1  0.09327347  0.09327347  0.09327347  1.0
  Au  Au8  1  0.83627623  0.33627623  0.16372377  1.0
  Au  Au9  1  0.33627623  0.16372377  0.83627623  1.0
  Au  Au10  1  0.16372377  0.83627623  0.33627623  1.0
  Au  Au11  1  0.66372377  0.66372377  0.66372377  1.0
