# generated using pymatgen
data_Li2Al2(SiO4)3
_symmetry_space_group_name_H-M   'P 1'
_cell_length_a   9.86869637
_cell_length_b   9.86225438
_cell_length_c   13.15234654
_cell_angle_alpha   48.21692131
_cell_angle_beta   48.17508280
_cell_angle_gamma   83.60799589
_symmetry_Int_Tables_number   1
_chemical_formula_structural   Li2Al2(SiO4)3
_chemical_formula_sum   'Li4 Al4 Si6 O24'
_cell_volume   569.41768030
_cell_formula_units_Z   2
loop_
 _symmetry_equiv_pos_site_id
 _symmetry_equiv_pos_as_xyz
  1  'x, y, z'
loop_
 _atom_site_type_symbol
 _atom_site_label
 _atom_site_symmetry_multiplicity
 _atom_site_fract_x
 _atom_site_fract_y
 _atom_site_fract_z
 _atom_site_occupancy
  Li  Li0  1  0.76516279  0.45649503  0.13901832  1.0
  Li  Li1  1  1.11098168  0.61067613  -0.51516279  1.0
  Li  Li2  1  0.45649503  0.76516279  -0.36067613  1.0
  Li  Li3  1  0.61067613  1.11098168  -0.20649503  1.0
  Si  Si4  1  0.56326030  0.68213085  0.00845377  1.0
  Si  Si5  1  1.24154623  0.50384492  -0.31326030  1.0
  Si  Si6  1  0.68213085  0.56326030  -0.25384492  1.0
  Si  Si7  1  0.50384492  1.24154623  -0.43213085  1.0
  Si  Si8  1  1.00186914  0.00186914  -0.00186914  1.0
  Si  Si9  1  0.25186914  0.25186914  0.24813086  1.0
  O  O10  1  0.59890097  0.46361833  0.33749408  1.0
  O  O11  1  0.91250592  0.65001338  -0.34890097  1.0
  O  O12  1  0.46361833  0.59890097  -0.40001338  1.0
  O  O13  1  0.65001338  0.91250592  -0.21361833  1.0
  O  O14  1  0.33437478  0.46129878  0.18202157  1.0
  O  O15  1  1.06797843  0.22769514  -0.08437478  1.0
  O  O16  1  0.46129878  0.33437478  0.02230486  1.0
  O  O17  1  0.22769514  1.06797843  -0.21129878  1.0
  O  O18  1  0.76079564  0.64339241  -0.06218032  1.0
  O  O19  1  1.31218032  0.59200773  -0.51079564  1.0
  O  O20  1  0.64339241  0.76079564  -0.34200773  1.0
  O  O21  1  0.59200773  1.31218032  -0.39339241  1.0
  O  O22  1  0.50054979  0.71468591  0.13895766  1.0
  O  O23  1  1.11104234  0.60419335  -0.25054979  1.0
  O  O24  1  0.71468591  0.50054979  -0.35419335  1.0
  O  O25  1  0.60419335  1.11104234  -0.46468591  1.0
  O  O26  1  -0.11899240  0.33492671  0.64469696  1.0
  O  O27  1  0.60530304  0.11063127  0.36899240  1.0
  O  O28  1  0.33492671  -0.11899240  0.13936873  1.0
  O  O29  1  0.11063127  0.60530304  -0.08492671  1.0
  O  O30  1  0.80425693  0.93142082  0.05095770  1.0
  O  O31  1  0.93142082  0.80425693  -0.78663545  1.0
  O  O32  1  0.19904230  0.03663545  0.44574307  1.0
  O  O33  1  0.03663545  0.19904230  0.31857918  1.0
  Al  Al34  1  0.56199055  0.68186267  0.25066228  1.0
  Al  Al35  1  0.99933772  0.74451550  -0.31199055  1.0
  Al  Al36  1  0.68186267  0.56199055  -0.49451550  1.0
  Al  Al37  1  0.74451550  0.99933772  -0.43186267  1.0
