# generated using pymatgen
data_Cr2HgO7
_symmetry_space_group_name_H-M   'P 1'
_cell_length_a   7.83892971
_cell_length_b   7.83892971
_cell_length_c   9.60184030
_cell_angle_alpha   90.00000000
_cell_angle_beta   90.00000000
_cell_angle_gamma   120.00000000
_symmetry_Int_Tables_number   1
_chemical_formula_structural   Cr2HgO7
_chemical_formula_sum   'Cr6 Hg3 O21'
_cell_volume   510.97382133
_cell_formula_units_Z   3
loop_
 _symmetry_equiv_pos_site_id
 _symmetry_equiv_pos_as_xyz
  1  'x, y, z'
loop_
 _atom_site_type_symbol
 _atom_site_label
 _atom_site_symmetry_multiplicity
 _atom_site_fract_x
 _atom_site_fract_y
 _atom_site_fract_z
 _atom_site_occupancy
  Cr  Cr0  1  0.24396110  1.00341825  0.67036644  1.0
  Cr  Cr1  1  0.75945715  0.75603890  0.33703310  1.0
  Cr  Cr2  1  -0.00341825  0.24054285  0.00369977  1.0
  Cr  Cr3  1  0.69386032  0.58510749  0.01540711  1.0
  Cr  Cr4  1  0.89124717  0.30613968  0.68207378  1.0
  Cr  Cr5  1  0.41489251  0.10875283  0.34874044  1.0
  Hg  Hg6  1  0.35162866  0.95630125  0.00987244  1.0
  Hg  Hg7  1  0.60467259  0.64837134  0.67653910  1.0
  Hg  Hg8  1  0.04369875  0.39532741  0.34320577  1.0
  O  O9  1  0.34795823  0.93838035  0.80023202  1.0
  O  O10  1  0.59042212  0.65204177  0.46689869  1.0
  O  O11  1  0.06161965  0.40957788  0.13356536  1.0
  O  O12  1  0.35986875  0.94074697  0.21933675  1.0
  O  O13  1  0.58087823  0.64013125  0.88600342  1.0
  O  O14  1  0.05925303  0.41912177  0.55267008  1.0
  O  O15  1  1.01078609  0.85769079  0.66912849  1.0
  O  O16  1  0.84690470  -0.01078609  0.33579516  1.0
  O  O17  1  0.14230921  0.15309530  0.00246182  1.0
  O  O18  1  0.92562379  0.69441072  0.99165102  1.0
  O  O19  1  0.76878694  0.07437621  0.65831769  1.0
  O  O20  1  0.30558928  0.23121306  0.32498435  1.0
  O  O21  1  0.93593548  0.71298468  0.35680294  1.0
  O  O22  1  0.77704920  0.06406452  0.02346960  1.0
  O  O23  1  0.28701532  0.22295080  0.69013627  1.0
  O  O24  1  0.64124339  0.65726705  0.17640315  1.0
  O  O25  1  1.01602366  0.35875661  0.84306981  1.0
  O  O26  1  0.34273295  -0.01602366  0.50973648  1.0
  O  O27  1  0.74102361  0.38841579  0.68576632  1.0
  O  O28  1  0.64739218  0.25897639  0.35243298  1.0
  O  O29  1  0.61158421  0.35260782  0.01909965  1.0
