# generated using pymatgen
data_SiCl2O
_symmetry_space_group_name_H-M   'P 1'
_cell_length_a   12.19899715
_cell_length_b   9.39199953
_cell_length_c   6.95434182
_cell_angle_alpha   71.49124396
_cell_angle_beta   76.30988148
_cell_angle_gamma   78.53459407
_symmetry_Int_Tables_number   1
_chemical_formula_structural   SiCl2O
_chemical_formula_sum   'Si6 Cl12 O6'
_cell_volume   727.45994295
_cell_formula_units_Z   6
loop_
 _symmetry_equiv_pos_site_id
 _symmetry_equiv_pos_as_xyz
  1  'x, y, z'
loop_
 _atom_site_type_symbol
 _atom_site_label
 _atom_site_symmetry_multiplicity
 _atom_site_fract_x
 _atom_site_fract_y
 _atom_site_fract_z
 _atom_site_occupancy
  Si  Si0  1  -0.71147277  0.00551570  -0.99401515  1.0
  Si  Si1  1  -0.28852723  -1.00551570  -0.00598485  1.0
  Si  Si2  1  -0.92466679  -0.77121561  -0.99541295  1.0
  Si  Si3  1  -0.07533321  -0.22878439  -0.00458705  1.0
  Si  Si4  1  -0.70516514  -0.67978533  -0.98286538  1.0
  Si  Si5  1  -0.29483486  -0.32021467  -0.01713462  1.0
  Cl  Cl6  1  -0.37516428  -0.46844829  -0.76651117  1.0
  Cl  Cl7  1  -0.62483572  -0.53155171  -0.23348883  1.0
  Cl  Cl8  1  -0.69229528  -0.17389493  -0.74211127  1.0
  Cl  Cl9  1  -0.30770472  -0.82610507  -0.25788873  1.0
  Cl  Cl10  1  -1.00784046  -0.31366713  -0.74407778  1.0
  Cl  Cl11  1  0.00784046  -0.68633287  -0.25592222  1.0
  Cl  Cl12  1  -0.05175160  -0.79625437  -0.74375152  1.0
  Cl  Cl13  1  -0.94824840  -0.20374563  -0.25624848  1.0
  Cl  Cl14  1  -0.36306774  -0.94326611  -0.74578151  1.0
  Cl  Cl15  1  -0.63693226  -0.05673389  -0.25421849  1.0
  Cl  Cl16  1  -0.68335452  -0.64402794  -0.72182535  1.0
  Cl  Cl17  1  -0.31664548  -0.35597206  -0.27817465  1.0
  O  O18  1  -0.84746136  -0.93584975  -0.99506340  1.0
  O  O19  1  -0.15253864  -0.06415025  -0.00493660  1.0
  O  O20  1  -0.84142548  -0.65582057  -0.98876243  1.0
  O  O21  1  -0.15857452  -0.34417943  -0.01123757  1.0
  O  O22  1  -0.65244589  -0.85427756  -0.98583601  1.0
  O  O23  1  -0.34755411  -0.14572244  -0.01416399  1.0
