# generated using pymatgen
data_CsAg7S4
_symmetry_space_group_name_H-M   'P 1'
_cell_length_a   11.34178021
_cell_length_b   11.34178021
_cell_length_c   8.51688878
_cell_angle_alpha   90.00000000
_cell_angle_beta   90.00000000
_cell_angle_gamma   90.00000000
_symmetry_Int_Tables_number   1
_chemical_formula_structural   CsAg7S4
_chemical_formula_sum   'Cs4 Ag28 S16'
_cell_volume   1095.57831934
_cell_formula_units_Z   4
loop_
 _symmetry_equiv_pos_site_id
 _symmetry_equiv_pos_as_xyz
  1  'x, y, z'
loop_
 _atom_site_type_symbol
 _atom_site_label
 _atom_site_symmetry_multiplicity
 _atom_site_fract_x
 _atom_site_fract_y
 _atom_site_fract_z
 _atom_site_occupancy
  Cs  Cs0  1  0.00000000  0.50000000  0.38014383  1.0
  Cs  Cs1  1  0.50000000  0.00000000  0.61985617  1.0
  Cs  Cs2  1  0.00000000  0.50000000  0.88132338  1.0
  Cs  Cs3  1  0.50000000  0.00000000  0.11867662  1.0
  Ag  Ag4  1  0.36441230  0.51920836  0.87938045  1.0
  Ag  Ag5  1  0.63558770  0.48079164  0.87938045  1.0
  Ag  Ag6  1  0.01920836  0.13558770  0.87938045  1.0
  Ag  Ag7  1  0.98079164  0.86441230  0.87938045  1.0
  Ag  Ag8  1  0.13558770  0.98079164  0.12061955  1.0
  Ag  Ag9  1  0.86441230  0.01920836  0.12061955  1.0
  Ag  Ag10  1  0.48079164  0.36441230  0.12061955  1.0
  Ag  Ag11  1  0.51920836  0.63558770  0.12061955  1.0
  Ag  Ag12  1  0.35771863  0.53859231  0.38858612  1.0
  Ag  Ag13  1  0.64228137  0.46140769  0.38858612  1.0
  Ag  Ag14  1  0.03859231  0.14228137  0.38858612  1.0
  Ag  Ag15  1  0.96140769  0.85771863  0.38858612  1.0
  Ag  Ag16  1  0.14228137  0.96140769  0.61141388  1.0
  Ag  Ag17  1  0.85771863  0.03859231  0.61141388  1.0
  Ag  Ag18  1  0.46140769  0.35771863  0.61141388  1.0
  Ag  Ag19  1  0.53859231  0.64228137  0.61141388  1.0
  Ag  Ag20  1  0.28876781  0.26983730  0.33832270  1.0
  Ag  Ag21  1  0.71123219  0.73016270  0.33832270  1.0
  Ag  Ag22  1  0.76983730  0.21123219  0.33832270  1.0
  Ag  Ag23  1  0.23016270  0.78876781  0.33832270  1.0
  Ag  Ag24  1  0.21123219  0.23016270  0.66167730  1.0
  Ag  Ag25  1  0.78876781  0.76983730  0.66167730  1.0
  Ag  Ag26  1  0.73016270  0.28876781  0.66167730  1.0
  Ag  Ag27  1  0.26983730  0.71123219  0.66167730  1.0
  Ag  Ag28  1  0.25000000  0.25000000  0.00000000  1.0
  Ag  Ag29  1  0.75000000  0.75000000  0.00000000  1.0
  Ag  Ag30  1  0.75000000  0.25000000  0.00000000  1.0
  Ag  Ag31  1  0.25000000  0.75000000  0.00000000  1.0
  S  S32  1  0.26256286  0.43817846  0.13525644  1.0
  S  S33  1  0.73743714  0.56182154  0.13525644  1.0
  S  S34  1  0.93817846  0.23743714  0.13525644  1.0
  S  S35  1  0.06182154  0.76256286  0.13525644  1.0
  S  S36  1  0.23743714  0.06182154  0.86474356  1.0
  S  S37  1  0.76256286  0.93817846  0.86474356  1.0
  S  S38  1  0.56182154  0.26256286  0.86474356  1.0
  S  S39  1  0.43817846  0.73743714  0.86474356  1.0
  S  S40  1  0.25717735  0.44324276  0.62873079  1.0
  S  S41  1  0.74282265  0.55675724  0.62873079  1.0
  S  S42  1  0.94324276  0.24282265  0.62873079  1.0
  S  S43  1  0.05675724  0.75717735  0.62873079  1.0
  S  S44  1  0.24282265  0.05675724  0.37126921  1.0
  S  S45  1  0.75717735  0.94324276  0.37126921  1.0
  S  S46  1  0.55675724  0.25717735  0.37126921  1.0
  S  S47  1  0.44324276  0.74282265  0.37126921  1.0
