# generated using pymatgen
data_CaCu3(RuO3)4
_symmetry_space_group_name_H-M   'P 1'
_cell_length_a   6.47171373
_cell_length_b   6.47171373
_cell_length_c   6.47171373
_cell_angle_alpha   109.47122063
_cell_angle_beta   109.47122063
_cell_angle_gamma   109.47122063
_symmetry_Int_Tables_number   1
_chemical_formula_structural   CaCu3(RuO3)4
_chemical_formula_sum   'Ca1 Cu3 Ru4 O12'
_cell_volume   208.65846279
_cell_formula_units_Z   1
loop_
 _symmetry_equiv_pos_site_id
 _symmetry_equiv_pos_as_xyz
  1  'x, y, z'
loop_
 _atom_site_type_symbol
 _atom_site_label
 _atom_site_symmetry_multiplicity
 _atom_site_fract_x
 _atom_site_fract_y
 _atom_site_fract_z
 _atom_site_occupancy
  Ca  Ca0  1  0.00000000  0.00000000  0.00000000  1.0
  Cu  Cu1  1  0.50000000  0.50000000  -0.00000000  1.0
  Cu  Cu2  1  0.00000000  0.50000000  0.50000000  1.0
  Cu  Cu3  1  0.50000000  0.00000000  0.50000000  1.0
  Ru  Ru4  1  0.50000000  1.00000000  1.00000000  1.0
  Ru  Ru5  1  0.50000000  0.50000000  0.50000000  1.0
  Ru  Ru6  1  1.00000000  1.00000000  0.50000000  1.0
  Ru  Ru7  1  1.00000000  0.50000000  1.00000000  1.0
  O  O8  1  0.82825924  1.30692241  1.13518165  1.0
  O  O9  1  0.82825924  0.69307759  0.52133683  1.0
  O  O10  1  0.17174076  0.30692241  0.47866317  1.0
  O  O11  1  0.17174076  0.69307759  0.86481835  1.0
  O  O12  1  0.52133683  0.82825924  0.69307759  1.0
  O  O13  1  1.13518165  0.82825924  1.30692241  1.0
  O  O14  1  0.69307759  0.86481835  0.17174076  1.0
  O  O15  1  0.69307759  0.52133683  0.82825924  1.0
  O  O16  1  0.86481835  0.17174076  0.69307759  1.0
  O  O17  1  0.47866317  0.17174076  0.30692241  1.0
  O  O18  1  0.30692241  0.47866317  0.17174076  1.0
  O  O19  1  1.30692241  1.13518165  0.82825924  1.0
