# generated using pymatgen
data_La3Ge
_symmetry_space_group_name_H-M   'P 1'
_cell_length_a   12.70230888
_cell_length_b   12.70230888
_cell_length_c   6.27990132
_cell_angle_alpha   90.00000000
_cell_angle_beta   90.00000000
_cell_angle_gamma   90.00000000
_symmetry_Int_Tables_number   1
_chemical_formula_structural   La3Ge
_chemical_formula_sum   'La24 Ge8'
_cell_volume   1013.25360625
_cell_formula_units_Z   8
loop_
 _symmetry_equiv_pos_site_id
 _symmetry_equiv_pos_as_xyz
  1  'x, y, z'
loop_
 _atom_site_type_symbol
 _atom_site_label
 _atom_site_symmetry_multiplicity
 _atom_site_fract_x
 _atom_site_fract_y
 _atom_site_fract_z
 _atom_site_occupancy
  La  La0  1  0.82520865  0.27640530  -0.00027397  1.0
  La  La1  1  0.17479135  0.72359470  -0.00027397  1.0
  La  La2  1  0.77640530  0.67479135  0.49972603  1.0
  La  La3  1  0.22359470  0.32520865  0.49972603  1.0
  La  La4  1  0.67479135  0.22359470  0.50027397  1.0
  La  La5  1  0.32520865  0.77640530  0.50027397  1.0
  La  La6  1  0.72359470  0.82520865  1.00027397  1.0
  La  La7  1  0.27640530  0.17479135  1.00027397  1.0
  La  La8  1  0.91830877  0.38327722  0.51592941  1.0
  La  La9  1  0.08169123  0.61672278  0.51592941  1.0
  La  La10  1  0.88327722  0.58169123  0.01592941  1.0
  La  La11  1  0.11672278  0.41830877  0.01592941  1.0
  La  La12  1  0.58169123  0.11672278  0.98407059  1.0
  La  La13  1  0.41830877  0.88327722  0.98407059  1.0
  La  La14  1  0.61672278  0.91830877  0.48407059  1.0
  La  La15  1  0.38327722  0.08169123  0.48407059  1.0
  La  La16  1  0.86437392  0.03469316  0.73681933  1.0
  La  La17  1  0.13562608  0.96530684  0.73681933  1.0
  La  La18  1  0.53469316  0.63562608  0.23681933  1.0
  La  La19  1  0.46530684  0.36437392  0.23681933  1.0
  La  La20  1  0.63562608  0.46530684  0.76318067  1.0
  La  La21  1  0.36437392  0.53469316  0.76318067  1.0
  La  La22  1  0.96530684  0.86437392  0.26318067  1.0
  La  La23  1  0.03469316  0.13562608  0.26318067  1.0
  Ge  Ge24  1  0.95254384  0.79599860  0.77205593  1.0
  Ge  Ge25  1  0.04745616  0.20400140  0.77205593  1.0
  Ge  Ge26  1  0.29599860  0.54745616  0.27205593  1.0
  Ge  Ge27  1  0.70400140  0.45254384  0.27205593  1.0
  Ge  Ge28  1  0.54745616  0.70400140  0.72794407  1.0
  Ge  Ge29  1  0.45254384  0.29599860  0.72794407  1.0
  Ge  Ge30  1  0.20400140  0.95254384  0.22794407  1.0
  Ge  Ge31  1  0.79599860  0.04745616  0.22794407  1.0
