# generated using pymatgen
data_Rb2Te(WO4)3
_symmetry_space_group_name_H-M   'P 1'
_cell_length_a   7.40812132
_cell_length_b   7.40812132
_cell_length_c   12.45521821
_cell_angle_alpha   90.00000000
_cell_angle_beta   90.00000000
_cell_angle_gamma   120.00000000
_symmetry_Int_Tables_number   1
_chemical_formula_structural   Rb2Te(WO4)3
_chemical_formula_sum   'Rb4 Te2 W6 O24'
_cell_volume   591.96788146
_cell_formula_units_Z   2
loop_
 _symmetry_equiv_pos_site_id
 _symmetry_equiv_pos_as_xyz
  1  'x, y, z'
loop_
 _atom_site_type_symbol
 _atom_site_label
 _atom_site_symmetry_multiplicity
 _atom_site_fract_x
 _atom_site_fract_y
 _atom_site_fract_z
 _atom_site_occupancy
  Rb  Rb0  1  0.33333333  0.66666667  0.07287871  1.0
  Rb  Rb1  1  0.66666667  0.33333333  0.57287871  1.0
  Rb  Rb2  1  0.33333333  0.66666667  0.45848074  1.0
  Rb  Rb3  1  0.66666667  0.33333333  0.95848074  1.0
  Te  Te4  1  -0.00000000  -0.00000000  0.00747195  1.0
  Te  Te5  1  -0.00000000  0.00000000  0.50747195  1.0
  W  W6  1  0.85402794  0.66229170  0.24757789  1.0
  W  W7  1  0.66229170  0.85402794  0.74757789  1.0
  W  W8  1  0.80826375  0.14597206  0.24757789  1.0
  W  W9  1  0.33770830  0.19173625  0.24757789  1.0
  W  W10  1  0.14597206  0.80826375  0.74757789  1.0
  W  W11  1  0.19173625  0.33770830  0.74757789  1.0
  O  O12  1  0.12635784  0.87998312  0.25514011  1.0
  O  O13  1  0.87998312  0.12635784  0.75514011  1.0
  O  O14  1  0.75362527  0.87364216  0.25514011  1.0
  O  O15  1  0.12001688  0.24637473  0.25514011  1.0
  O  O16  1  0.87364216  0.75362527  0.75514011  1.0
  O  O17  1  0.24637473  0.12001688  0.75514011  1.0
  O  O18  1  0.86289070  0.72952861  0.08131925  1.0
  O  O19  1  0.72952861  0.86289070  0.58131925  1.0
  O  O20  1  0.86663791  0.13710930  0.08131925  1.0
  O  O21  1  0.27047139  0.13336209  0.08131925  1.0
  O  O22  1  0.13710930  0.86663791  0.58131925  1.0
  O  O23  1  0.13336209  0.27047139  0.58131925  1.0
  O  O24  1  0.81063871  0.61772317  0.38749380  1.0
  O  O25  1  0.61772317  0.81063871  0.88749380  1.0
  O  O26  1  0.80708446  0.18936129  0.38749380  1.0
  O  O27  1  0.38227683  0.19291554  0.38749380  1.0
  O  O28  1  0.18936129  0.80708446  0.88749380  1.0
  O  O29  1  0.19291554  0.38227683  0.88749380  1.0
  O  O30  1  0.54888999  0.45958630  0.21249182  1.0
  O  O31  1  0.45958630  0.54888999  0.71249182  1.0
  O  O32  1  0.91069631  0.45111001  0.21249182  1.0
  O  O33  1  0.54041370  0.08930369  0.21249182  1.0
  O  O34  1  0.45111001  0.91069631  0.71249182  1.0
  O  O35  1  0.08930369  0.54041370  0.71249182  1.0
