# generated using pymatgen
data_Fe3(BO2)7
_symmetry_space_group_name_H-M   'P 1'
_cell_length_a   8.63478244
_cell_length_b   8.63478244
_cell_length_c   8.63478244
_cell_angle_alpha   59.37835148
_cell_angle_beta   59.37835148
_cell_angle_gamma   59.37835148
_symmetry_Int_Tables_number   1
_chemical_formula_structural   Fe3(BO2)7
_chemical_formula_sum   'Fe6 B14 O28'
_cell_volume   448.79785418
_cell_formula_units_Z   2
loop_
 _symmetry_equiv_pos_site_id
 _symmetry_equiv_pos_as_xyz
  1  'x, y, z'
loop_
 _atom_site_type_symbol
 _atom_site_label
 _atom_site_symmetry_multiplicity
 _atom_site_fract_x
 _atom_site_fract_y
 _atom_site_fract_z
 _atom_site_occupancy
  Fe  Fe0  1  0.96236519  -0.42144437  -0.03911526  1.0
  Fe  Fe1  1  0.46236519  0.46088474  -0.92144437  1.0
  Fe  Fe2  1  0.46088474  0.07855563  -0.53763481  1.0
  Fe  Fe3  1  0.96088474  -0.03763481  -0.42144437  1.0
  Fe  Fe4  1  0.07855563  0.46236519  -0.53911526  1.0
  Fe  Fe5  1  0.57855563  -0.03911526  -0.03763481  1.0
  O  O6  1  0.71079662  -0.05302974  0.26829325  1.0
  O  O7  1  0.21079662  0.76829325  -0.55302974  1.0
  O  O8  1  0.76829325  0.44697026  -0.78920338  1.0
  O  O9  1  1.26829325  -0.28920338  -0.05302974  1.0
  O  O10  1  0.44697026  0.21079662  -0.23170675  1.0
  O  O11  1  0.94697026  0.26829325  -0.28920338  1.0
  O  O12  1  0.61491058  0.75917709  -0.77156824  1.0
  O  O13  1  0.11491058  0.72843176  -0.74082291  1.0
  O  O14  1  0.72843176  0.25917709  -0.88508942  1.0
  O  O15  1  0.22843176  0.61491058  -0.24082291  1.0
  O  O16  1  0.25917709  0.11491058  -0.27156824  1.0
  O  O17  1  0.75917709  0.22843176  -0.38508942  1.0
  O  O18  1  0.61540508  0.46077203  -0.21759258  1.0
  O  O19  1  1.11540508  -0.71759258  -0.03922797  1.0
  O  O20  1  0.28240742  -0.03922797  0.11540508  1.0
  O  O21  1  0.78240742  0.61540508  -0.53922797  1.0
  O  O22  1  0.96077203  0.11540508  -0.71759258  1.0
  O  O23  1  0.46077203  0.78240742  -0.38459492  1.0
  O  O24  1  0.95025357  -0.30233959  0.12735519  1.0
  O  O25  1  0.45025357  0.62735519  -0.80233959  1.0
  O  O26  1  0.62735519  0.19766041  -0.54974643  1.0
  O  O27  1  1.12735519  -0.04974643  -0.30233959  1.0
  O  O28  1  0.19766041  0.45025357  -0.37264481  1.0
  O  O29  1  0.69766041  0.12735519  -0.04974643  1.0
  O  O30  1  -0.00070212  -0.00070212  -0.00070212  1.0
  O  O31  1  0.49929788  0.49929788  -0.50070212  1.0
  O  O32  1  0.80825445  -0.19174555  -0.19174555  1.0
  O  O33  1  0.30825445  0.30825445  0.30825445  1.0
  B  B34  1  0.76186047  0.75609380  -0.72957973  1.0
  B  B35  1  0.26186047  0.77042027  -0.74390620  1.0
  B  B36  1  0.77042027  0.25609380  -0.73813953  1.0
  B  B37  1  0.27042027  0.76186047  -0.24390620  1.0
  B  B38  1  0.25609380  0.26186047  -0.22957973  1.0
  B  B39  1  0.75609380  0.27042027  -0.23813953  1.0
  B  B40  1  1.08716363  -0.22059173  0.08406091  1.0
  B  B41  1  0.58716363  0.58406091  -0.72059173  1.0
  B  B42  1  0.58406091  0.27940827  -0.41283637  1.0
  B  B43  1  1.08406091  0.08716363  -0.22059173  1.0
  B  B44  1  0.27940827  0.58716363  -0.41593909  1.0
  B  B45  1  0.77940827  0.08406091  0.08716363  1.0
  B  B46  1  0.61870151  0.61870151  -0.38129849  1.0
  B  B47  1  0.11870151  0.11870151  0.11870151  1.0
