# generated using pymatgen
data_Sr2V2O5
_symmetry_space_group_name_H-M   'P 1'
_cell_length_a   10.51270590
_cell_length_b   10.51270590
_cell_length_c   6.07639356
_cell_angle_alpha   90.00000000
_cell_angle_beta   90.00000000
_cell_angle_gamma   90.00000000
_symmetry_Int_Tables_number   1
_chemical_formula_structural   Sr2V2O5
_chemical_formula_sum   'Sr8 V8 O20'
_cell_volume   671.54469798
_cell_formula_units_Z   4
loop_
 _symmetry_equiv_pos_site_id
 _symmetry_equiv_pos_as_xyz
  1  'x, y, z'
loop_
 _atom_site_type_symbol
 _atom_site_label
 _atom_site_symmetry_multiplicity
 _atom_site_fract_x
 _atom_site_fract_y
 _atom_site_fract_z
 _atom_site_occupancy
  Sr  Sr0  1  0.27815657  0.41385771  0.64889641  1.0
  Sr  Sr1  1  0.77815657  0.91385771  0.35110359  1.0
  Sr  Sr2  1  0.41385771  0.72184343  0.35110359  1.0
  Sr  Sr3  1  0.91385771  0.22184343  0.64889641  1.0
  Sr  Sr4  1  0.72184343  0.58614229  0.64889641  1.0
  Sr  Sr5  1  0.22184343  0.08614229  0.35110359  1.0
  Sr  Sr6  1  0.58614229  0.27815657  0.35110359  1.0
  Sr  Sr7  1  0.08614229  0.77815657  0.64889641  1.0
  V  V8  1  0.35856366  0.87622268  0.86191289  1.0
  V  V9  1  0.85856366  0.37622268  0.13808711  1.0
  V  V10  1  0.87622268  0.64143634  0.13808711  1.0
  V  V11  1  0.37622268  0.14143634  0.86191289  1.0
  V  V12  1  0.64143634  0.12377732  0.86191289  1.0
  V  V13  1  0.14143634  0.62377732  0.13808711  1.0
  V  V14  1  0.12377732  0.35856366  0.13808711  1.0
  V  V15  1  0.62377732  0.85856366  0.86191289  1.0
  O  O16  1  0.50782914  0.21009246  1.00891703  1.0
  O  O17  1  1.00782914  0.71009246  -0.00891703  1.0
  O  O18  1  0.21009246  0.49217086  -0.00891703  1.0
  O  O19  1  0.71009246  -0.00782914  1.00891703  1.0
  O  O20  1  0.49217086  0.78990754  1.00891703  1.0
  O  O21  1  -0.00782914  0.28990754  -0.00891703  1.0
  O  O22  1  0.78990754  0.50782914  -0.00891703  1.0
  O  O23  1  0.28990754  1.00782914  1.00891703  1.0
  O  O24  1  1.12451837  0.30336356  0.41285340  1.0
  O  O25  1  0.62451837  0.80336356  0.58714660  1.0
  O  O26  1  0.30336356  -0.12451837  0.58714660  1.0
  O  O27  1  0.80336356  0.37548163  0.41285340  1.0
  O  O28  1  -0.12451837  0.69663644  0.41285340  1.0
  O  O29  1  0.37548163  0.19663644  0.58714660  1.0
  O  O30  1  0.69663644  1.12451837  0.58714660  1.0
  O  O31  1  0.19663644  0.62451837  0.41285340  1.0
  O  O32  1  0.25000000  0.75000000  0.00000000  1.0
  O  O33  1  0.75000000  0.25000000  -0.00000000  1.0
  O  O34  1  0.75000000  0.75000000  -0.00000000  1.0
  O  O35  1  0.25000000  0.25000000  -0.00000000  1.0
