# generated using pymatgen
data_YbFe(BO3)2
_symmetry_space_group_name_H-M   'P 1'
_cell_length_a   5.93803005
_cell_length_b   5.93803005
_cell_length_c   5.93803005
_cell_angle_alpha   47.91465321
_cell_angle_beta   47.91465321
_cell_angle_gamma   47.91465321
_symmetry_Int_Tables_number   1
_chemical_formula_structural   YbFe(BO3)2
_chemical_formula_sum   'Yb1 Fe1 B2 O6'
_cell_volume   105.62851892
_cell_formula_units_Z   1
loop_
 _symmetry_equiv_pos_site_id
 _symmetry_equiv_pos_as_xyz
  1  'x, y, z'
loop_
 _atom_site_type_symbol
 _atom_site_label
 _atom_site_symmetry_multiplicity
 _atom_site_fract_x
 _atom_site_fract_y
 _atom_site_fract_z
 _atom_site_occupancy
  Yb  Yb0  1  -0.00000000  -0.00000000  0.00000000  1.0
  Fe  Fe1  1  0.50000000  0.50000000  -0.50000000  1.0
  B  B2  1  0.24083608  0.24083608  0.24083608  1.0
  B  B3  1  0.75916392  -0.24083608  -0.24083608  1.0
  O  O4  1  0.27015357  0.94423958  -0.48397297  1.0
  O  O5  1  0.48397297  -0.27015357  0.05576042  1.0
  O  O6  1  1.05576042  -0.51602703  -0.27015357  1.0
  O  O7  1  0.72984643  0.05576042  -0.51602703  1.0
  O  O8  1  0.51602703  0.27015357  -0.05576042  1.0
  O  O9  1  0.94423958  0.51602703  -0.72984643  1.0
