# generated using pymatgen
data_Y(Mo3S4)2
_symmetry_space_group_name_H-M   'P 1'
_cell_length_a   6.48609621
_cell_length_b   6.48609621
_cell_length_c   6.48609621
_cell_angle_alpha   89.46455198
_cell_angle_beta   89.46455198
_cell_angle_gamma   89.46455198
_symmetry_Int_Tables_number   1
_chemical_formula_structural   Y(Mo3S4)2
_chemical_formula_sum   'Y1 Mo6 S8'
_cell_volume   272.83093652
_cell_formula_units_Z   1
loop_
 _symmetry_equiv_pos_site_id
 _symmetry_equiv_pos_as_xyz
  1  'x, y, z'
loop_
 _atom_site_type_symbol
 _atom_site_label
 _atom_site_symmetry_multiplicity
 _atom_site_fract_x
 _atom_site_fract_y
 _atom_site_fract_z
 _atom_site_occupancy
  Y  Y0  1  0.00000000  0.00000000  0.00000000  1.0
  Mo  Mo1  1  0.44010952  0.57968944  -0.22373517  1.0
  Mo  Mo2  1  0.42031056  0.22373517  -0.44010952  1.0
  Mo  Mo3  1  0.22373517  0.55989048  -0.57968944  1.0
  Mo  Mo4  1  0.55989048  0.42031056  -0.77626483  1.0
  Mo  Mo5  1  0.57968944  0.77626483  -0.55989048  1.0
  Mo  Mo6  1  0.77626483  0.44010952  -0.42031056  1.0
  S  S7  1  0.87156353  0.63124532  -0.75156531  1.0
  S  S8  1  0.36875468  0.75156531  -0.87156353  1.0
  S  S9  1  0.75156531  0.12843647  -0.63124532  1.0
  S  S10  1  0.12843647  0.36875468  -0.24843469  1.0
  S  S11  1  0.63124532  0.24843469  -0.12843647  1.0
  S  S12  1  0.24843469  0.87156353  -0.36875468  1.0
  S  S13  1  0.76189901  0.76189901  -0.23810099  1.0
  S  S14  1  1.23810099  1.23810099  0.23810099  1.0
