# generated using pymatgen
data_Ba(Cu2As)4
_symmetry_space_group_name_H-M   'P 1'
_cell_length_a   7.71414215
_cell_length_b   7.71414215
_cell_length_c   7.71414215
_cell_angle_alpha   93.79971477
_cell_angle_beta   93.79971477
_cell_angle_gamma   150.16504911
_symmetry_Int_Tables_number   1
_chemical_formula_structural   Ba(Cu2As)4
_chemical_formula_sum   'Ba1 Cu8 As4'
_cell_volume   220.68342053
_cell_formula_units_Z   1
loop_
 _symmetry_equiv_pos_site_id
 _symmetry_equiv_pos_as_xyz
  1  'x, y, z'
loop_
 _atom_site_type_symbol
 _atom_site_label
 _atom_site_symmetry_multiplicity
 _atom_site_fract_x
 _atom_site_fract_y
 _atom_site_fract_z
 _atom_site_occupancy
  Ba  Ba0  1  0.00000000  0.00000000  0.00000000  1.0
  Cu  Cu1  1  0.98203565  0.62556477  0.60760042  1.0
  Cu  Cu2  1  0.62556477  0.01796435  0.64352912  1.0
  Cu  Cu3  1  1.01796435  1.37443523  1.39239958  1.0
  Cu  Cu4  1  0.37443523  0.98203565  1.35647088  1.0
  Cu  Cu5  1  0.67302818  0.78648930  1.45951748  1.0
  Cu  Cu6  1  0.78648930  1.32697182  1.11346112  1.0
  Cu  Cu7  1  0.32697182  0.21351070  0.54048252  1.0
  Cu  Cu8  1  1.21351070  0.67302818  0.88653888  1.0
  As  As9  1  0.75643210  0.57065697  0.32708906  1.0
  As  As10  1  0.57065697  0.24356790  0.81422487  1.0
  As  As11  1  1.24356790  1.42934303  1.67291094  1.0
  As  As12  1  0.42934303  0.75643210  1.18577513  1.0
