# generated using pymatgen
data_Lu2Te2S2O13
_symmetry_space_group_name_H-M   'P 1'
_cell_length_a   13.38927941
_cell_length_b   8.38790638
_cell_length_c   5.45199971
_cell_angle_alpha   73.14921171
_cell_angle_beta   87.33435108
_cell_angle_gamma   88.88754940
_symmetry_Int_Tables_number   1
_chemical_formula_structural   Lu2Te2S2O13
_chemical_formula_sum   'Lu4 Te4 S4 O26'
_cell_volume   585.36741160
_cell_formula_units_Z   2
loop_
 _symmetry_equiv_pos_site_id
 _symmetry_equiv_pos_as_xyz
  1  'x, y, z'
loop_
 _atom_site_type_symbol
 _atom_site_label
 _atom_site_symmetry_multiplicity
 _atom_site_fract_x
 _atom_site_fract_y
 _atom_site_fract_z
 _atom_site_occupancy
  Lu  Lu0  1  -0.11913517  -0.77387971  -0.90432105  1.0
  Lu  Lu1  1  -0.88086483  -0.22612029  -0.09567895  1.0
  Lu  Lu2  1  -0.62548947  -0.77733732  -0.76421687  1.0
  Lu  Lu3  1  -0.37451053  -0.22266268  -0.23578313  1.0
  Te  Te4  1  -0.61878042  -0.44872967  -0.45109627  1.0
  Te  Te5  1  -0.38121958  -0.55127033  -0.54890373  1.0
  Te  Te6  1  -0.86985029  -0.56811803  -0.44909338  1.0
  Te  Te7  1  -0.13014971  -0.43188197  -0.55090662  1.0
  S  S8  1  -0.37246076  -0.91914722  -0.87839962  1.0
  S  S9  1  -0.62753924  -0.08085278  -0.12160038  1.0
  S  S10  1  -0.87917096  -0.92388253  -0.72725458  1.0
  S  S11  1  -0.12082904  -0.07611747  -0.27274541  1.0
  O  O12  1  -0.28017742  -0.81399467  -0.94166257  1.0
  O  O13  1  -0.71982258  -0.18600533  -0.05833743  1.0
  O  O14  1  -0.36493128  -0.40565289  -0.88332115  1.0
  O  O15  1  -0.63506872  -0.59434711  -0.11667885  1.0
  O  O16  1  -0.60838714  -0.01434989  -0.90414763  1.0
  O  O17  1  -0.39161286  -0.98565011  -0.09585237  1.0
  O  O18  1  -0.78473115  -0.83835529  -0.84033134  1.0
  O  O19  1  -0.21526885  -0.16164471  -0.15966866  1.0
  O  O20  1  -0.45604281  -0.80799257  -0.83811141  1.0
  O  O21  1  -0.54395719  -0.19200743  -0.16188859  1.0
  O  O22  1  -0.90305579  -0.05582024  -0.84673348  1.0
  O  O23  1  -0.09694421  -0.94417976  -0.15326652  1.0
  O  O24  1  -0.96069574  -0.79389984  -0.78171910  1.0
  O  O25  1  -0.03930426  -0.20610016  -0.21828090  1.0
  O  O26  1  -0.93269358  -0.42573662  -0.74881626  1.0
  O  O27  1  -0.06730642  -0.57426338  -0.25118374  1.0
  O  O28  1  -0.53821011  -0.59735586  -0.61178313  1.0
  O  O29  1  -0.46178989  -0.40264414  -0.38821687  1.0
  O  O30  1  -0.72976038  -0.58133384  -0.59394506  1.0
  O  O31  1  -0.27023962  -0.41866616  -0.40605494  1.0
  O  O32  1  -0.87168992  -0.99487619  -0.44494918  1.0
  O  O33  1  -0.12831008  -0.00512381  -0.55505082  1.0
  O  O34  1  -0.64084600  -0.94314725  -0.36133144  1.0
  O  O35  1  -0.35915400  -0.05685275  -0.63866856  1.0
  O  O36  1  -0.83139673  -0.39684602  -0.30293029  1.0
  O  O37  1  -0.16860327  -0.60315398  -0.69706971  1.0
