# generated using pymatgen
data_Ba2Ru7O18
_symmetry_space_group_name_H-M   'P 1'
_cell_length_a   7.64345539
_cell_length_b   7.19367384
_cell_length_c   6.81042956
_cell_angle_alpha   115.72854847
_cell_angle_beta   94.39614532
_cell_angle_gamma   93.23785471
_symmetry_Int_Tables_number   1
_chemical_formula_structural   Ba2Ru7O18
_chemical_formula_sum   'Ba2 Ru7 O18'
_cell_volume   334.66772170
_cell_formula_units_Z   1
loop_
 _symmetry_equiv_pos_site_id
 _symmetry_equiv_pos_as_xyz
  1  'x, y, z'
loop_
 _atom_site_type_symbol
 _atom_site_label
 _atom_site_symmetry_multiplicity
 _atom_site_fract_x
 _atom_site_fract_y
 _atom_site_fract_z
 _atom_site_occupancy
  O  O0  1  -0.48354637  -0.51342749  -0.82272493  1.0
  O  O1  1  -0.51645363  -0.48657251  -0.17727507  1.0
  O  O2  1  -0.92585964  -0.99801807  -0.77350940  1.0
  O  O3  1  -0.07414036  -0.00198193  -0.22649060  1.0
  O  O4  1  -0.45383927  -0.76356046  -0.58144528  1.0
  O  O5  1  -0.54616073  -0.23643954  -0.41855472  1.0
  O  O6  1  -0.77108856  -0.59881554  -0.59781677  1.0
  O  O7  1  -0.22891144  -0.40118446  -0.40218323  1.0
  O  O8  1  -0.91241818  -0.26409348  -0.57674942  1.0
  O  O9  1  -0.08758182  -0.73590652  -0.42325058  1.0
  O  O10  1  -0.75132119  -0.86480454  -0.40110130  1.0
  O  O11  1  -0.24867881  -0.13519546  -0.59889870  1.0
  O  O12  1  -0.80586261  -0.55312453  -0.97465958  1.0
  O  O13  1  -0.19413739  -0.44687547  -0.02534042  1.0
  O  O14  1  -0.61082932  -0.16606748  -0.78463618  1.0
  O  O15  1  -0.38917068  -0.83393252  -0.21536382  1.0
  O  O16  1  -0.66771746  -0.90923346  -0.99076662  1.0
  O  O17  1  -0.33228254  -0.09076654  -0.00923338  1.0
  Ba  Ba18  1  -0.11857118  -0.68694522  -0.82017224  1.0
  Ba  Ba19  1  -0.88142882  -0.31305478  -0.17982776  1.0
  Ru  Ru20  1  -0.38379354  -0.27758665  -0.88841343  1.0
  Ru  Ru21  1  -0.61620646  -0.72241335  -0.11158657  1.0
  Ru  Ru22  1  -0.69547789  -0.37921736  -0.67297459  1.0
  Ru  Ru23  1  -0.30452211  -0.62078264  -0.32702541  1.0
  Ru  Ru24  1  -0.68479516  -0.87204488  -0.69755636  1.0
  Ru  Ru25  1  -0.31520484  -0.12795512  -0.30244364  1.0
  Ru  Ru26  1  0.00000000  0.00000000  -0.50000000  1.0
