# generated using pymatgen
data_Mg(BeAs)2
_symmetry_space_group_name_H-M   'P 1'
_cell_length_a   3.79369730
_cell_length_b   3.79369730
_cell_length_c   6.44977898
_cell_angle_alpha   90.00000000
_cell_angle_beta   90.00000000
_cell_angle_gamma   120.00000000
_symmetry_Int_Tables_number   1
_chemical_formula_structural   Mg(BeAs)2
_chemical_formula_sum   'Mg1 Be2 As2'
_cell_volume   80.38977536
_cell_formula_units_Z   1
loop_
 _symmetry_equiv_pos_site_id
 _symmetry_equiv_pos_as_xyz
  1  'x, y, z'
loop_
 _atom_site_type_symbol
 _atom_site_label
 _atom_site_symmetry_multiplicity
 _atom_site_fract_x
 _atom_site_fract_y
 _atom_site_fract_z
 _atom_site_occupancy
  Mg  Mg0  1  0.00000000  0.00000000  0.00000000  1.0
  Be  Be1  1  0.33333333  0.66666667  0.62444594  1.0
  Be  Be2  1  0.66666667  0.33333333  0.37555406  1.0
  As  As3  1  0.33333333  0.66666667  0.26392720  1.0
  As  As4  1  0.66666667  0.33333333  0.73607280  1.0
