# generated using pymatgen
data_K3Nb3Ge2O13
_symmetry_space_group_name_H-M   'P 1'
_cell_length_a   9.38165679
_cell_length_b   9.38165679
_cell_length_c   7.85160226
_cell_angle_alpha   90.00000000
_cell_angle_beta   90.00000000
_cell_angle_gamma   120.00000000
_symmetry_Int_Tables_number   1
_chemical_formula_structural   K3Nb3Ge2O13
_chemical_formula_sum   'K6 Nb6 Ge4 O26'
_cell_volume   598.47774401
_cell_formula_units_Z   2
loop_
 _symmetry_equiv_pos_site_id
 _symmetry_equiv_pos_as_xyz
  1  'x, y, z'
loop_
 _atom_site_type_symbol
 _atom_site_label
 _atom_site_symmetry_multiplicity
 _atom_site_fract_x
 _atom_site_fract_y
 _atom_site_fract_z
 _atom_site_occupancy
  K  K0  1  0.39312406  0.39312406  0.50000000  1.0
  K  K1  1  0.00000000  0.60687594  0.50000000  1.0
  K  K2  1  0.60687594  0.00000000  0.50000000  1.0
  K  K3  1  0.39097269  0.39097269  0.00000000  1.0
  K  K4  1  -0.00000000  0.60902731  0.00000000  1.0
  K  K5  1  0.60902731  0.00000000  0.00000000  1.0
  Nb  Nb6  1  0.76865888  0.76865888  0.74925672  1.0
  Nb  Nb7  1  0.76865888  0.76865888  0.25074328  1.0
  Nb  Nb8  1  -0.00000000  0.23134112  0.74925672  1.0
  Nb  Nb9  1  -0.00000000  0.23134112  0.25074328  1.0
  Nb  Nb10  1  0.23134112  0.00000000  0.74925672  1.0
  Nb  Nb11  1  0.23134112  0.00000000  0.25074328  1.0
  Ge  Ge12  1  0.33333333  0.66666667  0.77461776  1.0
  Ge  Ge13  1  0.33333333  0.66666667  0.22538224  1.0
  Ge  Ge14  1  0.66666667  0.33333333  0.77461776  1.0
  Ge  Ge15  1  0.66666667  0.33333333  0.22538224  1.0
  O  O16  1  0.29535433  0.82251098  0.71023047  1.0
  O  O17  1  0.29535433  0.82251098  0.28976953  1.0
  O  O18  1  0.82251098  0.29535433  0.71023047  1.0
  O  O19  1  0.82251098  0.29535433  0.28976953  1.0
  O  O20  1  0.52715665  0.70464567  0.71023047  1.0
  O  O21  1  0.52715665  0.70464567  0.28976953  1.0
  O  O22  1  0.17748902  0.47284335  0.71023047  1.0
  O  O23  1  0.17748902  0.47284335  0.28976953  1.0
  O  O24  1  0.70464567  0.52715665  0.71023047  1.0
  O  O25  1  0.70464567  0.52715665  0.28976953  1.0
  O  O26  1  0.47284335  0.17748902  0.71023047  1.0
  O  O27  1  0.47284335  0.17748902  0.28976953  1.0
  O  O28  1  0.17122102  0.17122102  0.77554438  1.0
  O  O29  1  0.17122102  0.17122102  0.22445562  1.0
  O  O30  1  0.00000000  0.82877898  0.77554438  1.0
  O  O31  1  0.00000000  0.82877898  0.22445562  1.0
  O  O32  1  0.82877898  0.00000000  0.77554438  1.0
  O  O33  1  0.82877898  0.00000000  0.22445562  1.0
  O  O34  1  0.79081322  0.79081322  0.50000000  1.0
  O  O35  1  0.00000000  0.20918678  0.50000000  1.0
  O  O36  1  0.20918678  0.00000000  0.50000000  1.0
  O  O37  1  0.72627106  0.72627106  0.00000000  1.0
  O  O38  1  0.00000000  0.27372894  0.00000000  1.0
  O  O39  1  0.27372894  0.00000000  0.00000000  1.0
  O  O40  1  0.33333333  0.66666667  0.00000000  1.0
  O  O41  1  0.66666667  0.33333333  0.00000000  1.0
