# generated using pymatgen
data_Na2Cu(PO3)4
_symmetry_space_group_name_H-M   'P 1'
_cell_length_a   8.30894180
_cell_length_b   8.30894180
_cell_length_c   7.96889556
_cell_angle_alpha   87.39850991
_cell_angle_beta   92.60149009
_cell_angle_gamma   69.90115480
_symmetry_Int_Tables_number   1
_chemical_formula_structural   Na2Cu(PO3)4
_chemical_formula_sum   'Na4 Cu2 P8 O24'
_cell_volume   515.03235046
_cell_formula_units_Z   2
loop_
 _symmetry_equiv_pos_site_id
 _symmetry_equiv_pos_as_xyz
  1  'x, y, z'
loop_
 _atom_site_type_symbol
 _atom_site_label
 _atom_site_symmetry_multiplicity
 _atom_site_fract_x
 _atom_site_fract_y
 _atom_site_fract_z
 _atom_site_occupancy
  Na  Na0  1  0.31637778  -0.02813906  0.19265634  1.0
  Na  Na1  1  1.02813906  0.68362222  0.69265634  1.0
  Na  Na2  1  0.97186094  -0.68362222  0.30734366  1.0
  Na  Na3  1  1.68362222  0.02813906  0.80734366  1.0
  Cu  Cu4  1  0.63574621  -0.36425379  0.25000000  1.0
  Cu  Cu5  1  1.36425379  0.36425379  0.75000000  1.0
  P  P6  1  0.73684496  -0.05475592  0.37563688  1.0
  P  P7  1  1.05475592  0.26315504  0.87563688  1.0
  P  P8  1  0.94524408  -0.26315504  0.12436312  1.0
  P  P9  1  1.26315504  0.05475592  0.62436312  1.0
  P  P10  1  1.56761794  0.28442127  0.18206675  1.0
  P  P11  1  0.71557873  -0.56761794  0.68206675  1.0
  P  P12  1  1.28442127  0.56761794  0.31793325  1.0
  P  P13  1  0.43238206  -0.28442127  0.81793325  1.0
  O  O14  1  0.40826868  -0.33359437  0.32913977  1.0
  O  O15  1  1.33359437  0.59173132  0.82913977  1.0
  O  O16  1  0.66640563  -0.59173132  0.17086023  1.0
  O  O17  1  1.59173132  0.33359437  0.67086023  1.0
  O  O18  1  0.60127541  -0.12776427  0.31266080  1.0
  O  O19  1  1.12776427  0.39872459  0.81266080  1.0
  O  O20  1  0.87223573  -0.39872459  0.18733920  1.0
  O  O21  1  1.39872459  0.12776427  0.68733920  1.0
  O  O22  1  1.66091846  0.15110824  0.34282589  1.0
  O  O23  1  0.84889176  -0.66091846  0.84282589  1.0
  O  O24  1  1.15110824  0.66091846  0.15717411  1.0
  O  O25  1  0.33908154  -0.15110824  0.65717411  1.0
  O  O26  1  1.54824111  0.19071062  0.03139053  1.0
  O  O27  1  0.80928938  -0.54824111  0.53139053  1.0
  O  O28  1  1.19071062  0.54824111  0.46860947  1.0
  O  O29  1  0.45175889  -0.19071062  0.96860947  1.0
  O  O30  1  1.19314890  0.09290305  0.44528005  1.0
  O  O31  1  0.90709695  -0.19314890  0.94528005  1.0
  O  O32  1  1.09290305  0.19314890  0.05471995  1.0
  O  O33  1  0.80685110  -0.09290305  0.55471995  1.0
  O  O34  1  0.89375442  -0.10624558  0.25000000  1.0
  O  O35  1  1.10624558  0.10624558  0.75000000  1.0
  O  O36  1  1.37935605  0.37935605  0.25000000  1.0
  O  O37  1  0.62064395  -0.37935605  0.75000000  1.0
