# generated using pymatgen
data_La4CdPt
_symmetry_space_group_name_H-M   'P 1'
_cell_length_a   10.21424595
_cell_length_b   10.21424595
_cell_length_c   10.21424595
_cell_angle_alpha   60.00000000
_cell_angle_beta   60.00000000
_cell_angle_gamma   60.00000000
_symmetry_Int_Tables_number   1
_chemical_formula_structural   La4CdPt
_chemical_formula_sum   'La16 Cd4 Pt4'
_cell_volume   753.53587833
_cell_formula_units_Z   4
loop_
 _symmetry_equiv_pos_site_id
 _symmetry_equiv_pos_as_xyz
  1  'x, y, z'
loop_
 _atom_site_type_symbol
 _atom_site_label
 _atom_site_symmetry_multiplicity
 _atom_site_fract_x
 _atom_site_fract_y
 _atom_site_fract_z
 _atom_site_occupancy
  La  La0  1  -0.34971142  0.65028858  0.65028858  1.0
  La  La1  1  1.04913425  0.65028858  -0.34971142  1.0
  La  La2  1  -0.34971142  0.65028858  1.04913425  1.0
  La  La3  1  0.65028858  1.04913425  -0.34971142  1.0
  La  La4  1  0.06330429  0.43669571  0.43669571  1.0
  La  La5  1  0.43669571  0.43669571  0.06330429  1.0
  La  La6  1  0.43669571  0.06330429  0.43669571  1.0
  La  La7  1  0.06330429  0.06330429  0.43669571  1.0
  La  La8  1  0.06330429  0.43669571  0.06330429  1.0
  La  La9  1  0.43669571  0.06330429  0.06330429  1.0
  La  La10  1  -0.80704096  0.80704096  0.80704096  1.0
  La  La11  1  -0.19295904  0.80704096  0.19295904  1.0
  La  La12  1  -0.19295904  0.19295904  0.80704096  1.0
  La  La13  1  0.19295904  1.19295904  -0.19295904  1.0
  La  La14  1  0.19295904  -0.19295904  0.19295904  1.0
  La  La15  1  -0.19295904  0.19295904  0.19295904  1.0
  Cd  Cd16  1  0.42041185  1.42041185  0.42041185  1.0
  Cd  Cd17  1  -0.26123555  0.42041185  0.42041185  1.0
  Cd  Cd18  1  0.42041185  1.42041185  -0.26123555  1.0
  Cd  Cd19  1  0.42041185  -0.26123555  0.42041185  1.0
  Pt  Pt20  1  0.85726814  0.85726814  -0.14273186  1.0
  Pt  Pt21  1  0.42819557  0.85726814  -0.14273186  1.0
  Pt  Pt22  1  0.85726814  0.85726814  -0.57180443  1.0
  Pt  Pt23  1  0.85726814  0.42819557  -0.14273186  1.0
