# generated using pymatgen
data_TiGePd
_symmetry_space_group_name_H-M   'P 1'
_cell_length_a   6.40323096
_cell_length_b   3.87816851
_cell_length_c   7.60279875
_cell_angle_alpha   90.00000000
_cell_angle_beta   90.00000000
_cell_angle_gamma   90.00000000
_symmetry_Int_Tables_number   1
_chemical_formula_structural   TiGePd
_chemical_formula_sum   'Ti4 Ge4 Pd4'
_cell_volume   188.79884694
_cell_formula_units_Z   4
loop_
 _symmetry_equiv_pos_site_id
 _symmetry_equiv_pos_as_xyz
  1  'x, y, z'
loop_
 _atom_site_type_symbol
 _atom_site_label
 _atom_site_symmetry_multiplicity
 _atom_site_fract_x
 _atom_site_fract_y
 _atom_site_fract_z
 _atom_site_occupancy
  Ti  Ti0  1  0.96490010  0.75000000  0.68368911  1.0
  Ti  Ti1  1  0.46490010  0.75000000  0.81631089  1.0
  Ti  Ti2  1  0.03509990  0.25000000  0.31631089  1.0
  Ti  Ti3  1  0.53509990  0.25000000  0.18368911  1.0
  Ge  Ge4  1  0.75769627  0.75000000  0.37607748  1.0
  Ge  Ge5  1  0.25769627  0.75000000  0.12392252  1.0
  Ge  Ge6  1  0.24230373  0.25000000  0.62392252  1.0
  Ge  Ge7  1  0.74230373  0.25000000  0.87607748  1.0
  Pd  Pd8  1  0.85564866  0.75000000  0.06112652  1.0
  Pd  Pd9  1  0.35564866  0.75000000  0.43887348  1.0
  Pd  Pd10  1  0.14435134  0.25000000  0.93887348  1.0
  Pd  Pd11  1  0.64435134  0.25000000  0.56112652  1.0
