# generated using pymatgen
data_BaVOF4
_symmetry_space_group_name_H-M   'P 1'
_cell_length_a   14.56911684
_cell_length_b   5.49111776
_cell_length_c   14.64618936
_cell_angle_alpha   78.37777721
_cell_angle_beta   21.66466463
_cell_angle_gamma   79.95755816
_symmetry_Int_Tables_number   1
_chemical_formula_structural   BaVOF4
_chemical_formula_sum   'Ba4 V4 O4 F16'
_cell_volume   423.42664545
_cell_formula_units_Z   4
loop_
 _symmetry_equiv_pos_site_id
 _symmetry_equiv_pos_as_xyz
  1  'x, y, z'
loop_
 _atom_site_type_symbol
 _atom_site_label
 _atom_site_symmetry_multiplicity
 _atom_site_fract_x
 _atom_site_fract_y
 _atom_site_fract_z
 _atom_site_occupancy
  Ba  Ba0  1  0.29472695  -0.29534081  0.31714094  1.0
  Ba  Ba1  1  -0.06714094  0.56652708  0.95527305  1.0
  Ba  Ba2  1  -0.29534081  1.29472695  0.68347292  1.0
  Ba  Ba3  1  -0.43347292  0.93285906  0.54534081  1.0
  V  V4  1  0.81984791  0.17599305  -0.16608063  1.0
  V  V5  1  0.41608063  0.07976033  0.43015209  1.0
  V  V6  1  -0.82400695  0.81984791  1.17023967  1.0
  V  V7  1  0.07976033  0.41608063  0.07400695  1.0
  O  O8  1  0.56106192  0.29837451  0.03606457  1.0
  O  O9  1  0.21393543  1.14550100  0.68893808  1.0
  O  O10  1  0.29837451  0.56106192  0.10449900  1.0
  O  O11  1  0.14550100  0.21393543  -0.04837451  1.0
  F  F12  1  0.70324140  -0.03010611  0.06206480  1.0
  F  F13  1  0.18793520  -0.01479991  0.54675860  1.0
  F  F14  1  -0.03010611  1.70324140  0.26479991  1.0
  F  F15  1  -0.01479991  1.18793520  0.28010611  1.0
  F  F16  1  0.44081892  -0.27114841  0.45862053  1.0
  F  F17  1  -0.20862053  0.87829103  0.80918108  1.0
  F  F18  1  -0.27114841  1.44081892  0.37170897  1.0
  F  F19  1  -0.12170897  0.79137947  0.52114841  1.0
  F  F20  1  0.70963379  1.12165693  0.23085227  1.0
  F  F21  1  0.01914773  0.31214299  0.54036621  1.0
  F  F22  1  0.12165693  0.70963379  -0.06214299  1.0
  F  F23  1  0.31214299  0.01914773  0.12834307  1.0
  F  F24  1  0.50302617  1.40021377  0.27417511  1.0
  F  F25  1  -0.02417511  0.42741505  0.74697383  1.0
  F  F26  1  0.40021377  0.50302617  -0.17741505  1.0
  F  F27  1  -0.57258495  0.97582489  0.84978623  1.0
