# generated using pymatgen
data_ZrGePt
_symmetry_space_group_name_H-M   'P 1'
_cell_length_a   6.70759327
_cell_length_b   4.00524879
_cell_length_c   7.74578670
_cell_angle_alpha   90.00000000
_cell_angle_beta   90.00000000
_cell_angle_gamma   90.00000000
_symmetry_Int_Tables_number   1
_chemical_formula_structural   ZrGePt
_chemical_formula_sum   'Zr4 Ge4 Pt4'
_cell_volume   208.09505114
_cell_formula_units_Z   4
loop_
 _symmetry_equiv_pos_site_id
 _symmetry_equiv_pos_as_xyz
  1  'x, y, z'
loop_
 _atom_site_type_symbol
 _atom_site_label
 _atom_site_symmetry_multiplicity
 _atom_site_fract_x
 _atom_site_fract_y
 _atom_site_fract_z
 _atom_site_occupancy
  Zr  Zr0  1  0.97196813  0.75000000  0.68307144  1.0
  Zr  Zr1  1  0.47196813  0.75000000  0.81692856  1.0
  Zr  Zr2  1  0.02803187  0.25000000  0.31692856  1.0
  Zr  Zr3  1  0.52803187  0.25000000  0.18307144  1.0
  Ge  Ge4  1  0.74649417  0.75000000  0.37855727  1.0
  Ge  Ge5  1  0.24649417  0.75000000  0.12144273  1.0
  Ge  Ge6  1  0.25350583  0.25000000  0.62144273  1.0
  Ge  Ge7  1  0.75350583  0.25000000  0.87855727  1.0
  Pt  Pt8  1  0.85540329  0.75000000  0.06348285  1.0
  Pt  Pt9  1  0.35540329  0.75000000  0.43651715  1.0
  Pt  Pt10  1  0.14459671  0.25000000  0.93651715  1.0
  Pt  Pt11  1  0.64459671  0.25000000  0.56348285  1.0
