# generated using pymatgen
data_Te2MoCl12
_symmetry_space_group_name_H-M   'P 1'
_cell_length_a   14.43790837
_cell_length_b   14.43790837
_cell_length_c   14.43790837
_cell_angle_alpha   48.01087729
_cell_angle_beta   48.01087729
_cell_angle_gamma   48.01087729
_symmetry_Int_Tables_number   1
_chemical_formula_structural   Te2MoCl12
_chemical_formula_sum   'Te6 Mo3 Cl36'
_cell_volume   1523.26303330
_cell_formula_units_Z   3
loop_
 _symmetry_equiv_pos_site_id
 _symmetry_equiv_pos_as_xyz
  1  'x, y, z'
loop_
 _atom_site_type_symbol
 _atom_site_label
 _atom_site_symmetry_multiplicity
 _atom_site_fract_x
 _atom_site_fract_y
 _atom_site_fract_z
 _atom_site_occupancy
  Te  Te0  1  0.09235942  0.75127156  -0.60002552  1.0
  Te  Te1  1  0.60002552  0.90764058  -0.75127156  1.0
  Te  Te2  1  0.24872844  0.60002552  -0.09235942  1.0
  Te  Te3  1  0.90764058  0.24872844  -0.39997448  1.0
  Te  Te4  1  0.39997448  0.09235942  -0.24872844  1.0
  Te  Te5  1  0.75127156  0.39997448  -0.90764058  1.0
  Mo  Mo6  1  0.25340797  0.25340797  0.25340797  1.0
  Mo  Mo7  1  0.74659203  -0.25340797  -0.25340797  1.0
  Mo  Mo8  1  0.00000000  0.00000000  0.00000000  1.0
  Cl  Cl9  1  0.54665117  0.20711366  -0.40051792  1.0
  Cl  Cl10  1  0.40051792  0.45334883  -0.20711366  1.0
  Cl  Cl11  1  0.79288634  0.40051792  -0.54665117  1.0
  Cl  Cl12  1  0.45334883  0.79288634  -0.59948208  1.0
  Cl  Cl13  1  0.59948208  0.54665117  -0.79288634  1.0
  Cl  Cl14  1  0.20711366  0.59948208  -0.45334883  1.0
  Cl  Cl15  1  0.39545379  1.09690813  -0.62297030  1.0
  Cl  Cl16  1  0.62297030  -0.39545379  -0.09690813  1.0
  Cl  Cl17  1  0.90309187  -0.37702970  -0.39545379  1.0
  Cl  Cl18  1  0.60454621  -0.09690813  -0.37702970  1.0
  Cl  Cl19  1  0.37702970  0.39545379  0.09690813  1.0
  Cl  Cl20  1  1.09690813  0.37702970  -0.60454621  1.0
  Cl  Cl21  1  0.21136109  0.89427271  -0.74661623  1.0
  Cl  Cl22  1  0.74661623  -0.21136109  0.10572729  1.0
  Cl  Cl23  1  1.10572729  -0.25338377  -0.21136109  1.0
  Cl  Cl24  1  0.78863891  0.10572729  -0.25338377  1.0
  Cl  Cl25  1  0.25338377  0.21136109  -0.10572729  1.0
  Cl  Cl26  1  0.89427271  0.25338377  -0.78863891  1.0
  Cl  Cl27  1  0.41082195  0.12367798  0.11785183  1.0
  Cl  Cl28  1  0.88214817  -0.41082195  -0.12367798  1.0
  Cl  Cl29  1  0.87632202  -0.11785183  -0.41082195  1.0
  Cl  Cl30  1  0.58917805  -0.12367798  -0.11785183  1.0
  Cl  Cl31  1  1.11785183  -0.58917805  0.12367798  1.0
  Cl  Cl32  1  1.12367798  0.11785183  -0.58917805  1.0
  Cl  Cl33  1  0.22750220  -0.06707631  -0.05275483  1.0
  Cl  Cl34  1  1.05275483  -0.22750220  0.06707631  1.0
  Cl  Cl35  1  1.06707631  0.05275483  -0.22750220  1.0
  Cl  Cl36  1  0.77249780  0.06707631  0.05275483  1.0
  Cl  Cl37  1  0.94724517  -0.77249780  -0.06707631  1.0
  Cl  Cl38  1  0.93292369  -0.05275483  -0.77249780  1.0
  Cl  Cl39  1  0.60858525  0.28166556  -0.76192838  1.0
  Cl  Cl40  1  0.76192838  0.39141475  -0.28166556  1.0
  Cl  Cl41  1  0.71833444  0.76192838  -0.60858525  1.0
  Cl  Cl42  1  0.39141475  0.71833444  -0.23807162  1.0
  Cl  Cl43  1  0.23807162  0.60858525  -0.71833444  1.0
  Cl  Cl44  1  0.28166556  0.23807162  -0.39141475  1.0
