# generated using pymatgen
data_Sr3Sn2O7
_symmetry_space_group_name_H-M   'P 1'
_cell_length_a   10.73502568
_cell_length_b   10.73502568
_cell_length_c   5.80133455
_cell_angle_alpha   90.00000000
_cell_angle_beta   90.00000000
_cell_angle_gamma   31.79884379
_symmetry_Int_Tables_number   1
_chemical_formula_structural   Sr3Sn2O7
_chemical_formula_sum   'Sr6 Sn4 O14'
_cell_volume   352.28498758
_cell_formula_units_Z   2
loop_
 _symmetry_equiv_pos_site_id
 _symmetry_equiv_pos_as_xyz
  1  'x, y, z'
loop_
 _atom_site_type_symbol
 _atom_site_label
 _atom_site_symmetry_multiplicity
 _atom_site_fract_x
 _atom_site_fract_y
 _atom_site_fract_z
 _atom_site_occupancy
  Sr  Sr0  1  -0.07551737  0.45023062  0.75000000  1.0
  Sr  Sr1  1  -0.54976938  0.92448263  0.25000000  1.0
  Sr  Sr2  1  -0.45023062  1.07551737  0.75000000  1.0
  Sr  Sr3  1  0.07551737  0.54976938  0.25000000  1.0
  Sr  Sr4  1  -0.25773625  0.25773625  0.75000000  1.0
  Sr  Sr5  1  -0.74226375  0.74226375  0.25000000  1.0
  Sn  Sn6  1  0.14938636  0.65244671  0.75000000  1.0
  Sn  Sn7  1  -0.34755329  1.14938636  0.25000000  1.0
  Sn  Sn8  1  -0.65244671  0.85061364  0.75000000  1.0
  Sn  Sn9  1  -0.14938636  0.34755329  0.25000000  1.0
  O  O10  1  0.11501266  0.49002937  0.75000000  1.0
  O  O11  1  -0.50997063  1.11501266  0.25000000  1.0
  O  O12  1  -0.49002937  0.88498734  0.75000000  1.0
  O  O13  1  -0.11501266  0.50997063  0.25000000  1.0
  O  O14  1  -0.11373831  0.88626169  0.00000000  1.0
  O  O15  1  -0.11373831  0.88626169  0.50000000  1.0
  O  O16  1  0.11373831  0.11373831  0.00000000  1.0
  O  O17  1  0.11373831  0.11373831  0.50000000  1.0
  O  O18  1  -0.41793118  0.58206882  0.00000000  1.0
  O  O19  1  -0.41793118  0.58206882  0.50000000  1.0
  O  O20  1  0.41793118  0.41793118  0.00000000  1.0
  O  O21  1  0.41793118  0.41793118  0.50000000  1.0
  O  O22  1  -0.82740084  0.82740084  0.75000000  1.0
  O  O23  1  -0.17259916  0.17259916  0.25000000  1.0
