# generated using pymatgen
data_Y(SiRh2)2
_symmetry_space_group_name_H-M   'P 1'
_cell_length_a   11.27769109
_cell_length_b   4.11736422
_cell_length_c   9.08387253
_cell_angle_alpha   90.00000000
_cell_angle_beta   90.00000000
_cell_angle_gamma   90.00000000
_symmetry_Int_Tables_number   1
_chemical_formula_structural   Y(SiRh2)2
_chemical_formula_sum   'Y4 Si8 Rh16'
_cell_volume   421.80382364
_cell_formula_units_Z   4
loop_
 _symmetry_equiv_pos_site_id
 _symmetry_equiv_pos_as_xyz
  1  'x, y, z'
loop_
 _atom_site_type_symbol
 _atom_site_label
 _atom_site_symmetry_multiplicity
 _atom_site_fract_x
 _atom_site_fract_y
 _atom_site_fract_z
 _atom_site_occupancy
  Y  Y0  1  0.82420929  0.25000000  0.14840689  1.0
  Y  Y1  1  0.32420929  0.25000000  0.35159311  1.0
  Y  Y2  1  0.17579071  0.75000000  0.85159311  1.0
  Y  Y3  1  0.67579071  0.75000000  0.64840689  1.0
  Si  Si4  1  0.63658277  0.25000000  0.41200690  1.0
  Si  Si5  1  0.13658277  0.25000000  0.08799310  1.0
  Si  Si6  1  0.36341723  0.75000000  0.58799310  1.0
  Si  Si7  1  0.86341723  0.75000000  0.91200690  1.0
  Si  Si8  1  0.05838516  0.25000000  0.61639872  1.0
  Si  Si9  1  0.55838516  0.25000000  0.88360128  1.0
  Si  Si10  1  0.94161484  0.75000000  0.38360128  1.0
  Si  Si11  1  0.44161484  0.75000000  0.11639872  1.0
  Rh  Rh12  1  0.50055749  0.25000000  0.61487868  1.0
  Rh  Rh13  1  0.00055749  0.25000000  0.88512132  1.0
  Rh  Rh14  1  0.49944251  0.75000000  0.38512132  1.0
  Rh  Rh15  1  0.99944251  0.75000000  0.11487868  1.0
  Rh  Rh16  1  0.26926761  0.25000000  0.68251486  1.0
  Rh  Rh17  1  0.76926761  0.25000000  0.81748514  1.0
  Rh  Rh18  1  0.73073239  0.75000000  0.31748514  1.0
  Rh  Rh19  1  0.23073239  0.75000000  0.18251486  1.0
  Rh  Rh20  1  0.55870267  0.25000000  0.17326506  1.0
  Rh  Rh21  1  0.05870267  0.25000000  0.32673494  1.0
  Rh  Rh22  1  0.44129733  0.75000000  0.82673494  1.0
  Rh  Rh23  1  0.94129733  0.75000000  0.67326506  1.0
  Rh  Rh24  1  0.34523084  0.25000000  0.00652908  1.0
  Rh  Rh25  1  0.84523084  0.25000000  0.49347092  1.0
  Rh  Rh26  1  0.65476916  0.75000000  0.99347092  1.0
  Rh  Rh27  1  0.15476916  0.75000000  0.50652908  1.0
