# generated using pymatgen
data_Zr3NiSb7
_symmetry_space_group_name_H-M   'P 1'
_cell_length_a   17.66480109
_cell_length_b   3.96143387
_cell_length_c   14.49077780
_cell_angle_alpha   90.00000000
_cell_angle_beta   90.00000000
_cell_angle_gamma   90.00000000
_symmetry_Int_Tables_number   1
_chemical_formula_structural   Zr3NiSb7
_chemical_formula_sum   'Zr12 Ni4 Sb28'
_cell_volume   1014.03479838
_cell_formula_units_Z   4
loop_
 _symmetry_equiv_pos_site_id
 _symmetry_equiv_pos_as_xyz
  1  'x, y, z'
loop_
 _atom_site_type_symbol
 _atom_site_label
 _atom_site_symmetry_multiplicity
 _atom_site_fract_x
 _atom_site_fract_y
 _atom_site_fract_z
 _atom_site_occupancy
  Zr  Zr0  1  0.10772880  0.75000000  0.40985555  1.0
  Zr  Zr1  1  0.60772880  0.75000000  0.09014445  1.0
  Zr  Zr2  1  0.89227120  0.25000000  0.59014445  1.0
  Zr  Zr3  1  0.39227120  0.25000000  0.90985555  1.0
  Zr  Zr4  1  0.12965656  0.75000000  0.97084683  1.0
  Zr  Zr5  1  0.62965656  0.75000000  0.52915317  1.0
  Zr  Zr6  1  0.87034344  0.25000000  0.02915317  1.0
  Zr  Zr7  1  0.37034344  0.25000000  0.47084683  1.0
  Zr  Zr8  1  0.15364940  0.75000000  0.69075852  1.0
  Zr  Zr9  1  0.65364940  0.75000000  0.80924148  1.0
  Zr  Zr10  1  0.84635060  0.25000000  0.30924148  1.0
  Zr  Zr11  1  0.34635060  0.25000000  0.19075852  1.0
  Ni  Ni12  1  0.06285980  0.75000000  0.18919391  1.0
  Ni  Ni13  1  0.56285980  0.75000000  0.31080609  1.0
  Ni  Ni14  1  0.93714020  0.25000000  0.81080609  1.0
  Ni  Ni15  1  0.43714020  0.25000000  0.68919391  1.0
  Sb  Sb16  1  0.47874144  0.75000000  0.79809892  1.0
  Sb  Sb17  1  0.97874144  0.75000000  0.70190108  1.0
  Sb  Sb18  1  0.52125856  0.25000000  0.20190108  1.0
  Sb  Sb19  1  0.02125856  0.25000000  0.29809892  1.0
  Sb  Sb20  1  0.20966129  0.75000000  0.18495133  1.0
  Sb  Sb21  1  0.70966129  0.75000000  0.31504867  1.0
  Sb  Sb22  1  0.79033871  0.25000000  0.81504867  1.0
  Sb  Sb23  1  0.29033871  0.25000000  0.68495133  1.0
  Sb  Sb24  1  0.25224754  0.75000000  0.52128880  1.0
  Sb  Sb25  1  0.75224754  0.75000000  0.97871120  1.0
  Sb  Sb26  1  0.74775246  0.25000000  0.47871120  1.0
  Sb  Sb27  1  0.24775246  0.25000000  0.02128880  1.0
  Sb  Sb28  1  0.27207414  0.75000000  0.85416345  1.0
  Sb  Sb29  1  0.77207414  0.75000000  0.64583655  1.0
  Sb  Sb30  1  0.72792586  0.25000000  0.14583655  1.0
  Sb  Sb31  1  0.22792586  0.25000000  0.35416345  1.0
  Sb  Sb32  1  0.40855118  0.75000000  0.32501517  1.0
  Sb  Sb33  1  0.90855118  0.75000000  0.17498483  1.0
  Sb  Sb34  1  0.59144882  0.25000000  0.67498483  1.0
  Sb  Sb35  1  0.09144882  0.25000000  0.82501517  1.0
  Sb  Sb36  1  0.42907195  0.75000000  0.06042018  1.0
  Sb  Sb37  1  0.92907195  0.75000000  0.43957982  1.0
  Sb  Sb38  1  0.57092805  0.25000000  0.93957982  1.0
  Sb  Sb39  1  0.07092805  0.25000000  0.56042018  1.0
  Sb  Sb40  1  0.46265572  0.75000000  0.57638454  1.0
  Sb  Sb41  1  0.96265572  0.75000000  0.92361546  1.0
  Sb  Sb42  1  0.53734428  0.25000000  0.42361546  1.0
  Sb  Sb43  1  0.03734428  0.25000000  0.07638454  1.0
