# generated using pymatgen
data_Rb(MoS)3
_symmetry_space_group_name_H-M   'P 1'
_cell_length_a   9.21819596
_cell_length_b   9.21819596
_cell_length_c   4.44496174
_cell_angle_alpha   90.00000000
_cell_angle_beta   90.00000000
_cell_angle_gamma   120.00000000
_symmetry_Int_Tables_number   1
_chemical_formula_structural   Rb(MoS)3
_chemical_formula_sum   'Rb2 Mo6 S6'
_cell_volume   327.10752144
_cell_formula_units_Z   2
loop_
 _symmetry_equiv_pos_site_id
 _symmetry_equiv_pos_as_xyz
  1  'x, y, z'
loop_
 _atom_site_type_symbol
 _atom_site_label
 _atom_site_symmetry_multiplicity
 _atom_site_fract_x
 _atom_site_fract_y
 _atom_site_fract_z
 _atom_site_occupancy
  Rb  Rb0  1  0.33333333  0.66666667  0.25000000  1.0
  Rb  Rb1  1  0.66666667  0.33333333  0.75000000  1.0
  Mo  Mo2  1  0.02988713  0.85038829  0.25000000  1.0
  Mo  Mo3  1  0.85038829  0.82050116  0.75000000  1.0
  Mo  Mo4  1  0.82050116  0.97011287  0.25000000  1.0
  Mo  Mo5  1  0.14961171  0.17949884  0.25000000  1.0
  Mo  Mo6  1  0.97011287  0.14961171  0.75000000  1.0
  Mo  Mo7  1  0.17949884  0.02988713  0.75000000  1.0
  S  S8  1  0.72057154  0.66292752  0.25000000  1.0
  S  S9  1  0.66292752  0.94235597  0.75000000  1.0
  S  S10  1  0.94235597  0.27942846  0.25000000  1.0
  S  S11  1  0.33707248  0.05764403  0.25000000  1.0
  S  S12  1  0.27942846  0.33707248  0.75000000  1.0
  S  S13  1  0.05764403  0.72057154  0.75000000  1.0
