# generated using pymatgen
data_K4Ni(NO2)6
_symmetry_space_group_name_H-M   'P 1'
_cell_length_a   8.75777940
_cell_length_b   8.75777940
_cell_length_c   8.75777940
_cell_angle_alpha   51.05878452
_cell_angle_beta   51.05878452
_cell_angle_gamma   51.05878452
_symmetry_Int_Tables_number   1
_chemical_formula_structural   K4Ni(NO2)6
_chemical_formula_sum   'K4 Ni1 N6 O12'
_cell_volume   374.87321545
_cell_formula_units_Z   1
loop_
 _symmetry_equiv_pos_site_id
 _symmetry_equiv_pos_as_xyz
  1  'x, y, z'
loop_
 _atom_site_type_symbol
 _atom_site_label
 _atom_site_symmetry_multiplicity
 _atom_site_fract_x
 _atom_site_fract_y
 _atom_site_fract_z
 _atom_site_occupancy
  K  K0  1  0.19045542  0.19045542  0.19045542  1.0
  K  K1  1  0.80954458  -0.19045542  -0.19045542  1.0
  K  K2  1  0.37808325  0.37808325  -0.62191675  1.0
  K  K3  1  0.62191675  0.62191675  -0.37808325  1.0
  Ni  Ni4  1  0.00000000  0.00000000  0.00000000  1.0
  N  N5  1  0.31242020  -0.06735369  -0.08068763  1.0
  N  N6  1  1.08068763  -0.31242020  0.06735369  1.0
  N  N7  1  1.06735369  0.08068763  -0.31242020  1.0
  N  N8  1  0.68757980  0.06735369  0.08068763  1.0
  N  N9  1  0.91931237  -0.68757980  -0.06735369  1.0
  N  N10  1  0.93264631  -0.08068763  -0.68757980  1.0
  O  O11  1  0.36887547  0.07292855  -0.14860967  1.0
  O  O12  1  1.14860967  -0.36887547  -0.07292855  1.0
  O  O13  1  0.92707145  0.14860967  -0.36887547  1.0
  O  O14  1  0.63112453  -0.07292855  0.14860967  1.0
  O  O15  1  0.85139033  -0.63112453  0.07292855  1.0
  O  O16  1  1.07292855  -0.14860967  -0.63112453  1.0
  O  O17  1  0.55372637  0.25601747  0.04663230  1.0
  O  O18  1  0.95336770  -0.55372637  -0.25601747  1.0
  O  O19  1  0.74398253  -0.04663230  -0.55372637  1.0
  O  O20  1  0.44627363  -0.25601747  -0.04663230  1.0
  O  O21  1  1.04663230  -0.44627363  0.25601747  1.0
  O  O22  1  1.25601747  0.04663230  -0.44627363  1.0
