# generated using pymatgen
data_Mg(BeP)2
_symmetry_space_group_name_H-M   'P 1'
_cell_length_a   3.64618751
_cell_length_b   3.64618751
_cell_length_c   6.21631905
_cell_angle_alpha   90.00000000
_cell_angle_beta   90.00000000
_cell_angle_gamma   120.00000000
_symmetry_Int_Tables_number   1
_chemical_formula_structural   Mg(BeP)2
_chemical_formula_sum   'Mg1 Be2 P2'
_cell_volume   71.57179788
_cell_formula_units_Z   1
loop_
 _symmetry_equiv_pos_site_id
 _symmetry_equiv_pos_as_xyz
  1  'x, y, z'
loop_
 _atom_site_type_symbol
 _atom_site_label
 _atom_site_symmetry_multiplicity
 _atom_site_fract_x
 _atom_site_fract_y
 _atom_site_fract_z
 _atom_site_occupancy
  Mg  Mg0  1  0.00000000  0.00000000  0.00000000  1.0
  Be  Be1  1  0.33333333  0.66666667  0.62603706  1.0
  Be  Be2  1  0.66666667  0.33333333  0.37396294  1.0
  P  P3  1  0.33333333  0.66666667  0.26733219  1.0
  P  P4  1  0.66666667  0.33333333  0.73266781  1.0
