# generated using pymatgen
data_MgH12(ClO6)2
_symmetry_space_group_name_H-M   'P 1'
_cell_length_a   6.68129714
_cell_length_b   6.57850775
_cell_length_c   14.68088620
_cell_angle_alpha   90.00000000
_cell_angle_beta   104.49819267
_cell_angle_gamma   90.00000000
_symmetry_Int_Tables_number   1
_chemical_formula_structural   MgH12(ClO6)2
_chemical_formula_sum   'Mg2 H24 Cl4 O24'
_cell_volume   624.72024993
_cell_formula_units_Z   2
loop_
 _symmetry_equiv_pos_site_id
 _symmetry_equiv_pos_as_xyz
  1  'x, y, z'
loop_
 _atom_site_type_symbol
 _atom_site_label
 _atom_site_symmetry_multiplicity
 _atom_site_fract_x
 _atom_site_fract_y
 _atom_site_fract_z
 _atom_site_occupancy
  Mg  Mg0  1  0.00000000  0.50000000  0.00000000  1.0
  Mg  Mg1  1  0.00000000  0.00000000  0.50000000  1.0
  H  H2  1  0.58557411  0.52380411  0.91223594  1.0
  H  H3  1  0.41442589  0.02380411  0.58776406  1.0
  H  H4  1  0.41442589  0.47619589  0.08776406  1.0
  H  H5  1  0.58557411  0.97619589  0.41223594  1.0
  H  H6  1  0.64570747  0.28790614  0.91855210  1.0
  H  H7  1  0.35429253  0.78790614  0.58144790  1.0
  H  H8  1  0.35429253  0.71209386  0.08144790  1.0
  H  H9  1  0.64570747  0.21209386  0.41855210  1.0
  H  H10  1  0.81957463  0.87416705  0.98034381  1.0
  H  H11  1  0.18042537  0.37416705  0.51965619  1.0
  H  H12  1  0.18042537  0.12583295  0.01965619  1.0
  H  H13  1  0.81957463  0.62583295  0.48034381  1.0
  H  H14  1  0.84811061  0.33537699  0.13954924  1.0
  H  H15  1  0.15188939  0.83537699  0.36045076  1.0
  H  H16  1  0.15188939  0.66462301  0.86045076  1.0
  H  H17  1  0.84811061  0.16462301  0.63954924  1.0
  H  H18  1  0.07643770  0.40549982  0.19010002  1.0
  H  H19  1  0.92356230  0.90549982  0.30989998  1.0
  H  H20  1  0.92356230  0.59450018  0.80989998  1.0
  H  H21  1  0.07643770  0.09450018  0.69010002  1.0
  H  H22  1  0.85059874  0.82593016  0.08690828  1.0
  H  H23  1  0.14940126  0.32593016  0.41309172  1.0
  H  H24  1  0.14940126  0.17406984  0.91309172  1.0
  H  H25  1  0.85059874  0.67406984  0.58690828  1.0
  Cl  Cl26  1  0.55383687  0.43736681  0.68504037  1.0
  Cl  Cl27  1  0.44616313  0.93736681  0.81495963  1.0
  Cl  Cl28  1  0.44616313  0.56263319  0.31495963  1.0
  Cl  Cl29  1  0.55383687  0.06263319  0.18504037  1.0
  O  O30  1  0.74502448  0.56618007  0.69202094  1.0
  O  O31  1  0.25497552  0.06618007  0.80797906  1.0
  O  O32  1  0.25497552  0.43381993  0.30797906  1.0
  O  O33  1  0.74502448  0.93381993  0.19202094  1.0
  O  O34  1  0.38643193  0.52370857  0.60558092  1.0
  O  O35  1  0.61356807  0.02370857  0.89441908  1.0
  O  O36  1  0.61356807  0.47629143  0.39441908  1.0
  O  O37  1  0.38643193  0.97629143  0.10558092  1.0
  O  O38  1  0.60063215  0.22553601  0.65520079  1.0
  O  O39  1  0.39936785  0.72553601  0.84479921  1.0
  O  O40  1  0.39936785  0.77446399  0.34479921  1.0
  O  O41  1  0.60063215  0.27446399  0.15520079  1.0
  O  O42  1  0.69388483  0.42549525  0.93985657  1.0
  O  O43  1  0.30611517  0.92549525  0.56014343  1.0
  O  O44  1  0.30611517  0.57450475  0.06014343  1.0
  O  O45  1  0.69388483  0.07450475  0.43985657  1.0
  O  O46  1  0.97900049  0.38540932  0.12844326  1.0
  O  O47  1  0.02099951  0.88540932  0.37155674  1.0
  O  O48  1  0.02099951  0.61459068  0.87155674  1.0
  O  O49  1  0.97900049  0.11459068  0.62844326  1.0
  O  O50  1  0.90028148  0.78953489  0.03163111  1.0
  O  O51  1  0.09971852  0.28953489  0.46836889  1.0
  O  O52  1  0.09971852  0.21046511  0.96836889  1.0
  O  O53  1  0.90028148  0.71046511  0.53163111  1.0
