# generated using pymatgen
data_Cs3BiO3
_symmetry_space_group_name_H-M   'P 1'
_cell_length_a   9.43615288
_cell_length_b   9.43615288
_cell_length_c   9.43615288
_cell_angle_alpha   90.00000000
_cell_angle_beta   90.00000000
_cell_angle_gamma   90.00000000
_symmetry_Int_Tables_number   1
_chemical_formula_structural   Cs3BiO3
_chemical_formula_sum   'Cs12 Bi4 O12'
_cell_volume   840.20431198
_cell_formula_units_Z   4
loop_
 _symmetry_equiv_pos_site_id
 _symmetry_equiv_pos_as_xyz
  1  'x, y, z'
loop_
 _atom_site_type_symbol
 _atom_site_label
 _atom_site_symmetry_multiplicity
 _atom_site_fract_x
 _atom_site_fract_y
 _atom_site_fract_z
 _atom_site_occupancy
  Cs  Cs0  1  0.47373633  0.97373633  0.52626367  1.0
  Cs  Cs1  1  0.97373633  0.52626367  0.47373633  1.0
  Cs  Cs2  1  0.52626367  0.47373633  0.97373633  1.0
  Cs  Cs3  1  0.02626367  0.02626367  0.02626367  1.0
  Cs  Cs4  1  0.97008405  0.47008405  0.02991595  1.0
  Cs  Cs5  1  0.47008405  0.02991595  0.97008405  1.0
  Cs  Cs6  1  0.02991595  0.97008405  0.47008405  1.0
  Cs  Cs7  1  0.52991595  0.52991595  0.52991595  1.0
  Cs  Cs8  1  0.73723104  0.23723104  0.26276896  1.0
  Cs  Cs9  1  0.23723104  0.26276896  0.73723104  1.0
  Cs  Cs10  1  0.26276896  0.73723104  0.23723104  1.0
  Cs  Cs11  1  0.76276896  0.76276896  0.76276896  1.0
  Bi  Bi12  1  0.24629210  0.74629210  0.75370790  1.0
  Bi  Bi13  1  0.74629210  0.75370790  0.24629210  1.0
  Bi  Bi14  1  0.75370790  0.24629210  0.74629210  1.0
  Bi  Bi15  1  0.25370790  0.25370790  0.25370790  1.0
  O  O16  1  0.46406954  0.74745100  0.79180267  1.0
  O  O17  1  0.96406954  0.75254900  0.20819733  1.0
  O  O18  1  0.24745100  0.70819733  0.53593046  1.0
  O  O19  1  0.74745100  0.79180267  0.46406954  1.0
  O  O20  1  0.20819733  0.96406954  0.75254900  1.0
  O  O21  1  0.70819733  0.53593046  0.24745100  1.0
  O  O22  1  0.53593046  0.24745100  0.70819733  1.0
  O  O23  1  0.03593046  0.25254900  0.29180267  1.0
  O  O24  1  0.75254900  0.20819733  0.96406954  1.0
  O  O25  1  0.25254900  0.29180267  0.03593046  1.0
  O  O26  1  0.79180267  0.46406954  0.74745100  1.0
  O  O27  1  0.29180267  0.03593046  0.25254900  1.0
