# generated using pymatgen
data_K4Cu4Cl10O
_symmetry_space_group_name_H-M   'P 1'
_cell_length_a   10.67964240
_cell_length_b   10.67964240
_cell_length_c   9.06446018
_cell_angle_alpha   80.94365119
_cell_angle_beta   99.05634881
_cell_angle_gamma   88.91398068
_symmetry_Int_Tables_number   1
_chemical_formula_structural   K4Cu4Cl10O
_chemical_formula_sum   'K8 Cu8 Cl20 O2'
_cell_volume   1007.21557271
_cell_formula_units_Z   2
loop_
 _symmetry_equiv_pos_site_id
 _symmetry_equiv_pos_as_xyz
  1  'x, y, z'
loop_
 _atom_site_type_symbol
 _atom_site_label
 _atom_site_symmetry_multiplicity
 _atom_site_fract_x
 _atom_site_fract_y
 _atom_site_fract_z
 _atom_site_occupancy
  Cu  Cu0  1  0.64383011  -0.23073516  0.37441395  1.0
  Cu  Cu1  1  1.23073516  0.35616989  0.87441395  1.0
  Cu  Cu2  1  0.76926484  -0.35616989  0.12558605  1.0
  Cu  Cu3  1  1.35616989  0.23073516  0.62558605  1.0
  Cu  Cu4  1  0.76686015  -0.05379406  0.12084221  1.0
  Cu  Cu5  1  1.05379406  0.23313985  0.62084221  1.0
  Cu  Cu6  1  0.94620594  -0.23313985  0.37915779  1.0
  Cu  Cu7  1  1.23313985  0.05379406  0.87915779  1.0
  Cl  Cl8  1  1.73338464  0.13836818  0.97141519  1.0
  Cl  Cl9  1  0.86163182  -0.73338464  0.47141519  1.0
  Cl  Cl10  1  1.13836818  0.73338464  0.52858481  1.0
  Cl  Cl11  1  0.26661536  -0.13836818  0.02858481  1.0
  Cl  Cl12  1  1.51000349  0.26690215  0.48188753  1.0
  Cl  Cl13  1  0.73309785  -0.51000349  0.98188753  1.0
  Cl  Cl14  1  1.26690215  0.51000349  0.01811247  1.0
  Cl  Cl15  1  0.48999651  -0.26690215  0.51811247  1.0
  Cl  Cl16  1  1.17606211  0.27443469  0.41970969  1.0
  Cl  Cl17  1  0.72556531  -0.17606211  0.91970969  1.0
  Cl  Cl18  1  1.27443469  0.17606211  0.08029031  1.0
  Cl  Cl19  1  0.82393789  -0.27443469  0.58029031  1.0
  Cl  Cl20  1  0.97504983  -0.02495017  0.25000000  1.0
  Cl  Cl21  1  1.02495017  0.02495017  0.75000000  1.0
  Cl  Cl22  1  0.58980303  -0.41019697  0.25000000  1.0
  Cl  Cl23  1  1.41019697  0.41019697  0.75000000  1.0
  Cl  Cl24  1  0.60448437  -0.01451311  0.29114716  1.0
  Cl  Cl25  1  1.01451311  0.39551563  0.79114716  1.0
  Cl  Cl26  1  0.98548689  -0.39551563  0.20885284  1.0
  Cl  Cl27  1  1.39551563  0.01451311  0.70885284  1.0
  O  O28  1  0.77813662  -0.22186338  0.25000000  1.0
  O  O29  1  1.22186338  0.22186338  0.75000000  1.0
  K  K30  1  0.28279908  -0.03646204  0.36680134  1.0
  K  K31  1  1.03646204  0.71720092  0.86680134  1.0
  K  K32  1  0.96353796  -0.71720092  0.13319866  1.0
  K  K33  1  1.71720092  0.03646204  0.63319866  1.0
  K  K34  1  1.54765989  0.28990941  0.12969593  1.0
  K  K35  1  0.71009059  -0.54765989  0.62969593  1.0
  K  K36  1  1.28990941  0.54765989  0.37030407  1.0
  K  K37  1  0.45234011  -0.28990941  0.87030407  1.0
