# generated using pymatgen
data_C3F2
_symmetry_space_group_name_H-M   'P 1'
_cell_length_a   12.31863659
_cell_length_b   9.09257839
_cell_length_c   13.05265300
_cell_angle_alpha   64.73782121
_cell_angle_beta   41.87637177
_cell_angle_gamma   73.38580702
_symmetry_Int_Tables_number   1
_chemical_formula_structural   C3F2
_chemical_formula_sum   'C36 F24'
_cell_volume   881.36370997
_cell_formula_units_Z   12
loop_
 _symmetry_equiv_pos_site_id
 _symmetry_equiv_pos_as_xyz
  1  'x, y, z'
loop_
 _atom_site_type_symbol
 _atom_site_label
 _atom_site_symmetry_multiplicity
 _atom_site_fract_x
 _atom_site_fract_y
 _atom_site_fract_z
 _atom_site_occupancy
  C  C0  1  -0.38776766  0.51391335  1.44581321  1.0
  C  C1  1  0.80418679  -0.17804110  0.63776766  1.0
  C  C2  1  1.51391335  -0.38776766  0.42804110  1.0
  C  C3  1  0.82195890  -0.19581321  0.73608665  1.0
  C  C4  1  -0.16510350  0.72199933  1.21774708  1.0
  C  C5  1  0.03225292  0.02464291  1.41510350  1.0
  C  C6  1  1.72199933  -0.16510350  0.22535709  1.0
  C  C7  1  0.02464291  0.03225292  1.52800067  1.0
  C  C8  1  0.19949760  0.49347597  1.38868325  1.0
  C  C9  1  0.86131675  0.33165682  1.05050240  1.0
  C  C10  1  1.49347597  0.19949760  -0.08165682  1.0
  C  C11  1  0.33165682  -0.13868325  0.75652403  1.0
  C  C12  1  -0.22906491  0.56903560  1.34133547  1.0
  C  C13  1  0.90866453  -0.06869385  0.47906491  1.0
  C  C14  1  1.56903560  -0.22906491  0.31869385  1.0
  C  C15  1  0.93130615  -0.09133547  0.68096440  1.0
  C  C16  1  0.05704490  -0.06431295  0.97218329  1.0
  C  C17  1  0.27781671  0.21491524  1.19295510  1.0
  C  C18  1  0.93568705  0.05704490  1.03508476  1.0
  C  C19  1  0.21491524  0.27781671  1.31431295  1.0
  C  C20  1  0.00884300  0.76803988  1.07215129  1.0
  C  C21  1  0.17784871  0.09903417  1.24115700  1.0
  C  C22  1  0.76803988  0.00884300  1.15096583  1.0
  C  C23  1  0.09903417  0.17784871  1.48196012  1.0
  C  C24  1  0.25606809  0.43612930  1.27306570  1.0
  C  C25  1  0.97693430  -0.78473691  0.99393191  1.0
  C  C26  1  0.43612930  0.25606809  1.03473691  1.0
  C  C27  1  0.21526309  -0.02306570  0.81387070  1.0
  C  C28  1  1.12753663  0.65310297  0.00771105  1.0
  C  C29  1  0.24228895  0.03835065  1.12246337  1.0
  C  C30  1  0.65310297  0.12753663  1.21164935  1.0
  C  C31  1  0.03835065  0.24228895  1.59689703  1.0
  C  C32  1  1.28727789  0.69865791  -0.14497282  1.0
  C  C33  1  1.39497282  0.09096298  -0.03727789  1.0
  C  C34  1  0.69865791  0.28727789  1.15903702  1.0
  C  C35  1  0.09096298  0.39497282  1.55134209  1.0
  F  F36  1  -0.14209121  0.46991517  1.36840901  1.0
  F  F37  1  0.88159099  -0.05376703  0.39209121  1.0
  F  F38  1  1.46991517  -0.14209121  0.30376703  1.0
  F  F39  1  0.94623297  -0.11840901  0.78008483  1.0
  F  F40  1  0.34391323  0.54438415  1.12098230  1.0
  F  F41  1  1.12901770  0.25927968  -0.09391323  1.0
  F  F42  1  1.54438415  0.34391323  -0.00927968  1.0
  F  F43  1  0.25927968  0.12901770  1.70561585  1.0
  F  F44  1  0.09131087  0.49105472  1.08267540  1.0
  F  F45  1  1.16732460  -0.08495900  0.15868913  1.0
  F  F46  1  0.49105472  0.09131087  1.33495900  1.0
  F  F47  1  -0.08495900  0.16732460  1.75894528  1.0
  F  F48  1  1.39600788  0.58413722  -0.20231911  1.0
  F  F49  1  0.45231911  1.02782599  0.85399212  1.0
  F  F50  1  0.58413722  0.39600788  1.22217401  1.0
  F  F51  1  1.02782599  -0.54768089  0.66586278  1.0
  F  F52  1  0.64512724  1.24229857  0.76693979  1.0
  F  F53  1  0.48306021  -0.09563440  0.60487276  1.0
  F  F54  1  1.24229857  -0.35487276  0.34563440  1.0
  F  F55  1  0.90436560  0.48306021  1.00770143  1.0
  F  F56  1  0.55563037  1.36513840  0.55980795  1.0
  F  F57  1  0.69019205  -0.26942328  0.69436963  1.0
  F  F58  1  1.36513840  -0.44436963  0.51942328  1.0
  F  F59  1  0.73057672  -0.30980795  0.88486160  1.0
