# generated using pymatgen
data_HfCo3B2
_symmetry_space_group_name_H-M   'P 1'
_cell_length_a   5.68588780
_cell_length_b   5.68588780
_cell_length_c   5.68588780
_cell_angle_alpha   94.52801756
_cell_angle_beta   94.52801756
_cell_angle_gamma   94.52801756
_symmetry_Int_Tables_number   1
_chemical_formula_structural   HfCo3B2
_chemical_formula_sum   'Hf3 Co9 B6'
_cell_volume   182.00293734
_cell_formula_units_Z   3
loop_
 _symmetry_equiv_pos_site_id
 _symmetry_equiv_pos_as_xyz
  1  'x, y, z'
loop_
 _atom_site_type_symbol
 _atom_site_label
 _atom_site_symmetry_multiplicity
 _atom_site_fract_x
 _atom_site_fract_y
 _atom_site_fract_z
 _atom_site_occupancy
  Hf  Hf0  1  0.67046154  0.67046154  0.67046154  1.0
  Hf  Hf1  1  0.32953846  0.32953846  0.32953846  1.0
  Hf  Hf2  1  0.00000000  0.00000000  0.00000000  1.0
  Co  Co3  1  0.69434444  0.69435658  0.19658778  1.0
  Co  Co4  1  1.30564342  -0.19658778  0.30565556  1.0
  Co  Co5  1  0.80341222  0.30565556  0.30564342  1.0
  Co  Co6  1  1.30565556  0.30564342  -0.19658778  1.0
  Co  Co7  1  0.69435658  1.19658778  -0.30565556  1.0
  Co  Co8  1  1.19658778  0.69434444  -0.30564342  1.0
  Co  Co9  1  1.00000000  -0.00000000  -0.50000000  1.0
  Co  Co10  1  1.00000000  -0.50000000  0.00000000  1.0
  Co  Co11  1  0.50000000  0.00000000  0.00000000  1.0
  B  B12  1  1.00000009  0.62289610  0.37711160  1.0
  B  B13  1  0.37710390  0.62288840  -0.00000009  1.0
  B  B14  1  0.62288840  0.99999991  -0.62289610  1.0
  B  B15  1  0.99999991  0.37710390  -0.37711160  1.0
  B  B16  1  1.62289610  0.37711160  0.00000009  1.0
  B  B17  1  1.37711160  0.00000009  0.62289610  1.0
