# generated using pymatgen
data_NaBe2Tl3F8
_symmetry_space_group_name_H-M   'P 1'
_cell_length_a   5.86885382
_cell_length_b   5.86885382
_cell_length_c   7.62053868
_cell_angle_alpha   90.00000000
_cell_angle_beta   90.00000000
_cell_angle_gamma   120.00000000
_symmetry_Int_Tables_number   1
_chemical_formula_structural   NaBe2Tl3F8
_chemical_formula_sum   'Na1 Be2 Tl3 F8'
_cell_volume   227.31227458
_cell_formula_units_Z   1
loop_
 _symmetry_equiv_pos_site_id
 _symmetry_equiv_pos_as_xyz
  1  'x, y, z'
loop_
 _atom_site_type_symbol
 _atom_site_label
 _atom_site_symmetry_multiplicity
 _atom_site_fract_x
 _atom_site_fract_y
 _atom_site_fract_z
 _atom_site_occupancy
  Na  Na0  1  0.00000000  0.00000000  0.50000000  1.0
  Be  Be1  1  0.33333333  0.66666667  0.23882686  1.0
  Be  Be2  1  0.66666667  0.33333333  0.76117314  1.0
  Tl  Tl3  1  0.33333333  0.66666667  0.69073274  1.0
  Tl  Tl4  1  0.66666667  0.33333333  0.30926726  1.0
  Tl  Tl5  1  0.00000000  0.00000000  0.00000000  1.0
  F  F6  1  0.62652643  0.81326321  0.31177493  1.0
  F  F7  1  0.81326321  0.62652643  0.68822507  1.0
  F  F8  1  0.81326321  0.18673679  0.68822507  1.0
  F  F9  1  0.18673679  0.81326321  0.31177493  1.0
  F  F10  1  0.18673679  0.37347357  0.31177493  1.0
  F  F11  1  0.37347357  0.18673679  0.68822507  1.0
  F  F12  1  0.33333333  0.66666667  0.03607482  1.0
  F  F13  1  0.66666667  0.33333333  0.96392518  1.0
