# generated using pymatgen
data_Sr5P3O14
_symmetry_space_group_name_H-M   'P 1'
_cell_length_a   9.97260624
_cell_length_b   9.97260624
_cell_length_c   7.33234562
_cell_angle_alpha   90.00000000
_cell_angle_beta   90.00000000
_cell_angle_gamma   120.00000000
_symmetry_Int_Tables_number   1
_chemical_formula_structural   Sr5P3O14
_chemical_formula_sum   'Sr10 P6 O28'
_cell_volume   631.52551635
_cell_formula_units_Z   2
loop_
 _symmetry_equiv_pos_site_id
 _symmetry_equiv_pos_as_xyz
  1  'x, y, z'
loop_
 _atom_site_type_symbol
 _atom_site_label
 _atom_site_symmetry_multiplicity
 _atom_site_fract_x
 _atom_site_fract_y
 _atom_site_fract_z
 _atom_site_occupancy
  O  O0  1  0.73639329  0.64946361  0.42256115  1.0
  O  O1  1  0.73639329  0.64946361  0.07743885  1.0
  O  O2  1  0.64946361  0.91307031  0.92256115  1.0
  O  O3  1  0.64946361  0.91307031  0.57743885  1.0
  O  O4  1  0.91307031  0.26360671  0.42256115  1.0
  O  O5  1  0.91307031  0.26360671  0.07743885  1.0
  O  O6  1  0.35053639  0.08692969  0.42256115  1.0
  O  O7  1  0.35053639  0.08692969  0.07743885  1.0
  O  O8  1  0.26360671  0.35053639  0.92256115  1.0
  O  O9  1  0.26360671  0.35053639  0.57743885  1.0
  O  O10  1  0.08692969  0.73639329  0.92256115  1.0
  O  O11  1  0.08692969  0.73639329  0.57743885  1.0
  O  O12  1  0.33582978  0.85436592  0.25000000  1.0
  O  O13  1  0.85436592  0.51853614  0.75000000  1.0
  O  O14  1  0.51853614  0.66417022  0.25000000  1.0
  O  O15  1  0.14563408  0.48146386  0.25000000  1.0
  O  O16  1  0.66417022  0.14563408  0.75000000  1.0
  O  O17  1  0.48146386  0.33582978  0.75000000  1.0
  O  O18  1  0.53691374  0.41522014  0.25000000  1.0
  O  O19  1  0.41522014  0.87830639  0.75000000  1.0
  O  O20  1  0.87830639  0.46308626  0.25000000  1.0
  O  O21  1  0.58477986  0.12169361  0.25000000  1.0
  O  O22  1  0.46308626  0.58477986  0.75000000  1.0
  O  O23  1  0.12169361  0.53691374  0.75000000  1.0
  O  O24  1  0.00000000  0.00000000  0.34258233  1.0
  O  O25  1  0.00000000  0.00000000  0.15741767  1.0
  O  O26  1  0.00000000  0.00000000  0.84258233  1.0
  O  O27  1  0.00000000  0.00000000  0.65741767  1.0
  Sr  Sr28  1  0.33333333  0.66666667  0.49981676  1.0
  Sr  Sr29  1  0.33333333  0.66666667  0.00018324  1.0
  Sr  Sr30  1  0.66666667  0.33333333  0.99981676  1.0
  Sr  Sr31  1  0.66666667  0.33333333  0.50018324  1.0
  Sr  Sr32  1  0.00771056  0.74805563  0.25000000  1.0
  Sr  Sr33  1  0.74805563  0.74034507  0.75000000  1.0
  Sr  Sr34  1  0.74034507  0.99228944  0.25000000  1.0
  Sr  Sr35  1  0.25194437  0.25965493  0.25000000  1.0
  Sr  Sr36  1  0.99228944  0.25194437  0.75000000  1.0
  Sr  Sr37  1  0.25965493  0.00771056  0.75000000  1.0
  P  P38  1  0.63063684  0.59694521  0.25000000  1.0
  P  P39  1  0.59694521  0.96630837  0.75000000  1.0
  P  P40  1  0.96630837  0.36936316  0.25000000  1.0
  P  P41  1  0.40305479  0.03369163  0.25000000  1.0
  P  P42  1  0.36936316  0.40305479  0.75000000  1.0
  P  P43  1  0.03369163  0.63063684  0.75000000  1.0
