# generated using pymatgen
data_Y(BIr)2
_symmetry_space_group_name_H-M   'P 1'
_cell_length_a   8.25602448
_cell_length_b   8.25581073
_cell_length_c   6.46604852
_cell_angle_alpha   66.94759780
_cell_angle_beta   66.94411224
_cell_angle_gamma   46.10828996
_symmetry_Int_Tables_number   1
_chemical_formula_structural   Y(BIr)2
_chemical_formula_sum   'Y4 B8 Ir8'
_cell_volume   287.41081395
_cell_formula_units_Z   4
loop_
 _symmetry_equiv_pos_site_id
 _symmetry_equiv_pos_as_xyz
  1  'x, y, z'
loop_
 _atom_site_type_symbol
 _atom_site_label
 _atom_site_symmetry_multiplicity
 _atom_site_fract_x
 _atom_site_fract_y
 _atom_site_fract_z
 _atom_site_occupancy
  Y  Y0  1  0.12500000  0.12500000  1.62500000  1.0
  Y  Y1  1  0.12500000  0.62500000  1.12500000  1.0
  Y  Y2  1  0.12500000  0.12500000  1.12500000  1.0
  Y  Y3  1  0.62500000  0.12500000  1.12500000  1.0
  B  B4  1  -0.24597523  0.46647206  0.38975647  1.0
  B  B5  1  0.38974669  0.38975647  1.46647206  1.0
  B  B6  1  -0.21647206  0.49597523  0.86025331  1.0
  B  B7  1  -0.13975647  0.86025331  0.49597523  1.0
  B  B8  1  0.38975647  0.38974669  -0.24597523  1.0
  B  B9  1  0.46647206  -0.24597523  1.38974669  1.0
  B  B10  1  -0.13974669  0.86024353  0.78352794  1.0
  B  B11  1  -0.50402477  0.78352794  0.86024353  1.0
  Ir  Ir12  1  0.52917687  0.52911302  1.18121958  1.0
  Ir  Ir13  1  -0.23950947  0.18121958  0.52911302  1.0
  Ir  Ir14  1  -0.27911302  0.72082313  0.48950947  1.0
  Ir  Ir15  1  0.06878042  0.48950947  0.72082313  1.0
  Ir  Ir16  1  0.18121958  -0.23950947  1.52917687  1.0
  Ir  Ir17  1  0.52911302  0.52917687  -0.23950947  1.0
  Ir  Ir18  1  -0.51049053  1.06878042  0.72088698  1.0
  Ir  Ir19  1  -0.27917687  0.72088698  1.06878042  1.0
