# generated using pymatgen
data_HfF4
_symmetry_space_group_name_H-M   'P 1'
_cell_length_a   7.95522107
_cell_length_b   7.95522107
_cell_length_c   7.75492966
_cell_angle_alpha   90.00000000
_cell_angle_beta   90.00000000
_cell_angle_gamma   90.00000000
_symmetry_Int_Tables_number   1
_chemical_formula_structural   HfF4
_chemical_formula_sum   'Hf8 F32'
_cell_volume   490.77492895
_cell_formula_units_Z   8
loop_
 _symmetry_equiv_pos_site_id
 _symmetry_equiv_pos_as_xyz
  1  'x, y, z'
loop_
 _atom_site_type_symbol
 _atom_site_label
 _atom_site_symmetry_multiplicity
 _atom_site_fract_x
 _atom_site_fract_y
 _atom_site_fract_z
 _atom_site_occupancy
  Hf  Hf0  1  0.67992501  0.81711054  0.76994501  1.0
  Hf  Hf1  1  0.67992501  0.81711054  0.23005499  1.0
  Hf  Hf2  1  0.81711054  0.32007499  0.26994501  1.0
  Hf  Hf3  1  0.81711054  0.32007499  0.73005499  1.0
  Hf  Hf4  1  0.32007499  0.18288946  0.76994501  1.0
  Hf  Hf5  1  0.32007499  0.18288946  0.23005499  1.0
  Hf  Hf6  1  0.18288946  0.67992501  0.26994501  1.0
  Hf  Hf7  1  0.18288946  0.67992501  0.73005499  1.0
  F  F8  1  0.93420031  0.79660905  0.78530009  1.0
  F  F9  1  0.93420031  0.79660905  0.21469991  1.0
  F  F10  1  0.79660905  0.06579969  0.28530009  1.0
  F  F11  1  0.79660905  0.06579969  0.71469991  1.0
  F  F12  1  0.06579969  0.20339095  0.78530009  1.0
  F  F13  1  0.06579969  0.20339095  0.21469991  1.0
  F  F14  1  0.20339095  0.93420031  0.28530009  1.0
  F  F15  1  0.20339095  0.93420031  0.71469991  1.0
  F  F16  1  0.71119296  0.55949775  0.69521515  1.0
  F  F17  1  0.71119296  0.55949775  0.30478485  1.0
  F  F18  1  0.55949775  0.28880704  0.19521515  1.0
  F  F19  1  0.55949775  0.28880704  0.80478485  1.0
  F  F20  1  0.28880704  0.44050225  0.69521515  1.0
  F  F21  1  0.28880704  0.44050225  0.30478485  1.0
  F  F22  1  0.44050225  0.71119296  0.19521515  1.0
  F  F23  1  0.44050225  0.71119296  0.80478485  1.0
  F  F24  1  0.81860812  0.30734485  -0.00000000  1.0
  F  F25  1  0.30734485  0.18139188  0.50000000  1.0
  F  F26  1  0.18139188  0.69265515  0.00000000  1.0
  F  F27  1  0.69265515  0.81860812  0.50000000  1.0
  F  F28  1  0.70585742  0.67281751  0.00000000  1.0
  F  F29  1  0.67281751  0.29414258  0.50000000  1.0
  F  F30  1  0.29414258  0.32718249  0.00000000  1.0
  F  F31  1  0.32718249  0.70585742  0.50000000  1.0
  F  F32  1  0.66567297  0.95987720  0.00000000  1.0
  F  F33  1  0.95987720  0.33432703  0.50000000  1.0
  F  F34  1  0.33432703  0.04012280  -0.00000000  1.0
  F  F35  1  0.04012280  0.66567297  0.50000000  1.0
  F  F36  1  0.00000000  0.50000000  0.79534455  1.0
  F  F37  1  0.00000000  0.50000000  0.20465545  1.0
  F  F38  1  0.50000000  -0.00000000  0.29534455  1.0
  F  F39  1  0.50000000  -0.00000000  0.70465545  1.0
