# generated using pymatgen
data_K2CoP4H8O15
_symmetry_space_group_name_H-M   'P 1'
_cell_length_a   7.62677017
_cell_length_b   7.62677017
_cell_length_c   6.77967176
_cell_angle_alpha   80.95436557
_cell_angle_beta   99.04563443
_cell_angle_gamma   74.46812174
_symmetry_Int_Tables_number   1
_chemical_formula_structural   K2CoP4H8O15
_chemical_formula_sum   'K2 Co1 P4 H8 O15'
_cell_volume   366.90540899
_cell_formula_units_Z   1
loop_
 _symmetry_equiv_pos_site_id
 _symmetry_equiv_pos_as_xyz
  1  'x, y, z'
loop_
 _atom_site_type_symbol
 _atom_site_label
 _atom_site_symmetry_multiplicity
 _atom_site_fract_x
 _atom_site_fract_y
 _atom_site_fract_z
 _atom_site_occupancy
  K  K0  1  0.78085301  -0.78085301  0.42550517  1.0
  K  K1  1  0.21914699  -0.21914699  0.57449483  1.0
  P  P2  1  0.75166408  -0.23482865  0.83333625  1.0
  P  P3  1  1.23482865  0.24833592  0.83333625  1.0
  P  P4  1  0.76517135  -0.24833592  0.16666375  1.0
  P  P5  1  1.24833592  0.23482865  0.16666375  1.0
  O  O6  1  0.87366413  -0.10953806  0.77787706  1.0
  O  O7  1  1.10953806  0.12633587  0.77787706  1.0
  O  O8  1  0.89046194  -0.12633587  0.22212294  1.0
  O  O9  1  1.12633587  0.10953806  0.22212294  1.0
  O  O10  1  0.54071019  -0.13721329  0.72135891  1.0
  O  O11  1  1.13721329  0.45928981  0.72135891  1.0
  O  O12  1  0.86278671  -0.45928981  0.27864109  1.0
  O  O13  1  1.45928981  0.13721329  0.27864109  1.0
  O  O14  1  1.42970620  0.18801824  0.78861392  1.0
  O  O15  1  0.81198176  -0.42970620  0.78861392  1.0
  O  O16  1  1.18801824  0.42970620  0.21138608  1.0
  O  O17  1  0.57029380  -0.18801824  0.21138608  1.0
  O  O18  1  0.76344031  -0.76344031  0.94275192  1.0
  O  O19  1  0.23655969  -0.23655969  0.05724808  1.0
  O  O20  1  0.50000000  -0.50000000  0.50000000  1.0
  Co  Co21  1  0.00000000  0.00000000  0.00000000  1.0
  H  H22  1  0.49254403  -0.00196338  0.74279245  1.0
  H  H23  1  1.00196338  0.50745597  0.74279245  1.0
  H  H24  1  0.99803662  -0.50745597  0.25720755  1.0
  H  H25  1  1.50745597  0.00196338  0.25720755  1.0
  H  H26  1  1.63864458  0.22908219  0.88188506  1.0
  H  H27  1  0.77091781  -0.63864458  0.88188506  1.0
  H  H28  1  1.22908219  0.63864458  0.11811494  1.0
  H  H29  1  0.36135542  -0.22908219  0.11811494  1.0
