# generated using pymatgen
data_Sr(GaTe2)2
_symmetry_space_group_name_H-M   'P 1'
_cell_length_a   6.81795303
_cell_length_b   6.81795303
_cell_length_c   11.88826936
_cell_angle_alpha   90.00000000
_cell_angle_beta   90.00000000
_cell_angle_gamma   120.26042072
_symmetry_Int_Tables_number   1
_chemical_formula_structural   Sr(GaTe2)2
_chemical_formula_sum   'Sr2 Ga4 Te8'
_cell_volume   477.32218878
_cell_formula_units_Z   2
loop_
 _symmetry_equiv_pos_site_id
 _symmetry_equiv_pos_as_xyz
  1  'x, y, z'
loop_
 _atom_site_type_symbol
 _atom_site_label
 _atom_site_symmetry_multiplicity
 _atom_site_fract_x
 _atom_site_fract_y
 _atom_site_fract_z
 _atom_site_occupancy
  Sr  Sr0  1  0.00000000  0.00000000  0.75000000  1.0
  Sr  Sr1  1  0.00000000  0.00000000  0.25000000  1.0
  Ga  Ga2  1  -0.26158058  1.25823961  0.00000000  1.0
  Ga  Ga3  1  0.25823961  0.73841942  0.50000000  1.0
  Ga  Ga4  1  -0.25823961  1.26158058  0.50000000  1.0
  Ga  Ga5  1  0.26158058  0.74176039  0.00000000  1.0
  Te  Te6  1  -0.15636555  1.69110093  0.00000000  1.0
  Te  Te7  1  0.69110093  0.84363445  0.50000000  1.0
  Te  Te8  1  -0.69110093  1.15636555  0.50000000  1.0
  Te  Te9  1  0.15636555  0.30889907  0.00000000  1.0
  Te  Te10  1  -0.00000000  1.50000000  0.67430412  1.0
  Te  Te11  1  -0.00000000  1.50000000  0.32569588  1.0
  Te  Te12  1  0.50000000  1.00000000  0.17430412  1.0
  Te  Te13  1  0.50000000  1.00000000  0.82569588  1.0
