# generated using pymatgen
data_Ba3PbO
_symmetry_space_group_name_H-M   'P 1'
_cell_length_a   7.82656175
_cell_length_b   7.82656175
_cell_length_c   7.82656175
_cell_angle_alpha   90.07633979
_cell_angle_beta   120.01213642
_cell_angle_gamma   119.89976532
_symmetry_Int_Tables_number   1
_chemical_formula_structural   Ba3PbO
_chemical_formula_sum   'Ba6 Pb2 O2'
_cell_volume   339.22368663
_cell_formula_units_Z   2
loop_
 _symmetry_equiv_pos_site_id
 _symmetry_equiv_pos_as_xyz
  1  'x, y, z'
loop_
 _atom_site_type_symbol
 _atom_site_label
 _atom_site_symmetry_multiplicity
 _atom_site_fract_x
 _atom_site_fract_y
 _atom_site_fract_z
 _atom_site_occupancy
  Ba  Ba0  1  0.00000000  0.73464050  0.73464050  1.0
  Ba  Ba1  1  0.50000000  0.73464050  1.23464050  1.0
  Ba  Ba2  1  0.50000000  0.26535950  0.76535950  1.0
  Ba  Ba3  1  0.00000000  0.26535950  0.26535950  1.0
  Ba  Ba4  1  1.03038899  0.78038899  1.25000000  1.0
  Ba  Ba5  1  0.96961101  1.21961101  0.75000000  1.0
  Pb  Pb6  1  1.50066142  1.25066142  1.25000000  1.0
  Pb  Pb7  1  0.49933858  0.74933858  0.75000000  1.0
  O  O8  1  1.00000000  1.00000000  0.50000000  1.0
  O  O9  1  1.00000000  0.50000000  1.00000000  1.0
