# generated using pymatgen
data_Li5OsO6
_symmetry_space_group_name_H-M   'P 1'
_cell_length_a   5.07675889
_cell_length_b   5.07675889
_cell_length_c   14.21921342
_cell_angle_alpha   90.00000000
_cell_angle_beta   90.00000000
_cell_angle_gamma   120.00000000
_symmetry_Int_Tables_number   1
_chemical_formula_structural   Li5OsO6
_chemical_formula_sum   'Li15 Os3 O18'
_cell_volume   317.37979855
_cell_formula_units_Z   3
loop_
 _symmetry_equiv_pos_site_id
 _symmetry_equiv_pos_as_xyz
  1  'x, y, z'
loop_
 _atom_site_type_symbol
 _atom_site_label
 _atom_site_symmetry_multiplicity
 _atom_site_fract_x
 _atom_site_fract_y
 _atom_site_fract_z
 _atom_site_occupancy
  Li  Li0  1  0.75814431  0.87907215  0.50000000  1.0
  Li  Li1  1  0.12092785  0.87907215  0.83333333  1.0
  Li  Li2  1  0.12092785  0.24185569  0.16666667  1.0
  Li  Li3  1  0.11285814  0.55642907  0.50000000  1.0
  Li  Li4  1  0.44357093  0.55642907  0.83333333  1.0
  Li  Li5  1  0.44357093  0.88714186  0.16666667  1.0
  Li  Li6  1  0.46725375  0.23362688  0.50000000  1.0
  Li  Li7  1  0.76637312  0.23362688  0.83333333  1.0
  Li  Li8  1  0.76637312  0.53274625  0.16666667  1.0
  Li  Li9  1  0.10797190  0.55398595  0.00000000  1.0
  Li  Li10  1  0.44601405  0.55398595  0.33333333  1.0
  Li  Li11  1  0.44601405  0.89202810  0.66666667  1.0
  Li  Li12  1  0.44301561  0.22150781  0.00000000  1.0
  Li  Li13  1  0.77849219  0.22150781  0.33333333  1.0
  Li  Li14  1  0.77849219  0.55698439  0.66666667  1.0
  Os  Os15  1  0.77604467  0.88802233  0.00000000  1.0
  Os  Os16  1  0.11197767  0.88802233  0.33333333  1.0
  Os  Os17  1  0.11197767  0.22395533  0.66666667  1.0
  O  O18  1  0.07911363  0.88528876  0.07629390  1.0
  O  O19  1  0.07911363  0.19382487  0.92370610  1.0
  O  O20  1  0.80617513  0.88528876  0.25703943  1.0
  O  O21  1  0.80617513  0.92088637  0.74296057  1.0
  O  O22  1  0.11471124  0.92088637  0.59037276  1.0
  O  O23  1  0.11471124  0.19382487  0.40962724  1.0
  O  O24  1  0.46835386  0.88754799  0.92216325  1.0
  O  O25  1  0.46835386  0.58080586  0.07783675  1.0
  O  O26  1  0.41919414  0.88754799  0.41117008  1.0
  O  O27  1  0.41919414  0.53164614  0.58882992  1.0
  O  O28  1  0.11245201  0.53164614  0.74450341  1.0
  O  O29  1  0.11245201  0.58080586  0.25549659  1.0
  O  O30  1  0.77349325  0.58064336  0.92148354  1.0
  O  O31  1  0.77349325  0.19284989  0.07851646  1.0
  O  O32  1  0.80715011  0.58064336  0.41184979  1.0
  O  O33  1  0.80715011  0.22650675  0.58815021  1.0
  O  O34  1  0.41935664  0.22650675  0.74518313  1.0
  O  O35  1  0.41935664  0.19284989  0.25481687  1.0
