# generated using pymatgen
data_SrNiO3
_symmetry_space_group_name_H-M   'P 1'
_cell_length_a   5.42416780
_cell_length_b   5.42416780
_cell_length_c   4.82293835
_cell_angle_alpha   90.00000000
_cell_angle_beta   90.00000000
_cell_angle_gamma   120.00000000
_symmetry_Int_Tables_number   1
_chemical_formula_structural   SrNiO3
_chemical_formula_sum   'Sr2 Ni2 O6'
_cell_volume   122.88774484
_cell_formula_units_Z   2
loop_
 _symmetry_equiv_pos_site_id
 _symmetry_equiv_pos_as_xyz
  1  'x, y, z'
loop_
 _atom_site_type_symbol
 _atom_site_label
 _atom_site_symmetry_multiplicity
 _atom_site_fract_x
 _atom_site_fract_y
 _atom_site_fract_z
 _atom_site_occupancy
  Sr  Sr0  1  0.33333333  0.66666667  0.75000000  1.0
  Sr  Sr1  1  0.66666667  0.33333333  0.25000000  1.0
  Ni  Ni2  1  0.00000000  0.00000000  0.50000000  1.0
  Ni  Ni3  1  0.00000000  0.00000000  0.00000000  1.0
  O  O4  1  0.15428594  0.84571406  0.25000000  1.0
  O  O5  1  0.15428594  0.30857188  0.25000000  1.0
  O  O6  1  0.84571406  0.15428594  0.75000000  1.0
  O  O7  1  0.84571406  0.69142812  0.75000000  1.0
  O  O8  1  0.69142812  0.84571406  0.25000000  1.0
  O  O9  1  0.30857188  0.15428594  0.75000000  1.0
