# generated using pymatgen
data_Sr2CuBrO2
_symmetry_space_group_name_H-M   'P 1'
_cell_length_a   9.83531641
_cell_length_b   9.83531641
_cell_length_c   9.83531641
_cell_angle_alpha   23.84802395
_cell_angle_beta   23.84802395
_cell_angle_gamma   23.84802395
_symmetry_Int_Tables_number   1
_chemical_formula_structural   Sr2CuBrO2
_chemical_formula_sum   'Sr2 Cu1 Br1 O2'
_cell_volume   136.63142741
_cell_formula_units_Z   1
loop_
 _symmetry_equiv_pos_site_id
 _symmetry_equiv_pos_as_xyz
  1  'x, y, z'
loop_
 _atom_site_type_symbol
 _atom_site_label
 _atom_site_symmetry_multiplicity
 _atom_site_fract_x
 _atom_site_fract_y
 _atom_site_fract_z
 _atom_site_occupancy
  Sr  Sr0  1  0.75233960  0.75233960  0.75233960  1.0
  Sr  Sr1  1  1.24766040  1.24766040  0.24766040  1.0
  Cu  Cu2  1  0.00000000  0.00000000  0.00000000  1.0
  Br  Br3  1  1.50000000  0.50000000  0.50000000  1.0
  O  O4  1  0.93662477  0.93662477  0.93662477  1.0
  O  O5  1  1.06337523  1.06337523  0.06337523  1.0
