# generated using pymatgen
data_Ba3Al3Ga2
_symmetry_space_group_name_H-M   'P 1'
_cell_length_a   5.95841196
_cell_length_b   5.95841196
_cell_length_c   14.84105902
_cell_angle_alpha   90.00000000
_cell_angle_beta   90.00000000
_cell_angle_gamma   120.00000000
_symmetry_Int_Tables_number   1
_chemical_formula_structural   Ba3Al3Ga2
_chemical_formula_sum   'Ba6 Al6 Ga4'
_cell_volume   456.30641803
_cell_formula_units_Z   2
loop_
 _symmetry_equiv_pos_site_id
 _symmetry_equiv_pos_as_xyz
  1  'x, y, z'
loop_
 _atom_site_type_symbol
 _atom_site_label
 _atom_site_symmetry_multiplicity
 _atom_site_fract_x
 _atom_site_fract_y
 _atom_site_fract_z
 _atom_site_occupancy
  Ba  Ba0  1  0.33333333  0.66666667  0.87597631  1.0
  Ba  Ba1  1  0.33333333  0.66666667  0.62402369  1.0
  Ba  Ba2  1  0.66666667  0.33333333  0.37597631  1.0
  Ba  Ba3  1  0.66666667  0.33333333  0.12402369  1.0
  Ba  Ba4  1  0.00000000  0.00000000  0.50000000  1.0
  Ba  Ba5  1  0.00000000  0.00000000  0.00000000  1.0
  Al  Al6  1  0.15979575  0.84020425  0.25000000  1.0
  Al  Al7  1  0.15979575  0.31959150  0.25000000  1.0
  Al  Al8  1  0.84020425  0.15979575  0.75000000  1.0
  Al  Al9  1  0.84020425  0.68040850  0.75000000  1.0
  Al  Al10  1  0.68040850  0.84020425  0.25000000  1.0
  Al  Al11  1  0.31959150  0.15979575  0.75000000  1.0
  Ga  Ga12  1  0.33333333  0.66666667  0.38810684  1.0
  Ga  Ga13  1  0.33333333  0.66666667  0.11189316  1.0
  Ga  Ga14  1  0.66666667  0.33333333  0.88810684  1.0
  Ga  Ga15  1  0.66666667  0.33333333  0.61189316  1.0
