# generated using pymatgen
data_CsSi3O7
_symmetry_space_group_name_H-M   'P 1'
_cell_length_a   5.05090142
_cell_length_b   10.58241130
_cell_length_c   13.44794051
_cell_angle_alpha   90.00000000
_cell_angle_beta   90.00000000
_cell_angle_gamma   90.00000000
_symmetry_Int_Tables_number   1
_chemical_formula_structural   CsSi3O7
_chemical_formula_sum   'Cs4 Si12 O28'
_cell_volume   718.80205283
_cell_formula_units_Z   4
loop_
 _symmetry_equiv_pos_site_id
 _symmetry_equiv_pos_as_xyz
  1  'x, y, z'
loop_
 _atom_site_type_symbol
 _atom_site_label
 _atom_site_symmetry_multiplicity
 _atom_site_fract_x
 _atom_site_fract_y
 _atom_site_fract_z
 _atom_site_occupancy
  Cs  Cs0  1  0.03424781  0.59891776  0.75170749  1.0
  Cs  Cs1  1  0.53424781  0.90108224  0.24829251  1.0
  Cs  Cs2  1  0.96575219  0.09891776  0.74829251  1.0
  Cs  Cs3  1  0.46575219  0.40108224  0.25170749  1.0
  Si  Si4  1  0.46984606  0.58386368  0.50843782  1.0
  Si  Si5  1  0.96984606  0.91613632  0.49156218  1.0
  Si  Si6  1  0.53015394  0.08386368  0.99156218  1.0
  Si  Si7  1  0.03015394  0.41613632  0.00843782  1.0
  Si  Si8  1  0.46567191  0.84824525  0.61356563  1.0
  Si  Si9  1  0.96567191  0.65175475  0.38643437  1.0
  Si  Si10  1  0.53432809  0.34824525  0.88643437  1.0
  Si  Si11  1  0.03432809  0.15175475  0.11356563  1.0
  Si  Si12  1  0.40360681  0.29682613  0.56182897  1.0
  Si  Si13  1  0.90360681  0.20317387  0.43817103  1.0
  Si  Si14  1  0.59639319  0.79682613  0.93817103  1.0
  Si  Si15  1  0.09639319  0.70317387  0.06182897  1.0
  O  O16  1  0.43841008  0.69481116  0.59224912  1.0
  O  O17  1  0.93841008  0.80518884  0.40775088  1.0
  O  O18  1  0.56158992  0.19481116  0.90775088  1.0
  O  O19  1  0.06158992  0.30518884  0.09224912  1.0
  O  O20  1  0.38750604  0.75509597  0.02577758  1.0
  O  O21  1  0.88750604  0.74490403  0.97422242  1.0
  O  O22  1  0.61249396  0.25509597  0.47422242  1.0
  O  O23  1  0.11249396  0.24490403  0.52577758  1.0
  O  O24  1  0.39087124  0.45275638  0.56302019  1.0
  O  O25  1  0.89087124  0.04724362  0.43697981  1.0
  O  O26  1  0.60912876  0.95275638  0.93697981  1.0
  O  O27  1  0.10912876  0.54724362  0.06302019  1.0
  O  O28  1  0.27521442  0.92197544  0.53138437  1.0
  O  O29  1  0.77521442  0.57802456  0.46861563  1.0
  O  O30  1  0.72478558  0.42197544  0.96861563  1.0
  O  O31  1  0.22478558  0.07802456  0.03138437  1.0
  O  O32  1  0.77425895  0.88830697  0.58650696  1.0
  O  O33  1  0.27425895  0.61169303  0.41349304  1.0
  O  O34  1  0.22574105  0.38830697  0.91349304  1.0
  O  O35  1  0.72574105  0.11169303  0.08650696  1.0
  O  O36  1  0.46036883  0.23651544  0.67084525  1.0
  O  O37  1  0.96036883  0.26348456  0.32915475  1.0
  O  O38  1  0.53963117  0.73651544  0.82915475  1.0
  O  O39  1  0.03963117  0.76348456  0.17084525  1.0
  O  O40  1  0.37428894  0.88777134  0.72387598  1.0
  O  O41  1  0.87428894  0.61222866  0.27612402  1.0
  O  O42  1  0.62571106  0.38777134  0.77612402  1.0
  O  O43  1  0.12571106  0.11222866  0.22387598  1.0
