# generated using pymatgen
data_Sr(Ag3O2)2
_symmetry_space_group_name_H-M   'P 1'
_cell_length_a   6.61327636
_cell_length_b   12.56989325
_cell_length_c   9.03365691
_cell_angle_alpha   90.00000000
_cell_angle_beta   90.00000000
_cell_angle_gamma   90.00000000
_symmetry_Int_Tables_number   1
_chemical_formula_structural   Sr(Ag3O2)2
_chemical_formula_sum   'Sr4 Ag24 O16'
_cell_volume   750.95143907
_cell_formula_units_Z   4
loop_
 _symmetry_equiv_pos_site_id
 _symmetry_equiv_pos_as_xyz
  1  'x, y, z'
loop_
 _atom_site_type_symbol
 _atom_site_label
 _atom_site_symmetry_multiplicity
 _atom_site_fract_x
 _atom_site_fract_y
 _atom_site_fract_z
 _atom_site_occupancy
  Sr  Sr0  1  0.75000000  0.50000000  0.88055914  1.0
  Sr  Sr1  1  0.75000000  0.00000000  0.61944086  1.0
  Sr  Sr2  1  0.25000000  0.50000000  0.11944086  1.0
  Sr  Sr3  1  0.25000000  0.00000000  0.38055914  1.0
  Ag  Ag4  1  0.92624515  0.26130346  0.54194804  1.0
  Ag  Ag5  1  0.92624515  0.23869654  0.95805196  1.0
  Ag  Ag6  1  0.42624515  0.26130346  0.45805196  1.0
  Ag  Ag7  1  0.42624515  0.23869654  0.04194804  1.0
  Ag  Ag8  1  0.07375485  0.76130346  0.04194804  1.0
  Ag  Ag9  1  0.07375485  0.73869654  0.45805196  1.0
  Ag  Ag10  1  0.57375485  0.76130346  0.95805196  1.0
  Ag  Ag11  1  0.57375485  0.73869654  0.54194804  1.0
  Ag  Ag12  1  0.71082475  0.37774246  0.23362558  1.0
  Ag  Ag13  1  0.71082475  0.12225754  0.26637442  1.0
  Ag  Ag14  1  0.21082475  0.37774246  0.76637442  1.0
  Ag  Ag15  1  0.21082475  0.12225754  0.73362558  1.0
  Ag  Ag16  1  0.28917525  0.87774246  0.73362558  1.0
  Ag  Ag17  1  0.28917525  0.62225754  0.76637442  1.0
  Ag  Ag18  1  0.78917525  0.87774246  0.26637442  1.0
  Ag  Ag19  1  0.78917525  0.62225754  0.23362558  1.0
  Ag  Ag20  1  0.59024696  0.25000000  0.75000000  1.0
  Ag  Ag21  1  0.09024696  0.25000000  0.25000000  1.0
  Ag  Ag22  1  0.40975304  0.75000000  0.25000000  1.0
  Ag  Ag23  1  0.90975304  0.75000000  0.75000000  1.0
  Ag  Ag24  1  0.00000000  0.50000000  0.50000000  1.0
  Ag  Ag25  1  0.00000000  0.00000000  0.00000000  1.0
  Ag  Ag26  1  0.50000000  0.50000000  0.50000000  1.0
  Ag  Ag27  1  0.50000000  0.00000000  0.00000000  1.0
  O  O28  1  0.95674686  0.37988722  0.08185429  1.0
  O  O29  1  0.95674686  0.12011278  0.41814571  1.0
  O  O30  1  0.45674686  0.37988722  0.91814571  1.0
  O  O31  1  0.45674686  0.12011278  0.58185429  1.0
  O  O32  1  0.04325314  0.87988722  0.58185429  1.0
  O  O33  1  0.04325314  0.62011278  0.91814571  1.0
  O  O34  1  0.54325314  0.87988722  0.41814571  1.0
  O  O35  1  0.54325314  0.62011278  0.08185429  1.0
  O  O36  1  0.91427944  0.39786880  0.67473014  1.0
  O  O37  1  0.91427944  0.10213120  0.82526986  1.0
  O  O38  1  0.41427944  0.39786880  0.32526986  1.0
  O  O39  1  0.41427944  0.10213120  0.17473014  1.0
  O  O40  1  0.08572056  0.89786880  0.17473014  1.0
  O  O41  1  0.08572056  0.60213120  0.32526986  1.0
  O  O42  1  0.58572056  0.89786880  0.82526986  1.0
  O  O43  1  0.58572056  0.60213120  0.67473014  1.0
