# generated using pymatgen
data_Y2BeO4
_symmetry_space_group_name_H-M   'P 1'
_cell_length_a   10.44009510
_cell_length_b   3.54682223
_cell_length_c   10.01878011
_cell_angle_alpha   90.00000000
_cell_angle_beta   90.00000000
_cell_angle_gamma   90.00000000
_symmetry_Int_Tables_number   1
_chemical_formula_structural   Y2BeO4
_chemical_formula_sum   'Y8 Be4 O16'
_cell_volume   370.98702558
_cell_formula_units_Z   4
loop_
 _symmetry_equiv_pos_site_id
 _symmetry_equiv_pos_as_xyz
  1  'x, y, z'
loop_
 _atom_site_type_symbol
 _atom_site_label
 _atom_site_symmetry_multiplicity
 _atom_site_fract_x
 _atom_site_fract_y
 _atom_site_fract_z
 _atom_site_occupancy
  Y  Y0  1  0.40907092  0.75000000  0.18095376  1.0
  Y  Y1  1  0.90907092  0.75000000  0.31904624  1.0
  Y  Y2  1  0.59092908  0.25000000  0.81904624  1.0
  Y  Y3  1  0.09092908  0.25000000  0.68095376  1.0
  Y  Y4  1  0.38237581  0.75000000  0.58751952  1.0
  Y  Y5  1  0.88237581  0.75000000  0.91248048  1.0
  Y  Y6  1  0.61762419  0.25000000  0.41248048  1.0
  Y  Y7  1  0.11762419  0.25000000  0.08751952  1.0
  Be  Be8  1  0.30795560  0.75000000  0.87438464  1.0
  Be  Be9  1  0.80795560  0.75000000  0.62561536  1.0
  Be  Be10  1  0.69204440  0.25000000  0.12561536  1.0
  Be  Be11  1  0.19204440  0.25000000  0.37438464  1.0
  O  O12  1  0.25299492  0.75000000  0.01764745  1.0
  O  O13  1  0.75299492  0.75000000  0.48235255  1.0
  O  O14  1  0.74700508  0.25000000  0.98235255  1.0
  O  O15  1  0.24700508  0.25000000  0.51764745  1.0
  O  O16  1  0.45610270  0.75000000  0.84846868  1.0
  O  O17  1  0.95610270  0.75000000  0.65153132  1.0
  O  O18  1  0.54389730  0.25000000  0.15153132  1.0
  O  O19  1  0.04389730  0.25000000  0.34846868  1.0
  O  O20  1  0.22286185  0.75000000  0.74590183  1.0
  O  O21  1  0.72286185  0.75000000  0.75409817  1.0
  O  O22  1  0.77713815  0.25000000  0.25409817  1.0
  O  O23  1  0.27713815  0.25000000  0.24590183  1.0
  O  O24  1  0.98689145  0.75000000  0.11304782  1.0
  O  O25  1  0.48689145  0.75000000  0.38695218  1.0
  O  O26  1  0.01310855  0.25000000  0.88695218  1.0
  O  O27  1  0.51310855  0.25000000  0.61304782  1.0
