# generated using pymatgen
data_P(WO4)2
_symmetry_space_group_name_H-M   'P 1'
_cell_length_a   5.37796628
_cell_length_b   6.67515708
_cell_length_c   17.62844285
_cell_angle_alpha   90.00000000
_cell_angle_beta   90.00000000
_cell_angle_gamma   90.00000000
_symmetry_Int_Tables_number   1
_chemical_formula_structural   P(WO4)2
_chemical_formula_sum   'P4 W8 O32'
_cell_volume   632.83941002
_cell_formula_units_Z   4
loop_
 _symmetry_equiv_pos_site_id
 _symmetry_equiv_pos_as_xyz
  1  'x, y, z'
loop_
 _atom_site_type_symbol
 _atom_site_label
 _atom_site_symmetry_multiplicity
 _atom_site_fract_x
 _atom_site_fract_y
 _atom_site_fract_z
 _atom_site_occupancy
  P  P0  1  0.24994394  0.94604570  0.81261521  1.0
  P  P1  1  0.74994394  0.55395430  0.18738479  1.0
  P  P2  1  0.75005606  0.44604570  0.68738479  1.0
  P  P3  1  0.25005606  0.05395430  0.31261521  1.0
  W  W4  1  0.24987522  0.58697517  0.95600721  1.0
  W  W5  1  0.74987522  0.91302483  0.04399279  1.0
  W  W6  1  0.75012478  0.08697517  0.54399279  1.0
  W  W7  1  0.25012478  0.41302483  0.45600721  1.0
  W  W8  1  0.25010411  0.75221352  0.62762046  1.0
  W  W9  1  0.75010410  0.74778648  0.37237954  1.0
  W  W10  1  0.74989590  0.25221352  0.87237954  1.0
  W  W11  1  0.24989590  0.24778648  0.12762046  1.0
  O  O12  1  0.01217767  0.93244675  0.32798365  1.0
  O  O13  1  0.51217767  0.56755325  0.67201635  1.0
  O  O14  1  0.98782233  0.43244675  0.17201635  1.0
  O  O15  1  0.48782233  0.06755325  0.82798365  1.0
  O  O16  1  1.00276188  0.91845743  0.59202038  1.0
  O  O17  1  0.50276188  0.58154257  0.40797962  1.0
  O  O18  1  -0.00276188  0.41845743  0.90797962  1.0
  O  O19  1  0.49723812  0.08154257  0.09202038  1.0
  O  O20  1  -0.01231166  0.56795598  0.67213412  1.0
  O  O21  1  0.48768834  0.93204402  0.32786588  1.0
  O  O22  1  1.01231166  0.06795598  0.82786588  1.0
  O  O23  1  0.51231166  0.43204402  0.17213412  1.0
  O  O24  1  0.24955044  0.75427911  0.86204217  1.0
  O  O25  1  0.74955044  0.74572089  0.13795783  1.0
  O  O26  1  0.75044956  0.25427911  0.63795783  1.0
  O  O27  1  0.25044956  0.24572089  0.36204217  1.0
  O  O28  1  0.24991146  0.58988416  0.54077892  1.0
  O  O29  1  0.74991146  0.91011584  0.45922108  1.0
  O  O30  1  0.75008854  0.08988416  0.95922108  1.0
  O  O31  1  0.25008854  0.41011584  0.04077892  1.0
  O  O32  1  0.25018834  0.88553437  0.72807489  1.0
  O  O33  1  0.75018834  0.61446563  0.27192511  1.0
  O  O34  1  0.74981166  0.38553437  0.77192511  1.0
  O  O35  1  0.24981166  0.11446563  0.22807489  1.0
  O  O36  1  0.49999077  0.75002018  -0.00007735  1.0
  O  O37  1  0.99999077  0.74997982  1.00007735  1.0
  O  O38  1  0.50000923  0.25002018  0.50007735  1.0
  O  O39  1  0.00000923  0.24997982  0.49992265  1.0
  O  O40  1  0.49768541  0.91831229  0.59207904  1.0
  O  O41  1  0.99768541  0.58168771  0.40792096  1.0
  O  O42  1  0.50231459  0.41831229  0.90792096  1.0
  O  O43  1  0.00231459  0.08168771  0.09207904  1.0
