# generated using pymatgen
data_NaPS3
_symmetry_space_group_name_H-M   'P 1'
_cell_length_a   6.87565090
_cell_length_b   8.10929129
_cell_length_c   9.20027977
_cell_angle_alpha   90.00000000
_cell_angle_beta   91.18218779
_cell_angle_gamma   90.00000000
_symmetry_Int_Tables_number   1
_chemical_formula_structural   NaPS3
_chemical_formula_sum   'Na4 P4 S12'
_cell_volume   512.86764436
_cell_formula_units_Z   4
loop_
 _symmetry_equiv_pos_site_id
 _symmetry_equiv_pos_as_xyz
  1  'x, y, z'
loop_
 _atom_site_type_symbol
 _atom_site_label
 _atom_site_symmetry_multiplicity
 _atom_site_fract_x
 _atom_site_fract_y
 _atom_site_fract_z
 _atom_site_occupancy
  Na  Na0  1  0.32050927  0.98331250  0.70262815  1.0
  Na  Na1  1  0.32050927  0.51668750  0.70262815  1.0
  Na  Na2  1  0.67949073  0.48331250  0.29737185  1.0
  Na  Na3  1  0.67949073  0.01668750  0.29737185  1.0
  P  P4  1  0.79776942  0.75000000  0.63405881  1.0
  P  P5  1  0.20223058  0.25000000  0.36594119  1.0
  P  P6  1  0.66649586  0.75000000  0.93586983  1.0
  P  P7  1  0.33350414  0.25000000  0.06413017  1.0
  S  S8  1  0.76830043  0.94317283  0.79132505  1.0
  S  S9  1  0.76830043  0.55682717  0.79132505  1.0
  S  S10  1  0.23169957  0.44317283  0.20867495  1.0
  S  S11  1  0.23169957  0.05682717  0.20867495  1.0
  S  S12  1  0.82296094  0.75000000  0.11915701  1.0
  S  S13  1  0.17703906  0.25000000  0.88084299  1.0
  S  S14  1  0.56492955  0.75000000  0.49657496  1.0
  S  S15  1  0.43507045  0.25000000  0.50342504  1.0
  S  S16  1  0.37669574  0.75000000  0.94406420  1.0
  S  S17  1  0.62330426  0.25000000  0.05593580  1.0
  S  S18  1  0.05690983  0.75000000  0.54105171  1.0
  S  S19  1  0.94309017  0.25000000  0.45894829  1.0
