# generated using pymatgen
data_Hf6Co16Ge7
_symmetry_space_group_name_H-M   'P 1'
_cell_length_a   8.13763820
_cell_length_b   8.13763820
_cell_length_c   8.13763820
_cell_angle_alpha   60.00000000
_cell_angle_beta   60.00000000
_cell_angle_gamma   60.00000000
_symmetry_Int_Tables_number   1
_chemical_formula_structural   Hf6Co16Ge7
_chemical_formula_sum   'Hf6 Co16 Ge7'
_cell_volume   381.04839211
_cell_formula_units_Z   1
loop_
 _symmetry_equiv_pos_site_id
 _symmetry_equiv_pos_as_xyz
  1  'x, y, z'
loop_
 _atom_site_type_symbol
 _atom_site_label
 _atom_site_symmetry_multiplicity
 _atom_site_fract_x
 _atom_site_fract_y
 _atom_site_fract_z
 _atom_site_occupancy
  Hf  Hf0  1  -0.70330234  0.70330234  0.70330234  1.0
  Hf  Hf1  1  -0.29669766  0.29669766  0.70330234  1.0
  Hf  Hf2  1  0.70330234  0.70330234  -0.70330234  1.0
  Hf  Hf3  1  0.29669766  1.29669766  -0.29669766  1.0
  Hf  Hf4  1  0.29669766  -0.29669766  1.29669766  1.0
  Hf  Hf5  1  -0.29669766  0.29669766  0.29669766  1.0
  Co  Co6  1  0.66974428  0.66974428  -0.33025572  1.0
  Co  Co7  1  1.33025572  0.33025572  0.00923285  1.0
  Co  Co8  1  1.33025572  0.00923285  0.33025572  1.0
  Co  Co9  1  0.99076715  0.66974428  -0.33025572  1.0
  Co  Co10  1  1.00923285  0.33025572  0.33025572  1.0
  Co  Co11  1  0.66974428  0.99076715  -0.33025572  1.0
  Co  Co12  1  0.66974428  0.66974428  -0.00923285  1.0
  Co  Co13  1  1.33025572  0.33025572  0.33025572  1.0
  Co  Co14  1  0.87950295  0.87950295  -0.12049705  1.0
  Co  Co15  1  1.12049705  0.12049705  0.63850886  1.0
  Co  Co16  1  1.12049705  0.63850886  0.12049705  1.0
  Co  Co17  1  0.36149114  0.87950295  -0.12049705  1.0
  Co  Co18  1  1.63850886  0.12049705  0.12049705  1.0
  Co  Co19  1  0.87950295  0.36149114  -0.12049705  1.0
  Co  Co20  1  0.87950295  0.87950295  -0.63850886  1.0
  Co  Co21  1  1.12049705  0.12049705  0.12049705  1.0
  Ge  Ge22  1  1.50000000  0.00000000  -0.00000000  1.0
  Ge  Ge23  1  1.00000000  0.50000000  -0.50000000  1.0
  Ge  Ge24  1  0.00000000  1.50000000  -0.00000000  1.0
  Ge  Ge25  1  0.50000000  1.00000000  -0.50000000  1.0
  Ge  Ge26  1  0.00000000  0.00000000  0.50000000  1.0
  Ge  Ge27  1  0.50000000  -0.50000000  1.00000000  1.0
  Ge  Ge28  1  0.00000000  0.00000000  0.00000000  1.0
