# generated using pymatgen
data_YMg4Cu
_symmetry_space_group_name_H-M   'P 1'
_cell_length_a   12.02211837
_cell_length_b   12.02211837
_cell_length_c   3.99486905
_cell_angle_alpha   90.00000000
_cell_angle_beta   90.00000000
_cell_angle_gamma   112.41685734
_symmetry_Int_Tables_number   1
_chemical_formula_structural   YMg4Cu
_chemical_formula_sum   'Y4 Mg16 Cu4'
_cell_volume   533.75308678
_cell_formula_units_Z   4
loop_
 _symmetry_equiv_pos_site_id
 _symmetry_equiv_pos_as_xyz
  1  'x, y, z'
loop_
 _atom_site_type_symbol
 _atom_site_label
 _atom_site_symmetry_multiplicity
 _atom_site_fract_x
 _atom_site_fract_y
 _atom_site_fract_z
 _atom_site_occupancy
  Y  Y0  1  0.36683603  0.63316397  0.00000000  1.0
  Y  Y1  1  -0.36683603  1.36683603  0.00000000  1.0
  Y  Y2  1  0.69919708  0.69919708  0.00000000  1.0
  Y  Y3  1  0.30080292  0.30080292  0.00000000  1.0
  Mg  Mg4  1  0.00000000  0.00000000  0.00000000  1.0
  Mg  Mg5  1  0.13597451  0.62533625  0.50000000  1.0
  Mg  Mg6  1  -0.37466375  1.13597451  0.50000000  1.0
  Mg  Mg7  1  0.37466375  0.86402549  0.50000000  1.0
  Mg  Mg8  1  -0.13597451  1.37466375  0.50000000  1.0
  Mg  Mg9  1  -0.05024538  1.78914566  0.50000000  1.0
  Mg  Mg10  1  0.78914566  0.94975462  0.50000000  1.0
  Mg  Mg11  1  -0.78914566  1.05024538  0.50000000  1.0
  Mg  Mg12  1  0.05024538  0.21085434  0.50000000  1.0
  Mg  Mg13  1  -0.07660796  1.58618803  0.00000000  1.0
  Mg  Mg14  1  0.58618803  0.92339204  0.00000000  1.0
  Mg  Mg15  1  -0.58618803  1.07660796  0.00000000  1.0
  Mg  Mg16  1  0.07660796  0.41381197  0.00000000  1.0
  Mg  Mg17  1  0.16566800  0.83433200  0.00000000  1.0
  Mg  Mg18  1  -0.16566800  1.16566800  0.00000000  1.0
  Mg  Mg19  1  0.50000000  0.50000000  0.50000000  1.0
  Cu  Cu20  1  -0.23528139  1.55407144  0.50000000  1.0
  Cu  Cu21  1  0.55407144  0.76471861  0.50000000  1.0
  Cu  Cu22  1  -0.55407144  1.23528139  0.50000000  1.0
  Cu  Cu23  1  0.23528139  0.44592856  0.50000000  1.0
