# generated using pymatgen
data_NaIn(IO3)4
_symmetry_space_group_name_H-M   'P 1'
_cell_length_a   7.22856737
_cell_length_b   5.11082849
_cell_length_c   15.83644939
_cell_angle_alpha   90.00000000
_cell_angle_beta   101.46336435
_cell_angle_gamma   90.00000000
_symmetry_Int_Tables_number   1
_chemical_formula_structural   NaIn(IO3)4
_chemical_formula_sum   'Na2 In2 I8 O24'
_cell_volume   573.39046761
_cell_formula_units_Z   2
loop_
 _symmetry_equiv_pos_site_id
 _symmetry_equiv_pos_as_xyz
  1  'x, y, z'
loop_
 _atom_site_type_symbol
 _atom_site_label
 _atom_site_symmetry_multiplicity
 _atom_site_fract_x
 _atom_site_fract_y
 _atom_site_fract_z
 _atom_site_occupancy
  Na  Na0  1  0.00000000  0.50000000  0.50000000  1.0
  Na  Na1  1  -0.00000000  -0.00000000  -0.00000000  1.0
  In  In2  1  0.50000000  0.50000000  0.50000000  1.0
  In  In3  1  0.50000000  0.00000000  0.00000000  1.0
  I  I4  1  0.83598226  0.41300339  0.16513065  1.0
  I  I5  1  0.83598226  0.08699661  0.66513065  1.0
  I  I6  1  0.16401774  0.91300339  0.33486935  1.0
  I  I7  1  0.16401774  0.58699661  0.83486935  1.0
  I  I8  1  0.68019131  0.98509630  0.35809934  1.0
  I  I9  1  0.68019131  0.51490370  0.85809934  1.0
  I  I10  1  0.31980869  0.48509630  0.14190066  1.0
  I  I11  1  0.31980869  0.01490370  0.64190066  1.0
  O  O12  1  0.93650744  0.73117189  0.28804467  1.0
  O  O13  1  0.93650744  0.76882811  0.78804467  1.0
  O  O14  1  0.06349256  0.23117189  0.21195533  1.0
  O  O15  1  0.06349255  0.26882811  0.71195533  1.0
  O  O16  1  0.90964419  0.14624964  0.40489719  1.0
  O  O17  1  0.90964419  0.35375036  0.90489719  1.0
  O  O18  1  0.09035581  0.64624964  0.09510281  1.0
  O  O19  1  0.09035581  0.85375036  0.59510281  1.0
  O  O20  1  0.76213354  0.17207670  0.07155846  1.0
  O  O21  1  0.76213354  0.32792330  0.57155846  1.0
  O  O22  1  0.23786646  0.67207670  0.42844154  1.0
  O  O23  1  0.23786646  0.82792330  0.92844154  1.0
  O  O24  1  0.70214830  0.72511406  0.44757473  1.0
  O  O25  1  0.70214830  0.77488594  0.94757473  1.0
  O  O26  1  0.29785170  0.22511406  0.05242527  1.0
  O  O27  1  0.29785170  0.27488594  0.55242527  1.0
  O  O28  1  0.66285234  0.29744679  0.23310509  1.0
  O  O29  1  0.66285234  0.20255321  0.73310509  1.0
  O  O30  1  0.33714766  0.79744679  0.26689491  1.0
  O  O31  1  0.33714766  0.70255321  0.76689491  1.0
  O  O32  1  0.49421525  0.20253722  0.39475561  1.0
  O  O33  1  0.49421525  0.29746278  0.89475561  1.0
  O  O34  1  0.50578475  0.70253722  0.10524439  1.0
  O  O35  1  0.50578475  0.79746278  0.60524439  1.0
