# generated using pymatgen
data_LuCu(WO4)2
_symmetry_space_group_name_H-M   'P 1'
_cell_length_a   5.02323310
_cell_length_b   5.98455846
_cell_length_c   10.93508077
_cell_angle_alpha   90.00000000
_cell_angle_beta   115.15673070
_cell_angle_gamma   90.00000000
_symmetry_Int_Tables_number   1
_chemical_formula_structural   LuCu(WO4)2
_chemical_formula_sum   'Lu2 Cu2 W4 O16'
_cell_volume   297.54811283
_cell_formula_units_Z   2
loop_
 _symmetry_equiv_pos_site_id
 _symmetry_equiv_pos_as_xyz
  1  'x, y, z'
loop_
 _atom_site_type_symbol
 _atom_site_label
 _atom_site_symmetry_multiplicity
 _atom_site_fract_x
 _atom_site_fract_y
 _atom_site_fract_z
 _atom_site_occupancy
  Lu  Lu0  1  0.50000000  0.32719760  0.25000000  1.0
  Lu  Lu1  1  0.50000000  0.67280240  0.75000000  1.0
  Cu  Cu2  1  -0.00000000  0.71484937  0.25000000  1.0
  Cu  Cu3  1  -0.00000000  0.28515063  0.75000000  1.0
  W  W4  1  0.73616608  0.82665820  0.48602762  1.0
  W  W5  1  0.73616608  0.17334180  0.98602762  1.0
  W  W6  1  0.26383392  0.82665820  0.01397238  1.0
  W  W7  1  0.26383392  0.17334180  0.51397238  1.0
  O  O8  1  0.83812223  0.88866448  0.90278041  1.0
  O  O9  1  0.83812223  0.11133552  0.40278041  1.0
  O  O10  1  0.16187777  0.88866448  0.59721959  1.0
  O  O11  1  0.16187777  0.11133552  0.09721959  1.0
  O  O12  1  0.77062048  0.63428887  0.36433029  1.0
  O  O13  1  0.77062048  0.36571113  0.86433029  1.0
  O  O14  1  0.22937952  0.63428887  0.13566971  1.0
  O  O15  1  0.22937952  0.36571113  0.63566971  1.0
  O  O16  1  0.71834670  0.35865222  0.11338257  1.0
  O  O17  1  0.71834670  0.64134778  0.61338257  1.0
  O  O18  1  0.28165330  0.35865222  0.38661743  1.0
  O  O19  1  0.28165330  0.64134778  0.88661743  1.0
  O  O20  1  0.65932370  0.90625277  0.11111000  1.0
  O  O21  1  0.65932370  0.09374723  0.61111000  1.0
  O  O22  1  0.34067630  0.90625277  0.38889000  1.0
  O  O23  1  0.34067630  0.09374723  0.88889000  1.0
