# generated using pymatgen
data_Hf2Al
_symmetry_space_group_name_H-M   'P 1'
_cell_length_a   5.49831238
_cell_length_b   5.49831238
_cell_length_c   5.49831238
_cell_angle_alpha   103.07565363
_cell_angle_beta   103.07565363
_cell_angle_gamma   123.19739360
_symmetry_Int_Tables_number   1
_chemical_formula_structural   Hf2Al
_chemical_formula_sum   'Hf4 Al2'
_cell_volume   122.35118226
_cell_formula_units_Z   2
loop_
 _symmetry_equiv_pos_site_id
 _symmetry_equiv_pos_as_xyz
  1  'x, y, z'
loop_
 _atom_site_type_symbol
 _atom_site_label
 _atom_site_symmetry_multiplicity
 _atom_site_fract_x
 _atom_site_fract_y
 _atom_site_fract_z
 _atom_site_occupancy
  Hf  Hf0  1  0.84862543  0.34862543  1.19725086  1.0
  Hf  Hf1  1  0.65137457  0.84862543  0.50000000  1.0
  Hf  Hf2  1  1.34862543  1.15137457  1.50000000  1.0
  Hf  Hf3  1  0.15137457  0.65137457  0.80274914  1.0
  Al  Al4  1  0.25000000  0.25000000  -0.00000000  1.0
  Al  Al5  1  0.75000000  0.75000000  -0.00000000  1.0
