# generated using pymatgen
data_Sr2Li3C6N6O6F
_symmetry_space_group_name_H-M   'P 1'
_cell_length_a   6.94779226
_cell_length_b   6.94779226
_cell_length_c   12.20273191
_cell_angle_alpha   90.00000000
_cell_angle_beta   90.00000000
_cell_angle_gamma   120.00000000
_symmetry_Int_Tables_number   1
_chemical_formula_structural   Sr2Li3C6N6O6F
_chemical_formula_sum   'Sr4 Li6 C12 N12 O12 F2'
_cell_volume   510.13057078
_cell_formula_units_Z   2
loop_
 _symmetry_equiv_pos_site_id
 _symmetry_equiv_pos_as_xyz
  1  'x, y, z'
loop_
 _atom_site_type_symbol
 _atom_site_label
 _atom_site_symmetry_multiplicity
 _atom_site_fract_x
 _atom_site_fract_y
 _atom_site_fract_z
 _atom_site_occupancy
  Sr  Sr0  1  0.33333333  0.66666667  0.46813989  1.0
  Sr  Sr1  1  0.33333333  0.66666667  0.03186011  1.0
  Sr  Sr2  1  0.66666667  0.33333333  0.96813989  1.0
  Sr  Sr3  1  0.66666667  0.33333333  0.53186011  1.0
  Li  Li4  1  0.54447132  0.97802120  0.25000000  1.0
  Li  Li5  1  0.97802120  0.43354989  0.75000000  1.0
  Li  Li6  1  0.43354989  0.45552868  0.25000000  1.0
  Li  Li7  1  0.02197880  0.56645011  0.25000000  1.0
  Li  Li8  1  0.45552868  0.02197880  0.75000000  1.0
  Li  Li9  1  0.56645011  0.54447132  0.75000000  1.0
  C  C10  1  0.82452778  0.79513681  0.37750255  1.0
  C  C11  1  0.82452778  0.79513681  0.12249745  1.0
  C  C12  1  0.79513681  0.97060903  0.87750255  1.0
  C  C13  1  0.79513681  0.97060903  0.62249745  1.0
  C  C14  1  0.97060903  0.17547222  0.37750255  1.0
  C  C15  1  0.97060903  0.17547222  0.12249745  1.0
  C  C16  1  0.20486319  0.02939097  0.37750255  1.0
  C  C17  1  0.20486319  0.02939097  0.12249745  1.0
  C  C18  1  0.17547222  0.20486319  0.87750255  1.0
  C  C19  1  0.17547222  0.20486319  0.62249745  1.0
  C  C20  1  0.02939097  0.82452778  0.87750255  1.0
  C  C21  1  0.02939097  0.82452778  0.62249745  1.0
  N  N22  1  0.03023276  0.81775703  0.37598416  1.0
  N  N23  1  0.03023276  0.81775703  0.12401584  1.0
  N  N24  1  0.81775703  0.78752427  0.87598416  1.0
  N  N25  1  0.81775703  0.78752427  0.62401584  1.0
  N  N26  1  0.78752427  0.96976724  0.37598416  1.0
  N  N27  1  0.78752427  0.96976724  0.12401584  1.0
  N  N28  1  0.18224297  0.21247573  0.37598416  1.0
  N  N29  1  0.18224297  0.21247573  0.12401584  1.0
  N  N30  1  0.96976724  0.18224297  0.87598416  1.0
  N  N31  1  0.96976724  0.18224297  0.62401584  1.0
  N  N32  1  0.21247573  0.03023276  0.87598416  1.0
  N  N33  1  0.21247573  0.03023276  0.62401584  1.0
  O  O34  1  0.65253044  0.59726400  0.38190944  1.0
  O  O35  1  0.65253044  0.59726400  0.11809056  1.0
  O  O36  1  0.59726400  0.94473356  0.88190944  1.0
  O  O37  1  0.59726400  0.94473356  0.61809056  1.0
  O  O38  1  0.94473356  0.34746956  0.38190944  1.0
  O  O39  1  0.94473356  0.34746956  0.11809056  1.0
  O  O40  1  0.40273600  0.05526644  0.38190944  1.0
  O  O41  1  0.40273600  0.05526644  0.11809056  1.0
  O  O42  1  0.34746956  0.40273600  0.88190944  1.0
  O  O43  1  0.34746956  0.40273600  0.61809056  1.0
  O  O44  1  0.05526644  0.65253044  0.88190944  1.0
  O  O45  1  0.05526644  0.65253044  0.61809056  1.0
  F  F46  1  0.33333333  0.66666667  0.25000000  1.0
  F  F47  1  0.66666667  0.33333333  0.75000000  1.0
