# generated using pymatgen
data_Zr6Ga2CoH10
_symmetry_space_group_name_H-M   'P 1'
_cell_length_a   8.03184664
_cell_length_b   8.03184664
_cell_length_c   7.15952178
_cell_angle_alpha   90.00000000
_cell_angle_beta   90.00000000
_cell_angle_gamma   120.00000000
_symmetry_Int_Tables_number   1
_chemical_formula_structural   Zr6Ga2CoH10
_chemical_formula_sum   'Zr12 Ga4 Co2 H20'
_cell_volume   399.98661750
_cell_formula_units_Z   2
loop_
 _symmetry_equiv_pos_site_id
 _symmetry_equiv_pos_as_xyz
  1  'x, y, z'
loop_
 _atom_site_type_symbol
 _atom_site_label
 _atom_site_symmetry_multiplicity
 _atom_site_fract_x
 _atom_site_fract_y
 _atom_site_fract_z
 _atom_site_occupancy
  Zr  Zr0  1  0.62437257  0.57842823  0.25000000  1.0
  Zr  Zr1  1  0.57842823  0.62437257  0.75000000  1.0
  Zr  Zr2  1  0.95405566  0.37562743  0.25000000  1.0
  Zr  Zr3  1  0.42157177  0.04594434  0.25000000  1.0
  Zr  Zr4  1  0.37562743  0.95405566  0.75000000  1.0
  Zr  Zr5  1  0.04594434  0.42157177  0.75000000  1.0
  Zr  Zr6  1  0.26155247  0.26155247  0.50000000  1.0
  Zr  Zr7  1  0.26155247  0.26155247  0.00000000  1.0
  Zr  Zr8  1  -0.00000000  0.73844753  0.50000000  1.0
  Zr  Zr9  1  -0.00000000  0.73844753  0.00000000  1.0
  Zr  Zr10  1  0.73844753  0.00000000  0.50000000  1.0
  Zr  Zr11  1  0.73844753  0.00000000  0.00000000  1.0
  Ga  Ga12  1  0.33333333  0.66666667  0.45163658  1.0
  Ga  Ga13  1  0.33333333  0.66666667  0.04836342  1.0
  Ga  Ga14  1  0.66666667  0.33333333  0.95163658  1.0
  Ga  Ga15  1  0.66666667  0.33333333  0.54836342  1.0
  Co  Co16  1  0.00000000  0.00000000  0.25000000  1.0
  Co  Co17  1  0.00000000  0.00000000  0.75000000  1.0
  H  H18  1  0.11919782  0.88113629  0.25000000  1.0
  H  H19  1  0.88113629  0.11919782  0.75000000  1.0
  H  H20  1  0.76193847  0.88080218  0.25000000  1.0
  H  H21  1  0.11886371  0.23806153  0.25000000  1.0
  H  H22  1  0.88080218  0.76193847  0.75000000  1.0
  H  H23  1  0.23806153  0.11886371  0.75000000  1.0
  H  H24  1  0.88612000  0.59234729  0.25000000  1.0
  H  H25  1  0.59234729  0.88612000  0.75000000  1.0
  H  H26  1  0.70622729  0.11388000  0.25000000  1.0
  H  H27  1  0.40765271  0.29377271  0.25000000  1.0
  H  H28  1  0.11388000  0.70622729  0.75000000  1.0
  H  H29  1  0.29377271  0.40765271  0.75000000  1.0
  H  H30  1  0.72117353  0.72117353  0.50000000  1.0
  H  H31  1  0.72117353  0.72117353  0.00000000  1.0
  H  H32  1  -0.00000000  0.27882647  0.50000000  1.0
  H  H33  1  -0.00000000  0.27882647  0.00000000  1.0
  H  H34  1  0.27882647  0.00000000  0.50000000  1.0
  H  H35  1  0.27882647  0.00000000  0.00000000  1.0
  H  H36  1  0.00000000  0.00000000  0.50000000  1.0
  H  H37  1  0.00000000  0.00000000  0.00000000  1.0
