# generated using pymatgen
data_Rb4Hf3S14
_symmetry_space_group_name_H-M   'P 1'
_cell_length_a   11.83436073
_cell_length_b   11.83436073
_cell_length_c   13.94517872
_cell_angle_alpha   68.63583454
_cell_angle_beta   111.36416546
_cell_angle_gamma   138.53937423
_symmetry_Int_Tables_number   1
_chemical_formula_structural   Rb4Hf3S14
_chemical_formula_sum   'Rb8 Hf6 S28'
_cell_volume   1190.99592439
_cell_formula_units_Z   2
loop_
 _symmetry_equiv_pos_site_id
 _symmetry_equiv_pos_as_xyz
  1  'x, y, z'
loop_
 _atom_site_type_symbol
 _atom_site_label
 _atom_site_symmetry_multiplicity
 _atom_site_fract_x
 _atom_site_fract_y
 _atom_site_fract_z
 _atom_site_occupancy
  Rb  Rb0  1  0.61853263  0.01382901  0.39704268  1.0
  Rb  Rb1  1  0.98617099  0.38146737  0.89704268  1.0
  Rb  Rb2  1  1.01382901  0.61853263  0.10295732  1.0
  Rb  Rb3  1  0.38146737  -0.01382901  0.60295732  1.0
  Rb  Rb4  1  0.33203832  0.19356271  0.14178186  1.0
  Rb  Rb5  1  0.80643729  0.66796168  0.64178186  1.0
  Rb  Rb6  1  1.19356271  0.33203832  0.35821814  1.0
  Rb  Rb7  1  0.66796168  -0.19356271  0.85821814  1.0
  Hf  Hf8  1  0.58511035  -0.07772680  0.08915366  1.0
  Hf  Hf9  1  1.07772680  0.41488965  0.58915366  1.0
  Hf  Hf10  1  0.92227320  0.58511035  0.41084634  1.0
  Hf  Hf11  1  0.41488965  0.07772680  0.91084634  1.0
  Hf  Hf12  1  0.76721669  0.76721669  0.25000000  1.0
  Hf  Hf13  1  0.23278331  0.23278331  0.75000000  1.0
  S  S14  1  0.80743101  -0.11535152  0.39445574  1.0
  S  S15  1  1.11535152  0.19256899  0.89445574  1.0
  S  S16  1  0.88464848  0.80743101  0.10554426  1.0
  S  S17  1  0.19256899  0.11535152  0.60554426  1.0
  S  S18  1  0.51713884  -0.34459971  0.08626858  1.0
  S  S19  1  1.34459971  0.48286116  0.58626858  1.0
  S  S20  1  0.65540029  0.51713884  0.41373142  1.0
  S  S21  1  0.48286116  0.34459971  0.91373142  1.0
  S  S22  1  0.90252734  0.07449271  0.13366900  1.0
  S  S23  1  0.92550729  0.09747266  0.63366900  1.0
  S  S24  1  1.07449271  0.90252734  0.36633100  1.0
  S  S25  1  0.09747266  -0.07449271  0.86633100  1.0
  S  S26  1  0.56971083  -0.23928545  0.29317989  1.0
  S  S27  1  1.23928545  0.43028917  0.79317989  1.0
  S  S28  1  0.76071455  0.56971083  0.20682011  1.0
  S  S29  1  0.43028917  0.23928545  0.70682011  1.0
  S  S30  1  0.42909771  -0.01161190  0.09955705  1.0
  S  S31  1  1.01161190  0.57090229  0.59955705  1.0
  S  S32  1  0.98838810  0.42909771  0.40044295  1.0
  S  S33  1  0.57090229  0.01161190  0.90044295  1.0
  S  S34  1  0.19257020  -0.14635932  0.33072519  1.0
  S  S35  1  1.14635932  0.80742980  0.83072519  1.0
  S  S36  1  0.85364068  0.19257020  0.16927481  1.0
  S  S37  1  0.80742980  0.14635932  0.66927481  1.0
  S  S38  1  0.59612561  0.31072428  0.38862385  1.0
  S  S39  1  0.68927572  0.40387439  0.88862385  1.0
  S  S40  1  1.31072428  0.59612561  0.11137615  1.0
  S  S41  1  0.40387439  -0.31072428  0.61137615  1.0
