# generated using pymatgen
data_PHOF2
_symmetry_space_group_name_H-M   'P 1'
_cell_length_a   6.34163155
_cell_length_b   6.71673326
_cell_length_c   15.30594536
_cell_angle_alpha   90.00000000
_cell_angle_beta   90.00000000
_cell_angle_gamma   90.00000000
_symmetry_Int_Tables_number   1
_chemical_formula_structural   PHOF2
_chemical_formula_sum   'P8 H8 O8 F16'
_cell_volume   651.95747008
_cell_formula_units_Z   8
loop_
 _symmetry_equiv_pos_site_id
 _symmetry_equiv_pos_as_xyz
  1  'x, y, z'
loop_
 _atom_site_type_symbol
 _atom_site_label
 _atom_site_symmetry_multiplicity
 _atom_site_fract_x
 _atom_site_fract_y
 _atom_site_fract_z
 _atom_site_occupancy
  P  P0  1  0.44733255  0.81337796  0.65158769  1.0
  P  P1  1  0.44733255  0.68662204  0.15158769  1.0
  P  P2  1  0.94733255  0.81337796  0.84841231  1.0
  P  P3  1  0.94733255  0.68662204  0.34841231  1.0
  P  P4  1  0.55266745  0.31337796  0.84841231  1.0
  P  P5  1  0.55266745  0.18662204  0.34841231  1.0
  P  P6  1  0.05266745  0.31337796  0.65158769  1.0
  P  P7  1  0.05266745  0.18662204  0.15158769  1.0
  H  H8  1  0.05999636  0.65363352  0.81262523  1.0
  H  H9  1  0.05999636  0.84636648  0.31262523  1.0
  H  H10  1  0.55999636  0.65363352  0.68737477  1.0
  H  H11  1  0.55999636  0.84636648  0.18737477  1.0
  H  H12  1  0.94000364  0.15363352  0.68737477  1.0
  H  H13  1  0.94000364  0.34636648  0.18737477  1.0
  H  H14  1  0.44000364  0.15363352  0.81262523  1.0
  H  H15  1  0.44000364  0.34636648  0.31262523  1.0
  O  O16  1  0.30142911  0.92608233  0.70788530  1.0
  O  O17  1  0.30142911  0.57391767  0.20788530  1.0
  O  O18  1  0.80142911  0.92608233  0.79211470  1.0
  O  O19  1  0.80142911  0.57391767  0.29211470  1.0
  O  O20  1  0.69857089  0.42608233  0.79211470  1.0
  O  O21  1  0.69857089  0.07391767  0.29211470  1.0
  O  O22  1  0.19857089  0.42608233  0.70788530  1.0
  O  O23  1  0.19857089  0.07391767  0.20788530  1.0
  F  F24  1  0.34289208  0.72325586  0.56701452  1.0
  F  F25  1  0.34289208  0.77674414  0.06701452  1.0
  F  F26  1  0.84289208  0.72325586  0.93298548  1.0
  F  F27  1  0.84289208  0.77674414  0.43298548  1.0
  F  F28  1  0.65710792  0.22325586  0.93298548  1.0
  F  F29  1  0.65710792  0.27674414  0.43298548  1.0
  F  F30  1  0.15710792  0.22325586  0.56701452  1.0
  F  F31  1  0.15710792  0.27674414  0.06701452  1.0
  F  F32  1  0.12262885  0.94506532  0.89307975  1.0
  F  F33  1  0.12262885  0.55493468  0.39307975  1.0
  F  F34  1  0.62262885  0.94506532  0.60692025  1.0
  F  F35  1  0.62262885  0.55493468  0.10692025  1.0
  F  F36  1  0.87737115  0.44506532  0.60692025  1.0
  F  F37  1  0.87737115  0.05493468  0.10692025  1.0
  F  F38  1  0.37737115  0.44506532  0.89307975  1.0
  F  F39  1  0.37737115  0.05493468  0.39307975  1.0
