# generated using pymatgen
data_KY(PO3)4
_symmetry_space_group_name_H-M   'P 1'
_cell_length_a   7.47254926
_cell_length_b   7.47254926
_cell_length_c   10.58515347
_cell_angle_alpha   78.80945243
_cell_angle_beta   101.19054757
_cell_angle_gamma   64.62266677
_symmetry_Int_Tables_number   1
_chemical_formula_structural   KY(PO3)4
_chemical_formula_sum   'K2 Y2 P8 O24'
_cell_volume   497.58657210
_cell_formula_units_Z   2
loop_
 _symmetry_equiv_pos_site_id
 _symmetry_equiv_pos_as_xyz
  1  'x, y, z'
loop_
 _atom_site_type_symbol
 _atom_site_label
 _atom_site_symmetry_multiplicity
 _atom_site_fract_x
 _atom_site_fract_y
 _atom_site_fract_z
 _atom_site_occupancy
  K  K0  1  1.18949211  0.18949211  0.25000000  1.0
  K  K1  1  0.81050789  -0.18949211  0.75000000  1.0
  Y  Y2  1  0.87965164  -0.12034836  0.25000000  1.0
  Y  Y3  1  1.12034836  0.12034836  0.75000000  1.0
  P  P4  1  0.62259153  -0.28588721  0.00640058  1.0
  P  P5  1  1.28588721  0.37740847  0.50640058  1.0
  P  P6  1  0.71411279  -0.37740847  0.49359942  1.0
  P  P7  1  1.37740847  0.28588721  0.99359942  1.0
  P  P8  1  1.69646248  0.24952994  0.44895782  1.0
  P  P9  1  0.75047006  -0.69646248  0.94895782  1.0
  P  P10  1  1.24952994  0.69646248  0.05104218  1.0
  P  P11  1  0.30353752  -0.24952994  0.55104218  1.0
  O  O12  1  0.70319802  -0.19828359  0.39186902  1.0
  O  O13  1  1.19828359  0.29680198  0.89186902  1.0
  O  O14  1  0.80171641  -0.29680198  0.10813098  1.0
  O  O15  1  1.29680198  0.19828359  0.60813098  1.0
  O  O16  1  0.49323049  -0.35848389  0.08931781  1.0
  O  O17  1  1.35848389  0.50676951  0.58931781  1.0
  O  O18  1  0.64151611  -0.50676951  0.41068219  1.0
  O  O19  1  1.50676951  0.35848389  0.91068219  1.0
  O  O20  1  1.75539543  0.17113469  0.33575351  1.0
  O  O21  1  0.82886531  -0.75539543  0.83575351  1.0
  O  O22  1  1.17113469  0.75539543  0.16424649  1.0
  O  O23  1  0.24460457  -0.17113469  0.66424649  1.0
  O  O24  1  1.51530455  0.09221006  0.11339476  1.0
  O  O25  1  0.90778994  -0.51530455  0.61339476  1.0
  O  O26  1  1.09221006  0.51530455  0.38660524  1.0
  O  O27  1  0.48469545  -0.09221006  0.88660524  1.0
  O  O28  1  0.16194487  -0.13589189  0.40642299  1.0
  O  O29  1  1.13589189  0.83805513  0.90642299  1.0
  O  O30  1  0.86410811  -0.83805513  0.09357701  1.0
  O  O31  1  1.83805513  0.13589189  0.59357701  1.0
  O  O32  1  1.46976421  0.26963010  0.44040755  1.0
  O  O33  1  0.73036990  -0.46976421  0.94040755  1.0
  O  O34  1  1.26963010  0.46976421  0.05959245  1.0
  O  O35  1  0.53023579  -0.26963010  0.55959245  1.0
