# generated using pymatgen
data_Re6Ni5Mo4
_symmetry_space_group_name_H-M   'P 1'
_cell_length_a   9.23624001
_cell_length_b   9.23624001
_cell_length_c   4.80867324
_cell_angle_alpha   90.00000000
_cell_angle_beta   90.00000000
_cell_angle_gamma   90.00000000
_symmetry_Int_Tables_number   1
_chemical_formula_structural   Re6Ni5Mo4
_chemical_formula_sum   'Re12 Ni10 Mo8'
_cell_volume   410.21892003
_cell_formula_units_Z   2
loop_
 _symmetry_equiv_pos_site_id
 _symmetry_equiv_pos_as_xyz
  1  'x, y, z'
loop_
 _atom_site_type_symbol
 _atom_site_label
 _atom_site_symmetry_multiplicity
 _atom_site_fract_x
 _atom_site_fract_y
 _atom_site_fract_z
 _atom_site_occupancy
  Re  Re0  1  0.09943534  0.90056466  0.50000000  1.0
  Re  Re1  1  0.90056466  0.09943534  0.50000000  1.0
  Re  Re2  1  0.40056466  0.40056466  0.00000000  1.0
  Re  Re3  1  0.59943534  0.59943534  0.00000000  1.0
  Re  Re4  1  0.36620303  0.96686480  0.50000000  1.0
  Re  Re5  1  0.63379697  0.03313520  0.50000000  1.0
  Re  Re6  1  0.13379697  0.46686480  0.00000000  1.0
  Re  Re7  1  0.86620303  0.53313520  0.00000000  1.0
  Re  Re8  1  0.96686480  0.36620303  0.50000000  1.0
  Re  Re9  1  0.03313520  0.63379697  0.50000000  1.0
  Re  Re10  1  0.46686480  0.13379697  0.00000000  1.0
  Re  Re11  1  0.53313520  0.86620303  0.00000000  1.0
  Ni  Ni12  1  0.50000000  0.50000000  0.50000000  1.0
  Ni  Ni13  1  0.00000000  0.00000000  0.00000000  1.0
  Ni  Ni14  1  0.43675059  0.24242737  0.50000000  1.0
  Ni  Ni15  1  0.56324941  0.75757263  0.50000000  1.0
  Ni  Ni16  1  0.06324941  0.74242737  0.00000000  1.0
  Ni  Ni17  1  0.93675059  0.25757263  0.00000000  1.0
  Ni  Ni18  1  0.24242737  0.43675059  0.50000000  1.0
  Ni  Ni19  1  0.75757263  0.56324941  0.50000000  1.0
  Ni  Ni20  1  0.74242737  0.06324941  0.00000000  1.0
  Ni  Ni21  1  0.25757263  0.93675059  0.00000000  1.0
  Mo  Mo22  1  0.31508769  0.68491231  0.25021926  1.0
  Mo  Mo23  1  0.68491231  0.31508769  0.25021926  1.0
  Mo  Mo24  1  0.18491231  0.18491231  0.75021926  1.0
  Mo  Mo25  1  0.81508769  0.81508769  0.75021926  1.0
  Mo  Mo26  1  0.68491231  0.31508769  0.74978074  1.0
  Mo  Mo27  1  0.31508769  0.68491231  0.74978074  1.0
  Mo  Mo28  1  0.81508769  0.81508769  0.24978074  1.0
  Mo  Mo29  1  0.18491231  0.18491231  0.24978074  1.0
