# generated using pymatgen
data_GeTe
_symmetry_space_group_name_H-M   'P 1'
_cell_length_a   12.15617048
_cell_length_b   4.23127988
_cell_length_c   4.31968531
_cell_angle_alpha   90.00000000
_cell_angle_beta   90.00000000
_cell_angle_gamma   90.00000000
_symmetry_Int_Tables_number   1
_chemical_formula_structural   GeTe
_chemical_formula_sum   'Ge4 Te4'
_cell_volume   222.18802304
_cell_formula_units_Z   4
loop_
 _symmetry_equiv_pos_site_id
 _symmetry_equiv_pos_as_xyz
  1  'x, y, z'
loop_
 _atom_site_type_symbol
 _atom_site_label
 _atom_site_symmetry_multiplicity
 _atom_site_fract_x
 _atom_site_fract_y
 _atom_site_fract_z
 _atom_site_occupancy
  Ge  Ge0  1  0.36263449  0.75000000  0.70411244  1.0
  Ge  Ge1  1  0.86263449  0.75000000  0.79588756  1.0
  Ge  Ge2  1  0.63736551  0.25000000  0.29588756  1.0
  Ge  Ge3  1  0.13736551  0.25000000  0.20411244  1.0
  Te  Te4  1  0.12623571  0.75000000  -0.24777503  1.0
  Te  Te5  1  0.62623571  0.75000000  0.74777503  1.0
  Te  Te6  1  0.87376429  0.25000000  1.24777503  1.0
  Te  Te7  1  0.37376429  0.25000000  0.25222497  1.0
