# generated using pymatgen
data_RbCd(BO2)3
_symmetry_space_group_name_H-M   'P 1'
_cell_length_a   7.70340755
_cell_length_b   7.70340755
_cell_length_c   12.93657258
_cell_angle_alpha   82.74890124
_cell_angle_beta   97.25109876
_cell_angle_gamma   58.15125056
_symmetry_Int_Tables_number   1
_chemical_formula_structural   RbCd(BO2)3
_chemical_formula_sum   'Rb4 Cd4 B12 O24'
_cell_volume   629.72928691
_cell_formula_units_Z   4
loop_
 _symmetry_equiv_pos_site_id
 _symmetry_equiv_pos_as_xyz
  1  'x, y, z'
loop_
 _atom_site_type_symbol
 _atom_site_label
 _atom_site_symmetry_multiplicity
 _atom_site_fract_x
 _atom_site_fract_y
 _atom_site_fract_z
 _atom_site_occupancy
  Rb  Rb0  1  0.31935225  -0.30325227  0.62883475  1.0
  Rb  Rb1  1  1.30325227  0.68064775  0.12883475  1.0
  Rb  Rb2  1  0.69674773  -0.68064775  0.87116525  1.0
  Rb  Rb3  1  1.68064775  0.30325227  0.37116525  1.0
  Cd  Cd4  1  0.34765842  0.01046046  0.87677660  1.0
  Cd  Cd5  1  0.98953954  0.65234158  0.37677660  1.0
  Cd  Cd6  1  1.01046046  -0.65234158  0.62322340  1.0
  Cd  Cd7  1  1.65234158  -0.01046046  0.12322340  1.0
  B  B8  1  1.17673904  0.71058186  0.87286371  1.0
  B  B9  1  0.28941814  -0.17673904  0.37286371  1.0
  B  B10  1  1.71058186  0.17673904  0.62713629  1.0
  B  B11  1  0.82326096  -0.71058186  0.12713629  1.0
  B  B12  1  1.81501111  -0.16798637  0.59003870  1.0
  B  B13  1  1.16798637  -0.81501111  0.09003870  1.0
  B  B14  1  0.83201363  0.81501111  0.90996130  1.0
  B  B15  1  0.18498889  0.16798637  0.40996130  1.0
  B  B16  1  1.03210163  0.49779201  0.84238436  1.0
  B  B17  1  0.50220799  -0.03210163  0.34238436  1.0
  B  B18  1  1.49779201  0.03210163  0.65761564  1.0
  B  B19  1  0.96789837  -0.49779201  0.15761564  1.0
  O  O20  1  1.84457764  -0.00251350  0.59010669  1.0
  O  O21  1  1.00251350  -0.84457764  0.09010669  1.0
  O  O22  1  0.99748650  0.84457764  0.90989331  1.0
  O  O23  1  0.15542236  0.00251350  0.40989331  1.0
  O  O24  1  0.33535986  -0.26559288  0.87314089  1.0
  O  O25  1  1.26559288  0.66464014  0.37314089  1.0
  O  O26  1  0.73440712  -0.66464014  0.62685911  1.0
  O  O27  1  1.66464014  0.26559288  0.12685911  1.0
  O  O28  1  0.32797457  0.04945746  0.68536849  1.0
  O  O29  1  0.95054254  0.67202543  0.18536849  1.0
  O  O30  1  1.04945746  -0.67202543  0.81463151  1.0
  O  O31  1  1.67202543  -0.04945746  0.31463151  1.0
  O  O32  1  1.18658046  0.54112271  0.83682385  1.0
  O  O33  1  0.45887729  -0.18658046  0.33682385  1.0
  O  O34  1  1.54112271  0.18658046  0.66317615  1.0
  O  O35  1  0.81341954  -0.54112271  0.16317615  1.0
  O  O36  1  0.95611771  0.65915202  0.56067456  1.0
  O  O37  1  0.34084798  0.04388229  0.06067456  1.0
  O  O38  1  1.65915202  -0.04388229  0.93932544  1.0
  O  O39  1  1.04388229  -0.65915202  0.43932544  1.0
  O  O40  1  0.85417887  -0.36051305  0.87729631  1.0
  O  O41  1  1.36051305  0.14582113  0.37729631  1.0
  O  O42  1  0.63948695  -0.14582113  0.62270369  1.0
  O  O43  1  1.14582113  0.36051305  0.12270369  1.0
