# generated using pymatgen
data_ZnCu2GeS4
_symmetry_space_group_name_H-M   'P 1'
_cell_length_a   6.54911778
_cell_length_b   7.52497365
_cell_length_c   12.59698026
_cell_angle_alpha   90.00000000
_cell_angle_beta   100.06017051
_cell_angle_gamma   90.00000000
_symmetry_Int_Tables_number   1
_chemical_formula_structural   ZnCu2GeS4
_chemical_formula_sum   'Zn4 Cu8 Ge4 S16'
_cell_volume   611.25866046
_cell_formula_units_Z   4
loop_
 _symmetry_equiv_pos_site_id
 _symmetry_equiv_pos_as_xyz
  1  'x, y, z'
loop_
 _atom_site_type_symbol
 _atom_site_label
 _atom_site_symmetry_multiplicity
 _atom_site_fract_x
 _atom_site_fract_y
 _atom_site_fract_z
 _atom_site_occupancy
  Zn  Zn0  1  0.17840852  0.50000000  0.50233265  1.0
  Zn  Zn1  1  0.40632966  0.00000000  0.24937631  1.0
  Zn  Zn2  1  0.58386809  0.00000000  0.75130689  1.0
  Zn  Zn3  1  -0.00011256  0.50000000  -0.00048485  1.0
  Cu  Cu4  1  0.08247213  0.74952664  0.74780831  1.0
  Cu  Cu5  1  0.08247213  0.25047336  0.74780831  1.0
  Cu  Cu6  1  0.49969107  0.75087747  -0.00086495  1.0
  Cu  Cu7  1  0.49969107  0.24912253  -0.00086495  1.0
  Cu  Cu8  1  0.66180731  0.74983479  0.49753566  1.0
  Cu  Cu9  1  0.66180731  0.25016521  0.49753566  1.0
  Cu  Cu10  1  0.92084548  0.74976119  0.24925585  1.0
  Cu  Cu11  1  0.92084548  0.25023881  0.24925585  1.0
  Ge  Ge12  1  0.41499975  0.50000000  0.24873440  1.0
  Ge  Ge13  1  0.58564457  0.50000000  0.75224934  1.0
  Ge  Ge14  1  -0.00149575  0.00000000  -0.00171416  1.0
  Ge  Ge15  1  0.16910331  0.00000000  0.50253876  1.0
  S  S16  1  0.36210868  0.50000000  0.06430818  1.0
  S  S17  1  0.53637084  0.50000000  0.56811434  1.0
  S  S18  1  0.93624276  0.50000000  0.80860502  1.0
  S  S19  1  0.09534581  0.00000000  0.31819609  1.0
  S  S20  1  0.34749162  0.00000000  0.05779453  1.0
  S  S21  1  0.51898943  0.00000000  0.56024862  1.0
  S  S22  1  0.94671916  0.00000000  0.81403710  1.0
  S  S23  1  0.01500812  0.75559427  0.56260604  1.0
  S  S24  1  0.01500812  0.24440573  0.56260604  1.0
  S  S25  1  0.43287618  0.74300760  0.81451714  1.0
  S  S26  1  0.43287618  0.25699240  0.81451714  1.0
  S  S27  1  0.60803334  0.74379796  0.31171310  1.0
  S  S28  1  0.60803334  0.25620204  0.31171310  1.0
  S  S29  1  0.85121378  0.75734785  0.06417420  1.0
  S  S30  1  0.85121378  0.24265215  0.06417420  1.0
  S  S31  1  0.10929128  0.50000000  0.31086607  1.0
