# generated using pymatgen
data_AlCuCCl4O
_symmetry_space_group_name_H-M   'P 1'
_cell_length_a   7.05327244
_cell_length_b   7.53570826
_cell_length_c   9.30832135
_cell_angle_alpha   68.45502633
_cell_angle_beta   84.12209921
_cell_angle_gamma   88.78269370
_symmetry_Int_Tables_number   1
_chemical_formula_structural   AlCuCCl4O
_chemical_formula_sum   'Al2 Cu2 C2 Cl8 O2'
_cell_volume   457.69088702
_cell_formula_units_Z   2
loop_
 _symmetry_equiv_pos_site_id
 _symmetry_equiv_pos_as_xyz
  1  'x, y, z'
loop_
 _atom_site_type_symbol
 _atom_site_label
 _atom_site_symmetry_multiplicity
 _atom_site_fract_x
 _atom_site_fract_y
 _atom_site_fract_z
 _atom_site_occupancy
  Al  Al0  1  -0.75279897  -0.19075314  -0.77856566  1.0
  Al  Al1  1  -0.24720103  -0.80924686  -0.22143434  1.0
  Cu  Cu2  1  -0.74797461  -0.01838472  -0.21032771  1.0
  Cu  Cu3  1  -0.25202539  -0.98161528  -0.78967229  1.0
  C  C4  1  -0.77940675  -0.25697961  -0.21029895  1.0
  C  C5  1  -0.22059325  -0.74302039  -0.78970105  1.0
  Cl  Cl6  1  -0.75257177  -0.93188006  -0.98953594  1.0
  Cl  Cl7  1  -0.24742823  -0.06811994  -0.01046406  1.0
  Cl  Cl8  1  -0.97038145  -0.78975689  -0.35629032  1.0
  Cl  Cl9  1  -0.02961855  -0.21024311  -0.64370968  1.0
  Cl  Cl10  1  -0.45843329  -0.85777167  -0.36027393  1.0
  Cl  Cl11  1  -0.54156671  -0.14222833  -0.63972607  1.0
  Cl  Cl12  1  -0.69758706  -0.44051921  -0.82781171  1.0
  Cl  Cl13  1  -0.30241294  -0.55948079  -0.17218829  1.0
  O  O14  1  -0.80070114  -0.40335116  -0.21733744  1.0
  O  O15  1  -0.19929886  -0.59664884  -0.78266256  1.0
