# generated using pymatgen
data_K3Cu2(BiS2)5
_symmetry_space_group_name_H-M   'P 1'
_cell_length_a   14.42316854
_cell_length_b   17.98245588
_cell_length_c   4.05133507
_cell_angle_alpha   90.00000000
_cell_angle_beta   90.00000000
_cell_angle_gamma   90.00000000
_symmetry_Int_Tables_number   1
_chemical_formula_structural   K3Cu2(BiS2)5
_chemical_formula_sum   'K6 Cu4 Bi10 S20'
_cell_volume   1050.77043536
_cell_formula_units_Z   2
loop_
 _symmetry_equiv_pos_site_id
 _symmetry_equiv_pos_as_xyz
  1  'x, y, z'
loop_
 _atom_site_type_symbol
 _atom_site_label
 _atom_site_symmetry_multiplicity
 _atom_site_fract_x
 _atom_site_fract_y
 _atom_site_fract_z
 _atom_site_occupancy
  K  K0  1  0.02343846  0.75604672  0.50000000  1.0
  K  K1  1  0.52343846  0.74395328  0.00000000  1.0
  K  K2  1  0.97656154  0.24395328  0.50000000  1.0
  K  K3  1  0.47656154  0.25604672  0.00000000  1.0
  K  K4  1  0.50000000  0.00000000  0.50000000  1.0
  K  K5  1  0.00000000  0.50000000  0.00000000  1.0
  Cu  Cu6  1  0.27761458  0.75069622  0.50000000  1.0
  Cu  Cu7  1  0.77761458  0.74930378  0.00000000  1.0
  Cu  Cu8  1  0.72238542  0.24930378  0.50000000  1.0
  Cu  Cu9  1  0.22238542  0.25069622  0.00000000  1.0
  Bi  Bi10  1  0.22017197  0.09638773  0.50000000  1.0
  Bi  Bi11  1  0.72017197  0.40361227  0.00000000  1.0
  Bi  Bi12  1  0.77982803  0.90361227  0.50000000  1.0
  Bi  Bi13  1  0.27982803  0.59638773  0.00000000  1.0
  Bi  Bi14  1  0.76841380  0.60407557  0.50000000  1.0
  Bi  Bi15  1  0.26841380  0.89592443  0.00000000  1.0
  Bi  Bi16  1  0.23158620  0.39592443  0.50000000  1.0
  Bi  Bi17  1  0.73158620  0.10407557  0.00000000  1.0
  Bi  Bi18  1  0.50000000  0.50000000  0.50000000  1.0
  Bi  Bi19  1  0.00000000  0.00000000  0.00000000  1.0
  S  S20  1  0.40508948  0.63863546  0.50000000  1.0
  S  S21  1  0.90508948  0.86136454  0.00000000  1.0
  S  S22  1  0.59491052  0.36136454  0.50000000  1.0
  S  S23  1  0.09491052  0.13863546  0.00000000  1.0
  S  S24  1  0.38172288  0.85052638  0.50000000  1.0
  S  S25  1  0.88172288  0.64947362  0.00000000  1.0
  S  S26  1  0.61827712  0.14947362  0.50000000  1.0
  S  S27  1  0.11827712  0.35052638  0.00000000  1.0
  S  S28  1  0.30187830  0.23271444  0.50000000  1.0
  S  S29  1  0.80187830  0.26728556  0.00000000  1.0
  S  S30  1  0.69812170  0.76728556  0.50000000  1.0
  S  S31  1  0.19812170  0.73271444  0.00000000  1.0
  S  S32  1  0.16268745  0.53486170  0.50000000  1.0
  S  S33  1  0.66268745  0.96513830  0.00000000  1.0
  S  S34  1  0.83731255  0.46513830  0.50000000  1.0
  S  S35  1  0.33731255  0.03486170  0.00000000  1.0
  S  S36  1  0.12374572  0.94760113  0.50000000  1.0
  S  S37  1  0.62374572  0.55239887  0.00000000  1.0
  S  S38  1  0.87625428  0.05239887  0.50000000  1.0
  S  S39  1  0.37625428  0.44760113  0.00000000  1.0
