# generated using pymatgen
data_Na2Cu2Si4H4O13
_symmetry_space_group_name_H-M   'P 1'
_cell_length_a   5.25771717
_cell_length_b   8.96328244
_cell_length_c   6.47128830
_cell_angle_alpha   103.19675299
_cell_angle_beta   103.45308840
_cell_angle_gamma   93.33628504
_symmetry_Int_Tables_number   1
_chemical_formula_structural   Na2Cu2Si4H4O13
_chemical_formula_sum   'Na2 Cu2 Si4 H4 O13'
_cell_volume   286.76559280
_cell_formula_units_Z   1
loop_
 _symmetry_equiv_pos_site_id
 _symmetry_equiv_pos_as_xyz
  1  'x, y, z'
loop_
 _atom_site_type_symbol
 _atom_site_label
 _atom_site_symmetry_multiplicity
 _atom_site_fract_x
 _atom_site_fract_y
 _atom_site_fract_z
 _atom_site_occupancy
  Na  Na0  1  -0.86532055  -0.70336569  -0.36790352  1.0
  Na  Na1  1  -0.13467945  -0.29663431  -0.63209648  1.0
  O  O2  1  -0.95859140  -0.28251337  -0.92284284  1.0
  O  O3  1  -0.04140860  -0.71748663  -0.07715716  1.0
  O  O4  1  -0.73051924  -0.41448728  -0.58118559  1.0
  O  O5  1  -0.26948076  -0.58551272  -0.41881441  1.0
  O  O6  1  -0.69303056  -0.76148388  -0.71804585  1.0
  O  O7  1  -0.30696944  -0.23851612  -0.28195415  1.0
  O  O8  1  -0.62558884  -0.91224680  -0.31526429  1.0
  O  O9  1  -0.37441116  -0.08775320  -0.68473571  1.0
  O  O10  1  -0.20253826  -0.79946872  -0.74504729  1.0
  O  O11  1  -0.79746174  -0.20053128  -0.25495271  1.0
  O  O12  1  0.00000000  0.00000000  0.00000000  1.0
  O  O13  1  -0.40410289  -0.54782818  -0.83949674  1.0
  O  O14  1  -0.59589711  -0.45217182  -0.16050326  1.0
  Cu  Cu15  1  -0.69547555  -0.41833469  -0.87281429  1.0
  Cu  Cu16  1  -0.30452445  -0.58166531  -0.12718571  1.0
  H  H17  1  -0.67970760  -1.00739985  -0.27739924  1.0
  H  H18  1  -0.32029240  0.00739985  -0.72260076  1.0
  H  H19  1  -0.44206208  -0.91799082  -0.31760222  1.0
  H  H20  1  -0.55793792  -0.08200918  -0.68239778  1.0
  Si  Si21  1  -0.98376171  -0.81513416  -0.89533142  1.0
  Si  Si22  1  -0.01623829  -0.18486584  -0.10466858  1.0
  Si  Si23  1  -0.39919760  -0.66571786  -0.67402041  1.0
  Si  Si24  1  -0.60080240  -0.33428214  -0.32597959  1.0
