# generated using pymatgen
data_Eu4PdO7
_symmetry_space_group_name_H-M   'P 1'
_cell_length_a   7.23840517
_cell_length_b   6.90843430
_cell_length_c   7.89811203
_cell_angle_alpha   107.99470391
_cell_angle_beta   110.42970919
_cell_angle_gamma   84.21049626
_symmetry_Int_Tables_number   1
_chemical_formula_structural   Eu4PdO7
_chemical_formula_sum   'Eu8 Pd2 O14'
_cell_volume   351.99653772
_cell_formula_units_Z   2
loop_
 _symmetry_equiv_pos_site_id
 _symmetry_equiv_pos_as_xyz
  1  'x, y, z'
loop_
 _atom_site_type_symbol
 _atom_site_label
 _atom_site_symmetry_multiplicity
 _atom_site_fract_x
 _atom_site_fract_y
 _atom_site_fract_z
 _atom_site_occupancy
  Eu  Eu0  1  0.85808436  0.63568494  -0.85694886  1.0
  Eu  Eu1  1  0.14191564  0.36431506  -0.14305114  1.0
  Eu  Eu2  1  0.62960224  0.20453938  -0.78744492  1.0
  Eu  Eu3  1  0.37039776  0.79546062  -0.21255508  1.0
  Eu  Eu4  1  0.82519764  0.66156370  -0.38289286  1.0
  Eu  Eu5  1  0.17480236  0.33843630  -0.61710714  1.0
  Eu  Eu6  1  0.39372588  0.79158724  -0.72715468  1.0
  Eu  Eu7  1  0.60627412  0.20841276  -0.27284532  1.0
  Pd  Pd8  1  0.00000000  -0.00000000  -0.50000000  1.0
  Pd  Pd9  1  0.00000000  0.00000000  0.00000000  1.0
  O  O10  1  0.07001482  0.94694080  -0.74184619  1.0
  O  O11  1  0.92998518  0.05305920  -0.25815381  1.0
  O  O12  1  0.93026652  0.29424878  -0.49239930  1.0
  O  O13  1  0.06973348  0.70575122  -0.50760070  1.0
  O  O14  1  0.58637188  0.84865804  -0.90360891  1.0
  O  O15  1  0.41362812  0.15134196  -0.09639109  1.0
  O  O16  1  0.20536391  0.49495018  -0.82554587  1.0
  O  O17  1  0.79463609  0.50504982  -0.17445413  1.0
  O  O18  1  0.65365811  0.55730436  -0.70219475  1.0
  O  O19  1  0.34634189  0.44269564  -0.29780525  1.0
  O  O20  1  0.53602639  0.84377499  -0.39868105  1.0
  O  O21  1  0.46397361  0.15622501  -0.60131895  1.0
  O  O22  1  0.85839726  0.25901304  -0.91665462  1.0
  O  O23  1  0.14160274  0.74098696  -0.08334538  1.0
