# generated using pymatgen
data_K(BH)6
_symmetry_space_group_name_H-M   'P 1'
_cell_length_a   7.57007263
_cell_length_b   7.57007263
_cell_length_c   7.57007263
_cell_angle_alpha   60.00000000
_cell_angle_beta   60.00000000
_cell_angle_gamma   60.00000000
_symmetry_Int_Tables_number   1
_chemical_formula_structural   K(BH)6
_chemical_formula_sum   'K2 B12 H12'
_cell_volume   306.75040215
_cell_formula_units_Z   2
loop_
 _symmetry_equiv_pos_site_id
 _symmetry_equiv_pos_as_xyz
  1  'x, y, z'
loop_
 _atom_site_type_symbol
 _atom_site_label
 _atom_site_symmetry_multiplicity
 _atom_site_fract_x
 _atom_site_fract_y
 _atom_site_fract_z
 _atom_site_occupancy
  K  K0  1  0.25000000  0.25000000  0.25000000  1.0
  K  K1  1  0.75000000  0.75000000  -0.25000000  1.0
  B  B2  1  1.05175096  0.78283764  -0.78283764  1.0
  B  B3  1  0.78283764  1.05175096  -0.05175096  1.0
  B  B4  1  0.21716236  -0.05175096  0.05175096  1.0
  B  B5  1  -0.05175096  0.21716236  0.78283764  1.0
  B  B6  1  -0.05175096  0.78283764  0.05175096  1.0
  B  B7  1  0.21716236  1.05175096  -0.21716236  1.0
  B  B8  1  -0.78283764  0.78283764  0.94824904  1.0
  B  B9  1  0.05175096  -0.05175096  0.78283764  1.0
  B  B10  1  -0.21716236  0.94824904  0.21716236  1.0
  B  B11  1  0.05175096  1.21716236  -0.05175096  1.0
  B  B12  1  -0.05175096  0.05175096  0.21716236  1.0
  B  B13  1  -0.21716236  0.21716236  1.05175096  1.0
  H  H14  1  1.09042995  0.62875141  -0.62875141  1.0
  H  H15  1  0.62875141  1.09042995  -0.09042995  1.0
  H  H16  1  0.37124859  -0.09042995  0.09042995  1.0
  H  H17  1  -0.09042995  0.37124859  0.62875141  1.0
  H  H18  1  -0.09042995  0.62875141  0.09042995  1.0
  H  H19  1  0.37124859  1.09042995  -0.37124859  1.0
  H  H20  1  -0.62875141  0.62875141  0.90957005  1.0
  H  H21  1  0.09042995  -0.09042995  0.62875141  1.0
  H  H22  1  -0.37124859  0.90957005  0.37124859  1.0
  H  H23  1  0.09042995  1.37124859  -0.09042995  1.0
  H  H24  1  -0.09042995  0.09042995  0.37124859  1.0
  H  H25  1  -0.37124859  0.37124859  1.09042995  1.0
