# generated using pymatgen
data_CsH2SNO3
_symmetry_space_group_name_H-M   'P 1'
_cell_length_a   8.80059373
_cell_length_b   6.85622892
_cell_length_c   8.54329070
_cell_angle_alpha   90.00000000
_cell_angle_beta   90.00000000
_cell_angle_gamma   90.00000000
_symmetry_Int_Tables_number   1
_chemical_formula_structural   CsH2SNO3
_chemical_formula_sum   'Cs4 H8 S4 N4 O12'
_cell_volume   515.49263677
_cell_formula_units_Z   4
loop_
 _symmetry_equiv_pos_site_id
 _symmetry_equiv_pos_as_xyz
  1  'x, y, z'
loop_
 _atom_site_type_symbol
 _atom_site_label
 _atom_site_symmetry_multiplicity
 _atom_site_fract_x
 _atom_site_fract_y
 _atom_site_fract_z
 _atom_site_occupancy
  Cs  Cs0  1  0.37135954  0.75000000  0.06565095  1.0
  Cs  Cs1  1  0.87135954  0.75000000  0.43434905  1.0
  Cs  Cs2  1  0.62864046  0.25000000  0.93434905  1.0
  Cs  Cs3  1  0.12864046  0.25000000  0.56565095  1.0
  H  H4  1  0.50305591  0.87251414  0.42156664  1.0
  H  H5  1  0.50305591  0.62748586  0.42156664  1.0
  H  H6  1  1.00305591  0.87251414  1.07843336  1.0
  H  H7  1  1.00305591  0.62748586  1.07843336  1.0
  H  H8  1  0.49694409  0.37251414  0.57843336  1.0
  H  H9  1  0.49694409  0.12748586  0.57843336  1.0
  H  H10  1  -0.00305591  0.37251414  -0.07843336  1.0
  H  H11  1  -0.00305591  0.12748586  -0.07843336  1.0
  S  S12  1  0.35573069  0.75000000  0.61804787  1.0
  S  S13  1  0.85573069  0.75000000  0.88195213  1.0
  S  S14  1  0.64426931  0.25000000  0.38195213  1.0
  S  S15  1  0.14426931  0.25000000  0.11804787  1.0
  N  N16  1  0.00064659  0.75000000  1.00913022  1.0
  N  N17  1  0.50064659  0.75000000  0.49086978  1.0
  N  N18  1  0.99935341  0.25000000  -0.00913022  1.0
  N  N19  1  0.49935341  0.25000000  0.50913022  1.0
  O  O20  1  0.37898824  0.93062005  0.70992927  1.0
  O  O21  1  0.37898824  0.56937995  0.70992927  1.0
  O  O22  1  0.87898824  0.93062005  0.79007073  1.0
  O  O23  1  0.87898824  0.56937995  0.79007073  1.0
  O  O24  1  0.62101176  0.43062005  0.29007073  1.0
  O  O25  1  0.62101176  0.06937995  0.29007073  1.0
  O  O26  1  0.12101176  0.43062005  0.20992927  1.0
  O  O27  1  0.12101176  0.06937995  0.20992927  1.0
  O  O28  1  0.20978984  0.75000000  0.53271441  1.0
  O  O29  1  0.70978984  0.75000000  0.96728559  1.0
  O  O30  1  0.79021016  0.25000000  0.46728559  1.0
  O  O31  1  0.29021016  0.25000000  0.03271441  1.0
