# generated using pymatgen
data_AgPd3Se
_symmetry_space_group_name_H-M   'P 1'
_cell_length_a   8.75255949
_cell_length_b   8.75255949
_cell_length_c   8.75255949
_cell_angle_alpha   90.00000000
_cell_angle_beta   90.00000000
_cell_angle_gamma   90.00000000
_symmetry_Int_Tables_number   1
_chemical_formula_structural   AgPd3Se
_chemical_formula_sum   'Ag8 Pd24 Se8'
_cell_volume   670.50992985
_cell_formula_units_Z   8
loop_
 _symmetry_equiv_pos_site_id
 _symmetry_equiv_pos_as_xyz
  1  'x, y, z'
loop_
 _atom_site_type_symbol
 _atom_site_label
 _atom_site_symmetry_multiplicity
 _atom_site_fract_x
 _atom_site_fract_y
 _atom_site_fract_z
 _atom_site_occupancy
  Ag  Ag0  1  0.40557626  0.90557626  0.59442374  1.0
  Ag  Ag1  1  0.40557626  0.59442374  0.09442374  1.0
  Ag  Ag2  1  0.90557626  0.90557626  0.90557626  1.0
  Ag  Ag3  1  0.90557626  0.59442374  0.40557626  1.0
  Ag  Ag4  1  0.59442374  0.40557626  0.90557626  1.0
  Ag  Ag5  1  0.59442374  0.09442374  0.40557626  1.0
  Ag  Ag6  1  0.09442374  0.40557626  0.59442374  1.0
  Ag  Ag7  1  0.09442374  0.09442374  0.09442374  1.0
  Pd  Pd8  1  0.36274485  0.58657558  0.72246804  1.0
  Pd  Pd9  1  0.36274485  0.91342442  0.22246804  1.0
  Pd  Pd10  1  0.86274485  0.58657558  0.77753196  1.0
  Pd  Pd11  1  0.86274485  0.91342442  0.27753196  1.0
  Pd  Pd12  1  0.08657558  0.77753196  0.63725515  1.0
  Pd  Pd13  1  0.08657558  0.72246804  0.13725515  1.0
  Pd  Pd14  1  0.58657558  0.77753196  0.86274485  1.0
  Pd  Pd15  1  0.58657558  0.72246804  0.36274485  1.0
  Pd  Pd16  1  0.27753196  0.86274485  0.91342442  1.0
  Pd  Pd17  1  0.27753196  0.63725515  0.41342442  1.0
  Pd  Pd18  1  0.77753196  0.86274485  0.58657558  1.0
  Pd  Pd19  1  0.77753196  0.63725515  0.08657558  1.0
  Pd  Pd20  1  0.63725515  0.08657558  0.77753196  1.0
  Pd  Pd21  1  0.63725515  0.41342442  0.27753196  1.0
  Pd  Pd22  1  0.13725515  0.08657558  0.72246804  1.0
  Pd  Pd23  1  0.13725515  0.41342442  0.22246804  1.0
  Pd  Pd24  1  0.91342442  0.27753196  0.86274485  1.0
  Pd  Pd25  1  0.91342442  0.22246804  0.36274485  1.0
  Pd  Pd26  1  0.41342442  0.27753196  0.63725515  1.0
  Pd  Pd27  1  0.41342442  0.22246804  0.13725515  1.0
  Pd  Pd28  1  0.72246804  0.36274485  0.58657558  1.0
  Pd  Pd29  1  0.72246804  0.13725515  0.08657558  1.0
  Pd  Pd30  1  0.22246804  0.36274485  0.91342442  1.0
  Pd  Pd31  1  0.22246804  0.13725515  0.41342442  1.0
  Se  Se32  1  0.12330452  0.62330452  0.87669548  1.0
  Se  Se33  1  0.12330452  0.87669548  0.37669548  1.0
  Se  Se34  1  0.62330452  0.62330452  0.62330452  1.0
  Se  Se35  1  0.62330452  0.87669548  0.12330452  1.0
  Se  Se36  1  0.87669548  0.12330452  0.62330452  1.0
  Se  Se37  1  0.87669548  0.37669548  0.12330452  1.0
  Se  Se38  1  0.37669548  0.12330452  0.87669548  1.0
  Se  Se39  1  0.37669548  0.37669548  0.37669548  1.0
