# generated using pymatgen
data_K2PtSe2
_symmetry_space_group_name_H-M   'P 1'
_cell_length_a   6.46929711
_cell_length_b   6.46929711
_cell_length_c   6.46929711
_cell_angle_alpha   145.78600775
_cell_angle_beta   109.84412891
_cell_angle_gamma   80.42109211
_symmetry_Int_Tables_number   1
_chemical_formula_structural   K2PtSe2
_chemical_formula_sum   'K2 Pt1 Se2'
_cell_volume   139.81510486
_cell_formula_units_Z   1
loop_
 _symmetry_equiv_pos_site_id
 _symmetry_equiv_pos_as_xyz
  1  'x, y, z'
loop_
 _atom_site_type_symbol
 _atom_site_label
 _atom_site_symmetry_multiplicity
 _atom_site_fract_x
 _atom_site_fract_y
 _atom_site_fract_z
 _atom_site_occupancy
  K  K0  1  0.70067136  0.20067136  0.50000000  1.0
  K  K1  1  1.29932864  0.79932864  0.50000000  1.0
  Pt  Pt2  1  0.00000000  0.00000000  0.00000000  1.0
  Se  Se3  1  0.21956189  0.50000000  0.71956189  1.0
  Se  Se4  1  0.78043811  0.50000000  1.28043811  1.0
