# generated using pymatgen
data_Be2Te7Cl6
_symmetry_space_group_name_H-M   'P 1'
_cell_length_a   5.53354928
_cell_length_b   10.39084773
_cell_length_c   16.86780662
_cell_angle_alpha   90.00000000
_cell_angle_beta   90.00000000
_cell_angle_gamma   90.00000000
_symmetry_Int_Tables_number   1
_chemical_formula_structural   Be2Te7Cl6
_chemical_formula_sum   'Be4 Te14 Cl12'
_cell_volume   969.86966431
_cell_formula_units_Z   2
loop_
 _symmetry_equiv_pos_site_id
 _symmetry_equiv_pos_as_xyz
  1  'x, y, z'
loop_
 _atom_site_type_symbol
 _atom_site_label
 _atom_site_symmetry_multiplicity
 _atom_site_fract_x
 _atom_site_fract_y
 _atom_site_fract_z
 _atom_site_occupancy
  Be  Be0  1  0.50000000  0.00000000  0.41942043  1.0
  Be  Be1  1  0.50000000  0.00000000  0.58057957  1.0
  Be  Be2  1  0.00000000  0.50000000  0.91942043  1.0
  Be  Be3  1  0.00000000  0.50000000  0.08057957  1.0
  Te  Te4  1  0.17193589  0.60342461  0.37210088  1.0
  Te  Te5  1  0.17193589  0.60342461  0.62789912  1.0
  Te  Te6  1  0.67193589  0.89657539  0.87210088  1.0
  Te  Te7  1  0.67193589  0.89657539  0.12789912  1.0
  Te  Te8  1  0.82806411  0.39657539  0.37210088  1.0
  Te  Te9  1  0.82806411  0.39657539  0.62789912  1.0
  Te  Te10  1  0.32806411  0.10342461  0.87210088  1.0
  Te  Te11  1  0.32806411  0.10342461  0.12789912  1.0
  Te  Te12  1  0.50000000  0.50000000  0.26107086  1.0
  Te  Te13  1  0.50000000  0.50000000  0.73892914  1.0
  Te  Te14  1  0.00000000  0.00000000  0.76107086  1.0
  Te  Te15  1  0.00000000  0.00000000  0.23892914  1.0
  Te  Te16  1  0.50000000  0.50000000  0.50000000  1.0
  Te  Te17  1  0.00000000  0.00000000  0.00000000  1.0
  Cl  Cl18  1  0.15967466  0.63578961  0.14636173  1.0
  Cl  Cl19  1  0.15967466  0.63578961  0.85363827  1.0
  Cl  Cl20  1  0.65967466  0.86421039  0.64636173  1.0
  Cl  Cl21  1  0.65967466  0.86421039  0.35363827  1.0
  Cl  Cl22  1  0.84032534  0.36421039  0.14636173  1.0
  Cl  Cl23  1  0.84032534  0.36421039  0.85363827  1.0
  Cl  Cl24  1  0.34032534  0.13578961  0.64636173  1.0
  Cl  Cl25  1  0.34032534  0.13578961  0.35363827  1.0
  Cl  Cl26  1  0.27062458  0.91231916  0.50000000  1.0
  Cl  Cl27  1  0.77062458  0.58768084  0.00000000  1.0
  Cl  Cl28  1  0.72937542  0.08768084  0.50000000  1.0
  Cl  Cl29  1  0.22937542  0.41231916  0.00000000  1.0
