# generated using pymatgen
data_K2HfO3F5
_symmetry_space_group_name_H-M   'P 1'
_cell_length_a   6.98671032
_cell_length_b   16.93136226
_cell_length_c   7.23537699
_cell_angle_alpha   90.00000000
_cell_angle_beta   94.70106682
_cell_angle_gamma   90.00000000
_symmetry_Int_Tables_number   1
_chemical_formula_structural   K2HfO3F5
_chemical_formula_sum   'K8 Hf4 O12 F20'
_cell_volume   853.02608782
_cell_formula_units_Z   4
loop_
 _symmetry_equiv_pos_site_id
 _symmetry_equiv_pos_as_xyz
  1  'x, y, z'
loop_
 _atom_site_type_symbol
 _atom_site_label
 _atom_site_symmetry_multiplicity
 _atom_site_fract_x
 _atom_site_fract_y
 _atom_site_fract_z
 _atom_site_occupancy
  F  F0  1  0.80971631  0.34135647  0.47454989  1.0
  F  F1  1  0.80971631  0.15864353  0.47454989  1.0
  F  F2  1  0.19028369  0.84135647  0.52545011  1.0
  F  F3  1  0.19028369  0.65864353  0.52545011  1.0
  F  F4  1  0.81872697  0.48213287  0.67559789  1.0
  F  F5  1  0.81872697  0.01786713  0.67559789  1.0
  F  F6  1  0.18127303  0.98213287  0.32440211  1.0
  F  F7  1  0.18127303  0.51786713  0.32440211  1.0
  F  F8  1  0.74378864  0.39243066  1.01221856  1.0
  F  F9  1  0.74378864  0.10756934  1.01221856  1.0
  F  F10  1  0.25621136  0.89243066  -0.01221856  1.0
  F  F11  1  0.25621136  0.60756934  -0.01221856  1.0
  F  F12  1  0.49703395  0.39140359  0.67038988  1.0
  F  F13  1  0.49703395  0.10859641  0.67038988  1.0
  F  F14  1  0.50296605  0.89140359  0.32961012  1.0
  F  F15  1  0.50296605  0.60859641  0.32961012  1.0
  F  F16  1  0.07342446  0.37442398  0.78772523  1.0
  F  F17  1  0.07342446  0.12557602  0.78772523  1.0
  F  F18  1  0.92657554  0.87442398  0.21227477  1.0
  F  F19  1  0.92657554  0.62557602  0.21227477  1.0
  Hf  Hf20  1  0.77948029  0.36808476  0.74330154  1.0
  Hf  Hf21  1  0.77948029  0.13191524  0.74330154  1.0
  Hf  Hf22  1  0.22051971  0.86808476  0.25669846  1.0
  Hf  Hf23  1  0.22051971  0.63191524  0.25669846  1.0
  K  K24  1  0.76542880  0.49392909  0.29917358  1.0
  K  K25  1  0.76542880  0.00607091  0.29917358  1.0
  K  K26  1  0.23457120  0.99392909  0.70082642  1.0
  K  K27  1  0.23457120  0.50607091  0.70082642  1.0
  K  K28  1  0.75173660  0.25000000  0.19125120  1.0
  K  K29  1  0.24826340  0.75000000  0.80874880  1.0
  K  K30  1  0.27110478  0.25000000  0.69409615  1.0
  K  K31  1  0.72889522  0.75000000  0.30590385  1.0
  O  O32  1  0.86355886  0.25000000  0.83690292  1.0
  O  O33  1  0.13644114  0.75000000  0.16309708  1.0
  O  O34  1  0.65020177  0.25000000  0.79159062  1.0
  O  O35  1  0.34979823  0.75000000  0.20840938  1.0
  O  O36  1  0.79349149  0.84346459  0.72872351  1.0
  O  O37  1  0.79349149  0.65653541  0.72872351  1.0
  O  O38  1  0.20650851  0.34346459  0.27127649  1.0
  O  O39  1  0.20650851  0.15653541  0.27127649  1.0
  O  O40  1  0.65667943  0.85502868  0.81974259  1.0
  O  O41  1  0.65667943  0.64497132  0.81974259  1.0
  O  O42  1  0.34332057  0.35502868  0.18025741  1.0
  O  O43  1  0.34332057  0.14497132  0.18025741  1.0
