# generated using pymatgen
data_Rb3Ru2N(Cl4O)2
_symmetry_space_group_name_H-M   'P 1'
_cell_length_a   9.66828756
_cell_length_b   9.66828756
_cell_length_c   8.44783165
_cell_angle_alpha   59.95495428
_cell_angle_beta   120.04504572
_cell_angle_gamma   131.46341040
_symmetry_Int_Tables_number   1
_chemical_formula_structural   Rb3Ru2N(Cl4O)2
_chemical_formula_sum   'Rb3 Ru2 N1 Cl8 O2'
_cell_volume   494.52304701
_cell_formula_units_Z   1
loop_
 _symmetry_equiv_pos_site_id
 _symmetry_equiv_pos_as_xyz
  1  'x, y, z'
loop_
 _atom_site_type_symbol
 _atom_site_label
 _atom_site_symmetry_multiplicity
 _atom_site_fract_x
 _atom_site_fract_y
 _atom_site_fract_z
 _atom_site_occupancy
  Rb  Rb0  1  0.84654865  -0.84654865  0.41069471  1.0
  Rb  Rb1  1  1.15345135  -0.15345135  0.58930529  1.0
  Rb  Rb2  1  0.50000000  0.50000000  0.00000000  1.0
  Ru  Ru3  1  0.89212540  -0.89212540  0.99286035  1.0
  Ru  Ru4  1  1.10787460  -0.10787460  0.00713965  1.0
  N  N5  1  0.00000000  0.00000000  0.00000000  1.0
  Cl  Cl6  1  1.62189481  -0.04445698  0.75128527  1.0
  Cl  Cl7  1  1.04445698  -0.62189481  0.75128527  1.0
  Cl  Cl8  1  0.95554302  -0.37810519  0.24871473  1.0
  Cl  Cl9  1  1.37810519  0.04445698  0.24871473  1.0
  Cl  Cl10  1  1.25272859  0.17106318  0.76375705  1.0
  Cl  Cl11  1  0.82893682  -0.25272859  0.76375705  1.0
  Cl  Cl12  1  1.17106318  -0.74727141  0.23624295  1.0
  Cl  Cl13  1  1.74727141  -0.17106318  0.23624295  1.0
  O  O14  1  0.79612223  -0.79612223  0.99901052  1.0
  O  O15  1  1.20387777  -0.20387777  0.00098948  1.0
