# generated using pymatgen
data_Rh2O3
_symmetry_space_group_name_H-M   'P 1'
_cell_length_a   10.45447043
_cell_length_b   2.75100715
_cell_length_c   8.29255085
_cell_angle_alpha   90.00000000
_cell_angle_beta   90.00000000
_cell_angle_gamma   90.00000000
_symmetry_Int_Tables_number   1
_chemical_formula_structural   Rh2O3
_chemical_formula_sum   'Rh8 O12'
_cell_volume   238.49644070
_cell_formula_units_Z   4
loop_
 _symmetry_equiv_pos_site_id
 _symmetry_equiv_pos_as_xyz
  1  'x, y, z'
loop_
 _atom_site_type_symbol
 _atom_site_label
 _atom_site_symmetry_multiplicity
 _atom_site_fract_x
 _atom_site_fract_y
 _atom_site_fract_z
 _atom_site_occupancy
  Rh  Rh0  1  0.87692537  0.25000000  0.51336497  1.0
  Rh  Rh1  1  0.37692537  0.25000000  0.98663503  1.0
  Rh  Rh2  1  0.12307463  0.75000000  0.48663503  1.0
  Rh  Rh3  1  0.62307463  0.75000000  0.01336497  1.0
  Rh  Rh4  1  0.00955928  0.25000000  0.83320030  1.0
  Rh  Rh5  1  0.50955928  0.25000000  0.66679970  1.0
  Rh  Rh6  1  0.99044072  0.75000000  0.16679970  1.0
  Rh  Rh7  1  0.49044072  0.75000000  0.33320030  1.0
  O  O8  1  0.63795067  0.25000000  0.84455746  1.0
  O  O9  1  0.13795067  0.25000000  0.65544254  1.0
  O  O10  1  0.36204933  0.75000000  0.15544254  1.0
  O  O11  1  0.86204933  0.75000000  0.34455746  1.0
  O  O12  1  0.11091583  0.25000000  0.29422344  1.0
  O  O13  1  0.61091583  0.25000000  0.20577656  1.0
  O  O14  1  0.88908417  0.75000000  0.70577656  1.0
  O  O15  1  0.38908417  0.75000000  0.79422344  1.0
  O  O16  1  0.39829820  0.25000000  0.46119699  1.0
  O  O17  1  0.89829820  0.25000000  0.03880301  1.0
  O  O18  1  0.60170180  0.75000000  0.53880301  1.0
  O  O19  1  0.10170180  0.75000000  0.96119699  1.0
