# generated using pymatgen
data_Bi(BO2)3
_symmetry_space_group_name_H-M   'P 1'
_cell_length_a   4.42820138
_cell_length_b   4.42820138
_cell_length_c   6.69262907
_cell_angle_alpha   78.36196682
_cell_angle_beta   101.63803318
_cell_angle_gamma   102.02233649
_symmetry_Int_Tables_number   1
_chemical_formula_structural   Bi(BO2)3
_chemical_formula_sum   'Bi1 B3 O6'
_cell_volume   123.95877779
_cell_formula_units_Z   1
loop_
 _symmetry_equiv_pos_site_id
 _symmetry_equiv_pos_as_xyz
  1  'x, y, z'
loop_
 _atom_site_type_symbol
 _atom_site_label
 _atom_site_symmetry_multiplicity
 _atom_site_fract_x
 _atom_site_fract_y
 _atom_site_fract_z
 _atom_site_occupancy
  Bi  Bi0  1  1.25028400  0.25028400  0.50000000  1.0
  B  B1  1  1.09930904  0.59599861  0.80624443  1.0
  B  B2  1  1.59599861  0.09930904  0.19375557  1.0
  B  B3  1  0.01717959  0.01717959  -0.00000000  1.0
  O  O4  1  1.08163596  0.27073852  0.81889700  1.0
  O  O5  1  1.27073852  0.08163596  0.18110300  1.0
  O  O6  1  1.19217891  0.75751602  0.62339901  1.0
  O  O7  1  1.75751602  0.19217891  0.37660099  1.0
  O  O8  1  1.02008887  -0.28992951  0.95618412  1.0
  O  O9  1  0.71007049  0.02008887  0.04381588  1.0
