# generated using pymatgen
data_Li2La2Ge3
_symmetry_space_group_name_H-M   'P 1'
_cell_length_a   9.80811952
_cell_length_b   9.80811952
_cell_length_c   7.05262242
_cell_angle_alpha   90.00000000
_cell_angle_beta   90.00000000
_cell_angle_gamma   153.15575559
_symmetry_Int_Tables_number   1
_chemical_formula_structural   Li2La2Ge3
_chemical_formula_sum   'Li4 La4 Ge6'
_cell_volume   306.36843092
_cell_formula_units_Z   2
loop_
 _symmetry_equiv_pos_site_id
 _symmetry_equiv_pos_as_xyz
  1  'x, y, z'
loop_
 _atom_site_type_symbol
 _atom_site_label
 _atom_site_symmetry_multiplicity
 _atom_site_fract_x
 _atom_site_fract_y
 _atom_site_fract_z
 _atom_site_occupancy
  Li  Li0  1  -0.81041945  0.81041945  0.93737205  1.0
  Li  Li1  1  -0.81041945  0.81041945  0.56262795  1.0
  Li  Li2  1  -0.18958055  1.18958055  0.43737205  1.0
  Li  Li3  1  -0.18958055  1.18958055  0.06262795  1.0
  La  La4  1  -0.55157463  0.55157463  0.25000000  1.0
  La  La5  1  -0.44842537  1.44842537  0.75000000  1.0
  La  La6  1  -0.34064769  1.34064769  0.25000000  1.0
  La  La7  1  -0.65935231  0.65935231  0.75000000  1.0
  Ge  Ge8  1  -0.93883075  0.93883075  0.43083630  1.0
  Ge  Ge9  1  -0.93883075  0.93883075  0.06916370  1.0
  Ge  Ge10  1  -0.06116925  1.06116925  0.93083630  1.0
  Ge  Ge11  1  -0.06116925  1.06116925  0.56916370  1.0
  Ge  Ge12  1  -0.72024962  0.72024962  0.25000000  1.0
  Ge  Ge13  1  -0.27975038  1.27975038  0.75000000  1.0
