# generated using pymatgen
data_La2In4Pd3
_symmetry_space_group_name_H-M   'P 1'
_cell_length_a   22.00925441
_cell_length_b   4.48612550
_cell_length_c   8.56744496
_cell_angle_alpha   90.00000000
_cell_angle_beta   90.00000000
_cell_angle_gamma   90.00000000
_symmetry_Int_Tables_number   1
_chemical_formula_structural   La2In4Pd3
_chemical_formula_sum   'La8 In16 Pd12'
_cell_volume   845.91762283
_cell_formula_units_Z   4
loop_
 _symmetry_equiv_pos_site_id
 _symmetry_equiv_pos_as_xyz
  1  'x, y, z'
loop_
 _atom_site_type_symbol
 _atom_site_label
 _atom_site_symmetry_multiplicity
 _atom_site_fract_x
 _atom_site_fract_y
 _atom_site_fract_z
 _atom_site_occupancy
  La  La0  1  0.38302736  0.75000000  0.87449673  1.0
  La  La1  1  0.88302736  0.75000000  0.62550327  1.0
  La  La2  1  0.61697264  0.25000000  0.12550327  1.0
  La  La3  1  0.11697264  0.25000000  0.37449673  1.0
  La  La4  1  0.35765335  0.75000000  0.37938689  1.0
  La  La5  1  0.85765335  0.75000000  0.12061311  1.0
  La  La6  1  0.64234665  0.25000000  0.62061311  1.0
  La  La7  1  0.14234665  0.25000000  0.87938689  1.0
  In  In8  1  0.49973622  0.75000000  0.61568258  1.0
  In  In9  1  0.99973622  0.75000000  0.88431742  1.0
  In  In10  1  0.50026378  0.25000000  0.38431742  1.0
  In  In11  1  0.00026378  0.25000000  0.11568258  1.0
  In  In12  1  0.49704008  0.75000000  0.13756842  1.0
  In  In13  1  0.99704008  0.75000000  0.36243158  1.0
  In  In14  1  0.50295992  0.25000000  0.86243158  1.0
  In  In15  1  0.00295992  0.25000000  0.63756842  1.0
  In  In16  1  0.20915510  0.75000000  0.18646478  1.0
  In  In17  1  0.70915510  0.75000000  0.31353522  1.0
  In  In18  1  0.79084490  0.25000000  0.81353522  1.0
  In  In19  1  0.29084490  0.25000000  0.68646478  1.0
  In  In20  1  0.20497263  0.75000000  0.57747150  1.0
  In  In21  1  0.70497263  0.75000000  0.92252850  1.0
  In  In22  1  0.79502737  0.25000000  0.42252850  1.0
  In  In23  1  0.29502737  0.25000000  0.07747150  1.0
  Pd  Pd24  1  0.25244801  0.75000000  0.88157384  1.0
  Pd  Pd25  1  0.75244801  0.75000000  0.61842616  1.0
  Pd  Pd26  1  0.74755199  0.25000000  0.11842616  1.0
  Pd  Pd27  1  0.24755199  0.25000000  0.38157384  1.0
  Pd  Pd28  1  0.08674907  0.75000000  0.11724810  1.0
  Pd  Pd29  1  0.58674907  0.75000000  0.38275190  1.0
  Pd  Pd30  1  0.91325093  0.25000000  0.88275190  1.0
  Pd  Pd31  1  0.41325093  0.25000000  0.61724810  1.0
  Pd  Pd32  1  0.08052286  0.75000000  0.63004551  1.0
  Pd  Pd33  1  0.58052286  0.75000000  0.86995449  1.0
  Pd  Pd34  1  0.91947714  0.25000000  0.36995449  1.0
  Pd  Pd35  1  0.41947714  0.25000000  0.13004551  1.0
