# generated using pymatgen
data_Eu2Si2O7
_symmetry_space_group_name_H-M   'P 1'
_cell_length_a   5.41606262
_cell_length_b   8.63752875
_cell_length_c   12.97697998
_cell_angle_alpha   90.00000000
_cell_angle_beta   90.00000000
_cell_angle_gamma   90.00000000
_symmetry_Int_Tables_number   1
_chemical_formula_structural   Eu2Si2O7
_chemical_formula_sum   'Eu8 Si8 O28'
_cell_volume   607.08124650
_cell_formula_units_Z   4
loop_
 _symmetry_equiv_pos_site_id
 _symmetry_equiv_pos_as_xyz
  1  'x, y, z'
loop_
 _atom_site_type_symbol
 _atom_site_label
 _atom_site_symmetry_multiplicity
 _atom_site_fract_x
 _atom_site_fract_y
 _atom_site_fract_z
 _atom_site_occupancy
  Eu  Eu0  1  0.48297583  0.65203637  0.90958445  1.0
  Eu  Eu1  1  0.98297583  0.84796363  0.09041555  1.0
  Eu  Eu2  1  0.51702417  0.15203637  0.59041555  1.0
  Eu  Eu3  1  0.01702417  0.34796363  0.40958445  1.0
  Eu  Eu4  1  1.00987297  0.94589797  0.76926953  1.0
  Eu  Eu5  1  0.50987297  0.55410203  0.23073047  1.0
  Eu  Eu6  1  -0.00987297  0.44589797  0.73073047  1.0
  Eu  Eu7  1  0.49012703  0.05410203  0.26926953  1.0
  Si  Si8  1  0.47580197  0.75446047  0.67812408  1.0
  Si  Si9  1  0.97580197  0.74553953  0.32187592  1.0
  Si  Si10  1  0.52419803  0.25446047  0.82187592  1.0
  Si  Si11  1  0.02419803  0.24553953  0.17812408  1.0
  Si  Si12  1  0.47268730  0.49950107  0.52195644  1.0
  Si  Si13  1  0.97268730  0.00049893  0.47804356  1.0
  Si  Si14  1  0.52731270  0.99950107  0.97804356  1.0
  Si  Si15  1  0.02731270  0.50049893  0.02195644  1.0
  O  O16  1  0.49042652  0.67784320  0.56297935  1.0
  O  O17  1  0.99042652  0.82215680  0.43702065  1.0
  O  O18  1  0.50957348  0.17784320  0.93702065  1.0
  O  O19  1  0.00957348  0.32215680  0.06297935  1.0
  O  O20  1  0.39216491  0.93543667  0.67210220  1.0
  O  O21  1  0.89216491  0.56456333  0.32789780  1.0
  O  O22  1  0.60783509  0.43543667  0.82789780  1.0
  O  O23  1  0.10783509  0.06456333  0.17210220  1.0
  O  O24  1  0.27483864  0.90112581  0.94728760  1.0
  O  O25  1  0.77483864  0.59887419  0.05271240  1.0
  O  O26  1  0.72516136  0.40112581  0.55271240  1.0
  O  O27  1  0.22516136  0.09887419  0.44728760  1.0
  O  O28  1  0.24506569  0.39860557  0.57466073  1.0
  O  O29  1  0.74506569  0.10139443  0.42533927  1.0
  O  O30  1  0.75493431  0.89860557  0.92533927  1.0
  O  O31  1  0.25493431  0.60139443  0.07466073  1.0
  O  O32  1  0.24792526  0.68197636  0.74756698  1.0
  O  O33  1  0.74792526  0.81802364  0.25243302  1.0
  O  O34  1  0.75207474  0.18197636  0.75243302  1.0
  O  O35  1  0.25207474  0.31802364  0.24756698  1.0
  O  O36  1  0.23174850  0.77387637  0.25752799  1.0
  O  O37  1  0.73174850  0.72612363  0.74247201  1.0
  O  O38  1  0.76825150  0.27387637  0.24247201  1.0
  O  O39  1  0.26825150  0.22612363  0.75752799  1.0
  O  O40  1  0.09777773  0.50476850  0.90057846  1.0
  O  O41  1  0.59777773  0.99523150  0.09942154  1.0
  O  O42  1  0.90222227  0.00476850  0.59942154  1.0
  O  O43  1  0.40222227  0.49523150  0.40057846  1.0
