# generated using pymatgen
data_BaBr2
_symmetry_space_group_name_H-M   'P 1'
_cell_length_a   8.58918223
_cell_length_b   8.58918223
_cell_length_c   4.92953415
_cell_angle_alpha   90.00000000
_cell_angle_beta   90.00000000
_cell_angle_gamma   120.00000000
_symmetry_Int_Tables_number   1
_chemical_formula_structural   BaBr2
_chemical_formula_sum   'Ba3 Br6'
_cell_volume   314.94893594
_cell_formula_units_Z   3
loop_
 _symmetry_equiv_pos_site_id
 _symmetry_equiv_pos_as_xyz
  1  'x, y, z'
loop_
 _atom_site_type_symbol
 _atom_site_label
 _atom_site_symmetry_multiplicity
 _atom_site_fract_x
 _atom_site_fract_y
 _atom_site_fract_z
 _atom_site_occupancy
  Ba  Ba0  1  0.33333333  0.66666667  0.50000000  1.0
  Ba  Ba1  1  0.66666667  0.33333333  0.50000000  1.0
  Ba  Ba2  1  0.00000000  0.00000000  0.00000000  1.0
  Br  Br3  1  0.74304325  0.74304325  0.50000000  1.0
  Br  Br4  1  -0.00000000  0.25695675  0.50000000  1.0
  Br  Br5  1  0.25695675  0.00000000  0.50000000  1.0
  Br  Br6  1  0.40882908  0.40882908  0.00000000  1.0
  Br  Br7  1  0.00000000  0.59117092  0.00000000  1.0
  Br  Br8  1  0.59117092  0.00000000  0.00000000  1.0
