# generated using pymatgen
data_Li5VP2O9
_symmetry_space_group_name_H-M   'P 1'
_cell_length_a   7.67247980
_cell_length_b   7.67247980
_cell_length_c   7.67247980
_cell_angle_alpha   105.32952545
_cell_angle_beta   105.32952545
_cell_angle_gamma   118.11610827
_symmetry_Int_Tables_number   1
_chemical_formula_structural   Li5VP2O9
_chemical_formula_sum   'Li10 V2 P4 O18'
_cell_volume   341.66680722
_cell_formula_units_Z   2
loop_
 _symmetry_equiv_pos_site_id
 _symmetry_equiv_pos_as_xyz
  1  'x, y, z'
loop_
 _atom_site_type_symbol
 _atom_site_label
 _atom_site_symmetry_multiplicity
 _atom_site_fract_x
 _atom_site_fract_y
 _atom_site_fract_z
 _atom_site_occupancy
  Li  Li0  1  1.25000000  1.02502619  0.77502619  1.0
  Li  Li1  1  0.75000000  0.52502619  0.77502619  1.0
  Li  Li2  1  0.52502619  0.75000000  0.77502619  1.0
  Li  Li3  1  1.02502619  1.25000000  0.77502619  1.0
  Li  Li4  1  0.47497381  0.25000000  0.22497381  1.0
  Li  Li5  1  0.97497381  0.75000000  0.22497381  1.0
  Li  Li6  1  0.75000000  0.97497381  0.22497381  1.0
  Li  Li7  1  0.25000000  0.47497381  0.22497381  1.0
  Li  Li8  1  0.75000000  0.25000000  0.50000000  1.0
  Li  Li9  1  0.25000000  0.75000000  0.50000000  1.0
  V  V10  1  0.50000000  0.50000000  -0.00000000  1.0
  V  V11  1  0.00000000  0.00000000  0.00000000  1.0
  P  P12  1  0.79290499  0.29290499  1.08580998  1.0
  P  P13  1  0.70709501  0.79290499  0.50000000  1.0
  P  P14  1  0.29290499  0.20709501  0.50000000  1.0
  P  P15  1  1.20709501  0.70709501  0.91419002  1.0
  O  O16  1  0.69889379  1.19889379  1.22047345  1.0
  O  O17  1  1.02157966  0.52157966  1.22047345  1.0
  O  O18  1  0.47842034  0.69889379  0.50000000  1.0
  O  O19  1  0.80110621  1.02157966  1.50000000  1.0
  O  O20  1  1.19889379  0.97842034  1.50000000  1.0
  O  O21  1  0.52157966  0.30110621  0.50000000  1.0
  O  O22  1  0.97842034  0.47842034  0.77952655  1.0
  O  O23  1  0.30110621  0.80110621  0.77952655  1.0
  O  O24  1  0.31875722  0.37405825  0.69281547  1.0
  O  O25  1  0.18124278  0.87405825  1.05530103  1.0
  O  O26  1  0.87405825  0.81875722  0.69281547  1.0
  O  O27  1  0.62594175  1.31875722  0.94469897  1.0
  O  O28  1  0.81875722  1.12594175  0.94469897  1.0
  O  O29  1  0.68124278  0.62594175  0.30718453  1.0
  O  O30  1  0.37405825  0.68124278  1.05530103  1.0
  O  O31  1  0.12594175  0.18124278  0.30718453  1.0
  O  O32  1  0.25000000  0.25000000  -0.00000000  1.0
  O  O33  1  0.75000000  0.75000000  -0.00000000  1.0
