# generated using pymatgen
data_Hg2PO3F
_symmetry_space_group_name_H-M   'P 1'
_cell_length_a   9.02054543
_cell_length_b   9.02054543
_cell_length_c   9.02054543
_cell_angle_alpha   117.32527983
_cell_angle_beta   92.89688535
_cell_angle_gamma   119.36817551
_symmetry_Int_Tables_number   1
_chemical_formula_structural   Hg2PO3F
_chemical_formula_sum   'Hg8 P4 O12 F4'
_cell_volume   531.05593232
_cell_formula_units_Z   4
loop_
 _symmetry_equiv_pos_site_id
 _symmetry_equiv_pos_as_xyz
  1  'x, y, z'
loop_
 _atom_site_type_symbol
 _atom_site_label
 _atom_site_symmetry_multiplicity
 _atom_site_fract_x
 _atom_site_fract_y
 _atom_site_fract_z
 _atom_site_occupancy
  Hg  Hg0  1  1.68600019  1.56964609  1.68289682  1.0
  Hg  Hg1  1  1.11325073  0.99689663  1.68289682  1.0
  Hg  Hg2  1  0.38674927  1.06964609  0.88364590  1.0
  Hg  Hg3  1  0.81399981  1.49689663  0.88364590  1.0
  Hg  Hg4  1  1.18600019  0.50310337  1.11635410  1.0
  Hg  Hg5  1  1.61325073  0.93035391  1.11635410  1.0
  Hg  Hg6  1  0.88674927  1.00310337  0.31710318  1.0
  Hg  Hg7  1  0.31399981  0.43035391  0.31710318  1.0
  P  P8  1  0.75085144  0.55087426  1.30172570  1.0
  P  P9  1  0.74914856  1.05087426  0.80002282  1.0
  P  P10  1  1.25085144  0.94912574  1.19997718  1.0
  P  P11  1  0.24914856  0.44912574  0.69827430  1.0
  O  O12  1  1.61474083  1.49873915  1.39758123  1.0
  O  O13  1  0.89884208  0.78284040  1.39758123  1.0
  O  O14  1  0.60115792  0.99873915  0.88399833  1.0
  O  O15  1  0.88525917  1.28284040  0.88399833  1.0
  O  O16  1  1.11474083  0.71715960  1.11600167  1.0
  O  O17  1  1.39884208  1.00126085  1.11600167  1.0
  O  O18  1  1.10115792  1.21715960  0.60241877  1.0
  O  O19  1  0.38525917  0.50126085  0.60241877  1.0
  O  O20  1  0.84115785  0.94359838  0.78475623  1.0
  O  O21  1  0.65884215  0.44359838  1.10244053  1.0
  O  O22  1  0.34115785  0.55640162  0.89755947  1.0
  O  O23  1  1.15884215  1.05640162  1.21524377  1.0
  F  F24  1  0.63803881  0.96308105  0.60111986  1.0
  F  F25  1  0.86196119  0.46308105  1.32504224  1.0
  F  F26  1  0.13803881  0.53691895  0.67495776  1.0
  F  F27  1  1.36196119  1.03691895  1.39888014  1.0
