# generated using pymatgen
data_TlCrP2O7
_symmetry_space_group_name_H-M   'P 1'
_cell_length_a   7.60945973
_cell_length_b   10.02791627
_cell_length_c   8.33157584
_cell_angle_alpha   90.00000000
_cell_angle_beta   106.25610651
_cell_angle_gamma   90.00000000
_symmetry_Int_Tables_number   1
_chemical_formula_structural   TlCrP2O7
_chemical_formula_sum   'Tl4 Cr4 P8 O28'
_cell_volume   610.34018653
_cell_formula_units_Z   4
loop_
 _symmetry_equiv_pos_site_id
 _symmetry_equiv_pos_as_xyz
  1  'x, y, z'
loop_
 _atom_site_type_symbol
 _atom_site_label
 _atom_site_symmetry_multiplicity
 _atom_site_fract_x
 _atom_site_fract_y
 _atom_site_fract_z
 _atom_site_occupancy
  Tl  Tl0  1  0.81627708  0.81382072  0.44830949  1.0
  Tl  Tl1  1  0.81627708  0.68617928  0.94830949  1.0
  Tl  Tl2  1  0.18372292  0.31382072  0.05169051  1.0
  Tl  Tl3  1  0.18372292  0.18617928  0.55169051  1.0
  Cr  Cr4  1  0.76083295  0.39891486  0.23978678  1.0
  Cr  Cr5  1  0.76083295  0.10108514  0.73978678  1.0
  Cr  Cr6  1  0.23916705  0.89891486  0.26021322  1.0
  Cr  Cr7  1  0.23916705  0.60108514  0.76021322  1.0
  P  P8  1  0.87097926  0.09715831  0.16747949  1.0
  P  P9  1  0.87097926  0.40284169  0.66747949  1.0
  P  P10  1  0.12902074  0.59715831  0.33252051  1.0
  P  P11  1  0.12902074  0.90284169  0.83252051  1.0
  P  P12  1  0.56856509  0.13095158  0.31146460  1.0
  P  P13  1  0.56856509  0.36904842  0.81146460  1.0
  P  P14  1  0.43143491  0.63095158  0.18853540  1.0
  P  P15  1  0.43143491  0.86904842  0.68853540  1.0
  O  O16  1  0.91352307  0.23893687  0.24276291  1.0
  O  O17  1  0.91352307  0.26106313  0.74276291  1.0
  O  O18  1  0.08647693  0.73893687  0.25723709  1.0
  O  O19  1  0.08647693  0.76106313  0.75723709  1.0
  O  O20  1  0.98578898  0.50099707  0.22453737  1.0
  O  O21  1  0.98578898  -0.00099707  0.72453737  1.0
  O  O22  1  0.01421102  1.00099707  0.27546263  1.0
  O  O23  1  0.01421102  0.49900293  0.77546263  1.0
  O  O24  1  0.85465187  0.40952689  0.48275046  1.0
  O  O25  1  0.85465187  0.09047311  0.98275046  1.0
  O  O26  1  0.14534813  0.90952689  0.01724954  1.0
  O  O27  1  0.14534813  0.59047311  0.51724954  1.0
  O  O28  1  0.68225679  0.10262105  0.49061248  1.0
  O  O29  1  0.68225679  0.39737895  0.99061248  1.0
  O  O30  1  0.31774321  0.60262105  0.00938752  1.0
  O  O31  1  0.31774321  0.89737895  0.50938752  1.0
  O  O32  1  0.67466576  0.05212556  0.19255961  1.0
  O  O33  1  0.67466576  0.44787444  0.69255961  1.0
  O  O34  1  0.32533424  0.55212556  0.30744039  1.0
  O  O35  1  0.32533424  0.94787444  0.80744039  1.0
  O  O36  1  0.55796459  0.27966310  0.25911872  1.0
  O  O37  1  0.55796459  0.22033690  0.75911872  1.0
  O  O38  1  0.44203541  0.77966310  0.24088128  1.0
  O  O39  1  0.44203541  0.72033690  0.74088128  1.0
  O  O40  1  0.37468066  0.07225089  0.26342833  1.0
  O  O41  1  0.37468066  0.42774911  0.76342833  1.0
  O  O42  1  0.62531934  0.57225089  0.23657167  1.0
  O  O43  1  0.62531934  0.92774911  0.73657167  1.0
