# generated using pymatgen
data_HfGePt
_symmetry_space_group_name_H-M   'P 1'
_cell_length_a   6.65506678
_cell_length_b   3.99168887
_cell_length_c   7.71768951
_cell_angle_alpha   90.00000000
_cell_angle_beta   90.00000000
_cell_angle_gamma   90.00000000
_symmetry_Int_Tables_number   1
_chemical_formula_structural   HfGePt
_chemical_formula_sum   'Hf4 Ge4 Pt4'
_cell_volume   205.02008217
_cell_formula_units_Z   4
loop_
 _symmetry_equiv_pos_site_id
 _symmetry_equiv_pos_as_xyz
  1  'x, y, z'
loop_
 _atom_site_type_symbol
 _atom_site_label
 _atom_site_symmetry_multiplicity
 _atom_site_fract_x
 _atom_site_fract_y
 _atom_site_fract_z
 _atom_site_occupancy
  Hf  Hf0  1  0.97071157  0.75000000  0.68317840  1.0
  Hf  Hf1  1  0.47071157  0.75000000  0.81682160  1.0
  Hf  Hf2  1  0.02928843  0.25000000  0.31682160  1.0
  Hf  Hf3  1  0.52928843  0.25000000  0.18317840  1.0
  Ge  Ge4  1  0.74965412  0.75000000  0.37863305  1.0
  Ge  Ge5  1  0.24965412  0.75000000  0.12136695  1.0
  Ge  Ge6  1  0.25034588  0.25000000  0.62136695  1.0
  Ge  Ge7  1  0.75034588  0.25000000  0.87863305  1.0
  Pt  Pt8  1  0.85571338  0.75000000  0.06449972  1.0
  Pt  Pt9  1  0.35571338  0.75000000  0.43550028  1.0
  Pt  Pt10  1  0.14428662  0.25000000  0.93550028  1.0
  Pt  Pt11  1  0.64428662  0.25000000  0.56449972  1.0
