# generated using pymatgen
data_Gd3Bi4Au3
_symmetry_space_group_name_H-M   'P 1'
_cell_length_a   8.85074143
_cell_length_b   8.85074143
_cell_length_c   8.85074143
_cell_angle_alpha   109.47122063
_cell_angle_beta   109.47122063
_cell_angle_gamma   109.47122063
_symmetry_Int_Tables_number   1
_chemical_formula_structural   Gd3Bi4Au3
_chemical_formula_sum   'Gd6 Bi8 Au6'
_cell_volume   533.72441415
_cell_formula_units_Z   2
loop_
 _symmetry_equiv_pos_site_id
 _symmetry_equiv_pos_as_xyz
  1  'x, y, z'
loop_
 _atom_site_type_symbol
 _atom_site_label
 _atom_site_symmetry_multiplicity
 _atom_site_fract_x
 _atom_site_fract_y
 _atom_site_fract_z
 _atom_site_occupancy
  Gd  Gd0  1  0.62500000  0.75000000  0.37500000  1.0
  Gd  Gd1  1  0.87500000  0.25000000  1.12500000  1.0
  Gd  Gd2  1  0.25000000  1.12500000  0.87500000  1.0
  Gd  Gd3  1  0.75000000  1.37500000  0.62500000  1.0
  Gd  Gd4  1  0.37500000  0.62500000  0.75000000  1.0
  Gd  Gd5  1  1.12500000  0.87500000  1.25000000  1.0
  Bi  Bi6  1  0.81841747  0.81841747  0.81841747  1.0
  Bi  Bi7  1  1.00000000  0.68158253  1.50000000  1.0
  Bi  Bi8  1  0.50000000  1.00000000  0.68158253  1.0
  Bi  Bi9  1  0.68158253  1.50000000  1.00000000  1.0
  Bi  Bi10  1  1.00000000  1.18158253  1.50000000  1.0
  Bi  Bi11  1  1.31841747  1.31841747  1.31841747  1.0
  Bi  Bi12  1  1.50000000  1.00000000  1.18158253  1.0
  Bi  Bi13  1  1.18158253  0.50000000  1.00000000  1.0
  Au  Au14  1  0.12500000  0.75000000  0.87500000  1.0
  Au  Au15  1  1.37500000  1.25000000  1.62500000  1.0
  Au  Au16  1  0.25000000  0.62500000  0.37500000  1.0
  Au  Au17  1  0.75000000  0.87500000  0.12500000  1.0
  Au  Au18  1  0.87500000  1.12500000  0.75000000  1.0
  Au  Au19  1  1.62500000  1.37500000  1.25000000  1.0
