# generated using pymatgen
data_PbSeO3
_symmetry_space_group_name_H-M   'P 1'
_cell_length_a   9.47368719
_cell_length_b   8.25376329
_cell_length_c   8.98609503
_cell_angle_alpha   90.00000000
_cell_angle_beta   104.77502042
_cell_angle_gamma   90.00000000
_symmetry_Int_Tables_number   1
_chemical_formula_structural   PbSeO3
_chemical_formula_sum   'Pb8 Se8 O24'
_cell_volume   679.42134642
_cell_formula_units_Z   8
loop_
 _symmetry_equiv_pos_site_id
 _symmetry_equiv_pos_as_xyz
  1  'x, y, z'
loop_
 _atom_site_type_symbol
 _atom_site_label
 _atom_site_symmetry_multiplicity
 _atom_site_fract_x
 _atom_site_fract_y
 _atom_site_fract_z
 _atom_site_occupancy
  Pb  Pb0  1  0.89945428  0.68613593  0.77395882  1.0
  Pb  Pb1  1  0.89945428  0.81386407  0.27395882  1.0
  Pb  Pb2  1  0.10054572  0.18613593  0.72604118  1.0
  Pb  Pb3  1  0.10054572  0.31386407  0.22604118  1.0
  Pb  Pb4  1  0.50058738  0.83292339  0.81899080  1.0
  Pb  Pb5  1  0.50058738  0.66707661  0.31899080  1.0
  Pb  Pb6  1  0.49941262  0.33292339  0.68100920  1.0
  Pb  Pb7  1  0.49941262  0.16707661  0.18100920  1.0
  Se  Se8  1  0.81755677  0.40371558  0.44799679  1.0
  Se  Se9  1  0.81755677  0.09628442  0.94799679  1.0
  Se  Se10  1  0.18244323  0.90371558  0.05200321  1.0
  Se  Se11  1  0.18244323  0.59628442  0.55200321  1.0
  Se  Se12  1  0.70524880  0.99395038  0.55318339  1.0
  Se  Se13  1  0.70524880  0.50604962  0.05318339  1.0
  Se  Se14  1  0.29475120  0.49395038  0.94681661  1.0
  Se  Se15  1  0.29475120  0.00604962  0.44681661  1.0
  O  O16  1  0.88694861  0.94716949  0.61068347  1.0
  O  O17  1  0.88694861  0.55283051  0.11068347  1.0
  O  O18  1  0.11305139  0.44716949  0.88931653  1.0
  O  O19  1  0.11305139  0.05283051  0.38931653  1.0
  O  O20  1  0.85133811  0.33974212  0.63458224  1.0
  O  O21  1  0.85133811  0.16025788  0.13458224  1.0
  O  O22  1  0.14866189  0.83974212  0.86541776  1.0
  O  O23  1  0.14866189  0.66025788  0.36541776  1.0
  O  O24  1  0.83749629  0.88811672  0.97101403  1.0
  O  O25  1  0.83749629  0.61188328  0.47101403  1.0
  O  O26  1  0.16250371  0.38811672  0.52898597  1.0
  O  O27  1  0.16250371  0.11188328  0.02898597  1.0
  O  O28  1  0.65936293  0.54902804  0.85733128  1.0
  O  O29  1  0.65936293  0.95097196  0.35733128  1.0
  O  O30  1  0.34063707  0.04902804  0.64266872  1.0
  O  O31  1  0.34063707  0.45097196  0.14266872  1.0
  O  O32  1  0.63200382  0.82372319  0.62161601  1.0
  O  O33  1  0.63200382  0.67627681  0.12161601  1.0
  O  O34  1  0.36799618  0.32372319  0.87838399  1.0
  O  O35  1  0.36799618  0.17627681  0.37838399  1.0
  O  O36  1  0.37218495  0.61071582  0.61598700  1.0
  O  O37  1  0.37218495  0.88928418  0.11598700  1.0
  O  O38  1  0.62781505  0.11071582  0.88401300  1.0
  O  O39  1  0.62781505  0.38928418  0.38401300  1.0
