# generated using pymatgen
data_Hf2Ge
_symmetry_space_group_name_H-M   'P 1'
_cell_length_a   5.38494757
_cell_length_b   5.38494757
_cell_length_c   5.38494757
_cell_angle_alpha   104.06701288
_cell_angle_beta   104.06701288
_cell_angle_gamma   120.92307837
_symmetry_Int_Tables_number   1
_chemical_formula_structural   Hf2Ge
_chemical_formula_sum   'Hf4 Ge2'
_cell_volume   116.54443600
_cell_formula_units_Z   2
loop_
 _symmetry_equiv_pos_site_id
 _symmetry_equiv_pos_as_xyz
  1  'x, y, z'
loop_
 _atom_site_type_symbol
 _atom_site_label
 _atom_site_symmetry_multiplicity
 _atom_site_fract_x
 _atom_site_fract_y
 _atom_site_fract_z
 _atom_site_occupancy
  Hf  Hf0  1  0.84462902  0.34462902  1.18925804  1.0
  Hf  Hf1  1  0.65537098  0.84462902  0.50000000  1.0
  Hf  Hf2  1  1.34462902  1.15537098  1.50000000  1.0
  Hf  Hf3  1  0.15537098  0.65537098  0.81074196  1.0
  Ge  Ge4  1  0.25000000  0.25000000  0.00000000  1.0
  Ge  Ge5  1  0.75000000  0.75000000  0.00000000  1.0
