# generated using pymatgen
data_K2H2RuO5
_symmetry_space_group_name_H-M   'P 1'
_cell_length_a   6.78762991
_cell_length_b   8.09450360
_cell_length_c   10.72204649
_cell_angle_alpha   90.00000000
_cell_angle_beta   90.00000000
_cell_angle_gamma   90.00000000
_symmetry_Int_Tables_number   1
_chemical_formula_structural   K2H2RuO5
_chemical_formula_sum   'K8 H8 Ru4 O20'
_cell_volume   589.09598292
_cell_formula_units_Z   4
loop_
 _symmetry_equiv_pos_site_id
 _symmetry_equiv_pos_as_xyz
  1  'x, y, z'
loop_
 _atom_site_type_symbol
 _atom_site_label
 _atom_site_symmetry_multiplicity
 _atom_site_fract_x
 _atom_site_fract_y
 _atom_site_fract_z
 _atom_site_occupancy
  O  O0  1  0.32291828  0.84768324  0.79122679  1.0
  O  O1  1  0.82291828  0.65231676  0.20877321  1.0
  O  O2  1  0.67708172  0.34768324  0.70877321  1.0
  O  O3  1  0.17708172  0.15231676  0.29122679  1.0
  O  O4  1  0.02326830  0.95956755  0.95050969  1.0
  O  O5  1  0.52326830  0.54043245  0.04949031  1.0
  O  O6  1  0.97673170  0.45956755  0.54949031  1.0
  O  O7  1  0.47673170  0.04043245  0.45050969  1.0
  O  O8  1  0.30101603  0.92238116  0.12803910  1.0
  O  O9  1  0.80101603  0.57761884  0.87196090  1.0
  O  O10  1  0.69898397  0.42238116  0.37196090  1.0
  O  O11  1  0.19898397  0.07761884  0.62803910  1.0
  O  O12  1  0.36130836  0.74285799  0.55637090  1.0
  O  O13  1  0.86130836  0.75714201  0.44362910  1.0
  O  O14  1  0.63869164  0.24285799  0.94362910  1.0
  O  O15  1  0.13869164  0.25714201  0.05637090  1.0
  O  O16  1  0.35871414  0.49540534  0.82392536  1.0
  O  O17  1  0.85871414  0.00459466  0.17607464  1.0
  O  O18  1  0.64128586  0.99540534  0.67607464  1.0
  O  O19  1  0.14128586  0.50459466  0.32392536  1.0
  H  H20  1  0.34738738  0.72774850  0.79049456  1.0
  H  H21  1  0.84738738  0.77225150  0.20950544  1.0
  H  H22  1  0.65261262  0.22774850  0.70950544  1.0
  H  H23  1  0.15261262  0.27225150  0.29049456  1.0
  H  H24  1  0.14388040  0.92411423  0.90566738  1.0
  H  H25  1  0.64388040  0.57588577  0.09433262  1.0
  H  H26  1  0.85611960  0.42411423  0.59433262  1.0
  H  H27  1  0.35611960  0.07588577  0.40566738  1.0
  Ru  Ru28  1  0.40354331  0.94083469  0.61877261  1.0
  Ru  Ru29  1  0.90354331  0.55916531  0.38122739  1.0
  Ru  Ru30  1  0.59645669  0.44083469  0.88122739  1.0
  Ru  Ru31  1  0.09645669  0.05916531  0.11877261  1.0
  K  K32  1  0.36884232  0.40173760  0.54642590  1.0
  K  K33  1  0.86884232  0.09826240  0.45357410  1.0
  K  K34  1  0.63115768  0.90173760  0.95357410  1.0
  K  K35  1  0.13115768  0.59826240  0.04642590  1.0
  K  K36  1  0.95693232  0.75568922  0.68605717  1.0
  K  K37  1  0.45693232  0.74431078  0.31394283  1.0
  K  K38  1  0.04306768  0.25568922  0.81394283  1.0
  K  K39  1  0.54306768  0.24431078  0.18605717  1.0
