# generated using pymatgen
data_Zr2Cu
_symmetry_space_group_name_H-M   'P 1'
_cell_length_a   5.55781694
_cell_length_b   5.55781694
_cell_length_c   8.16626439
_cell_angle_alpha   58.01586380
_cell_angle_beta   121.98413620
_cell_angle_gamma   145.98573140
_symmetry_Int_Tables_number   1
_chemical_formula_structural   Zr2Cu
_chemical_formula_sum   'Zr4 Cu2'
_cell_volume   117.48402679
_cell_formula_units_Z   2
loop_
 _symmetry_equiv_pos_site_id
 _symmetry_equiv_pos_as_xyz
  1  'x, y, z'
loop_
 _atom_site_type_symbol
 _atom_site_label
 _atom_site_symmetry_multiplicity
 _atom_site_fract_x
 _atom_site_fract_y
 _atom_site_fract_z
 _atom_site_occupancy
  Zr  Zr0  1  0.92500450  -0.92500450  0.16118238  1.0
  Zr  Zr1  1  0.07499550  -0.07499550  0.83881762  1.0
  Zr  Zr2  1  1.34168854  -0.34168854  0.44221065  1.0
  Zr  Zr3  1  0.65831146  0.34168854  0.55778935  1.0
  Cu  Cu4  1  0.63477861  -0.63477861  0.15062348  1.0
  Cu  Cu5  1  0.36522139  -0.36522139  0.84937652  1.0
