# generated using pymatgen
data_NiC2(N5O4)2
_symmetry_space_group_name_H-M   'P 1'
_cell_length_a   7.98341390
_cell_length_b   7.98341390
_cell_length_c   11.15907747
_cell_angle_alpha   90.00000000
_cell_angle_beta   90.00000000
_cell_angle_gamma   125.33481605
_symmetry_Int_Tables_number   1
_chemical_formula_structural   NiC2(N5O4)2
_chemical_formula_sum   'Ni2 C4 N20 O16'
_cell_volume   580.20570237
_cell_formula_units_Z   2
loop_
 _symmetry_equiv_pos_site_id
 _symmetry_equiv_pos_as_xyz
  1  'x, y, z'
loop_
 _atom_site_type_symbol
 _atom_site_label
 _atom_site_symmetry_multiplicity
 _atom_site_fract_x
 _atom_site_fract_y
 _atom_site_fract_z
 _atom_site_occupancy
  Ni  Ni0  1  0.00000000  0.00000000  0.00000000  1.0
  Ni  Ni1  1  0.50000000  0.50000000  0.50000000  1.0
  O  O2  1  0.29351802  0.70648198  0.66376381  1.0
  O  O3  1  -0.20648198  0.20648198  0.83623619  1.0
  O  O4  1  -0.29351802  0.29351802  0.33623619  1.0
  O  O5  1  0.20648198  0.79351802  0.16376381  1.0
  O  O6  1  0.07849970  0.25191192  0.95958399  1.0
  O  O7  1  0.57849970  0.75191192  0.54041601  1.0
  O  O8  1  0.25191192  1.07849970  0.04041601  1.0
  O  O9  1  -0.24808808  0.57849970  0.45958399  1.0
  O  O10  1  0.74808808  0.92150030  0.95958399  1.0
  O  O11  1  0.24808808  0.42150030  0.54041601  1.0
  O  O12  1  -0.07849970  0.74808808  0.04041601  1.0
  O  O13  1  0.42150030  1.24808808  0.45958399  1.0
  O  O14  1  0.20277953  0.79722047  0.50312697  1.0
  O  O15  1  -0.29722047  0.29722047  0.99687303  1.0
  O  O16  1  -0.20277953  0.20277953  0.49687303  1.0
  O  O17  1  0.29722047  0.70277953  0.00312697  1.0
  C  C18  1  0.13348870  0.86651130  0.68826958  1.0
  C  C19  1  -0.36651130  0.36651130  0.81173042  1.0
  C  C20  1  -0.13348870  0.13348870  0.31173042  1.0
  C  C21  1  0.36651130  0.63348870  0.18826958  1.0
  N  N22  1  -0.01026950  1.01026950  0.73852514  1.0
  N  N23  1  -0.51026950  0.51026950  0.76147486  1.0
  N  N24  1  0.01026950  -0.01026950  0.26147486  1.0
  N  N25  1  0.51026950  0.48973050  0.23852514  1.0
  N  N26  1  0.13760247  0.86239753  0.80753939  1.0
  N  N27  1  -0.36239753  0.36239753  0.69246061  1.0
  N  N28  1  -0.13760247  0.13760247  0.19246061  1.0
  N  N29  1  0.36239753  0.63760247  0.30753939  1.0
  N  N30  1  0.21568071  0.78431929  0.61100080  1.0
  N  N31  1  -0.28431929  0.28431929  0.88899920  1.0
  N  N32  1  -0.21568071  0.21568071  0.38899920  1.0
  N  N33  1  0.28431929  0.71568071  0.11100080  1.0
  N  N34  1  0.04755782  0.95244218  0.83477078  1.0
  N  N35  1  -0.45244218  0.45244218  0.66522922  1.0
  N  N36  1  -0.04755782  0.04755782  0.16522922  1.0
  N  N37  1  0.45244218  0.54755782  0.33477078  1.0
  N  N38  1  0.04472935  0.95527065  0.64436621  1.0
  N  N39  1  -0.45527065  0.45527065  0.85563379  1.0
  N  N40  1  -0.04472935  0.04472935  0.35563379  1.0
  N  N41  1  0.45527065  0.54472935  0.14436621  1.0
