# generated using pymatgen
data_PbS2O3
_symmetry_space_group_name_H-M   'P 1'
_cell_length_a   7.16290730
_cell_length_b   16.36748815
_cell_length_c   7.36518038
_cell_angle_alpha   90.00000000
_cell_angle_beta   90.00000000
_cell_angle_gamma   90.00000000
_symmetry_Int_Tables_number   1
_chemical_formula_structural   PbS2O3
_chemical_formula_sum   'Pb8 S16 O24'
_cell_volume   863.48491238
_cell_formula_units_Z   8
loop_
 _symmetry_equiv_pos_site_id
 _symmetry_equiv_pos_as_xyz
  1  'x, y, z'
loop_
 _atom_site_type_symbol
 _atom_site_label
 _atom_site_symmetry_multiplicity
 _atom_site_fract_x
 _atom_site_fract_y
 _atom_site_fract_z
 _atom_site_occupancy
  Pb  Pb0  1  0.34757732  0.37553850  0.45990299  1.0
  Pb  Pb1  1  0.34757732  0.12446150  0.95990299  1.0
  Pb  Pb2  1  0.84757732  0.37553850  0.04009701  1.0
  Pb  Pb3  1  0.84757732  0.12446150  0.54009701  1.0
  Pb  Pb4  1  0.65242268  0.87553850  0.04009701  1.0
  Pb  Pb5  1  0.65242268  0.62446150  0.54009701  1.0
  Pb  Pb6  1  0.15242268  0.87553850  0.45990299  1.0
  Pb  Pb7  1  0.15242268  0.62446150  0.95990299  1.0
  S  S8  1  0.32781969  0.39314768  -0.00872511  1.0
  S  S9  1  0.32781969  0.10685232  0.49127489  1.0
  S  S10  1  0.82781969  0.39314768  0.50872511  1.0
  S  S11  1  0.82781969  0.10685232  1.00872511  1.0
  S  S12  1  0.67218031  0.89314768  0.50872511  1.0
  S  S13  1  0.67218031  0.60685232  1.00872511  1.0
  S  S14  1  0.17218031  0.89314768  -0.00872511  1.0
  S  S15  1  0.17218031  0.60685232  0.49127489  1.0
  S  S16  1  0.19867581  0.29109093  0.10483084  1.0
  S  S17  1  0.19867581  0.20890907  0.60483084  1.0
  S  S18  1  0.69867581  0.29109093  0.39516916  1.0
  S  S19  1  0.69867581  0.20890907  0.89516916  1.0
  S  S20  1  0.80132419  0.79109093  0.39516916  1.0
  S  S21  1  0.80132419  0.70890907  0.89516916  1.0
  S  S22  1  0.30132419  0.79109093  0.10483084  1.0
  S  S23  1  0.30132419  0.70890907  0.60483084  1.0
  O  O24  1  0.46719429  0.42091372  0.12882862  1.0
  O  O25  1  0.46719429  0.07908628  0.62882862  1.0
  O  O26  1  0.96719429  0.42091372  0.37117138  1.0
  O  O27  1  0.96719429  0.07908628  0.87117138  1.0
  O  O28  1  0.53280571  0.92091372  0.37117138  1.0
  O  O29  1  0.53280571  0.57908628  0.87117138  1.0
  O  O30  1  0.03280571  0.92091372  0.12882862  1.0
  O  O31  1  0.03280571  0.57908628  0.62882862  1.0
  O  O32  1  0.42067241  0.12915519  0.31937461  1.0
  O  O33  1  0.42067241  0.37084481  0.81937461  1.0
  O  O34  1  0.92067241  0.12915519  0.18062539  1.0
  O  O35  1  0.92067241  0.37084481  0.68062539  1.0
  O  O36  1  0.57932759  0.62915519  0.18062539  1.0
  O  O37  1  0.57932759  0.87084481  0.68062539  1.0
  O  O38  1  0.07932759  0.62915519  0.31937461  1.0
  O  O39  1  0.07932759  0.87084481  0.81937461  1.0
  O  O40  1  0.17422146  0.04622596  0.46817706  1.0
  O  O41  1  0.17422146  0.45377404  0.96817706  1.0
  O  O42  1  0.67422146  0.04622596  0.03182294  1.0
  O  O43  1  0.67422146  0.45377404  0.53182294  1.0
  O  O44  1  0.82577854  0.54622596  0.03182294  1.0
  O  O45  1  0.82577854  0.95377404  0.53182294  1.0
  O  O46  1  0.32577854  0.54622596  0.46817706  1.0
  O  O47  1  0.32577854  0.95377404  0.96817706  1.0
