# generated using pymatgen
data_K4OsO12
_symmetry_space_group_name_H-M   'P 1'
_cell_length_a   11.05775838
_cell_length_b   11.05775838
_cell_length_c   11.05775838
_cell_angle_alpha   60.00000000
_cell_angle_beta   60.00000000
_cell_angle_gamma   60.00000000
_symmetry_Int_Tables_number   1
_chemical_formula_structural   K4OsO12
_chemical_formula_sum   'K8 Os2 O24'
_cell_volume   956.06251317
_cell_formula_units_Z   2
loop_
 _symmetry_equiv_pos_site_id
 _symmetry_equiv_pos_as_xyz
  1  'x, y, z'
loop_
 _atom_site_type_symbol
 _atom_site_label
 _atom_site_symmetry_multiplicity
 _atom_site_fract_x
 _atom_site_fract_y
 _atom_site_fract_z
 _atom_site_occupancy
  K  K0  1  -0.13416586  0.86583414  0.40249758  1.0
  K  K1  1  0.86583414  -0.59750242  0.86583414  1.0
  K  K2  1  0.38416586  0.38416586  0.38416586  1.0
  K  K3  1  -0.15249758  0.38416586  0.38416586  1.0
  K  K4  1  -0.59750242  0.86583414  0.86583414  1.0
  K  K5  1  0.86583414  -0.13416586  0.86583414  1.0
  K  K6  1  0.38416586  -0.15249758  0.38416586  1.0
  K  K7  1  0.38416586  0.38416586  -0.15249758  1.0
  Os  Os8  1  0.50000000  0.50000000  -0.50000000  1.0
  Os  Os9  1  0.75000000  -0.25000000  0.75000000  1.0
  O  O10  1  0.64791280  -0.58545352  1.28962792  1.0
  O  O11  1  -0.35208720  1.28962792  0.41454648  1.0
  O  O12  1  -0.16454648  0.60208720  0.60208720  1.0
  O  O13  1  -0.03962792  0.60208720  0.60208720  1.0
  O  O14  1  -0.58545352  0.64791280  1.28962792  1.0
  O  O15  1  0.64791280  -0.35208720  1.28962792  1.0
  O  O16  1  0.64791280  0.28962792  0.64791280  1.0
  O  O17  1  -0.58545352  1.28962792  0.64791280  1.0
  O  O18  1  0.60208720  -0.16454648  0.60208720  1.0
  O  O19  1  0.60208720  0.60208720  -0.16454648  1.0
  O  O20  1  -0.03962792  0.60208720  -0.16454648  1.0
  O  O21  1  -0.03962792  -0.16454648  0.60208720  1.0
  O  O22  1  1.28962792  -0.35208720  0.64791280  1.0
  O  O23  1  -0.58545352  0.64791280  0.64791280  1.0
  O  O24  1  0.60208720  -0.03962792  -0.16454648  1.0
  O  O25  1  0.60208720  -0.16454648  -0.03962792  1.0
  O  O26  1  0.28962792  0.64791280  0.41454648  1.0
  O  O27  1  1.28962792  -0.58545352  0.64791280  1.0
  O  O28  1  0.64791280  -0.58545352  0.64791280  1.0
  O  O29  1  -0.35208720  0.64791280  0.41454648  1.0
  O  O30  1  0.60208720  -0.03962792  0.60208720  1.0
  O  O31  1  -0.16454648  -0.03962792  0.60208720  1.0
  O  O32  1  -0.16454648  0.60208720  -0.03962792  1.0
  O  O33  1  0.60208720  0.60208720  -0.03962792  1.0
