# generated using pymatgen
data_Zr6B(Cl3O4)6
_symmetry_space_group_name_H-M   'P 1'
_cell_length_a   11.27492693
_cell_length_b   11.27492693
_cell_length_c   11.27492693
_cell_angle_alpha   109.47122063
_cell_angle_beta   109.47122063
_cell_angle_gamma   109.47122063
_symmetry_Int_Tables_number   1
_chemical_formula_structural   Zr6B(Cl3O4)6
_chemical_formula_sum   'Zr6 B1 Cl18 O24'
_cell_volume   1103.36528831
_cell_formula_units_Z   1
loop_
 _symmetry_equiv_pos_site_id
 _symmetry_equiv_pos_as_xyz
  1  'x, y, z'
loop_
 _atom_site_type_symbol
 _atom_site_label
 _atom_site_symmetry_multiplicity
 _atom_site_fract_x
 _atom_site_fract_y
 _atom_site_fract_z
 _atom_site_occupancy
  Cl  Cl0  1  0.61456790  0.80728395  0.80728395  1.0
  Cl  Cl1  1  1.00000000  1.19271605  0.80728395  1.0
  Cl  Cl2  1  1.00000000  0.80728395  0.19271605  1.0
  Cl  Cl3  1  1.38543210  1.19271605  1.19271605  1.0
  Cl  Cl4  1  0.80728395  0.61456790  0.80728395  1.0
  Cl  Cl5  1  1.19271605  1.00000000  0.80728395  1.0
  Cl  Cl6  1  0.80728395  0.80728395  0.61456790  1.0
  Cl  Cl7  1  1.19271605  0.80728395  1.00000000  1.0
  Cl  Cl8  1  0.80728395  1.00000000  0.19271605  1.0
  Cl  Cl9  1  1.19271605  1.38543210  1.19271605  1.0
  Cl  Cl10  1  0.80728395  1.19271605  1.00000000  1.0
  Cl  Cl11  1  0.19271605  0.19271605  0.38543210  1.0
  Cl  Cl12  1  0.00000000  0.62230391  0.62230391  1.0
  Cl  Cl13  1  0.62230391  -0.00000000  0.62230391  1.0
  Cl  Cl14  1  0.62230391  0.62230391  0.00000000  1.0
  Cl  Cl15  1  0.37769609  0.37769609  -0.00000000  1.0
  Cl  Cl16  1  0.37769609  -0.00000000  0.37769609  1.0
  Cl  Cl17  1  -0.00000000  0.37769609  0.37769609  1.0
  Zr  Zr18  1  -0.00000000  0.80430107  0.80430107  1.0
  Zr  Zr19  1  0.80430107  -0.00000000  0.80430107  1.0
  Zr  Zr20  1  0.80430107  0.80430107  -0.00000000  1.0
  Zr  Zr21  1  0.19569893  0.19569893  0.00000000  1.0
  Zr  Zr22  1  0.19569893  -0.00000000  0.19569893  1.0
  Zr  Zr23  1  0.00000000  0.19569893  0.19569893  1.0
  O  O24  1  0.42225230  0.42225230  0.69109613  1.0
  O  O25  1  1.26884383  1.26884383  0.69109613  1.0
  O  O26  1  1.42225230  1.69109613  1.42225230  1.0
  O  O27  1  0.73115617  1.00000000  0.42225230  1.0
  O  O28  1  0.73115617  1.42225230  1.00000000  1.0
  O  O29  1  0.57774770  1.26884383  1.00000000  1.0
  O  O30  1  1.26884383  1.69109613  1.26884383  1.0
  O  O31  1  1.57774770  1.00000000  1.26884383  1.0
  O  O32  1  1.69109613  1.42225230  1.42225230  1.0
  O  O33  1  1.00000000  0.73115617  0.42225230  1.0
  O  O34  1  1.00000000  1.42225230  0.73115617  1.0
  O  O35  1  0.30890387  0.73115617  0.73115617  1.0
  O  O36  1  1.42225230  0.73115617  1.00000000  1.0
  O  O37  1  1.26884383  0.57774770  1.00000000  1.0
  O  O38  1  1.42225230  1.00000000  0.73115617  1.0
  O  O39  1  0.73115617  0.30890387  0.73115617  1.0
  O  O40  1  0.73115617  0.73115617  0.30890387  1.0
  O  O41  1  0.57774770  0.57774770  0.30890387  1.0
  O  O42  1  1.26884383  1.00000000  0.57774770  1.0
  O  O43  1  0.57774770  0.30890387  0.57774770  1.0
  O  O44  1  1.69109613  1.26884383  1.26884383  1.0
  O  O45  1  1.00000000  1.57774770  1.26884383  1.0
  O  O46  1  1.00000000  1.26884383  0.57774770  1.0
  O  O47  1  0.30890387  0.57774770  0.57774770  1.0
  B  B48  1  0.00000000  0.00000000  0.00000000  1.0
