# generated using pymatgen
data_HI3O8
_symmetry_space_group_name_H-M   'P 1'
_cell_length_a   7.67103652
_cell_length_b   7.79756743
_cell_length_c   13.98548730
_cell_angle_alpha   90.00000000
_cell_angle_beta   123.95637477
_cell_angle_gamma   90.00000000
_symmetry_Int_Tables_number   1
_chemical_formula_structural   HI3O8
_chemical_formula_sum   'H4 I12 O32'
_cell_volume   693.88558422
_cell_formula_units_Z   4
loop_
 _symmetry_equiv_pos_site_id
 _symmetry_equiv_pos_as_xyz
  1  'x, y, z'
loop_
 _atom_site_type_symbol
 _atom_site_label
 _atom_site_symmetry_multiplicity
 _atom_site_fract_x
 _atom_site_fract_y
 _atom_site_fract_z
 _atom_site_occupancy
  H  H0  1  0.73349651  0.45551888  0.14263978  1.0
  H  H1  1  0.73349651  0.04448112  0.64263978  1.0
  H  H2  1  0.26650349  0.95551888  0.35736022  1.0
  H  H3  1  0.26650349  0.54448112  0.85736022  1.0
  I  I4  1  0.92805307  0.05607023  0.17969397  1.0
  I  I5  1  0.92805307  0.44392977  0.67969397  1.0
  I  I6  1  0.07194693  0.55607023  0.32030603  1.0
  I  I7  1  0.07194693  0.94392977  0.82030603  1.0
  I  I8  1  0.74721837  0.23424284  0.39565008  1.0
  I  I9  1  0.74721837  0.26575716  0.89565008  1.0
  I  I10  1  0.25278163  0.73424284  0.10434992  1.0
  I  I11  1  0.25278163  0.76575716  0.60434992  1.0
  I  I12  1  0.35377573  0.22311765  0.09415280  1.0
  I  I13  1  0.35377573  0.27688235  0.59415280  1.0
  I  I14  1  0.64622427  0.72311765  0.40584720  1.0
  I  I15  1  0.64622427  0.77688235  0.90584720  1.0
  O  O16  1  0.91496180  0.80402314  0.44752881  1.0
  O  O17  1  0.91496180  0.69597686  0.94752881  1.0
  O  O18  1  0.08503820  0.30402314  0.05247119  1.0
  O  O19  1  0.08503820  0.19597686  0.55247119  1.0
  O  O20  1  0.88272400  0.45250593  0.16508974  1.0
  O  O21  1  0.88272400  0.04749407  0.66508974  1.0
  O  O22  1  0.11727600  0.95250593  0.33491026  1.0
  O  O23  1  0.11727600  0.54749407  0.83491026  1.0
  O  O24  1  0.80376847  0.84318720  0.11083094  1.0
  O  O25  1  0.80376847  0.65681280  0.61083094  1.0
  O  O26  1  0.19623153  0.34318720  0.38916906  1.0
  O  O27  1  0.19623153  0.15681280  0.88916906  1.0
  O  O28  1  0.81507113  0.45235627  0.36508686  1.0
  O  O29  1  0.81507113  0.04764373  0.86508686  1.0
  O  O30  1  0.18492887  0.95235627  0.13491314  1.0
  O  O31  1  0.18492887  0.54764373  0.63491314  1.0
  O  O32  1  0.73675789  0.12212049  0.21868557  1.0
  O  O33  1  0.73675789  0.37787951  0.71868557  1.0
  O  O34  1  0.26324211  0.62212049  0.28131443  1.0
  O  O35  1  0.26324211  0.87787951  0.78131443  1.0
  O  O36  1  0.67390499  0.32381146  0.49441304  1.0
  O  O37  1  0.67390499  0.17618854  0.99441304  1.0
  O  O38  1  0.32609501  0.82381146  0.00558696  1.0
  O  O39  1  0.32609501  0.67618854  0.50558696  1.0
  O  O40  1  0.45264823  0.43415336  0.08285200  1.0
  O  O41  1  0.45264823  0.06584664  0.58285200  1.0
  O  O42  1  0.54735177  0.93415336  0.41714800  1.0
  O  O43  1  0.54735177  0.56584664  0.91714800  1.0
  O  O44  1  0.44229449  0.25303685  0.26151053  1.0
  O  O45  1  0.44229449  0.24696315  0.76151053  1.0
  O  O46  1  0.55770551  0.75303685  0.23848947  1.0
  O  O47  1  0.55770551  0.74696315  0.73848947  1.0
