# generated using pymatgen
data_YAlO3
_symmetry_space_group_name_H-M   'P 1'
_cell_length_a   5.38608382
_cell_length_b   7.44193995
_cell_length_c   5.21321345
_cell_angle_alpha   90.00000000
_cell_angle_beta   90.00000000
_cell_angle_gamma   90.00000000
_symmetry_Int_Tables_number   1
_chemical_formula_structural   YAlO3
_chemical_formula_sum   'Y4 Al4 O12'
_cell_volume   208.96077788
_cell_formula_units_Z   4
loop_
 _symmetry_equiv_pos_site_id
 _symmetry_equiv_pos_as_xyz
  1  'x, y, z'
loop_
 _atom_site_type_symbol
 _atom_site_label
 _atom_site_symmetry_multiplicity
 _atom_site_fract_x
 _atom_site_fract_y
 _atom_site_fract_z
 _atom_site_occupancy
  Y  Y0  1  0.05580967  0.75000000  0.51336284  1.0
  Y  Y1  1  0.55580967  0.75000000  0.98663716  1.0
  Y  Y2  1  0.94419033  0.25000000  0.48663716  1.0
  Y  Y3  1  0.44419033  0.25000000  0.01336284  1.0
  Al  Al4  1  0.50000000  0.00000000  0.50000000  1.0
  Al  Al5  1  0.50000000  0.50000000  0.50000000  1.0
  Al  Al6  1  0.00000000  0.00000000  0.00000000  1.0
  Al  Al7  1  0.00000000  0.50000000  0.00000000  1.0
  O  O8  1  0.29512946  0.95344257  0.79543638  1.0
  O  O9  1  0.29512946  0.54655743  0.79543638  1.0
  O  O10  1  0.79512946  0.95344257  0.70456362  1.0
  O  O11  1  0.79512946  0.54655743  0.70456362  1.0
  O  O12  1  0.70487054  0.45344257  0.20456362  1.0
  O  O13  1  0.70487054  0.04655743  0.20456362  1.0
  O  O14  1  0.20487054  0.45344257  0.29543638  1.0
  O  O15  1  0.20487054  0.04655743  0.29543638  1.0
  O  O16  1  0.97543040  0.75000000  0.08849040  1.0
  O  O17  1  0.47543040  0.75000000  0.41150960  1.0
  O  O18  1  0.02456960  0.25000000  0.91150960  1.0
  O  O19  1  0.52456960  0.25000000  0.58849040  1.0
