# generated using pymatgen
data_H3NCl
_symmetry_space_group_name_H-M   'P 1'
_cell_length_a   7.93883116
_cell_length_b   7.93883116
_cell_length_c   7.93883116
_cell_angle_alpha   90.00000000
_cell_angle_beta   90.00000000
_cell_angle_gamma   90.00000000
_symmetry_Int_Tables_number   1
_chemical_formula_structural   H3NCl
_chemical_formula_sum   'H24 N8 Cl8'
_cell_volume   500.34515288
_cell_formula_units_Z   8
loop_
 _symmetry_equiv_pos_site_id
 _symmetry_equiv_pos_as_xyz
  1  'x, y, z'
loop_
 _atom_site_type_symbol
 _atom_site_label
 _atom_site_symmetry_multiplicity
 _atom_site_fract_x
 _atom_site_fract_y
 _atom_site_fract_z
 _atom_site_occupancy
  H  H0  1  0.35743003  0.61394776  0.97456202  1.0
  H  H1  1  0.35743003  0.88605224  0.47456202  1.0
  H  H2  1  0.85743003  0.61394776  0.52543798  1.0
  H  H3  1  0.85743003  0.88605224  0.02543798  1.0
  H  H4  1  0.11394776  0.52543798  0.64256997  1.0
  H  H5  1  0.11394776  0.97456202  0.14256997  1.0
  H  H6  1  0.61394776  0.52543798  0.85743003  1.0
  H  H7  1  0.61394776  0.97456202  0.35743003  1.0
  H  H8  1  0.02543798  0.85743003  0.88605224  1.0
  H  H9  1  0.02543798  0.64256997  0.38605224  1.0
  H  H10  1  0.52543798  0.85743003  0.61394776  1.0
  H  H11  1  0.52543798  0.64256997  0.11394776  1.0
  H  H12  1  0.64256997  0.11394776  0.52543798  1.0
  H  H13  1  0.64256997  0.38605224  0.02543798  1.0
  H  H14  1  0.14256997  0.11394776  0.97456202  1.0
  H  H15  1  0.14256997  0.38605224  0.47456202  1.0
  H  H16  1  0.88605224  0.02543798  0.85743003  1.0
  H  H17  1  0.88605224  0.47456202  0.35743003  1.0
  H  H18  1  0.38605224  0.02543798  0.64256997  1.0
  H  H19  1  0.38605224  0.47456202  0.14256997  1.0
  H  H20  1  0.97456202  0.35743003  0.61394776  1.0
  H  H21  1  0.97456202  0.14256997  0.11394776  1.0
  H  H22  1  0.47456202  0.35743003  0.88605224  1.0
  H  H23  1  0.47456202  0.14256997  0.38605224  1.0
  N  N24  1  0.44754348  0.94754348  0.55245652  1.0
  N  N25  1  0.44754348  0.55245652  0.05245652  1.0
  N  N26  1  0.94754348  0.94754348  0.94754348  1.0
  N  N27  1  0.94754348  0.55245652  0.44754348  1.0
  N  N28  1  0.55245652  0.44754348  0.94754348  1.0
  N  N29  1  0.55245652  0.05245652  0.44754348  1.0
  N  N30  1  0.05245652  0.44754348  0.55245652  1.0
  N  N31  1  0.05245652  0.05245652  0.05245652  1.0
  Cl  Cl32  1  0.21269886  0.71269886  0.78730114  1.0
  Cl  Cl33  1  0.21269886  0.78730114  0.28730114  1.0
  Cl  Cl34  1  0.71269886  0.71269886  0.71269886  1.0
  Cl  Cl35  1  0.71269886  0.78730114  0.21269886  1.0
  Cl  Cl36  1  0.78730114  0.21269886  0.71269886  1.0
  Cl  Cl37  1  0.78730114  0.28730114  0.21269886  1.0
  Cl  Cl38  1  0.28730114  0.21269886  0.78730114  1.0
  Cl  Cl39  1  0.28730114  0.28730114  0.28730114  1.0
