# generated using pymatgen
data_Ca2Mg5Si8(HO12)2
_symmetry_space_group_name_H-M   'P 1'
_cell_length_a   10.38704172
_cell_length_b   10.38704172
_cell_length_c   5.33680746
_cell_angle_alpha   83.13143908
_cell_angle_beta   96.86856092
_cell_angle_gamma   57.45764438
_symmetry_Int_Tables_number   1
_chemical_formula_structural   Ca2Mg5Si8(HO12)2
_chemical_formula_sum   'Ca2 Mg5 Si8 H2 O24'
_cell_volume   470.12502090
_cell_formula_units_Z   1
loop_
 _symmetry_equiv_pos_site_id
 _symmetry_equiv_pos_as_xyz
  1  'x, y, z'
loop_
 _atom_site_type_symbol
 _atom_site_label
 _atom_site_symmetry_multiplicity
 _atom_site_fract_x
 _atom_site_fract_y
 _atom_site_fract_z
 _atom_site_occupancy
  Ca  Ca0  1  0.27809601  0.27809601  0.50000000  1.0
  Ca  Ca1  1  0.72190399  -0.27809601  0.50000000  1.0
  Mg  Mg2  1  0.08800607  0.08800607  0.50000000  1.0
  Mg  Mg3  1  0.91199393  -0.08800607  0.50000000  1.0
  Mg  Mg4  1  0.17735374  0.17735374  0.00000000  1.0
  Mg  Mg5  1  0.82264626  -0.17735374  -0.00000000  1.0
  Mg  Mg6  1  0.00000000  0.00000000  0.00000000  1.0
  Si  Si7  1  0.80683803  -0.63833924  0.70660679  1.0
  Si  Si8  1  0.63833924  0.19316197  0.70660679  1.0
  Si  Si9  1  1.19316197  -0.36166076  0.29339321  1.0
  Si  Si10  1  0.36166076  -0.19316197  0.29339321  1.0
  Si  Si11  1  0.88416056  -0.54152845  0.19838001  1.0
  Si  Si12  1  0.54152845  0.11583944  0.19838001  1.0
  Si  Si13  1  1.11583944  -0.45847155  0.80161999  1.0
  Si  Si14  1  0.45847155  -0.11583944  0.80161999  1.0
  H  H15  1  0.79196741  -0.79196741  0.23572557  1.0
  H  H16  1  0.20803259  -0.20803259  0.76427443  1.0
  O  O17  1  0.97672612  -0.80341735  0.78365497  1.0
  O  O18  1  0.80341735  0.02327388  0.78365497  1.0
  O  O19  1  1.02327388  -0.19658265  0.21634503  1.0
  O  O20  1  0.19658265  -0.02327388  0.21634503  1.0
  O  O21  1  1.05402571  -0.70940263  0.27694205  1.0
  O  O22  1  0.70940263  -0.05402571  0.27694205  1.0
  O  O23  1  0.94597429  -0.29059737  0.72305795  1.0
  O  O24  1  0.29059737  0.05402571  0.72305795  1.0
  O  O25  1  0.89203881  -0.89203881  0.28588659  1.0
  O  O26  1  0.10796119  -0.10796119  0.71411341  1.0
  O  O27  1  0.88010830  -0.38552988  0.20849786  1.0
  O  O28  1  0.38552988  0.11989170  0.20849786  1.0
  O  O29  1  1.11989170  -0.61447012  0.79150214  1.0
  O  O30  1  0.61447012  -0.11989170  0.79150214  1.0
  O  O31  1  0.78975907  -0.52191782  0.90418934  1.0
  O  O32  1  0.52191782  0.21024093  0.90418934  1.0
  O  O33  1  1.21024093  -0.47808218  0.09581066  1.0
  O  O34  1  0.47808218  -0.21024093  0.09581066  1.0
  O  O35  1  0.77665411  -0.53963212  0.41479798  1.0
  O  O36  1  0.53963212  0.22334589  0.41479798  1.0
  O  O37  1  1.22334589  -0.46036788  0.58520202  1.0
  O  O38  1  0.46036788  -0.22334589  0.58520202  1.0
  O  O39  1  0.66606191  -0.66606191  0.71213507  1.0
  O  O40  1  0.33393809  -0.33393809  0.28786493  1.0
