# generated using pymatgen
data_CaAlF5
_symmetry_space_group_name_H-M   'P 1'
_cell_length_a   5.45154816
_cell_length_b   5.45154816
_cell_length_c   7.44236690
_cell_angle_alpha   70.00864739
_cell_angle_beta   109.99135261
_cell_angle_gamma   107.94715118
_symmetry_Int_Tables_number   1
_chemical_formula_structural   CaAlF5
_chemical_formula_sum   'Ca2 Al2 F10'
_cell_volume   190.69468040
_cell_formula_units_Z   2
loop_
 _symmetry_equiv_pos_site_id
 _symmetry_equiv_pos_as_xyz
  1  'x, y, z'
loop_
 _atom_site_type_symbol
 _atom_site_label
 _atom_site_symmetry_multiplicity
 _atom_site_fract_x
 _atom_site_fract_y
 _atom_site_fract_z
 _atom_site_occupancy
  Ca  Ca0  1  0.54071142  0.54071142  0.25000000  1.0
  Ca  Ca1  1  0.45928858  0.45928858  0.75000000  1.0
  Al  Al2  1  -0.00000000  0.00000000  0.50000000  1.0
  Al  Al3  1  0.00000000  0.00000000  0.00000000  1.0
  F  F4  1  0.76143159  0.20683127  0.88660455  1.0
  F  F5  1  0.79316873  0.23856841  0.38660455  1.0
  F  F6  1  1.20683127  -0.23856841  0.61339545  1.0
  F  F7  1  1.23856841  -0.20683127  0.11339545  1.0
  F  F8  1  0.29399815  0.27391678  0.47387477  1.0
  F  F9  1  0.72608322  0.70600185  0.97387477  1.0
  F  F10  1  1.27391678  -0.70600185  0.02612523  1.0
  F  F11  1  1.70600185  -0.27391678  0.52612523  1.0
  F  F12  1  0.94245472  0.94245472  0.25000000  1.0
  F  F13  1  0.05754528  0.05754528  0.75000000  1.0
