# generated using pymatgen
data_AgH9C2(NO)2
_symmetry_space_group_name_H-M   'P 1'
_cell_length_a   8.17936849
_cell_length_b   12.48071258
_cell_length_c   6.25780928
_cell_angle_alpha   90.00000000
_cell_angle_beta   106.53569571
_cell_angle_gamma   90.00000000
_symmetry_Int_Tables_number   1
_chemical_formula_structural   AgH9C2(NO)2
_chemical_formula_sum   'Ag4 H36 C8 N8 O8'
_cell_volume   612.40426410
_cell_formula_units_Z   4
loop_
 _symmetry_equiv_pos_site_id
 _symmetry_equiv_pos_as_xyz
  1  'x, y, z'
loop_
 _atom_site_type_symbol
 _atom_site_label
 _atom_site_symmetry_multiplicity
 _atom_site_fract_x
 _atom_site_fract_y
 _atom_site_fract_z
 _atom_site_occupancy
  Ag  Ag0  1  0.13186095  0.27165147  0.28311118  1.0
  Ag  Ag1  1  0.86813905  0.77165147  0.21688882  1.0
  Ag  Ag2  1  0.86813905  0.72834853  0.71688882  1.0
  Ag  Ag3  1  0.13186095  0.22834853  0.78311118  1.0
  H  H4  1  0.41562383  0.39646513  0.33596137  1.0
  H  H5  1  0.58437617  0.89646513  0.16403863  1.0
  H  H6  1  0.58437617  0.60353487  0.66403863  1.0
  H  H7  1  0.41562383  0.10353487  0.83596137  1.0
  H  H8  1  0.28549887  0.45922943  0.45370395  1.0
  H  H9  1  0.71450113  0.95922943  0.04629605  1.0
  H  H10  1  0.71450113  0.54077057  0.54629605  1.0
  H  H11  1  0.28549887  0.04077057  0.95370395  1.0
  H  H12  1  0.24565109  0.45902865  0.18019931  1.0
  H  H13  1  0.75434891  0.95902865  0.31980069  1.0
  H  H14  1  0.75434891  0.54097135  0.81980069  1.0
  H  H15  1  0.24565109  0.04097135  0.68019931  1.0
  H  H16  1  0.05365343  0.06338592  0.26250021  1.0
  H  H17  1  0.94634657  0.56338592  0.23749979  1.0
  H  H18  1  0.94634657  0.93661408  0.73749979  1.0
  H  H19  1  0.05365343  0.43661408  0.76250021  1.0
  H  H20  1  0.91290187  0.12447675  0.35953639  1.0
  H  H21  1  0.08709813  0.62447675  0.14046361  1.0
  H  H22  1  0.08709813  0.87552325  0.64046361  1.0
  H  H23  1  0.91290187  0.37552325  0.85953639  1.0
  H  H24  1  0.88738876  0.12552005  0.08753730  1.0
  H  H25  1  0.11261124  0.62552005  0.41246270  1.0
  H  H26  1  0.11261124  0.87447995  0.91246270  1.0
  H  H27  1  0.88738876  0.37447995  0.58753730  1.0
  H  H28  1  0.54334764  0.38505328  0.80191521  1.0
  H  H29  1  0.45665236  0.88505328  0.69808479  1.0
  H  H30  1  0.45665236  0.61494672  0.19808479  1.0
  H  H31  1  0.54334764  0.11494672  0.30191521  1.0
  H  H32  1  0.44033712  0.33566836  0.99910576  1.0
  H  H33  1  0.55966288  0.83566836  0.50089424  1.0
  H  H34  1  0.55966288  0.66433164  0.00089424  1.0
  H  H35  1  0.44033712  0.16433164  0.49910576  1.0
  H  H36  1  0.61327396  0.26440199  0.94782871  1.0
  H  H37  1  0.38672604  0.76440199  0.55217129  1.0
  H  H38  1  0.38672604  0.73559801  0.05217129  1.0
  H  H39  1  0.61327396  0.23559801  0.44782871  1.0
  C  C40  1  0.69223322  0.40596680  0.14588484  1.0
  C  C41  1  0.30776678  0.90596680  0.35411516  1.0
  C  C42  1  0.30776678  0.59403320  0.85411516  1.0
  C  C43  1  0.69223322  0.09403320  0.64588484  1.0
  C  C44  1  0.56317686  0.34500558  0.96320893  1.0
  C  C45  1  0.43682314  0.84500558  0.53679107  1.0
  C  C46  1  0.43682314  0.65499442  0.03679107  1.0
  C  C47  1  0.56317686  0.15499442  0.46320893  1.0
  N  N48  1  0.28847742  0.41150953  0.32006894  1.0
  N  N49  1  0.71152258  0.91150953  0.17993106  1.0
  N  N50  1  0.71152258  0.58849047  0.67993106  1.0
  N  N51  1  0.28847742  0.08849047  0.82006894  1.0
  N  N52  1  0.97751852  0.13143490  0.24043449  1.0
  N  N53  1  0.02248148  0.63143490  0.25956551  1.0
  N  N54  1  0.02248148  0.86856510  0.75956551  1.0
  N  N55  1  0.97751852  0.36856510  0.74043449  1.0
  O  O56  1  0.82077570  0.44499161  0.09573677  1.0
  O  O57  1  0.17922430  0.94499161  0.40426323  1.0
  O  O58  1  0.17922430  0.55500839  0.90426323  1.0
  O  O59  1  0.82077570  0.05500839  0.59573677  1.0
  O  O60  1  0.66824731  0.41289558  0.33752055  1.0
  O  O61  1  0.33175269  0.91289558  0.16247945  1.0
  O  O62  1  0.33175269  0.58710442  0.66247945  1.0
  O  O63  1  0.66824731  0.08710442  0.83752055  1.0
