# generated using pymatgen
data_V13Co4C
_symmetry_space_group_name_H-M   'P 1'
_cell_length_a   9.31623629
_cell_length_b   9.31623629
_cell_length_c   9.31623629
_cell_angle_alpha   60.00000000
_cell_angle_beta   60.00000000
_cell_angle_gamma   60.00000000
_symmetry_Int_Tables_number   1
_chemical_formula_structural   V13Co4C
_chemical_formula_sum   'V26 Co8 C2'
_cell_volume   571.75041328
_cell_formula_units_Z   2
loop_
 _symmetry_equiv_pos_site_id
 _symmetry_equiv_pos_as_xyz
  1  'x, y, z'
loop_
 _atom_site_type_symbol
 _atom_site_label
 _atom_site_symmetry_multiplicity
 _atom_site_fract_x
 _atom_site_fract_y
 _atom_site_fract_z
 _atom_site_occupancy
  V  V0  1  0.95312391  -0.61377579  0.70752797  1.0
  V  V1  1  -0.04687609  0.70752797  0.38622421  1.0
  V  V2  1  -0.13622421  0.29687609  0.29687609  1.0
  V  V3  1  0.54247203  0.29687609  0.29687609  1.0
  V  V4  1  -0.61377579  0.95312391  0.70752797  1.0
  V  V5  1  0.95312391  -0.04687609  0.70752797  1.0
  V  V6  1  0.95312391  -0.29247203  0.95312391  1.0
  V  V7  1  -0.61377579  0.70752797  0.95312391  1.0
  V  V8  1  0.29687609  -0.13622421  0.29687609  1.0
  V  V9  1  0.29687609  0.29687609  -0.13622421  1.0
  V  V10  1  0.54247203  0.29687609  -0.13622421  1.0
  V  V11  1  0.54247203  -0.13622421  0.29687609  1.0
  V  V12  1  0.70752797  -0.04687609  0.95312391  1.0
  V  V13  1  -0.61377579  0.95312391  0.95312391  1.0
  V  V14  1  0.29687609  0.54247203  -0.13622421  1.0
  V  V15  1  0.29687609  -0.13622421  0.54247203  1.0
  V  V16  1  -0.29247203  0.95312391  0.38622421  1.0
  V  V17  1  0.70752797  -0.61377579  0.95312391  1.0
  V  V18  1  0.95312391  -0.61377579  0.95312391  1.0
  V  V19  1  -0.04687609  0.95312391  0.38622421  1.0
  V  V20  1  0.29687609  0.54247203  0.29687609  1.0
  V  V21  1  -0.13622421  0.54247203  0.29687609  1.0
  V  V22  1  -0.13622421  0.29687609  0.54247203  1.0
  V  V23  1  0.29687609  0.29687609  0.54247203  1.0
  V  V24  1  0.50000000  0.50000000  -0.50000000  1.0
  V  V25  1  0.75000000  -0.25000000  0.75000000  1.0
  Co  Co26  1  0.66545389  -0.33454611  1.00363834  1.0
  Co  Co27  1  0.66545389  0.00363834  0.66545389  1.0
  Co  Co28  1  0.58454611  -0.41545389  0.58454611  1.0
  Co  Co29  1  1.24636166  -0.41545389  0.58454611  1.0
  Co  Co30  1  1.00363834  -0.33454611  0.66545389  1.0
  Co  Co31  1  0.66545389  -0.33454611  0.66545389  1.0
  Co  Co32  1  0.58454611  0.24636166  0.58454611  1.0
  Co  Co33  1  0.58454611  -0.41545389  1.24636166  1.0
  C  C34  1  0.00000000  1.00000000  -0.00000000  1.0
  C  C35  1  0.25000000  0.25000000  0.25000000  1.0
