# generated using pymatgen
data_Sc4Ge19Rh6
_symmetry_space_group_name_H-M   'P 1'
_cell_length_a   8.82162328
_cell_length_b   8.82162328
_cell_length_c   8.82162328
_cell_angle_alpha   109.47122063
_cell_angle_beta   109.47122063
_cell_angle_gamma   109.47122063
_symmetry_Int_Tables_number   1
_chemical_formula_structural   Sc4Ge19Rh6
_chemical_formula_sum   'Sc4 Ge19 Rh6'
_cell_volume   528.47400760
_cell_formula_units_Z   1
loop_
 _symmetry_equiv_pos_site_id
 _symmetry_equiv_pos_as_xyz
  1  'x, y, z'
loop_
 _atom_site_type_symbol
 _atom_site_label
 _atom_site_symmetry_multiplicity
 _atom_site_fract_x
 _atom_site_fract_y
 _atom_site_fract_z
 _atom_site_occupancy
  Sc  Sc0  1  0.65146349  0.65146349  0.65146349  1.0
  Sc  Sc1  1  1.00000000  1.00000000  0.34853651  1.0
  Sc  Sc2  1  1.00000000  0.34853651  1.00000000  1.0
  Sc  Sc3  1  0.34853651  1.00000000  1.00000000  1.0
  Ge  Ge4  1  0.33586107  0.55422374  0.33515472  1.0
  Ge  Ge5  1  1.21906902  1.00070635  0.66484528  1.0
  Ge  Ge6  1  0.33515472  0.33586107  0.55422374  1.0
  Ge  Ge7  1  0.78163733  0.78093098  0.44577626  1.0
  Ge  Ge8  1  0.55422374  0.33515472  0.33586107  1.0
  Ge  Ge9  1  0.99929365  1.21836267  1.66413893  1.0
  Ge  Ge10  1  0.78093098  0.44577626  0.78163733  1.0
  Ge  Ge11  1  1.66413893  0.99929365  1.21836267  1.0
  Ge  Ge12  1  1.21836267  1.66413893  0.99929365  1.0
  Ge  Ge13  1  0.66484528  1.21906902  1.00070635  1.0
  Ge  Ge14  1  1.00070635  0.66484528  1.21906902  1.0
  Ge  Ge15  1  0.44577626  0.78163733  0.78093098  1.0
  Ge  Ge16  1  0.70112758  0.70112758  0.00000000  1.0
  Ge  Ge17  1  -0.00000000  0.70112758  0.70112758  1.0
  Ge  Ge18  1  -0.00000000  0.29887242  0.29887242  1.0
  Ge  Ge19  1  0.70112758  -0.00000000  0.70112758  1.0
  Ge  Ge20  1  0.29887242  0.00000000  0.29887242  1.0
  Ge  Ge21  1  0.29887242  0.29887242  0.00000000  1.0
  Ge  Ge22  1  -0.00000000  -0.00000000  -0.00000000  1.0
  Rh  Rh23  1  0.35852676  0.85852676  0.50000000  1.0
  Rh  Rh24  1  0.50000000  0.35852676  0.85852676  1.0
  Rh  Rh25  1  0.50000000  0.64147324  0.14147324  1.0
  Rh  Rh26  1  0.85852676  0.50000000  0.35852676  1.0
  Rh  Rh27  1  0.14147324  0.50000000  0.64147324  1.0
  Rh  Rh28  1  0.64147324  0.14147324  0.50000000  1.0
