# generated using pymatgen
data_LuB2C
_symmetry_space_group_name_H-M   'P 1'
_cell_length_a   6.68617221
_cell_length_b   6.68617221
_cell_length_c   3.69994738
_cell_angle_alpha   90.00000000
_cell_angle_beta   90.00000000
_cell_angle_gamma   90.00000000
_symmetry_Int_Tables_number   1
_chemical_formula_structural   LuB2C
_chemical_formula_sum   'Lu4 B8 C4'
_cell_volume   165.40577337
_cell_formula_units_Z   4
loop_
 _symmetry_equiv_pos_site_id
 _symmetry_equiv_pos_as_xyz
  1  'x, y, z'
loop_
 _atom_site_type_symbol
 _atom_site_label
 _atom_site_symmetry_multiplicity
 _atom_site_fract_x
 _atom_site_fract_y
 _atom_site_fract_z
 _atom_site_occupancy
  Lu  Lu0  1  0.80008332  0.30008332  0.50000000  1.0
  Lu  Lu1  1  0.19991668  0.69991668  0.50000000  1.0
  Lu  Lu2  1  0.69991668  0.80008332  0.50000000  1.0
  Lu  Lu3  1  0.30008332  0.19991668  0.50000000  1.0
  B  B4  1  0.31849930  0.46867837  -0.00000000  1.0
  B  B5  1  0.68150070  0.53132163  -0.00000000  1.0
  B  B6  1  0.18150070  0.96867837  0.00000000  1.0
  B  B7  1  0.81849930  0.03132163  0.00000000  1.0
  B  B8  1  0.46867837  0.68150070  0.00000000  1.0
  B  B9  1  0.53132163  0.31849930  0.00000000  1.0
  B  B10  1  0.96867837  0.81849930  0.00000000  1.0
  B  B11  1  0.03132163  0.18150070  0.00000000  1.0
  C  C12  1  0.08337577  0.41662423  0.00000000  1.0
  C  C13  1  0.91662423  0.58337577  0.00000000  1.0
  C  C14  1  0.41662423  0.91662423  0.00000000  1.0
  C  C15  1  0.58337577  0.08337577  -0.00000000  1.0
