# generated using pymatgen
data_BaGe(AsO4)2
_symmetry_space_group_name_H-M   'P 1'
_cell_length_a   4.95255855
_cell_length_b   4.95255855
_cell_length_c   7.93354964
_cell_angle_alpha   86.32824884
_cell_angle_beta   93.67175116
_cell_angle_gamma   113.63253013
_symmetry_Int_Tables_number   1
_chemical_formula_structural   BaGe(AsO4)2
_chemical_formula_sum   'Ba1 Ge1 As2 O8'
_cell_volume   177.75065865
_cell_formula_units_Z   1
loop_
 _symmetry_equiv_pos_site_id
 _symmetry_equiv_pos_as_xyz
  1  'x, y, z'
loop_
 _atom_site_type_symbol
 _atom_site_label
 _atom_site_symmetry_multiplicity
 _atom_site_fract_x
 _atom_site_fract_y
 _atom_site_fract_z
 _atom_site_occupancy
  Ba  Ba0  1  0.00000000  -0.00000000  0.50000000  1.0
  Ge  Ge1  1  -0.00000000  -0.00000000  0.00000000  1.0
  As  As2  1  0.63178513  -0.63178513  0.80593490  1.0
  As  As3  1  0.36821487  -0.36821487  0.19406510  1.0
  O  O4  1  1.24578468  0.23456286  0.82055383  1.0
  O  O5  1  0.76543714  -0.24578468  0.82055383  1.0
  O  O6  1  1.23456286  0.24578468  0.17944617  1.0
  O  O7  1  0.75421532  -0.23456286  0.17944617  1.0
  O  O8  1  0.77289250  -0.77289250  0.97827634  1.0
  O  O9  1  0.22710750  -0.22710750  0.02172366  1.0
  O  O10  1  0.68793357  -0.68793357  0.60346762  1.0
  O  O11  1  0.31206643  -0.31206643  0.39653238  1.0
