# generated using pymatgen
data_Ag2CN2
_symmetry_space_group_name_H-M   'P 1'
_cell_length_a   7.43896415
_cell_length_b   5.99158921
_cell_length_c   6.82883260
_cell_angle_alpha   90.00000000
_cell_angle_beta   90.36518960
_cell_angle_gamma   90.00000000
_symmetry_Int_Tables_number   1
_chemical_formula_structural   Ag2CN2
_chemical_formula_sum   'Ag8 C4 N8'
_cell_volume   304.36319918
_cell_formula_units_Z   4
loop_
 _symmetry_equiv_pos_site_id
 _symmetry_equiv_pos_as_xyz
  1  'x, y, z'
loop_
 _atom_site_type_symbol
 _atom_site_label
 _atom_site_symmetry_multiplicity
 _atom_site_fract_x
 _atom_site_fract_y
 _atom_site_fract_z
 _atom_site_occupancy
  Ag  Ag0  1  0.30831454  0.78631328  0.75164557  1.0
  Ag  Ag1  1  0.30831454  0.71368672  0.25164557  1.0
  Ag  Ag2  1  0.69168546  0.28631328  0.74835443  1.0
  Ag  Ag3  1  0.69168546  0.21368672  0.24835443  1.0
  Ag  Ag4  1  -0.00000000  0.00000000  0.50000000  1.0
  Ag  Ag5  1  0.00000000  0.50000000  0.00000000  1.0
  Ag  Ag6  1  0.00000000  0.00000000  0.00000000  1.0
  Ag  Ag7  1  -0.00000000  0.50000000  0.50000000  1.0
  C  C8  1  0.72396635  0.78839081  0.74817671  1.0
  C  C9  1  0.72396635  0.71160919  0.24817671  1.0
  C  C10  1  0.27603365  0.28839081  0.75182329  1.0
  C  C11  1  0.27603365  0.21160919  0.25182329  1.0
  N  N12  1  0.82725377  0.95750636  0.74872876  1.0
  N  N13  1  0.82725377  0.54249364  0.24872876  1.0
  N  N14  1  0.17274623  0.45750636  0.75127124  1.0
  N  N15  1  0.17274623  0.04249364  0.25127124  1.0
  N  N16  1  0.61951659  0.63408290  0.74783052  1.0
  N  N17  1  0.61951659  0.86591710  0.24783052  1.0
  N  N18  1  0.38048341  0.13408290  0.75216948  1.0
  N  N19  1  0.38048341  0.36591710  0.25216948  1.0
