# generated using pymatgen
data_Hf2InNi2
_symmetry_space_group_name_H-M   'P 1'
_cell_length_a   7.19513219
_cell_length_b   7.19513219
_cell_length_c   3.30177726
_cell_angle_alpha   90.00000000
_cell_angle_beta   90.00000000
_cell_angle_gamma   90.00000000
_symmetry_Int_Tables_number   1
_chemical_formula_structural   Hf2InNi2
_chemical_formula_sum   'Hf4 In2 Ni4'
_cell_volume   170.93276831
_cell_formula_units_Z   2
loop_
 _symmetry_equiv_pos_site_id
 _symmetry_equiv_pos_as_xyz
  1  'x, y, z'
loop_
 _atom_site_type_symbol
 _atom_site_label
 _atom_site_symmetry_multiplicity
 _atom_site_fract_x
 _atom_site_fract_y
 _atom_site_fract_z
 _atom_site_occupancy
  Hf  Hf0  1  0.33484782  0.16515218  0.50000000  1.0
  Hf  Hf1  1  0.83484782  0.33484782  0.50000000  1.0
  Hf  Hf2  1  0.66515218  0.83484782  0.50000000  1.0
  Hf  Hf3  1  0.16515218  0.66515218  0.50000000  1.0
  In  In4  1  0.50000000  0.50000000  -0.00000000  1.0
  In  In5  1  0.00000000  0.00000000  0.00000000  1.0
  Ni  Ni6  1  0.87434694  0.62565306  -0.00000000  1.0
  Ni  Ni7  1  0.37434694  0.87434694  0.00000000  1.0
  Ni  Ni8  1  0.12565306  0.37434694  -0.00000000  1.0
  Ni  Ni9  1  0.62565306  0.12565306  0.00000000  1.0
