# generated using pymatgen
data_Y5Mg24
_symmetry_space_group_name_H-M   'P 1'
_cell_length_a   9.75529876
_cell_length_b   9.75529876
_cell_length_c   9.75529876
_cell_angle_alpha   109.47122063
_cell_angle_beta   109.47122063
_cell_angle_gamma   109.47122063
_symmetry_Int_Tables_number   1
_chemical_formula_structural   Y5Mg24
_chemical_formula_sum   'Y5 Mg24'
_cell_volume   714.66058722
_cell_formula_units_Z   1
loop_
 _symmetry_equiv_pos_site_id
 _symmetry_equiv_pos_as_xyz
  1  'x, y, z'
loop_
 _atom_site_type_symbol
 _atom_site_label
 _atom_site_symmetry_multiplicity
 _atom_site_fract_x
 _atom_site_fract_y
 _atom_site_fract_z
 _atom_site_occupancy
  Y  Y0  1  0.37647664  0.37647664  0.37647664  1.0
  Y  Y1  1  1.00000000  1.00000000  0.62352336  1.0
  Y  Y2  1  1.00000000  0.62352336  1.00000000  1.0
  Y  Y3  1  0.62352336  1.00000000  1.00000000  1.0
  Y  Y4  1  0.00000000  0.00000000  0.00000000  1.0
  Mg  Mg5  1  0.82008422  0.62918491  0.62918491  1.0
  Mg  Mg6  1  0.62918491  0.82008422  0.62918491  1.0
  Mg  Mg7  1  1.00000000  1.19089932  0.37081509  1.0
  Mg  Mg8  1  1.19089932  1.00000000  0.37081509  1.0
  Mg  Mg9  1  0.62918491  0.62918491  0.82008422  1.0
  Mg  Mg10  1  0.80910068  0.80910068  0.17991578  1.0
  Mg  Mg11  1  1.00000000  0.37081509  1.19089932  1.0
  Mg  Mg12  1  0.80910068  0.17991578  0.80910068  1.0
  Mg  Mg13  1  0.17991578  0.80910068  0.80910068  1.0
  Mg  Mg14  1  0.37081509  1.00000000  1.19089932  1.0
  Mg  Mg15  1  1.19089932  0.37081509  1.00000000  1.0
  Mg  Mg16  1  0.37081509  1.19089932  1.00000000  1.0
  Mg  Mg17  1  0.28742793  0.61191143  0.61191143  1.0
  Mg  Mg18  1  0.61191143  0.28742793  0.61191143  1.0
  Mg  Mg19  1  1.00000000  0.67551650  1.38808857  1.0
  Mg  Mg20  1  0.67551650  1.00000000  1.38808857  1.0
  Mg  Mg21  1  0.61191143  0.61191143  0.28742793  1.0
  Mg  Mg22  1  1.32448350  1.32448350  0.71257207  1.0
  Mg  Mg23  1  1.00000000  1.38808857  0.67551650  1.0
  Mg  Mg24  1  1.32448350  0.71257207  1.32448350  1.0
  Mg  Mg25  1  0.71257207  1.32448350  1.32448350  1.0
  Mg  Mg26  1  1.38808857  1.00000000  0.67551650  1.0
  Mg  Mg27  1  0.67551650  1.38808857  1.00000000  1.0
  Mg  Mg28  1  1.38808857  0.67551650  1.00000000  1.0
