# generated using pymatgen
data_AgC(N3O)2
_symmetry_space_group_name_H-M   'P 1'
_cell_length_a   6.65719706
_cell_length_b   5.32648997
_cell_length_c   14.87029885
_cell_angle_alpha   90.00000000
_cell_angle_beta   94.38511234
_cell_angle_gamma   90.00000000
_symmetry_Int_Tables_number   1
_chemical_formula_structural   AgC(N3O)2
_chemical_formula_sum   'Ag4 C4 N24 O8'
_cell_volume   525.74969294
_cell_formula_units_Z   4
loop_
 _symmetry_equiv_pos_site_id
 _symmetry_equiv_pos_as_xyz
  1  'x, y, z'
loop_
 _atom_site_type_symbol
 _atom_site_label
 _atom_site_symmetry_multiplicity
 _atom_site_fract_x
 _atom_site_fract_y
 _atom_site_fract_z
 _atom_site_occupancy
  Ag  Ag0  1  -0.00000000  -0.00312537  0.75000000  1.0
  Ag  Ag1  1  0.00000000  1.00312537  0.25000000  1.0
  Ag  Ag2  1  -0.00000000  0.00000000  0.50000000  1.0
  Ag  Ag3  1  0.00000000  0.00000000  0.00000000  1.0
  C  C4  1  0.45631205  0.18376384  0.70403030  1.0
  C  C5  1  0.54368795  0.18376384  0.79596970  1.0
  C  C6  1  0.54368795  0.81623616  0.29596970  1.0
  C  C7  1  0.45631205  0.81623616  0.20403030  1.0
  N  N8  1  0.25701541  0.13802652  0.58575355  1.0
  N  N9  1  0.74298459  0.13802652  0.91424645  1.0
  N  N10  1  0.74298459  0.86197348  0.41424645  1.0
  N  N11  1  0.25701541  0.86197348  0.08575355  1.0
  N  N12  1  0.26827434  0.12128923  0.67647176  1.0
  N  N13  1  0.73172566  0.12128923  0.82352824  1.0
  N  N14  1  0.73172566  0.87871077  0.32352824  1.0
  N  N15  1  0.26827434  0.87871077  0.17647176  1.0
  N  N16  1  0.55443144  0.24001941  0.62952071  1.0
  N  N17  1  0.44556856  0.24001941  0.87047929  1.0
  N  N18  1  0.44556856  0.75998059  0.37047929  1.0
  N  N19  1  0.55443144  0.75998059  0.12952071  1.0
  N  N20  1  0.42608985  0.21101312  0.55633289  1.0
  N  N21  1  0.57391015  0.21101312  0.94366711  1.0
  N  N22  1  0.57391014  0.78898688  0.44366711  1.0
  N  N23  1  0.42608985  0.78898688  0.05633289  1.0
  N  N24  1  0.75391794  0.29687749  0.62106340  1.0
  N  N25  1  0.24608206  0.29687749  0.87893660  1.0
  N  N26  1  0.24608206  0.70312251  0.37893660  1.0
  N  N27  1  0.75391794  0.70312251  0.12106340  1.0
  N  N28  1  0.78769862  0.54151103  0.64384240  1.0
  N  N29  1  0.21230138  0.54151103  0.85615760  1.0
  N  N30  1  0.21230138  0.45848897  0.35615760  1.0
  N  N31  1  0.78769862  0.45848897  0.14384240  1.0
  O  O32  1  0.96534361  0.61478799  0.63635826  1.0
  O  O33  1  0.03465639  0.61478799  0.86364174  1.0
  O  O34  1  0.03465639  0.38521201  0.36364174  1.0
  O  O35  1  0.96534361  0.38521201  0.13635826  1.0
  O  O36  1  0.65411932  0.67867621  0.67162587  1.0
  O  O37  1  0.34588068  0.67867621  0.82837413  1.0
  O  O38  1  0.34588068  0.32132379  0.32837413  1.0
  O  O39  1  0.65411932  0.32132379  0.17162587  1.0
