# generated using pymatgen
data_Y5Bi2Pt
_symmetry_space_group_name_H-M   'P 1'
_cell_length_a   12.40007227
_cell_length_b   9.05982425
_cell_length_c   8.09144645
_cell_angle_alpha   90.00000000
_cell_angle_beta   90.00000000
_cell_angle_gamma   90.00000000
_symmetry_Int_Tables_number   1
_chemical_formula_structural   Y5Bi2Pt
_chemical_formula_sum   'Y20 Bi8 Pt4'
_cell_volume   909.01312488
_cell_formula_units_Z   4
loop_
 _symmetry_equiv_pos_site_id
 _symmetry_equiv_pos_as_xyz
  1  'x, y, z'
loop_
 _atom_site_type_symbol
 _atom_site_label
 _atom_site_symmetry_multiplicity
 _atom_site_fract_x
 _atom_site_fract_y
 _atom_site_fract_z
 _atom_site_occupancy
  Y  Y0  1  0.93273612  0.95360121  0.17821326  1.0
  Y  Y1  1  0.93273612  0.54639879  0.17821326  1.0
  Y  Y2  1  0.43273612  0.95360121  0.32178674  1.0
  Y  Y3  1  0.43273612  0.54639879  0.32178674  1.0
  Y  Y4  1  0.06726388  0.45360121  0.82178674  1.0
  Y  Y5  1  0.06726388  0.04639879  0.82178674  1.0
  Y  Y6  1  0.56726388  0.45360121  0.67821326  1.0
  Y  Y7  1  0.56726388  0.04639879  0.67821326  1.0
  Y  Y8  1  1.00054772  0.25000000  0.45162755  1.0
  Y  Y9  1  0.50054772  0.25000000  0.04837245  1.0
  Y  Y10  1  -0.00054772  0.75000000  0.54837245  1.0
  Y  Y11  1  0.49945228  0.75000000  0.95162755  1.0
  Y  Y12  1  0.80199883  0.25000000  0.87231632  1.0
  Y  Y13  1  0.30199883  0.25000000  0.62768368  1.0
  Y  Y14  1  0.19800117  0.75000000  0.12768368  1.0
  Y  Y15  1  0.69800117  0.75000000  0.37231632  1.0
  Y  Y16  1  0.71054446  0.25000000  0.33533463  1.0
  Y  Y17  1  0.21054446  0.25000000  0.16466537  1.0
  Y  Y18  1  0.28945554  0.75000000  0.66466537  1.0
  Y  Y19  1  0.78945554  0.75000000  0.83533463  1.0
  Bi  Bi20  1  0.67250188  0.51014512  0.06754850  1.0
  Bi  Bi21  1  0.67250188  -0.01014512  0.06754850  1.0
  Bi  Bi22  1  0.17250188  0.51014512  0.43245150  1.0
  Bi  Bi23  1  0.17250188  -0.01014512  0.43245150  1.0
  Bi  Bi24  1  0.32749812  1.01014512  0.93245150  1.0
  Bi  Bi25  1  0.32749812  0.48985488  0.93245150  1.0
  Bi  Bi26  1  0.82749812  1.01014512  0.56754850  1.0
  Bi  Bi27  1  0.82749812  0.48985488  0.56754850  1.0
  Pt  Pt28  1  0.98761305  0.25000000  0.07871599  1.0
  Pt  Pt29  1  0.48761305  0.25000000  0.42128401  1.0
  Pt  Pt30  1  0.01238695  0.75000000  0.92128401  1.0
  Pt  Pt31  1  0.51238695  0.75000000  0.57871599  1.0
