# generated using pymatgen
data_BaMnP2O7
_symmetry_space_group_name_H-M   'P 1'
_cell_length_a   5.62161550
_cell_length_b   8.64376068
_cell_length_c   14.32981307
_cell_angle_alpha   90.00000000
_cell_angle_beta   113.46861485
_cell_angle_gamma   90.00000000
_symmetry_Int_Tables_number   1
_chemical_formula_structural   BaMnP2O7
_chemical_formula_sum   'Ba4 Mn4 P8 O28'
_cell_volume   638.71269176
_cell_formula_units_Z   4
loop_
 _symmetry_equiv_pos_site_id
 _symmetry_equiv_pos_as_xyz
  1  'x, y, z'
loop_
 _atom_site_type_symbol
 _atom_site_label
 _atom_site_symmetry_multiplicity
 _atom_site_fract_x
 _atom_site_fract_y
 _atom_site_fract_z
 _atom_site_occupancy
  Ba  Ba0  1  0.99879162  0.14638952  0.28115949  1.0
  Ba  Ba1  1  0.99879162  0.35361048  0.78115949  1.0
  Ba  Ba2  1  0.00120838  0.64638952  0.21884051  1.0
  Ba  Ba3  1  0.00120838  0.85361048  0.71884051  1.0
  Mn  Mn4  1  0.71370434  0.84065941  0.39362106  1.0
  Mn  Mn5  1  0.71370434  0.65934059  0.89362106  1.0
  Mn  Mn6  1  0.28629566  0.34065941  0.10637894  1.0
  Mn  Mn7  1  0.28629566  0.15934059  0.60637894  1.0
  P  P8  1  0.58831203  0.45310816  0.33596338  1.0
  P  P9  1  0.58831203  0.04689184  0.83596338  1.0
  P  P10  1  0.41168797  0.95310816  0.16403662  1.0
  P  P11  1  0.41168797  0.54689184  0.66403662  1.0
  P  P12  1  0.66902045  0.19463818  0.48097850  1.0
  P  P13  1  0.66902045  0.30536182  0.98097850  1.0
  P  P14  1  0.33097955  0.69463818  0.01902150  1.0
  P  P15  1  0.33097955  0.80536182  0.51902150  1.0
  O  O16  1  0.68150192  0.37457121  0.44827600  1.0
  O  O17  1  0.68150192  0.12542879  0.94827600  1.0
  O  O18  1  0.31849808  0.87457121  0.05172400  1.0
  O  O19  1  0.31849808  0.62542879  0.55172400  1.0
  O  O20  1  0.71703162  0.09133563  0.40201416  1.0
  O  O21  1  0.71703162  0.40866437  0.90201416  1.0
  O  O22  1  0.28296838  0.59133563  0.09798584  1.0
  O  O23  1  0.28296838  0.90866437  0.59798584  1.0
  O  O24  1  0.39729775  0.16870672  0.48040922  1.0
  O  O25  1  0.39729775  0.33129328  0.98040922  1.0
  O  O26  1  0.60270225  0.66870672  0.01959078  1.0
  O  O27  1  0.60270225  0.83129328  0.51959078  1.0
  O  O28  1  0.32858099  0.37640259  0.26583465  1.0
  O  O29  1  0.32858099  0.12359741  0.76583465  1.0
  O  O30  1  0.67141901  0.87640259  0.23416535  1.0
  O  O31  1  0.67141901  0.62359741  0.73416535  1.0
  O  O32  1  0.89251541  0.31651928  0.08746640  1.0
  O  O33  1  0.89251541  0.18348072  0.58746640  1.0
  O  O34  1  0.10748459  0.81651928  0.41253360  1.0
  O  O35  1  0.10748459  0.68348072  0.91253360  1.0
  O  O36  1  0.80137197  0.42495475  0.29696047  1.0
  O  O37  1  0.80137197  0.07504525  0.79696047  1.0
  O  O38  1  0.19862803  0.92495475  0.20303953  1.0
  O  O39  1  0.19862803  0.57504525  0.70303953  1.0
  O  O40  1  0.45900226  0.12446506  0.14909189  1.0
  O  O41  1  0.45900226  0.37553494  0.64909189  1.0
  O  O42  1  0.54099774  0.62446506  0.35090811  1.0
  O  O43  1  0.54099774  0.87553494  0.85090811  1.0
