# generated using pymatgen
data_Fe2PO4F
_symmetry_space_group_name_H-M   'P 1'
_cell_length_a   7.30529285
_cell_length_b   7.30529285
_cell_length_c   9.86378327
_cell_angle_alpha   65.95283687
_cell_angle_beta   114.04716313
_cell_angle_gamma   125.96910331
_symmetry_Int_Tables_number   1
_chemical_formula_structural   Fe2PO4F
_chemical_formula_sum   'Fe8 P4 O16 F4'
_cell_volume   378.85785012
_cell_formula_units_Z   4
loop_
 _symmetry_equiv_pos_site_id
 _symmetry_equiv_pos_as_xyz
  1  'x, y, z'
loop_
 _atom_site_type_symbol
 _atom_site_label
 _atom_site_symmetry_multiplicity
 _atom_site_fract_x
 _atom_site_fract_y
 _atom_site_fract_z
 _atom_site_occupancy
  Fe  Fe0  1  1.72358152  -0.15474151  -0.01006013  1.0
  Fe  Fe1  1  1.15474151  -0.72358152  0.48993987  1.0
  Fe  Fe2  1  0.84525849  0.72358152  0.51006013  1.0
  Fe  Fe3  1  0.27641848  0.15474151  1.01006013  1.0
  Fe  Fe4  1  0.55993112  0.23857810  0.36076134  1.0
  Fe  Fe5  1  0.76142190  0.44006888  0.86076134  1.0
  Fe  Fe6  1  1.23857810  -0.44006888  0.13923866  1.0
  Fe  Fe7  1  1.44006888  -0.23857810  0.63923866  1.0
  P  P8  1  0.73629054  0.08241110  0.19235949  1.0
  P  P9  1  0.91758890  -0.73629054  0.69235949  1.0
  P  P10  1  1.08241110  0.73629054  0.30764051  1.0
  P  P11  1  1.26370946  -0.08241110  0.80764051  1.0
  O  O12  1  0.88659805  0.04153201  0.35500885  1.0
  O  O13  1  0.95846799  -0.88659805  0.85500885  1.0
  O  O14  1  1.04153201  0.88659805  0.14499115  1.0
  O  O15  1  1.11340195  -0.04153201  0.64499115  1.0
  O  O16  1  1.59117756  -0.14449013  0.13209951  1.0
  O  O17  1  1.14449013  -0.59117756  0.63209951  1.0
  O  O18  1  0.85550987  0.59117756  0.36790049  1.0
  O  O19  1  0.40882244  0.14449013  0.86790049  1.0
  O  O20  1  0.57055011  0.14584625  0.19943730  1.0
  O  O21  1  0.85415375  -0.57055011  0.69943730  1.0
  O  O22  1  1.14584625  0.57055011  0.30056270  1.0
  O  O23  1  1.42944989  -0.14584625  0.80056270  1.0
  O  O24  1  0.28211908  -0.10734352  0.42067935  1.0
  O  O25  1  1.10734352  0.71788092  0.92067935  1.0
  O  O26  1  0.89265648  -0.71788092  0.07932065  1.0
  O  O27  1  1.71788092  0.10734352  0.57932065  1.0
  F  F28  1  0.40769020  0.36692884  0.39789983  1.0
  F  F29  1  0.63307116  0.59230980  0.89789983  1.0
  F  F30  1  1.36692884  -0.59230980  0.10210017  1.0
  F  F31  1  1.59230980  -0.36692884  0.60210017  1.0
