# generated using pymatgen
data_Tb3Al3CuGe2
_symmetry_space_group_name_H-M   'P 1'
_cell_length_a   7.02237212
_cell_length_b   7.02237212
_cell_length_c   4.20226832
_cell_angle_alpha   90.00000000
_cell_angle_beta   90.00000000
_cell_angle_gamma   120.00000000
_symmetry_Int_Tables_number   1
_chemical_formula_structural   Tb3Al3CuGe2
_chemical_formula_sum   'Tb3 Al3 Cu1 Ge2'
_cell_volume   179.46596088
_cell_formula_units_Z   1
loop_
 _symmetry_equiv_pos_site_id
 _symmetry_equiv_pos_as_xyz
  1  'x, y, z'
loop_
 _atom_site_type_symbol
 _atom_site_label
 _atom_site_symmetry_multiplicity
 _atom_site_fract_x
 _atom_site_fract_y
 _atom_site_fract_z
 _atom_site_occupancy
  Tb  Tb0  1  0.40647484  0.40647484  -0.00000000  1.0
  Tb  Tb1  1  -0.00000000  0.59352516  -0.00000000  1.0
  Tb  Tb2  1  0.59352516  -0.00000000  0.00000000  1.0
  Al  Al3  1  0.76916159  0.76916159  0.50000000  1.0
  Al  Al4  1  0.00000000  0.23083841  0.50000000  1.0
  Al  Al5  1  0.23083841  -0.00000000  0.50000000  1.0
  Cu  Cu6  1  0.00000000  0.00000000  0.00000000  1.0
  Ge  Ge7  1  0.33333333  0.66666667  0.50000000  1.0
  Ge  Ge8  1  0.66666667  0.33333333  0.50000000  1.0
