# generated using pymatgen
data_K2BaCr2O8
_symmetry_space_group_name_H-M   'P 1'
_cell_length_a   8.00259534
_cell_length_b   8.00259534
_cell_length_c   8.00259534
_cell_angle_alpha   42.56981131
_cell_angle_beta   42.56981131
_cell_angle_gamma   42.56981131
_symmetry_Int_Tables_number   1
_chemical_formula_structural   K2BaCr2O8
_chemical_formula_sum   'K2 Ba1 Cr2 O8'
_cell_volume   212.39951961
_cell_formula_units_Z   1
loop_
 _symmetry_equiv_pos_site_id
 _symmetry_equiv_pos_as_xyz
  1  'x, y, z'
loop_
 _atom_site_type_symbol
 _atom_site_label
 _atom_site_symmetry_multiplicity
 _atom_site_fract_x
 _atom_site_fract_y
 _atom_site_fract_z
 _atom_site_occupancy
  K  K0  1  0.79874666  0.79874666  0.79874666  1.0
  K  K1  1  1.20125334  1.20125334  0.20125334  1.0
  Ba  Ba2  1  0.00000000  -0.00000000  -0.00000000  1.0
  Cr  Cr3  1  1.59501531  0.59501531  0.59501531  1.0
  Cr  Cr4  1  1.40498469  0.40498469  0.40498469  1.0
  O  O5  1  1.27417955  0.27417955  0.74112379  1.0
  O  O6  1  1.27417955  0.74112379  0.27417955  1.0
  O  O7  1  1.25887621  0.72582045  0.72582045  1.0
  O  O8  1  1.72582045  0.25887621  0.72582045  1.0
  O  O9  1  1.72582045  0.72582045  0.25887621  1.0
  O  O10  1  1.74112379  0.27417955  0.27417955  1.0
  O  O11  1  0.67067158  0.67067158  0.67067158  1.0
  O  O12  1  1.32932842  1.32932842  0.32932842  1.0
