# generated using pymatgen
data_LiHO2
_symmetry_space_group_name_H-M   'P 1'
_cell_length_a   4.90834370
_cell_length_b   4.90834370
_cell_length_c   3.34225447
_cell_angle_alpha   73.78607327
_cell_angle_beta   106.21392673
_cell_angle_gamma   79.70058621
_symmetry_Int_Tables_number   1
_chemical_formula_structural   LiHO2
_chemical_formula_sum   'Li2 H2 O4'
_cell_volume   71.30643536
_cell_formula_units_Z   2
loop_
 _symmetry_equiv_pos_site_id
 _symmetry_equiv_pos_as_xyz
  1  'x, y, z'
loop_
 _atom_site_type_symbol
 _atom_site_label
 _atom_site_symmetry_multiplicity
 _atom_site_fract_x
 _atom_site_fract_y
 _atom_site_fract_z
 _atom_site_occupancy
  Li  Li0  1  0.81261142  -0.18738858  0.00000000  1.0
  Li  Li1  1  1.18738858  0.18738858  0.00000000  1.0
  H  H2  1  0.30798029  -0.30798029  0.80842826  1.0
  H  H3  1  0.69201971  -0.69201971  0.19157174  1.0
  O  O4  1  0.78589565  -0.78589565  1.02197804  1.0
  O  O5  1  0.21410435  -0.21410435  -0.02197804  1.0
  O  O6  1  0.67294597  -0.32705403  0.50000000  1.0
  O  O7  1  1.32705403  0.32705403  0.50000000  1.0
