# generated using pymatgen
data_CaB3H7O9
_symmetry_space_group_name_H-M   'P 1'
_cell_length_a   6.49877672
_cell_length_b   8.44327018
_cell_length_c   6.65125609
_cell_angle_alpha   86.60736591
_cell_angle_beta   78.67099541
_cell_angle_gamma   88.49980772
_symmetry_Int_Tables_number   1
_chemical_formula_structural   CaB3H7O9
_chemical_formula_sum   'Ca2 B6 H14 O18'
_cell_volume   357.18280853
_cell_formula_units_Z   2
loop_
 _symmetry_equiv_pos_site_id
 _symmetry_equiv_pos_as_xyz
  1  'x, y, z'
loop_
 _atom_site_type_symbol
 _atom_site_label
 _atom_site_symmetry_multiplicity
 _atom_site_fract_x
 _atom_site_fract_y
 _atom_site_fract_z
 _atom_site_occupancy
  Ca  Ca0  1  -0.74326431  -0.12165832  -0.98844656  1.0
  Ca  Ca1  1  -0.25673569  -0.87834168  -0.01155344  1.0
  B  B2  1  -0.98949856  -0.70403092  -0.67708673  1.0
  B  B3  1  -0.01050144  -0.29596908  -0.32291327  1.0
  B  B4  1  -0.80647298  -0.76235475  -0.03379360  1.0
  B  B5  1  -0.19352702  -0.23764525  -0.96620640  1.0
  B  B6  1  -0.66538030  -0.86957454  -0.70925515  1.0
  B  B7  1  -0.33461970  -0.13042546  -0.29074485  1.0
  H  H8  1  -0.54854015  -0.39430098  -0.83682340  1.0
  H  H9  1  -0.45145985  -0.60569902  -0.16317660  1.0
  H  H10  1  -0.44087530  -0.72192372  -0.63348403  1.0
  H  H11  1  -0.55912470  -0.27807628  -0.36651597  1.0
  H  H12  1  -0.35191765  -0.91825059  -0.45840155  1.0
  H  H13  1  -0.64808235  -0.08174941  -0.54159845  1.0
  H  H14  1  -0.72181533  -0.46919521  -0.94157054  1.0
  H  H15  1  -0.27818467  -0.53080479  -0.05842946  1.0
  H  H16  1  -0.83086349  -0.39200892  -0.57631467  1.0
  H  H17  1  -0.16913651  -0.60799108  -0.42368533  1.0
  H  H18  1  -0.85602716  -0.83864016  -0.31772654  1.0
  H  H19  1  -0.14397284  -0.16135984  -0.68227346  1.0
  H  H20  1  -0.77830119  -0.55986679  -0.24178795  1.0
  H  H21  1  -0.22169881  -0.44013321  -0.75821205  1.0
  O  O22  1  -0.99789182  -0.72353447  -0.87942761  1.0
  O  O23  1  -0.00210818  -0.27646553  -0.12057239  1.0
  O  O24  1  -0.88379784  -0.87157802  -0.17002172  1.0
  O  O25  1  -0.11620216  -0.12842198  -0.82997828  1.0
  O  O26  1  -0.84644455  -0.38618109  -0.42608332  1.0
  O  O27  1  -0.15355545  -0.61381891  -0.57391668  1.0
  O  O28  1  -0.82884453  -0.76658416  -0.59019586  1.0
  O  O29  1  -0.17115547  -0.23341584  -0.40980414  1.0
  O  O30  1  -0.70202254  -0.38901839  -0.84390363  1.0
  O  O31  1  -0.29797746  -0.61098161  -0.15609637  1.0
  O  O32  1  -0.65159930  -0.84755885  -0.93456720  1.0
  O  O33  1  -0.34840070  -0.15244115  -0.06543280  1.0
  O  O34  1  -0.45522563  -0.83172564  -0.66539692  1.0
  O  O35  1  -0.54477437  -0.16827436  -0.33460308  1.0
  O  O36  1  -0.29164742  -0.38390710  -0.86025125  1.0
  O  O37  1  -0.70835258  -0.61609290  -0.13974875  1.0
  O  O38  1  -0.29866709  -0.96135148  -0.33670758  1.0
  O  O39  1  -0.70133291  -0.03864852  -0.66329242  1.0
