# generated using pymatgen
data_Na2P3HO9
_symmetry_space_group_name_H-M   'P 1'
_cell_length_a   7.92620570
_cell_length_b   7.99787037
_cell_length_c   7.18544588
_cell_angle_alpha   63.12748540
_cell_angle_beta   77.14042029
_cell_angle_gamma   81.87664241
_symmetry_Int_Tables_number   1
_chemical_formula_structural   Na2P3HO9
_chemical_formula_sum   'Na4 P6 H2 O18'
_cell_volume   395.69206730
_cell_formula_units_Z   2
loop_
 _symmetry_equiv_pos_site_id
 _symmetry_equiv_pos_as_xyz
  1  'x, y, z'
loop_
 _atom_site_type_symbol
 _atom_site_label
 _atom_site_symmetry_multiplicity
 _atom_site_fract_x
 _atom_site_fract_y
 _atom_site_fract_z
 _atom_site_occupancy
  Na  Na0  1  0.83492027  0.34717426  0.99414724  1.0
  Na  Na1  1  0.16507973  0.65282574  0.00585276  1.0
  Na  Na2  1  0.85209906  0.35192289  0.48756714  1.0
  Na  Na3  1  0.14790094  0.64807711  0.51243286  1.0
  P  P4  1  0.45111016  0.37114145  0.82138402  1.0
  P  P5  1  0.54888984  0.62885855  0.17861598  1.0
  P  P6  1  0.79423695  0.84181953  0.80985223  1.0
  P  P7  1  0.20576305  0.15818047  0.19014777  1.0
  P  P8  1  0.79582636  0.84098581  0.21579559  1.0
  P  P9  1  0.20417364  0.15901419  0.78420441  1.0
  H  H10  1  0.22361869  0.99776212  0.54221503  1.0
  H  H11  1  0.77638131  0.00223788  0.45778497  1.0
  O  O12  1  0.83375188  0.93252677  0.95519178  1.0
  O  O13  1  0.16624812  0.06747323  0.04480822  1.0
  O  O14  1  0.60365217  0.76516740  0.91995142  1.0
  O  O15  1  0.39634783  0.23483260  0.08004858  1.0
  O  O16  1  0.92657293  0.69133917  0.79911780  1.0
  O  O17  1  0.07342707  0.30866083  0.20088220  1.0
  O  O18  1  0.64419159  0.37399279  0.77329461  1.0
  O  O19  1  0.35580841  0.62600721  0.22670539  1.0
  O  O20  1  0.33606991  0.54620125  0.76483427  1.0
  O  O21  1  0.66393009  0.45379875  0.23516573  1.0
  O  O22  1  0.22086998  0.99160880  0.73536201  1.0
  O  O23  1  0.77913002  0.00839120  0.26463799  1.0
  O  O24  1  0.22366618  0.98209897  0.39930368  1.0
  O  O25  1  0.77633382  0.01790103  0.60069632  1.0
  O  O26  1  0.93007574  0.68627650  0.29934783  1.0
  O  O27  1  0.06992426  0.31372350  0.70065217  1.0
  O  O28  1  0.60504129  0.76204261  0.27349674  1.0
  O  O29  1  0.39495871  0.23795739  0.72650326  1.0
