# generated using pymatgen
data_Ca2BN2Cl
_symmetry_space_group_name_H-M   'P 1'
_cell_length_a   11.70718441
_cell_length_b   3.91757062
_cell_length_c   9.03324133
_cell_angle_alpha   90.00000000
_cell_angle_beta   90.00000000
_cell_angle_gamma   90.00000000
_symmetry_Int_Tables_number   1
_chemical_formula_structural   Ca2BN2Cl
_chemical_formula_sum   'Ca8 B4 N8 Cl4'
_cell_volume   414.29806637
_cell_formula_units_Z   4
loop_
 _symmetry_equiv_pos_site_id
 _symmetry_equiv_pos_as_xyz
  1  'x, y, z'
loop_
 _atom_site_type_symbol
 _atom_site_label
 _atom_site_symmetry_multiplicity
 _atom_site_fract_x
 _atom_site_fract_y
 _atom_site_fract_z
 _atom_site_occupancy
  Ca  Ca0  1  0.17011490  0.75000000  0.05253673  1.0
  Ca  Ca1  1  0.67011490  0.75000000  0.44746327  1.0
  Ca  Ca2  1  0.82988510  0.25000000  0.94746327  1.0
  Ca  Ca3  1  0.32988510  0.25000000  0.55253673  1.0
  Ca  Ca4  1  0.09036509  0.75000000  0.60831852  1.0
  Ca  Ca5  1  0.59036509  0.75000000  0.89168148  1.0
  Ca  Ca6  1  0.90963491  0.25000000  0.39168148  1.0
  Ca  Ca7  1  0.40963491  0.25000000  0.10831852  1.0
  B  B8  1  0.33413093  0.75000000  0.81914197  1.0
  B  B9  1  0.83413093  0.75000000  0.68085803  1.0
  B  B10  1  0.66586907  0.25000000  0.18085803  1.0
  B  B11  1  0.16586907  0.25000000  0.31914197  1.0
  N  N12  1  0.37719303  0.75000000  0.95809052  1.0
  N  N13  1  0.87719303  0.75000000  0.54190948  1.0
  N  N14  1  0.62280697  0.25000000  0.04190948  1.0
  N  N15  1  0.12280697  0.25000000  0.45809052  1.0
  N  N16  1  0.28693698  0.75000000  0.68419814  1.0
  N  N17  1  0.78693698  0.75000000  0.81580186  1.0
  N  N18  1  0.71306302  0.25000000  0.31580186  1.0
  N  N19  1  0.21306302  0.25000000  0.18419814  1.0
  Cl  Cl20  1  0.43863826  0.75000000  0.34734768  1.0
  Cl  Cl21  1  0.93863826  0.75000000  0.15265232  1.0
  Cl  Cl22  1  0.56136174  0.25000000  0.65265232  1.0
  Cl  Cl23  1  0.06136174  0.25000000  0.84734768  1.0
