# generated using pymatgen
data_ZrTiTe4
_symmetry_space_group_name_H-M   'P 1'
_cell_length_a   6.86441650
_cell_length_b   3.87147801
_cell_length_c   6.73423890
_cell_angle_alpha   90.00000000
_cell_angle_beta   89.95086966
_cell_angle_gamma   90.00000000
_symmetry_Int_Tables_number   1
_chemical_formula_structural   ZrTiTe4
_chemical_formula_sum   'Zr1 Ti1 Te4'
_cell_volume   178.96527921
_cell_formula_units_Z   1
loop_
 _symmetry_equiv_pos_site_id
 _symmetry_equiv_pos_as_xyz
  1  'x, y, z'
loop_
 _atom_site_type_symbol
 _atom_site_label
 _atom_site_symmetry_multiplicity
 _atom_site_fract_x
 _atom_site_fract_y
 _atom_site_fract_z
 _atom_site_occupancy
  Zr  Zr0  1  0.00000000  0.50000000  0.50000000  1.0
  Ti  Ti1  1  0.00000000  0.00000000  0.00000000  1.0
  Te  Te2  1  0.74752118  0.50000000  0.84360604  1.0
  Te  Te3  1  0.25247882  0.50000000  0.15639396  1.0
  Te  Te4  1  0.73881023  0.00000000  0.32283613  1.0
  Te  Te5  1  0.26118977  0.00000000  0.67716387  1.0
