# generated using pymatgen
data_V3O8
_symmetry_space_group_name_H-M   'P 1'
_cell_length_a   8.58453202
_cell_length_b   8.58453202
_cell_length_c   6.06430338
_cell_angle_alpha   77.17162197
_cell_angle_beta   102.82837803
_cell_angle_gamma   161.15278055
_symmetry_Int_Tables_number   1
_chemical_formula_structural   V3O8
_chemical_formula_sum   'V3 O8'
_cell_volume   140.66628480
_cell_formula_units_Z   1
loop_
 _symmetry_equiv_pos_site_id
 _symmetry_equiv_pos_as_xyz
  1  'x, y, z'
loop_
 _atom_site_type_symbol
 _atom_site_label
 _atom_site_symmetry_multiplicity
 _atom_site_fract_x
 _atom_site_fract_y
 _atom_site_fract_z
 _atom_site_occupancy
  V  V0  1  0.67775554  -0.67775554  0.80680751  1.0
  V  V1  1  1.32224446  -0.32224446  0.19319249  1.0
  V  V2  1  0.50000000  0.50000000  -0.00000000  1.0
  O  O3  1  0.94382113  -0.94382113  0.83587511  1.0
  O  O4  1  1.05617887  -0.05617887  0.16412489  1.0
  O  O5  1  0.81250365  -0.81250365  0.36877576  1.0
  O  O6  1  1.18749635  -0.18749635  0.63122424  1.0
  O  O7  1  0.80003480  -0.80003480  0.95139770  1.0
  O  O8  1  1.19996520  -0.19996520  0.04860230  1.0
  O  O9  1  0.57790729  -0.57790729  0.80849085  1.0
  O  O10  1  1.42209271  -0.42209271  0.19150915  1.0
