# generated using pymatgen
data_TiZnO3
_symmetry_space_group_name_H-M   'P 1'
_cell_length_a   5.53967468
_cell_length_b   5.53967468
_cell_length_c   5.53967468
_cell_angle_alpha   55.04002170
_cell_angle_beta   55.04002170
_cell_angle_gamma   55.04002170
_symmetry_Int_Tables_number   1
_chemical_formula_structural   TiZnO3
_chemical_formula_sum   'Ti2 Zn2 O6'
_cell_volume   106.33890131
_cell_formula_units_Z   2
loop_
 _symmetry_equiv_pos_site_id
 _symmetry_equiv_pos_as_xyz
  1  'x, y, z'
loop_
 _atom_site_type_symbol
 _atom_site_label
 _atom_site_symmetry_multiplicity
 _atom_site_fract_x
 _atom_site_fract_y
 _atom_site_fract_z
 _atom_site_occupancy
  Ti  Ti0  1  0.14562134  0.14562134  0.14562134  1.0
  Ti  Ti1  1  0.85437866  -0.14562134  -0.14562134  1.0
  Zn  Zn2  1  0.36129093  0.36129093  -0.63870907  1.0
  Zn  Zn3  1  0.63870907  0.63870907  -0.36129093  1.0
  O  O4  1  0.43643078  0.05093214  -0.22315730  1.0
  O  O5  1  1.22315730  -0.43643078  -0.05093214  1.0
  O  O6  1  0.94906786  0.22315730  -0.43643078  1.0
  O  O7  1  0.56356922  -0.05093214  0.22315730  1.0
  O  O8  1  0.77684270  -0.56356922  0.05093214  1.0
  O  O9  1  1.05093214  -0.22315730  -0.56356922  1.0
