# generated using pymatgen
data_Hf2Pd3
_symmetry_space_group_name_H-M   'P 1'
_cell_length_a   7.82060256
_cell_length_b   7.82060256
_cell_length_c   7.82060256
_cell_angle_alpha   154.48937479
_cell_angle_beta   154.48937479
_cell_angle_gamma   36.38869532
_symmetry_Int_Tables_number   1
_chemical_formula_structural   Hf2Pd3
_chemical_formula_sum   'Hf2 Pd3'
_cell_volume   88.60453923
_cell_formula_units_Z   1
loop_
 _symmetry_equiv_pos_site_id
 _symmetry_equiv_pos_as_xyz
  1  'x, y, z'
loop_
 _atom_site_type_symbol
 _atom_site_label
 _atom_site_symmetry_multiplicity
 _atom_site_fract_x
 _atom_site_fract_y
 _atom_site_fract_z
 _atom_site_occupancy
  Hf  Hf0  1  0.60990392  0.60990392  1.00000000  1.0
  Hf  Hf1  1  0.39009608  0.39009608  -0.00000000  1.0
  Pd  Pd2  1  -0.00000000  -0.00000000  -0.00000000  1.0
  Pd  Pd3  1  0.80349580  0.80349580  1.00000000  1.0
  Pd  Pd4  1  0.19650420  0.19650420  -0.00000000  1.0
