# generated using pymatgen
data_SrN6
_symmetry_space_group_name_H-M   'P 1'
_cell_length_a   8.36956468
_cell_length_b   6.79069807
_cell_length_c   6.55868895
_cell_angle_alpha   77.63123397
_cell_angle_beta   52.42200842
_cell_angle_gamma   49.94675761
_symmetry_Int_Tables_number   1
_chemical_formula_structural   SrN6
_chemical_formula_sum   'Sr2 N12'
_cell_volume   216.15197280
_cell_formula_units_Z   2
loop_
 _symmetry_equiv_pos_site_id
 _symmetry_equiv_pos_as_xyz
  1  'x, y, z'
loop_
 _atom_site_type_symbol
 _atom_site_label
 _atom_site_symmetry_multiplicity
 _atom_site_fract_x
 _atom_site_fract_y
 _atom_site_fract_z
 _atom_site_occupancy
  Sr  Sr0  1  -0.00000000  0.00000000  -0.00000000  1.0
  Sr  Sr1  1  1.25000000  0.25000000  0.25000000  1.0
  N  N2  1  0.62566140  0.62566140  -0.62566140  1.0
  N  N3  1  0.37433860  1.37433860  -0.37433860  1.0
  N  N4  1  0.62433860  -0.37566140  0.87566140  1.0
  N  N5  1  0.87566140  0.87566140  0.62433860  1.0
  N  N6  1  0.78879204  0.96058738  0.83813858  1.0
  N  N7  1  0.41248200  0.83813858  0.96058738  1.0
  N  N8  1  0.83813858  0.41248200  0.78879204  1.0
  N  N9  1  0.96058738  0.78879204  0.41248200  1.0
  N  N10  1  1.46120796  0.28941262  0.41186142  1.0
  N  N11  1  -0.16248200  0.41186142  0.28941262  1.0
  N  N12  1  0.41186142  -0.16248200  1.46120796  1.0
  N  N13  1  0.28941262  1.46120796  -0.16248200  1.0
