# generated using pymatgen
data_KAgCO3
_symmetry_space_group_name_H-M   'P 1'
_cell_length_a   11.18570459
_cell_length_b   11.18570459
_cell_length_c   11.18570459
_cell_angle_alpha   149.84297331
_cell_angle_beta   148.42898353
_cell_angle_gamma   44.22192920
_symmetry_Int_Tables_number   1
_chemical_formula_structural   KAgCO3
_chemical_formula_sum   'K4 Ag4 C4 O12'
_cell_volume   367.04056362
_cell_formula_units_Z   4
loop_
 _symmetry_equiv_pos_site_id
 _symmetry_equiv_pos_as_xyz
  1  'x, y, z'
loop_
 _atom_site_type_symbol
 _atom_site_label
 _atom_site_symmetry_multiplicity
 _atom_site_fract_x
 _atom_site_fract_y
 _atom_site_fract_z
 _atom_site_occupancy
  K  K0  1  0.93035338  0.68035338  1.25000000  1.0
  K  K1  1  1.06964662  0.31964662  0.75000000  1.0
  K  K2  1  0.56964662  0.81964662  0.75000000  1.0
  K  K3  1  0.43035338  0.18035338  0.25000000  1.0
  Ag  Ag4  1  0.35719575  0.75000000  1.10719575  1.0
  Ag  Ag5  1  0.85719575  0.75000000  1.60719575  1.0
  Ag  Ag6  1  0.14280425  0.25000000  0.39280425  1.0
  Ag  Ag7  1  0.64280425  0.25000000  0.89280425  1.0
  C  C8  1  1.12258519  0.87258519  1.25000000  1.0
  C  C9  1  0.87741481  0.12741481  0.75000000  1.0
  C  C10  1  0.37741481  0.62741481  0.75000000  1.0
  C  C11  1  0.62258519  0.37258519  0.25000000  1.0
  O  O12  1  1.27873461  0.75577238  1.22934153  1.0
  O  O13  1  0.97356915  0.95060692  1.72934153  1.0
  O  O14  1  0.22126539  0.45060692  0.47703778  1.0
  O  O15  1  0.52643085  1.25577238  0.97703778  1.0
  O  O16  1  0.77873461  0.54939308  0.52296222  1.0
  O  O17  1  0.47356915  0.74422762  1.02296222  1.0
  O  O18  1  0.72126539  0.24422762  0.77065847  1.0
  O  O19  1  1.02643085  1.04939308  1.27065847  1.0
  O  O20  1  1.06066231  0.81066231  1.25000000  1.0
  O  O21  1  0.93933769  0.18933769  0.75000000  1.0
  O  O22  1  0.43933769  0.68933769  0.75000000  1.0
  O  O23  1  0.56066231  0.31066231  0.25000000  1.0
