# generated using pymatgen
data_Mg16Si8HO32
_symmetry_space_group_name_H-M   'P 1'
_cell_length_a   10.41138028
_cell_length_b   9.63234090
_cell_length_c   6.07597961
_cell_angle_alpha   89.95930527
_cell_angle_beta   89.93414539
_cell_angle_gamma   89.75586202
_symmetry_Int_Tables_number   1
_chemical_formula_structural   Mg16Si8HO32
_chemical_formula_sum   'Mg16 Si8 H1 O32'
_cell_volume   609.32938734
_cell_formula_units_Z   1
loop_
 _symmetry_equiv_pos_site_id
 _symmetry_equiv_pos_as_xyz
  1  'x, y, z'
loop_
 _atom_site_type_symbol
 _atom_site_label
 _atom_site_symmetry_multiplicity
 _atom_site_fract_x
 _atom_site_fract_y
 _atom_site_fract_z
 _atom_site_occupancy
  Mg  Mg0  1  -0.00042725  -0.00171707  0.00216229  1.0
  Mg  Mg1  1  -0.49651604  -0.24291773  -0.00183487  1.0
  Mg  Mg2  1  -0.00022583  -0.00157411  -0.49662784  1.0
  Mg  Mg3  1  -0.49064827  -0.24232107  -0.49097895  1.0
  Mg  Mg4  1  -0.27693940  -0.49777016  -0.24979309  1.0
  Mg  Mg5  1  -0.21871907  -0.23987646  -0.74732206  1.0
  Mg  Mg6  1  -0.72145226  -0.00410590  -0.74833522  1.0
  Mg  Mg7  1  -0.77815022  -0.25369760  -0.25251390  1.0
  Mg  Mg8  1  -0.00792323  -0.49883664  0.00014827  1.0
  Mg  Mg9  1  -0.49909543  -0.75159945  -0.00192233  1.0
  Mg  Mg10  1  -0.00287205  -0.49902738  -0.49740399  1.0
  Mg  Mg11  1  -0.49729980  -0.74993830  -0.50039464  1.0
  Mg  Mg12  1  -0.27641596  -0.99334777  -0.24863039  1.0
  Mg  Mg13  1  -0.22091284  -0.74920031  -0.74895623  1.0
  Mg  Mg14  1  -0.74613325  -0.51541557  -0.77922721  1.0
  Mg  Mg15  1  -0.78333579  -0.75942172  -0.23974899  1.0
  Si  Si16  1  -0.09472728  -0.21317299  -0.24800959  1.0
  Si  Si17  1  -0.39091721  -0.46719993  -0.74975845  1.0
  Si  Si18  1  -0.90729287  -0.28648207  -0.74945181  1.0
  Si  Si19  1  -0.59546874  -0.03356216  -0.24968266  1.0
  Si  Si20  1  -0.09425434  -0.71397875  -0.24896110  1.0
  Si  Si21  1  -0.40605856  -0.96280476  -0.74946812  1.0
  Si  Si22  1  -0.90930344  -0.78943931  -0.74577363  1.0
  Si  Si23  1  -0.59149906  -0.53298023  -0.25054319  1.0
  H  H24  1  -0.58577686  -0.46451513  -0.61129166  1.0
  O  O25  1  -0.09463071  -0.38322091  -0.24871006  1.0
  O  O26  1  -0.40796741  -0.13383921  -0.74835244  1.0
  O  O27  1  -0.90790856  -0.11675652  -0.74826511  1.0
  O  O28  1  -0.58750390  -0.36286236  -0.24322010  1.0
  O  O29  1  -0.44716769  -0.10470608  -0.24735271  1.0
  O  O30  1  -0.05369550  -0.35951982  -0.74892987  1.0
  O  O31  1  -0.54851659  -0.39914340  -0.73167970  1.0
  O  O32  1  -0.94820542  -0.14079931  -0.24852338  1.0
  O  O33  1  -0.16274712  -0.13772148  -0.03148743  1.0
  O  O34  1  -0.34015550  -0.38507986  -0.96898341  1.0
  O  O35  1  -0.83827268  -0.36369577  -0.53560995  1.0
  O  O36  1  -0.66122215  -0.11118078  -0.46585501  1.0
  O  O37  1  -0.84020434  -0.36304314  -0.96813697  1.0
  O  O38  1  -0.66209541  -0.10975421  -0.03231922  1.0
  O  O39  1  -0.16312497  -0.13709947  -0.46369789  1.0
  O  O40  1  -0.33176026  -0.38738816  -0.53297650  1.0
  O  O41  1  -0.09139001  -0.88386375  -0.24726730  1.0
  O  O42  1  -0.40231542  -0.63522796  -0.75093582  1.0
  O  O43  1  -0.91508037  -0.61908656  -0.75108439  1.0
  O  O44  1  -0.59550611  -0.86293608  -0.25272899  1.0
  O  O45  1  -0.44746635  -0.61122790  -0.24631142  1.0
  O  O46  1  -0.05377435  -0.86423642  -0.74656360  1.0
  O  O47  1  -0.55206608  -0.88786351  -0.75008066  1.0
  O  O48  1  -0.94876708  -0.63898850  -0.24787126  1.0
  O  O49  1  -0.16444482  -0.63888858  -0.03310311  1.0
  O  O50  1  -0.33703056  -0.88911312  -0.96583030  1.0
  O  O51  1  -0.83837313  -0.85981758  -0.52846945  1.0
  O  O52  1  -0.64929640  -0.59040750  -0.49111276  1.0
  O  O53  1  -0.83859414  -0.86317433  -0.96094064  1.0
  O  O54  1  -0.66835404  -0.61226830  -0.04778157  1.0
  O  O55  1  -0.16316818  -0.63943227  -0.46556312  1.0
  O  O56  1  -0.33724968  -0.88898462  -0.53310650  1.0
