# generated using pymatgen
data_Yb(ZnSi)2
_symmetry_space_group_name_H-M   'P 1'
_cell_length_a   5.98018256
_cell_length_b   5.98018256
_cell_length_c   5.98018256
_cell_angle_alpha   139.93104773
_cell_angle_beta   139.93104773
_cell_angle_gamma   57.95800773
_symmetry_Int_Tables_number   1
_chemical_formula_structural   Yb(ZnSi)2
_chemical_formula_sum   'Yb1 Zn2 Si2'
_cell_volume   87.83118632
_cell_formula_units_Z   1
loop_
 _symmetry_equiv_pos_site_id
 _symmetry_equiv_pos_as_xyz
  1  'x, y, z'
loop_
 _atom_site_type_symbol
 _atom_site_label
 _atom_site_symmetry_multiplicity
 _atom_site_fract_x
 _atom_site_fract_y
 _atom_site_fract_z
 _atom_site_occupancy
  Yb  Yb0  1  0.00000000  0.00000000  0.00000000  1.0
  Zn  Zn1  1  0.25000000  0.75000000  0.50000000  1.0
  Zn  Zn2  1  0.75000000  0.25000000  0.50000000  1.0
  Si  Si3  1  0.61175330  0.61175330  1.00000000  1.0
  Si  Si4  1  0.38824670  0.38824670  -0.00000000  1.0
