# generated using pymatgen
data_NaSb
_symmetry_space_group_name_H-M   'P 1'
_cell_length_a   6.82278203
_cell_length_b   6.40760091
_cell_length_c   12.58319442
_cell_angle_alpha   90.00000000
_cell_angle_beta   117.38747599
_cell_angle_gamma   90.00000000
_symmetry_Int_Tables_number   1
_chemical_formula_structural   NaSb
_chemical_formula_sum   'Na8 Sb8'
_cell_volume   488.44955544
_cell_formula_units_Z   8
loop_
 _symmetry_equiv_pos_site_id
 _symmetry_equiv_pos_as_xyz
  1  'x, y, z'
loop_
 _atom_site_type_symbol
 _atom_site_label
 _atom_site_symmetry_multiplicity
 _atom_site_fract_x
 _atom_site_fract_y
 _atom_site_fract_z
 _atom_site_occupancy
  Na  Na0  1  0.73011114  0.40221703  0.32664518  1.0
  Na  Na1  1  0.73011114  0.09778297  0.82664518  1.0
  Na  Na2  1  0.26988886  0.90221703  0.17335482  1.0
  Na  Na3  1  0.26988886  0.59778297  0.67335482  1.0
  Na  Na4  1  0.26730025  0.16389562  0.45849606  1.0
  Na  Na5  1  0.26730025  0.33610438  0.95849606  1.0
  Na  Na6  1  0.73269975  0.66389562  0.04150394  1.0
  Na  Na7  1  0.73269975  0.83610438  0.54150394  1.0
  Sb  Sb8  1  0.80745660  0.90533017  0.29749065  1.0
  Sb  Sb9  1  0.80745660  0.59466983  0.79749065  1.0
  Sb  Sb10  1  0.19254340  0.40533017  0.20250935  1.0
  Sb  Sb11  1  0.19254340  0.09466983  0.70250935  1.0
  Sb  Sb12  1  0.79015048  0.16171108  0.10416544  1.0
  Sb  Sb13  1  0.79015048  0.33828892  0.60416544  1.0
  Sb  Sb14  1  0.20984952  0.66171108  0.39583456  1.0
  Sb  Sb15  1  0.20984952  0.83828892  0.89583456  1.0
