# generated using pymatgen
data_Fe2Si3C6(ClO)6
_symmetry_space_group_name_H-M   'P 1'
_cell_length_a   10.07610126
_cell_length_b   10.07610126
_cell_length_c   13.02832014
_cell_angle_alpha   90.00000000
_cell_angle_beta   90.00000000
_cell_angle_gamma   120.00000000
_symmetry_Int_Tables_number   1
_chemical_formula_structural   Fe2Si3C6(ClO)6
_chemical_formula_sum   'Fe4 Si6 C12 Cl12 O12'
_cell_volume   1145.52375469
_cell_formula_units_Z   2
loop_
 _symmetry_equiv_pos_site_id
 _symmetry_equiv_pos_as_xyz
  1  'x, y, z'
loop_
 _atom_site_type_symbol
 _atom_site_label
 _atom_site_symmetry_multiplicity
 _atom_site_fract_x
 _atom_site_fract_y
 _atom_site_fract_z
 _atom_site_occupancy
  Fe  Fe0  1  0.33333333  0.66666667  0.35538442  1.0
  Fe  Fe1  1  0.33333333  0.66666667  0.14461558  1.0
  Fe  Fe2  1  0.66666667  0.33333333  0.85538442  1.0
  Fe  Fe3  1  0.66666667  0.33333333  0.64461558  1.0
  Si  Si4  1  0.13528664  0.64037725  0.25000000  1.0
  Si  Si5  1  0.64037725  0.50509061  0.75000000  1.0
  Si  Si6  1  0.50509061  0.86471336  0.25000000  1.0
  Si  Si7  1  0.35962275  0.49490939  0.25000000  1.0
  Si  Si8  1  0.86471336  0.35962275  0.75000000  1.0
  Si  Si9  1  0.49490939  0.13528664  0.75000000  1.0
  C  C10  1  0.31279874  0.80769750  0.42542172  1.0
  C  C11  1  0.31279874  0.80769750  0.07457828  1.0
  C  C12  1  0.80769750  0.49489876  0.92542172  1.0
  C  C13  1  0.80769750  0.49489876  0.57457828  1.0
  C  C14  1  0.49489876  0.68720126  0.42542172  1.0
  C  C15  1  0.49489876  0.68720126  0.07457828  1.0
  C  C16  1  0.19230250  0.50510124  0.42542172  1.0
  C  C17  1  0.19230250  0.50510124  0.07457828  1.0
  C  C18  1  0.68720126  0.19230250  0.92542172  1.0
  C  C19  1  0.68720126  0.19230250  0.57457828  1.0
  C  C20  1  0.50510124  0.31279874  0.92542172  1.0
  C  C21  1  0.50510124  0.31279874  0.57457828  1.0
  Cl  Cl22  1  0.07089947  0.80513853  0.25000000  1.0
  Cl  Cl23  1  0.80513853  0.73423906  0.75000000  1.0
  Cl  Cl24  1  0.73423906  0.92910053  0.25000000  1.0
  Cl  Cl25  1  0.19486147  0.26576094  0.25000000  1.0
  Cl  Cl26  1  0.92910053  0.19486147  0.75000000  1.0
  Cl  Cl27  1  0.26576094  0.07089947  0.75000000  1.0
  Cl  Cl28  1  0.56268038  0.49052460  0.25000000  1.0
  Cl  Cl29  1  0.49052460  0.92784422  0.75000000  1.0
  Cl  Cl30  1  0.92784422  0.43731962  0.25000000  1.0
  Cl  Cl31  1  0.50947540  0.07215578  0.25000000  1.0
  Cl  Cl32  1  0.43731962  0.50947540  0.75000000  1.0
  Cl  Cl33  1  0.07215578  0.56268038  0.75000000  1.0
  O  O34  1  0.30092341  0.89436768  0.47695165  1.0
  O  O35  1  0.30092341  0.89436768  0.02304835  1.0
  O  O36  1  0.89436768  0.59344426  0.97695165  1.0
  O  O37  1  0.89436768  0.59344426  0.52304835  1.0
  O  O38  1  0.59344426  0.69907659  0.47695165  1.0
  O  O39  1  0.59344426  0.69907659  0.02304835  1.0
  O  O40  1  0.10563232  0.40655574  0.47695165  1.0
  O  O41  1  0.10563232  0.40655574  0.02304835  1.0
  O  O42  1  0.69907659  0.10563232  0.97695165  1.0
  O  O43  1  0.69907659  0.10563232  0.52304835  1.0
  O  O44  1  0.40655574  0.30092341  0.97695165  1.0
  O  O45  1  0.40655574  0.30092341  0.52304835  1.0
