# generated using pymatgen
data_LiNb3(Bi2O7)2
_symmetry_space_group_name_H-M   'P 1'
_cell_length_a   7.66927453
_cell_length_b   7.66927453
_cell_length_c   12.22962107
_cell_angle_alpha   80.05561280
_cell_angle_beta   99.94438720
_cell_angle_gamma   119.14492174
_symmetry_Int_Tables_number   1
_chemical_formula_structural   LiNb3(Bi2O7)2
_chemical_formula_sum   'Li2 Nb6 Bi8 O28'
_cell_volume   615.51794304
_cell_formula_units_Z   2
loop_
 _symmetry_equiv_pos_site_id
 _symmetry_equiv_pos_as_xyz
  1  'x, y, z'
loop_
 _atom_site_type_symbol
 _atom_site_label
 _atom_site_symmetry_multiplicity
 _atom_site_fract_x
 _atom_site_fract_y
 _atom_site_fract_z
 _atom_site_occupancy
  Li  Li0  1  0.97376751  -0.02623249  0.25000000  1.0
  Li  Li1  1  1.02623249  0.02623249  0.75000000  1.0
  Nb  Nb2  1  0.37632463  -0.11784731  0.26021567  1.0
  Nb  Nb3  1  1.11784731  0.62367537  0.76021567  1.0
  Nb  Nb4  1  0.88215269  -0.62367537  0.23978433  1.0
  Nb  Nb5  1  1.62367537  0.11784731  0.73978433  1.0
  Nb  Nb6  1  1.37531371  0.37531371  0.25000000  1.0
  Nb  Nb7  1  0.62468629  -0.37531371  0.75000000  1.0
  Bi  Bi8  1  1.77567448  0.00674125  0.49296060  1.0
  Bi  Bi9  1  0.99325875  -0.77567448  0.99296060  1.0
  Bi  Bi10  1  1.00674125  0.77567448  0.00703940  1.0
  Bi  Bi11  1  0.22432552  -0.00674125  0.50703940  1.0
  Bi  Bi12  1  0.52208034  -0.24228567  0.02189241  1.0
  Bi  Bi13  1  1.24228567  0.47791966  0.52189241  1.0
  Bi  Bi14  1  0.75771433  -0.47791966  0.47810759  1.0
  Bi  Bi15  1  1.47791966  0.24228567  0.97810759  1.0
  O  O16  1  0.88731929  -0.07520701  0.09011345  1.0
  O  O17  1  1.07520701  0.11268071  0.59011345  1.0
  O  O18  1  0.92479299  -0.11268071  0.40988655  1.0
  O  O19  1  1.11268071  0.07520701  0.90988655  1.0
  O  O20  1  0.42639455  -0.35207754  0.22944068  1.0
  O  O21  1  1.35207754  0.57360545  0.72944068  1.0
  O  O22  1  0.64792246  -0.57360545  0.27055932  1.0
  O  O23  1  1.57360545  0.35207754  0.77055932  1.0
  O  O24  1  1.65184508  0.06160478  0.28197848  1.0
  O  O25  1  0.93839522  -0.65184508  0.78197848  1.0
  O  O26  1  1.06160478  0.65184508  0.21802152  1.0
  O  O27  1  0.34815492  -0.06160478  0.71802152  1.0
  O  O28  1  0.35057053  -0.23115865  0.41268628  1.0
  O  O29  1  1.23115865  0.64942947  0.91268628  1.0
  O  O30  1  0.76884135  -0.64942947  0.08731372  1.0
  O  O31  1  1.64942947  0.23115865  0.58731372  1.0
  O  O32  1  0.35171239  -0.05658497  0.08736370  1.0
  O  O33  1  1.05658497  0.64828761  0.58736370  1.0
  O  O34  1  0.94341503  -0.64828761  0.41263630  1.0
  O  O35  1  1.64828761  0.05658497  0.91263630  1.0
  O  O36  1  1.27738173  0.06197179  0.27926416  1.0
  O  O37  1  0.93802821  -0.27738173  0.77926416  1.0
  O  O38  1  1.06197179  0.27738173  0.22073584  1.0
  O  O39  1  0.72261827  -0.06197179  0.72073584  1.0
  O  O40  1  1.35980540  0.35147215  0.41460247  1.0
  O  O41  1  0.64852785  -0.35980540  0.91460247  1.0
  O  O42  1  1.35147215  0.35980540  0.08539753  1.0
  O  O43  1  0.64019460  -0.35147215  0.58539753  1.0
