# generated using pymatgen
data_IrSe3
_symmetry_space_group_name_H-M   'P 1'
_cell_length_a   8.53548225
_cell_length_b   10.35167496
_cell_length_c   8.59054991
_cell_angle_alpha   89.88112992
_cell_angle_beta   119.94020645
_cell_angle_gamma   89.71873520
_symmetry_Int_Tables_number   1
_chemical_formula_structural   IrSe3
_chemical_formula_sum   'Ir8 Se24'
_cell_volume   657.71915356
_cell_formula_units_Z   8
loop_
 _symmetry_equiv_pos_site_id
 _symmetry_equiv_pos_as_xyz
  1  'x, y, z'
loop_
 _atom_site_type_symbol
 _atom_site_label
 _atom_site_symmetry_multiplicity
 _atom_site_fract_x
 _atom_site_fract_y
 _atom_site_fract_z
 _atom_site_occupancy
  Ir  Ir0  1  -0.67022715  0.66523115  -0.83821563  1.0
  Ir  Ir1  1  -0.32977285  0.33476885  -0.16178437  1.0
  Ir  Ir2  1  -0.16528572  0.66347194  -0.83287901  1.0
  Ir  Ir3  1  -0.83471428  0.33652806  -0.16712099  1.0
  Ir  Ir4  1  -0.83473819  0.33635091  -0.67345945  1.0
  Ir  Ir5  1  -0.16526181  0.66364909  -0.32654055  1.0
  Ir  Ir6  1  -0.50000000  0.00000000  0.00000000  1.0
  Ir  Ir7  1  0.00000000  0.00000000  0.00000000  1.0
  Se  Se8  1  0.00039775  0.61983166  0.00006374  1.0
  Se  Se9  1  -0.00039775  0.38016834  -0.00006374  1.0
  Se  Se10  1  -0.74130302  0.12893873  -0.98240743  1.0
  Se  Se11  1  -0.25869698  0.87106127  -0.01759257  1.0
  Se  Se12  1  -0.57179340  0.45610486  -0.91713544  1.0
  Se  Se13  1  -0.42820660  0.54389514  -0.08286456  1.0
  Se  Se14  1  -0.75620654  0.86954297  -0.73868702  1.0
  Se  Se15  1  -0.24379346  0.13045703  -0.26131298  1.0
  Se  Se16  1  -0.35023109  0.95475349  -0.67270023  1.0
  Se  Se17  1  -0.64976891  0.04524651  -0.32729977  1.0
  Se  Se18  1  -0.33516560  0.72075564  -0.66711991  1.0
  Se  Se19  1  -0.66483440  0.27924436  -0.33288009  1.0
  Se  Se20  1  -0.91356387  0.78627655  -0.59573310  1.0
  Se  Se21  1  -0.08643613  0.21372345  -0.40426690  1.0
  Se  Se22  1  -0.65708525  0.54523740  -0.57614494  1.0
  Se  Se23  1  -0.34291475  0.45476260  -0.42385506  1.0
  Se  Se24  1  -0.91773539  0.54203092  -0.34366994  1.0
  Se  Se25  1  -0.08226461  0.45796908  -0.65633006  1.0
  Se  Se26  1  -0.41371857  0.78289526  -0.31886229  1.0
  Se  Se27  1  -0.58628143  0.21710474  -0.68113771  1.0
  Se  Se28  1  -0.99290974  0.87389628  -0.24631552  1.0
  Se  Se29  1  -0.00709026  0.12610372  -0.75368448  1.0
  Se  Se30  1  -0.68144184  0.79223526  -0.09047473  1.0
  Se  Se31  1  -0.31855816  0.20776474  -0.90952527  1.0
