# generated using pymatgen
data_Gd12(MnC3)5
_symmetry_space_group_name_H-M   'P 1'
_cell_length_a   10.54887066
_cell_length_b   10.54887067
_cell_length_c   5.13119727
_cell_angle_alpha   90.00000000
_cell_angle_beta   90.00000000
_cell_angle_gamma   120.00000000
_symmetry_Int_Tables_number   1
_chemical_formula_structural   Gd12(MnC3)5
_chemical_formula_sum   'Gd12 Mn5 C15'
_cell_volume   494.49428674
_cell_formula_units_Z   1
loop_
 _symmetry_equiv_pos_site_id
 _symmetry_equiv_pos_as_xyz
  1  'x, y, z'
loop_
 _atom_site_type_symbol
 _atom_site_label
 _atom_site_symmetry_multiplicity
 _atom_site_fract_x
 _atom_site_fract_y
 _atom_site_fract_z
 _atom_site_occupancy
  Mn  Mn0  1  0.33333333  0.66666667  0.50000000  1.0
  Mn  Mn1  1  0.66666667  0.33333333  0.50000000  1.0
  Mn  Mn2  1  0.84722682  0.84722682  0.00000000  1.0
  Mn  Mn3  1  -0.00000000  0.15277318  0.00000000  1.0
  Mn  Mn4  1  0.15277318  0.00000000  0.00000000  1.0
  C  C5  1  0.67724270  0.67724270  0.00000000  1.0
  C  C6  1  0.00000000  0.32275730  0.00000000  1.0
  C  C7  1  0.32275730  0.00000000  0.00000000  1.0
  C  C8  1  0.54888631  0.54888631  0.00000000  1.0
  C  C9  1  -0.00000000  0.45111369  0.00000000  1.0
  C  C10  1  0.45111369  0.00000000  0.00000000  1.0
  C  C11  1  0.19791474  0.19791474  0.00000000  1.0
  C  C12  1  -0.00000000  0.80208526  0.00000000  1.0
  C  C13  1  0.80208526  0.00000000  0.00000000  1.0
  C  C14  1  0.19436681  0.71576507  0.50000000  1.0
  C  C15  1  0.71576507  0.19436681  0.50000000  1.0
  C  C16  1  0.52139827  0.80563319  0.50000000  1.0
  C  C17  1  0.28423493  0.47860173  0.50000000  1.0
  C  C18  1  0.80563319  0.52139827  0.50000000  1.0
  C  C19  1  0.47860173  0.28423493  0.50000000  1.0
  Gd  Gd20  1  0.20684273  0.20684273  0.50000000  1.0
  Gd  Gd21  1  0.00000000  0.79315727  0.50000000  1.0
  Gd  Gd22  1  0.79315727  0.00000000  0.50000000  1.0
  Gd  Gd23  1  0.57204231  0.57204231  0.50000000  1.0
  Gd  Gd24  1  -0.00000000  0.42795769  0.50000000  1.0
  Gd  Gd25  1  0.42795769  0.00000000  0.50000000  1.0
  Gd  Gd26  1  0.18631440  0.72992876  0.00000000  1.0
  Gd  Gd27  1  0.72992876  0.18631440  0.00000000  1.0
  Gd  Gd28  1  0.54361436  0.81368560  0.00000000  1.0
  Gd  Gd29  1  0.27007124  0.45638564  0.00000000  1.0
  Gd  Gd30  1  0.81368560  0.54361436  0.00000000  1.0
  Gd  Gd31  1  0.45638564  0.27007124  0.00000000  1.0
