# generated using pymatgen
data_CaNbO3
_symmetry_space_group_name_H-M   'P 1'
_cell_length_a   5.68541871
_cell_length_b   7.92920192
_cell_length_c   5.53412397
_cell_angle_alpha   90.00000000
_cell_angle_beta   90.00000000
_cell_angle_gamma   90.00000000
_symmetry_Int_Tables_number   1
_chemical_formula_structural   CaNbO3
_chemical_formula_sum   'Ca4 Nb4 O12'
_cell_volume   249.48291868
_cell_formula_units_Z   4
loop_
 _symmetry_equiv_pos_site_id
 _symmetry_equiv_pos_as_xyz
  1  'x, y, z'
loop_
 _atom_site_type_symbol
 _atom_site_label
 _atom_site_symmetry_multiplicity
 _atom_site_fract_x
 _atom_site_fract_y
 _atom_site_fract_z
 _atom_site_occupancy
  Ca  Ca0  1  0.05015567  0.75000000  0.50871257  1.0
  Ca  Ca1  1  0.55015567  0.75000000  0.99128743  1.0
  Ca  Ca2  1  0.94984433  0.25000000  0.49128743  1.0
  Ca  Ca3  1  0.44984433  0.25000000  0.00871257  1.0
  Nb  Nb4  1  0.50000000  0.00000000  0.50000000  1.0
  Nb  Nb5  1  0.50000000  0.50000000  0.50000000  1.0
  Nb  Nb6  1  0.00000000  0.00000000  0.00000000  1.0
  Nb  Nb7  1  0.00000000  0.50000000  0.00000000  1.0
  O  O8  1  0.29519485  0.95627608  0.79896497  1.0
  O  O9  1  0.29519485  0.54372392  0.79896497  1.0
  O  O10  1  0.79519485  0.95627608  0.70103503  1.0
  O  O11  1  0.79519485  0.54372392  0.70103503  1.0
  O  O12  1  0.70480515  0.45627608  0.20103503  1.0
  O  O13  1  0.70480515  0.04372392  0.20103503  1.0
  O  O14  1  0.20480515  0.45627608  0.29896497  1.0
  O  O15  1  0.20480515  0.04372392  0.29896497  1.0
  O  O16  1  0.97488935  0.75000000  0.08356192  1.0
  O  O17  1  0.47488935  0.75000000  0.41643808  1.0
  O  O18  1  0.02511065  0.25000000  0.91643808  1.0
  O  O19  1  0.52511065  0.25000000  0.58356192  1.0
