# generated using pymatgen
data_NaScB2O5
_symmetry_space_group_name_H-M   'P 1'
_cell_length_a   7.41970865
_cell_length_b   9.86764344
_cell_length_c   6.01509174
_cell_angle_alpha   90.00000000
_cell_angle_beta   109.04967648
_cell_angle_gamma   90.00000000
_symmetry_Int_Tables_number   1
_chemical_formula_structural   NaScB2O5
_chemical_formula_sum   'Na4 Sc4 B8 O20'
_cell_volume   416.27735421
_cell_formula_units_Z   4
loop_
 _symmetry_equiv_pos_site_id
 _symmetry_equiv_pos_as_xyz
  1  'x, y, z'
loop_
 _atom_site_type_symbol
 _atom_site_label
 _atom_site_symmetry_multiplicity
 _atom_site_fract_x
 _atom_site_fract_y
 _atom_site_fract_z
 _atom_site_occupancy
  Na  Na0  1  0.75514846  0.55660900  0.76156281  1.0
  Na  Na1  1  0.75514846  0.94339100  0.26156281  1.0
  Na  Na2  1  0.24485154  0.05660900  0.73843719  1.0
  Na  Na3  1  0.24485154  0.44339100  0.23843719  1.0
  Sc  Sc4  1  0.24860765  0.66861088  0.75614169  1.0
  Sc  Sc5  1  0.24860765  0.83138912  0.25614169  1.0
  Sc  Sc6  1  0.75139235  0.16861088  0.74385831  1.0
  Sc  Sc7  1  0.75139235  0.33138912  0.24385831  1.0
  B  B8  1  0.92054181  0.88038760  0.79192930  1.0
  B  B9  1  0.92054181  0.61961240  0.29192930  1.0
  B  B10  1  0.07945819  0.38038760  0.70807070  1.0
  B  B11  1  0.07945819  0.11961240  0.20807070  1.0
  B  B12  1  0.57243645  0.88535641  0.72211953  1.0
  B  B13  1  0.57243645  0.61464359  0.22211953  1.0
  B  B14  1  0.42756355  0.38535641  0.77788047  1.0
  B  B15  1  0.42756355  0.11464359  0.27788047  1.0
  O  O16  1  0.91501157  0.30648170  0.60822184  1.0
  O  O17  1  0.91501157  0.19351830  0.10822184  1.0
  O  O18  1  0.08498843  0.80648170  0.89177816  1.0
  O  O19  1  0.08498843  0.69351830  0.39177816  1.0
  O  O20  1  0.92407580  1.00931791  0.71541301  1.0
  O  O21  1  0.92407580  0.49068209  0.21541301  1.0
  O  O22  1  0.07592420  0.50931791  0.78458699  1.0
  O  O23  1  0.07592420  -0.00931791  0.28458699  1.0
  O  O24  1  0.74573691  0.81330418  0.76464196  1.0
  O  O25  1  0.74573691  0.68669582  0.26464196  1.0
  O  O26  1  0.25426309  0.31330418  0.73535804  1.0
  O  O27  1  0.25426309  0.18669582  0.23535804  1.0
  O  O28  1  0.42816287  0.51775205  0.71870035  1.0
  O  O29  1  0.42816287  0.98224795  0.21870035  1.0
  O  O30  1  0.57183713  0.01775205  0.78129965  1.0
  O  O31  1  0.57183713  0.48224795  0.28129965  1.0
  O  O32  1  0.40519706  0.81378445  0.62556957  1.0
  O  O33  1  0.40519706  0.68621555  0.12556957  1.0
  O  O34  1  0.59480294  0.31378445  0.87443043  1.0
  O  O35  1  0.59480294  0.18621555  0.37443043  1.0
