# generated using pymatgen
data_Na3VP2O9
_symmetry_space_group_name_H-M   'P 1'
_cell_length_a   6.29402926
_cell_length_b   6.46362966
_cell_length_c   9.84765863
_cell_angle_alpha   90.00000000
_cell_angle_beta   108.97140074
_cell_angle_gamma   90.00000000
_symmetry_Int_Tables_number   1
_chemical_formula_structural   Na3VP2O9
_chemical_formula_sum   'Na6 V2 P4 O18'
_cell_volume   378.86357773
_cell_formula_units_Z   2
loop_
 _symmetry_equiv_pos_site_id
 _symmetry_equiv_pos_as_xyz
  1  'x, y, z'
loop_
 _atom_site_type_symbol
 _atom_site_label
 _atom_site_symmetry_multiplicity
 _atom_site_fract_x
 _atom_site_fract_y
 _atom_site_fract_z
 _atom_site_occupancy
  Na  Na0  1  0.22721448  0.98527532  0.84011987  1.0
  Na  Na1  1  0.22721448  0.51472468  0.84011987  1.0
  Na  Na2  1  0.77278552  0.48527532  0.15988013  1.0
  Na  Na3  1  0.77278552  0.01472468  0.15988013  1.0
  Na  Na4  1  0.28008595  0.75000000  0.19411645  1.0
  Na  Na5  1  0.71991405  0.25000000  0.80588355  1.0
  V  V6  1  0.78959511  0.75000000  0.57768232  1.0
  V  V7  1  0.21040489  0.25000000  0.42231768  1.0
  P  P8  1  0.74809566  0.75000000  0.90387983  1.0
  P  P9  1  0.25190434  0.25000000  0.09612017  1.0
  P  P10  1  0.24519521  0.75000000  0.50196638  1.0
  P  P11  1  0.75480479  0.25000000  0.49803362  1.0
  O  O12  1  0.81307594  0.44224034  0.59836284  1.0
  O  O13  1  0.81307594  0.05775966  0.59836284  1.0
  O  O14  1  0.18692406  0.94224034  0.40163716  1.0
  O  O15  1  0.18692406  0.55775966  0.40163716  1.0
  O  O16  1  0.60405316  0.94902123  0.87802120  1.0
  O  O17  1  0.60405316  0.55097877  0.87802120  1.0
  O  O18  1  0.39594684  0.44902123  0.12197880  1.0
  O  O19  1  0.39594684  0.05097877  0.12197880  1.0
  O  O20  1  0.91397888  0.75000000  0.06010801  1.0
  O  O21  1  0.08602112  0.25000000  0.93989199  1.0
  O  O22  1  0.89581139  0.75000000  0.79618353  1.0
  O  O23  1  0.10418861  0.25000000  0.20381647  1.0
  O  O24  1  0.72268379  0.75000000  0.40409135  1.0
  O  O25  1  0.27731621  0.25000000  0.59590865  1.0
  O  O26  1  0.50105059  0.75000000  0.58913615  1.0
  O  O27  1  0.49894941  0.25000000  0.41086385  1.0
  O  O28  1  0.12124540  0.75000000  0.61554628  1.0
  O  O29  1  0.87875460  0.25000000  0.38445372  1.0
