# generated using pymatgen
data_K3GeS3
_symmetry_space_group_name_H-M   'P 1'
_cell_length_a   7.66566366
_cell_length_b   7.66566366
_cell_length_c   8.31943704
_cell_angle_alpha   75.06414556
_cell_angle_beta   104.93585444
_cell_angle_gamma   70.00733729
_symmetry_Int_Tables_number   1
_chemical_formula_structural   K3GeS3
_chemical_formula_sum   'K6 Ge2 S6'
_cell_volume   410.42483501
_cell_formula_units_Z   2
loop_
 _symmetry_equiv_pos_site_id
 _symmetry_equiv_pos_as_xyz
  1  'x, y, z'
loop_
 _atom_site_type_symbol
 _atom_site_label
 _atom_site_symmetry_multiplicity
 _atom_site_fract_x
 _atom_site_fract_y
 _atom_site_fract_z
 _atom_site_occupancy
  K  K0  1  0.78413098  -0.78413098  0.31449728  1.0
  K  K1  1  0.21586902  -0.21586902  0.68550272  1.0
  K  K2  1  0.66793269  -0.33206731  0.50000000  1.0
  K  K3  1  1.33206731  0.33206731  0.50000000  1.0
  K  K4  1  1.50000000  -0.00000000  -0.00000000  1.0
  K  K5  1  1.00000000  -0.50000000  -0.00000000  1.0
  Ge  Ge6  1  0.88149343  -0.88149343  0.84345651  1.0
  Ge  Ge7  1  0.11850657  -0.11850657  0.15654349  1.0
  S  S8  1  0.75662668  -0.04978350  0.69999534  1.0
  S  S9  1  1.04978350  0.24337332  0.69999534  1.0
  S  S10  1  0.95021650  -0.24337332  0.30000466  1.0
  S  S11  1  1.24337332  0.04978350  0.30000466  1.0
  S  S12  1  0.63122226  -0.63122226  0.85702909  1.0
  S  S13  1  0.36877774  -0.36877774  0.14297091  1.0
