# generated using pymatgen
data_K3H2OsC4SN4O3
_symmetry_space_group_name_H-M   'P 1'
_cell_length_a   8.95919153
_cell_length_b   9.12072086
_cell_length_c   8.02626676
_cell_angle_alpha   64.10263864
_cell_angle_beta   82.16927688
_cell_angle_gamma   85.12380312
_symmetry_Int_Tables_number   1
_chemical_formula_structural   K3H2OsC4SN4O3
_chemical_formula_sum   'K6 H4 Os2 C8 S2 N8 O6'
_cell_volume   584.25672740
_cell_formula_units_Z   2
loop_
 _symmetry_equiv_pos_site_id
 _symmetry_equiv_pos_as_xyz
  1  'x, y, z'
loop_
 _atom_site_type_symbol
 _atom_site_label
 _atom_site_symmetry_multiplicity
 _atom_site_fract_x
 _atom_site_fract_y
 _atom_site_fract_z
 _atom_site_occupancy
  K  K0  1  0.25046868  0.92232441  0.99187738  1.0
  K  K1  1  0.74953132  0.07767559  0.00812262  1.0
  K  K2  1  0.64491395  0.55363191  0.76678458  1.0
  K  K3  1  0.35508605  0.44636809  0.23321542  1.0
  K  K4  1  0.88388489  0.57079605  0.22803008  1.0
  K  K5  1  0.11611511  0.42920395  0.77196992  1.0
  H  H6  1  0.44299657  0.22107274  0.94956501  1.0
  H  H7  1  0.55700343  0.77892726  0.05043499  1.0
  H  H8  1  0.41345156  0.26902040  0.74425975  1.0
  H  H9  1  0.58654844  0.73097960  0.25574025  1.0
  Os  Os10  1  0.15768067  0.94519225  0.50245505  1.0
  Os  Os11  1  0.84231933  0.05480775  0.49754495  1.0
  C  C12  1  0.27821893  0.77497732  0.69799038  1.0
  C  C13  1  0.72178107  0.22502268  0.30200961  1.0
  C  C14  1  0.66029937  0.99141421  0.68867461  1.0
  C  C15  1  0.33970063  0.00858579  0.31132539  1.0
  C  C16  1  0.86990915  0.22856660  0.58680227  1.0
  C  C17  1  0.13009085  0.77143340  0.41319773  1.0
  C  C18  1  0.78305233  0.88476695  0.42063464  1.0
  C  C19  1  0.21694767  0.11523305  0.57936536  1.0
  S  S20  1  0.95833429  0.84455817  0.74651874  1.0
  S  S21  1  0.04166571  0.15544183  0.25348126  1.0
  N  N22  1  0.33715415  0.67394190  0.82274974  1.0
  N  N23  1  0.66284585  0.32605810  0.17725026  1.0
  N  N24  1  0.56450532  0.94791155  0.81410596  1.0
  N  N25  1  0.43549468  0.05208845  0.18589404  1.0
  N  N26  1  0.86606353  0.32933434  0.64219154  1.0
  N  N27  1  0.13393647  0.67066566  0.35780846  1.0
  N  N28  1  0.73524733  0.78869338  0.38162610  1.0
  N  N29  1  0.26475267  0.21130662  0.61837390  1.0
  O  O30  1  0.96611868  0.87284432  0.91629018  1.0
  O  O31  1  0.03388132  0.12715568  0.08370982  1.0
  O  O32  1  0.44844429  0.31300092  0.82383843  1.0
  O  O33  1  0.55155571  0.68699908  0.17616157  1.0
  O  O34  1  0.91177375  0.67260132  0.80647569  1.0
  O  O35  1  0.08822625  0.32739868  0.19352431  1.0
