# generated using pymatgen
data_LiZr2(AsO4)3
_symmetry_space_group_name_H-M   'P 1'
_cell_length_a   9.24368539
_cell_length_b   9.24368539
_cell_length_c   9.24368540
_cell_angle_alpha   60.63435951
_cell_angle_beta   60.63435951
_cell_angle_gamma   60.63435951
_symmetry_Int_Tables_number   1
_chemical_formula_structural   LiZr2(AsO4)3
_chemical_formula_sum   'Li2 Zr4 As6 O24'
_cell_volume   566.49632161
_cell_formula_units_Z   2
loop_
 _symmetry_equiv_pos_site_id
 _symmetry_equiv_pos_as_xyz
  1  'x, y, z'
loop_
 _atom_site_type_symbol
 _atom_site_label
 _atom_site_symmetry_multiplicity
 _atom_site_fract_x
 _atom_site_fract_y
 _atom_site_fract_z
 _atom_site_occupancy
  Li  Li0  1  1.00000000  0.00000000  0.00000000  1.0
  Li  Li1  1  0.50000000  0.50000000  0.50000000  1.0
  Zr  Zr2  1  0.85944200  -0.14055800  -0.14055800  1.0
  Zr  Zr3  1  0.35944200  0.35944200  0.35944200  1.0
  Zr  Zr4  1  0.64055800  0.64055800  -0.35944200  1.0
  Zr  Zr5  1  1.14055800  0.14055800  0.14055800  1.0
  As  As6  1  0.45572593  0.75000000  0.04427407  1.0
  As  As7  1  0.95572593  -0.45572593  0.25000000  1.0
  As  As8  1  0.25000000  0.95572593  -0.45572593  1.0
  As  As9  1  0.75000000  1.04427407  -0.54427407  1.0
  As  As10  1  0.54427407  0.25000000  -0.04427407  1.0
  As  As11  1  1.04427407  0.45572593  -0.25000000  1.0
  O  O12  1  0.81446178  0.99730562  -0.37554466  1.0
  O  O13  1  1.31446178  0.12445534  -0.50269438  1.0
  O  O14  1  0.87554466  0.50269438  -0.31446178  1.0
  O  O15  1  0.37554466  0.18553822  0.00269438  1.0
  O  O16  1  1.00269438  0.37554466  -0.81446178  1.0
  O  O17  1  0.50269438  0.68553822  -0.12445534  1.0
  O  O18  1  0.18553822  1.00269438  -0.62445534  1.0
  O  O19  1  0.68553822  0.87554466  -0.49730562  1.0
  O  O20  1  0.62445534  0.81446178  -0.00269438  1.0
  O  O21  1  1.12445534  -0.50269438  0.31446178  1.0
  O  O22  1  0.49730562  0.31446178  0.12445534  1.0
  O  O23  1  0.99730562  0.62445534  -0.18553822  1.0
  O  O24  1  0.74399928  0.08246244  -0.05822715  1.0
  O  O25  1  1.24399928  0.44177285  -0.41753756  1.0
  O  O26  1  0.55822715  0.41753756  -0.24399928  1.0
  O  O27  1  1.05822715  0.25600072  -0.08246244  1.0
  O  O28  1  0.91753756  0.05822715  0.25600072  1.0
  O  O29  1  0.41753756  0.75600072  -0.44177285  1.0
  O  O30  1  1.25600072  -0.08246244  0.05822715  1.0
  O  O31  1  0.75600072  0.55822715  -0.58246244  1.0
  O  O32  1  0.94177285  -0.25600072  0.08246244  1.0
  O  O33  1  0.44177285  0.58246244  0.24399928  1.0
  O  O34  1  0.58246244  1.24399928  -0.55822715  1.0
  O  O35  1  1.08246244  -0.05822715  -0.25600072  1.0
