# generated using pymatgen
data_Sr2PrO4
_symmetry_space_group_name_H-M   'P 1'
_cell_length_a   6.14755214
_cell_length_b   10.43610832
_cell_length_c   3.61639090
_cell_angle_alpha   90.00000000
_cell_angle_beta   90.00000000
_cell_angle_gamma   90.00000000
_symmetry_Int_Tables_number   1
_chemical_formula_structural   Sr2PrO4
_chemical_formula_sum   'Sr4 Pr2 O8'
_cell_volume   232.01505502
_cell_formula_units_Z   2
loop_
 _symmetry_equiv_pos_site_id
 _symmetry_equiv_pos_as_xyz
  1  'x, y, z'
loop_
 _atom_site_type_symbol
 _atom_site_label
 _atom_site_symmetry_multiplicity
 _atom_site_fract_x
 _atom_site_fract_y
 _atom_site_fract_z
 _atom_site_occupancy
  Sr  Sr0  1  0.43562063  0.82105001  0.50000000  1.0
  Sr  Sr1  1  0.93562063  0.67894999  0.50000000  1.0
  Sr  Sr2  1  0.56437937  0.17894999  0.50000000  1.0
  Sr  Sr3  1  0.06437937  0.32105001  0.50000000  1.0
  Pr  Pr4  1  0.50000000  0.50000000  0.00000000  1.0
  Pr  Pr5  1  0.00000000  0.00000000  0.00000000  1.0
  O  O6  1  0.27301105  0.54292435  0.50000000  1.0
  O  O7  1  0.77301105  0.95707565  0.50000000  1.0
  O  O8  1  0.72698895  0.45707565  0.50000000  1.0
  O  O9  1  0.22698895  0.04292435  0.50000000  1.0
  O  O10  1  0.14142858  0.80661417  0.00000000  1.0
  O  O11  1  0.64142858  0.69338583  0.00000000  1.0
  O  O12  1  0.85857142  0.19338583  0.00000000  1.0
  O  O13  1  0.35857142  0.30661417  0.00000000  1.0
