# generated using pymatgen
data_YGeIr
_symmetry_space_group_name_H-M   'P 1'
_cell_length_a   6.88461521
_cell_length_b   4.31436672
_cell_length_c   7.63412779
_cell_angle_alpha   90.00000000
_cell_angle_beta   90.00000000
_cell_angle_gamma   90.00000000
_symmetry_Int_Tables_number   1
_chemical_formula_structural   YGeIr
_chemical_formula_sum   'Y4 Ge4 Ir4'
_cell_volume   226.75462530
_cell_formula_units_Z   4
loop_
 _symmetry_equiv_pos_site_id
 _symmetry_equiv_pos_as_xyz
  1  'x, y, z'
loop_
 _atom_site_type_symbol
 _atom_site_label
 _atom_site_symmetry_multiplicity
 _atom_site_fract_x
 _atom_site_fract_y
 _atom_site_fract_z
 _atom_site_occupancy
  Y  Y0  1  0.99523625  0.75000000  0.69216408  1.0
  Y  Y1  1  0.49523625  0.75000000  0.80783592  1.0
  Y  Y2  1  0.00476375  0.25000000  0.30783592  1.0
  Y  Y3  1  0.50476375  0.25000000  0.19216408  1.0
  Ge  Ge4  1  0.70797161  0.75000000  0.39023963  1.0
  Ge  Ge5  1  0.20797161  0.75000000  0.10976037  1.0
  Ge  Ge6  1  0.29202839  0.25000000  0.60976037  1.0
  Ge  Ge7  1  0.79202839  0.25000000  0.89023963  1.0
  Ir  Ir8  1  0.83922019  0.75000000  0.06558115  1.0
  Ir  Ir9  1  0.33922019  0.75000000  0.43441885  1.0
  Ir  Ir10  1  0.16077981  0.25000000  0.93441885  1.0
  Ir  Ir11  1  0.66077981  0.25000000  0.56558115  1.0
