# generated using pymatgen
data_Gd4Mn4Sn7
_symmetry_space_group_name_H-M   'P 1'
_cell_length_a   11.13426644
_cell_length_b   11.13426644
_cell_length_c   11.13426644
_cell_angle_alpha   94.07021980
_cell_angle_beta   94.07021980
_cell_angle_gamma   149.09744399
_symmetry_Int_Tables_number   1
_chemical_formula_structural   Gd4Mn4Sn7
_chemical_formula_sum   'Gd8 Mn8 Sn14'
_cell_volume   683.29036919
_cell_formula_units_Z   2
loop_
 _symmetry_equiv_pos_site_id
 _symmetry_equiv_pos_as_xyz
  1  'x, y, z'
loop_
 _atom_site_type_symbol
 _atom_site_label
 _atom_site_symmetry_multiplicity
 _atom_site_fract_x
 _atom_site_fract_y
 _atom_site_fract_z
 _atom_site_occupancy
  Gd  Gd0  1  0.63907197  0.63907197  0.27814394  1.0
  Gd  Gd1  1  1.36092803  0.63907197  1.00000000  1.0
  Gd  Gd2  1  0.63907197  0.36092803  1.00000000  1.0
  Gd  Gd3  1  0.36092803  0.36092803  0.72185606  1.0
  Gd  Gd4  1  0.00000000  0.80475776  0.80475776  1.0
  Gd  Gd5  1  0.80475776  1.00000000  0.80475776  1.0
  Gd  Gd6  1  1.19524224  1.00000000  1.19524224  1.0
  Gd  Gd7  1  0.00000000  0.19524224  0.19524224  1.0
  Mn  Mn8  1  1.10091568  0.60091568  1.20183137  1.0
  Mn  Mn9  1  1.60091568  1.10091568  1.20183137  1.0
  Mn  Mn10  1  0.39908432  0.60091568  0.50000000  1.0
  Mn  Mn11  1  0.89908432  1.10091568  0.50000000  1.0
  Mn  Mn12  1  1.10091568  0.89908432  1.50000000  1.0
  Mn  Mn13  1  1.60091568  1.39908432  1.50000000  1.0
  Mn  Mn14  1  0.39908432  0.89908432  0.79816863  1.0
  Mn  Mn15  1  0.89908432  1.39908432  0.79816863  1.0
  Sn  Sn16  1  0.50000000  0.78852670  0.28852670  1.0
  Sn  Sn17  1  0.78852670  0.50000000  1.28852670  1.0
  Sn  Sn18  1  0.21147330  0.50000000  0.71147330  1.0
  Sn  Sn19  1  0.50000000  1.21147330  0.71147330  1.0
  Sn  Sn20  1  0.74922894  0.74922894  0.00000000  1.0
  Sn  Sn21  1  0.25077106  0.25077106  0.00000000  1.0
  Sn  Sn22  1  0.79463787  0.79463787  0.58927573  1.0
  Sn  Sn23  1  1.20536213  0.79463787  1.00000000  1.0
  Sn  Sn24  1  0.79463787  0.20536213  1.00000000  1.0
  Sn  Sn25  1  0.20536213  0.20536213  0.41072427  1.0
  Sn  Sn26  1  0.00000000  0.59555501  0.59555501  1.0
  Sn  Sn27  1  0.59555501  1.00000000  0.59555501  1.0
  Sn  Sn28  1  1.40444499  1.00000000  1.40444499  1.0
  Sn  Sn29  1  0.00000000  0.40444499  0.40444499  1.0
