# generated using pymatgen
data_YAl4NiGe2
_symmetry_space_group_name_H-M   'P 1'
_cell_length_a   10.58732361
_cell_length_b   10.58732361
_cell_length_c   10.58732361
_cell_angle_alpha   22.31590973
_cell_angle_beta   22.31590973
_cell_angle_gamma   22.31590973
_symmetry_Int_Tables_number   1
_chemical_formula_structural   YAl4NiGe2
_chemical_formula_sum   'Y1 Al4 Ni1 Ge2'
_cell_volume   150.05610821
_cell_formula_units_Z   1
loop_
 _symmetry_equiv_pos_site_id
 _symmetry_equiv_pos_as_xyz
  1  'x, y, z'
loop_
 _atom_site_type_symbol
 _atom_site_label
 _atom_site_symmetry_multiplicity
 _atom_site_fract_x
 _atom_site_fract_y
 _atom_site_fract_z
 _atom_site_occupancy
  Y  Y0  1  1.50000000  0.50000000  0.50000000  1.0
  Al  Al1  1  0.92245027  0.92245027  0.92245027  1.0
  Al  Al2  1  1.07754973  1.07754973  0.07754973  1.0
  Al  Al3  1  0.68918664  0.68918664  0.68918664  1.0
  Al  Al4  1  1.31081336  1.31081336  0.31081336  1.0
  Ni  Ni5  1  0.00000000  0.00000000  0.00000000  1.0
  Ge  Ge6  1  0.77701209  0.77701209  0.77701209  1.0
  Ge  Ge7  1  1.22298791  1.22298791  0.22298791  1.0
