# generated using pymatgen
data_Lu2B6W
_symmetry_space_group_name_H-M   'P 1'
_cell_length_a   9.22435415
_cell_length_b   11.58761484
_cell_length_c   3.51373928
_cell_angle_alpha   90.00000000
_cell_angle_beta   90.00000000
_cell_angle_gamma   90.00000000
_symmetry_Int_Tables_number   1
_chemical_formula_structural   Lu2B6W
_chemical_formula_sum   'Lu8 B24 W4'
_cell_volume   375.57748809
_cell_formula_units_Z   4
loop_
 _symmetry_equiv_pos_site_id
 _symmetry_equiv_pos_as_xyz
  1  'x, y, z'
loop_
 _atom_site_type_symbol
 _atom_site_label
 _atom_site_symmetry_multiplicity
 _atom_site_fract_x
 _atom_site_fract_y
 _atom_site_fract_z
 _atom_site_occupancy
  Lu  Lu0  1  0.18012087  0.91375933  0.50000000  1.0
  Lu  Lu1  1  0.68012087  0.58624067  0.50000000  1.0
  Lu  Lu2  1  0.81987913  0.08624067  0.50000000  1.0
  Lu  Lu3  1  0.31987913  0.41375933  0.50000000  1.0
  Lu  Lu4  1  0.05584873  0.62740269  0.50000000  1.0
  Lu  Lu5  1  0.55584873  0.87259731  0.50000000  1.0
  Lu  Lu6  1  0.94415127  0.37259731  0.50000000  1.0
  Lu  Lu7  1  0.44415127  0.12740269  0.50000000  1.0
  B  B8  1  0.44861030  0.56431308  -0.00000000  1.0
  B  B9  1  0.94861030  0.93568692  0.00000000  1.0
  B  B10  1  0.55138970  0.43568692  -0.00000000  1.0
  B  B11  1  0.05138970  0.06431308  0.00000000  1.0
  B  B12  1  0.39996224  0.97208384  0.00000000  1.0
  B  B13  1  0.89996224  0.52791616  0.00000000  1.0
  B  B14  1  0.60003776  0.02791616  0.00000000  1.0
  B  B15  1  0.10003776  0.47208384  0.00000000  1.0
  B  B16  1  0.36894108  0.81822633  0.00000000  1.0
  B  B17  1  0.86894108  0.68177367  -0.00000000  1.0
  B  B18  1  0.63105892  0.18177367  0.00000000  1.0
  B  B19  1  0.13105892  0.31822633  -0.00000000  1.0
  B  B20  1  0.24697325  0.57732150  -0.00000000  1.0
  B  B21  1  0.74697325  0.92267850  0.00000000  1.0
  B  B22  1  0.75302675  0.42267850  -0.00000000  1.0
  B  B23  1  0.25302675  0.07732150  0.00000000  1.0
  B  B24  1  0.20420008  0.73685921  0.00000000  1.0
  B  B25  1  0.70420008  0.76314079  -0.00000000  1.0
  B  B26  1  0.79579992  0.26314079  0.00000000  1.0
  B  B27  1  0.29579992  0.23685921  -0.00000000  1.0
  B  B28  1  0.02261735  0.78754050  0.00000000  1.0
  B  B29  1  0.52261735  0.71245950  -0.00000000  1.0
  B  B30  1  0.97738265  0.21245950  0.00000000  1.0
  B  B31  1  0.47738265  0.28754050  -0.00000000  1.0
  W  W32  1  0.36026916  0.67973834  0.50000000  1.0
  W  W33  1  0.86026916  0.82026166  0.50000000  1.0
  W  W34  1  0.63973084  0.32026166  0.50000000  1.0
  W  W35  1  0.13973084  0.17973834  0.50000000  1.0
