# generated using pymatgen
data_KIn(TeO3)2
_symmetry_space_group_name_H-M   'P 1'
_cell_length_a   13.49380580
_cell_length_b   6.00109244
_cell_length_c   8.58288812
_cell_angle_alpha   90.00000000
_cell_angle_beta   90.00000000
_cell_angle_gamma   90.00000000
_symmetry_Int_Tables_number   1
_chemical_formula_structural   KIn(TeO3)2
_chemical_formula_sum   'K4 In4 Te8 O24'
_cell_volume   695.02147495
_cell_formula_units_Z   4
loop_
 _symmetry_equiv_pos_site_id
 _symmetry_equiv_pos_as_xyz
  1  'x, y, z'
loop_
 _atom_site_type_symbol
 _atom_site_label
 _atom_site_symmetry_multiplicity
 _atom_site_fract_x
 _atom_site_fract_y
 _atom_site_fract_z
 _atom_site_occupancy
  K  K0  1  0.12624530  0.75000000  0.00072825  1.0
  K  K1  1  0.62624530  0.75000000  0.49927175  1.0
  K  K2  1  0.87375470  0.25000000  0.99927175  1.0
  K  K3  1  0.37375470  0.25000000  0.50072825  1.0
  In  In4  1  0.40538425  0.75000000  0.79143643  1.0
  In  In5  1  0.90538425  0.75000000  0.70856357  1.0
  In  In6  1  0.59461575  0.25000000  0.20856357  1.0
  In  In7  1  0.09461575  0.25000000  0.29143643  1.0
  Te  Te8  1  0.42716980  0.75000000  0.20938817  1.0
  Te  Te9  1  0.92716980  0.75000000  0.29061183  1.0
  Te  Te10  1  0.57283020  0.25000000  0.79061183  1.0
  Te  Te11  1  0.07283020  0.25000000  0.70938817  1.0
  Te  Te12  1  0.19587683  0.75000000  0.51299853  1.0
  Te  Te13  1  0.69587683  0.75000000  0.98700147  1.0
  Te  Te14  1  0.80412317  0.25000000  0.48700147  1.0
  Te  Te15  1  0.30412317  0.25000000  0.01299853  1.0
  O  O16  1  0.50515700  0.49751108  0.69351808  1.0
  O  O17  1  0.50515700  0.00248892  0.69351808  1.0
  O  O18  1  0.00515700  0.49751108  0.80648192  1.0
  O  O19  1  0.00515700  0.00248892  0.80648192  1.0
  O  O20  1  0.49484300  0.99751108  0.30648192  1.0
  O  O21  1  0.49484300  0.50248892  0.30648192  1.0
  O  O22  1  0.99484300  0.99751108  0.19351808  1.0
  O  O23  1  0.99484300  0.50248892  0.19351808  1.0
  O  O24  1  0.29579372  0.50119402  0.87020494  1.0
  O  O25  1  0.29579372  -0.00119402  0.87020494  1.0
  O  O26  1  0.79579372  0.50119402  0.62979506  1.0
  O  O27  1  0.79579372  -0.00119402  0.62979506  1.0
  O  O28  1  0.70420628  1.00119402  0.12979506  1.0
  O  O29  1  0.70420628  0.49880598  0.12979506  1.0
  O  O30  1  0.20420628  1.00119402  0.37020494  1.0
  O  O31  1  0.20420628  0.49880598  0.37020494  1.0
  O  O32  1  0.49267809  0.75000000  0.00714834  1.0
  O  O33  1  0.99267809  0.75000000  0.49285166  1.0
  O  O34  1  0.50732191  0.25000000  0.99285166  1.0
  O  O35  1  0.00732191  0.25000000  0.50714834  1.0
  O  O36  1  0.33789667  0.75000000  0.55838185  1.0
  O  O37  1  0.83789667  0.75000000  0.94161815  1.0
  O  O38  1  0.66210333  0.25000000  0.44161815  1.0
  O  O39  1  0.16210333  0.25000000  0.05838185  1.0
