# generated using pymatgen
data_ZrCl3
_symmetry_space_group_name_H-M   'P 1'
_cell_length_a   6.25460430
_cell_length_b   6.25460430
_cell_length_c   7.16101635
_cell_angle_alpha   90.00000000
_cell_angle_beta   90.00000000
_cell_angle_gamma   120.00000000
_symmetry_Int_Tables_number   1
_chemical_formula_structural   ZrCl3
_chemical_formula_sum   'Zr2 Cl6'
_cell_volume   242.60792020
_cell_formula_units_Z   2
loop_
 _symmetry_equiv_pos_site_id
 _symmetry_equiv_pos_as_xyz
  1  'x, y, z'
loop_
 _atom_site_type_symbol
 _atom_site_label
 _atom_site_symmetry_multiplicity
 _atom_site_fract_x
 _atom_site_fract_y
 _atom_site_fract_z
 _atom_site_occupancy
  Zr  Zr0  1  0.33333333  0.66666667  0.00000000  1.0
  Zr  Zr1  1  0.66666667  0.33333333  0.00000000  1.0
  Cl  Cl2  1  0.66054253  0.00000000  0.78957084  1.0
  Cl  Cl3  1  0.33945747  0.33945747  0.78957084  1.0
  Cl  Cl4  1  0.00000000  0.66054253  0.78957084  1.0
  Cl  Cl5  1  0.33945747  0.00000000  0.21042916  1.0
  Cl  Cl6  1  0.66054253  0.66054253  0.21042916  1.0
  Cl  Cl7  1  -0.00000000  0.33945747  0.21042916  1.0
