# generated using pymatgen
data_Sc2InCu2
_symmetry_space_group_name_H-M   'P 1'
_cell_length_a   7.29113719
_cell_length_b   7.29113719
_cell_length_c   6.84686973
_cell_angle_alpha   90.00000000
_cell_angle_beta   90.00000000
_cell_angle_gamma   90.00000000
_symmetry_Int_Tables_number   1
_chemical_formula_structural   Sc2InCu2
_chemical_formula_sum   'Sc8 In4 Cu8'
_cell_volume   363.98426146
_cell_formula_units_Z   4
loop_
 _symmetry_equiv_pos_site_id
 _symmetry_equiv_pos_as_xyz
  1  'x, y, z'
loop_
 _atom_site_type_symbol
 _atom_site_label
 _atom_site_symmetry_multiplicity
 _atom_site_fract_x
 _atom_site_fract_y
 _atom_site_fract_z
 _atom_site_occupancy
  Sc  Sc0  1  0.18344921  0.18344921  0.50000000  1.0
  Sc  Sc1  1  0.68344921  0.31655079  0.00000000  1.0
  Sc  Sc2  1  0.81655079  0.81655079  0.50000000  1.0
  Sc  Sc3  1  0.31655079  0.68344921  0.00000000  1.0
  Sc  Sc4  1  0.34310402  0.65689598  0.50000000  1.0
  Sc  Sc5  1  0.84310402  0.84310402  0.00000000  1.0
  Sc  Sc6  1  0.65689598  0.34310402  0.50000000  1.0
  Sc  Sc7  1  0.15689598  0.15689598  0.00000000  1.0
  In  In8  1  0.50000000  0.00000000  0.25000000  1.0
  In  In9  1  0.50000000  0.00000000  0.75000000  1.0
  In  In10  1  0.00000000  0.50000000  0.75000000  1.0
  In  In11  1  0.00000000  0.50000000  0.25000000  1.0
  Cu  Cu12  1  0.12258576  0.87741424  0.28148534  1.0
  Cu  Cu13  1  0.12258576  0.87741424  0.71851466  1.0
  Cu  Cu14  1  0.62258576  0.62258576  0.78148534  1.0
  Cu  Cu15  1  0.62258576  0.62258576  0.21851466  1.0
  Cu  Cu16  1  0.87741424  0.12258576  0.28148534  1.0
  Cu  Cu17  1  0.87741424  0.12258576  0.71851466  1.0
  Cu  Cu18  1  0.37741424  0.37741424  0.78148534  1.0
  Cu  Cu19  1  0.37741424  0.37741424  0.21851466  1.0
