# generated using pymatgen
data_Y2MoO6
_symmetry_space_group_name_H-M   'P 1'
_cell_length_a   9.97197037
_cell_length_b   9.97197037
_cell_length_c   5.39435450
_cell_angle_alpha   74.57802265
_cell_angle_beta   105.42197735
_cell_angle_gamma   112.15693794
_symmetry_Int_Tables_number   1
_chemical_formula_structural   Y2MoO6
_chemical_formula_sum   'Y8 Mo4 O24'
_cell_volume   470.60176641
_cell_formula_units_Z   4
loop_
 _symmetry_equiv_pos_site_id
 _symmetry_equiv_pos_as_xyz
  1  'x, y, z'
loop_
 _atom_site_type_symbol
 _atom_site_label
 _atom_site_symmetry_multiplicity
 _atom_site_fract_x
 _atom_site_fract_y
 _atom_site_fract_z
 _atom_site_occupancy
  Y  Y0  1  1.71710497  0.05013242  0.62300336  1.0
  Y  Y1  1  0.94986758  -0.71710497  0.12300336  1.0
  Y  Y2  1  1.05013242  0.71710497  0.87699664  1.0
  Y  Y3  1  0.28289503  -0.05013242  0.37699664  1.0
  Y  Y4  1  0.63748448  -0.36251552  0.75000000  1.0
  Y  Y5  1  1.36251552  0.36251552  0.25000000  1.0
  Y  Y6  1  1.10706517  0.10706517  0.75000000  1.0
  Y  Y7  1  0.89293483  -0.10706517  0.25000000  1.0
  Mo  Mo8  1  1.51551637  0.20597044  0.94137354  1.0
  Mo  Mo9  1  0.79402956  -0.51551637  0.44137354  1.0
  Mo  Mo10  1  1.20597044  0.51551637  0.55862646  1.0
  Mo  Mo11  1  0.48448363  -0.20597044  0.05862646  1.0
  O  O12  1  0.69506788  -0.16387819  0.91454193  1.0
  O  O13  1  1.16387819  0.30493212  0.41454193  1.0
  O  O14  1  0.83612181  -0.30493212  0.58545807  1.0
  O  O15  1  1.30493212  0.16387819  0.08545807  1.0
  O  O16  1  1.88940661  0.07249504  0.42158965  1.0
  O  O17  1  0.92750496  -0.88940661  0.92158965  1.0
  O  O18  1  1.07249504  0.88940661  0.07841035  1.0
  O  O19  1  0.11059339  -0.07249504  0.57841035  1.0
  O  O20  1  0.47618185  -0.07130830  0.75460254  1.0
  O  O21  1  1.07130830  0.52381815  0.25460254  1.0
  O  O22  1  0.92869170  -0.52381815  0.74539746  1.0
  O  O23  1  1.52381815  0.07130830  0.24539746  1.0
  O  O24  1  1.68284552  0.21028531  0.86568573  1.0
  O  O25  1  0.78971469  -0.68284552  0.36568573  1.0
  O  O26  1  1.21028531  0.68284552  0.63431427  1.0
  O  O27  1  0.31715448  -0.21028531  0.13431427  1.0
  O  O28  1  1.38640171  0.17263004  0.63790810  1.0
  O  O29  1  0.82736996  -0.38640171  0.13790810  1.0
  O  O30  1  1.17263004  0.38640171  0.86209190  1.0
  O  O31  1  0.61359829  -0.17263004  0.36209190  1.0
  O  O32  1  1.54899300  0.38886100  0.98549949  1.0
  O  O33  1  0.61113900  -0.54899300  0.48549949  1.0
  O  O34  1  1.38886100  0.54899300  0.51450051  1.0
  O  O35  1  0.45100700  -0.38886100  0.01450051  1.0
