# generated using pymatgen
data_Ti(SeO3)2
_symmetry_space_group_name_H-M   'P 1'
_cell_length_a   4.88937984
_cell_length_b   8.46114905
_cell_length_c   7.10622081
_cell_angle_alpha   90.00000000
_cell_angle_beta   112.58279934
_cell_angle_gamma   90.00000000
_symmetry_Int_Tables_number   1
_chemical_formula_structural   Ti(SeO3)2
_chemical_formula_sum   'Ti2 Se4 O12'
_cell_volume   271.44176583
_cell_formula_units_Z   2
loop_
 _symmetry_equiv_pos_site_id
 _symmetry_equiv_pos_as_xyz
  1  'x, y, z'
loop_
 _atom_site_type_symbol
 _atom_site_label
 _atom_site_symmetry_multiplicity
 _atom_site_fract_x
 _atom_site_fract_y
 _atom_site_fract_z
 _atom_site_occupancy
  Ti  Ti0  1  -0.00000000  0.50000000  0.50000000  1.0
  Ti  Ti1  1  -0.00000000  0.00000000  -0.00000000  1.0
  Se  Se2  1  0.64087594  0.14639511  0.31000858  1.0
  Se  Se3  1  0.64087594  0.35360489  0.81000858  1.0
  Se  Se4  1  0.35912406  0.64639511  0.18999142  1.0
  Se  Se5  1  0.35912406  0.85360489  0.68999142  1.0
  O  O6  1  0.90188963  0.06252562  0.23537185  1.0
  O  O7  1  0.90188963  0.43747438  0.73537185  1.0
  O  O8  1  0.09811037  0.56252562  0.26462815  1.0
  O  O9  1  0.09811037  0.93747438  0.76462815  1.0
  O  O10  1  0.73656934  0.34467821  0.31906722  1.0
  O  O11  1  0.73656934  0.15532179  0.81906722  1.0
  O  O12  1  0.26343066  0.84467821  0.18093278  1.0
  O  O13  1  0.26343066  0.65532179  0.68093278  1.0
  O  O14  1  0.32968078  0.15499526  0.08714984  1.0
  O  O15  1  0.32968078  0.34500474  0.58714984  1.0
  O  O16  1  0.67031922  0.65499526  0.41285016  1.0
  O  O17  1  0.67031922  0.84500474  0.91285016  1.0
