# generated using pymatgen
data_Nb3Ge
_symmetry_space_group_name_H-M   'P 1'
_cell_length_a   10.34054678
_cell_length_b   10.34054678
_cell_length_c   5.26320485
_cell_angle_alpha   90.00000000
_cell_angle_beta   90.00000000
_cell_angle_gamma   90.00000000
_symmetry_Int_Tables_number   1
_chemical_formula_structural   Nb3Ge
_chemical_formula_sum   'Nb24 Ge8'
_cell_volume   562.77821946
_cell_formula_units_Z   8
loop_
 _symmetry_equiv_pos_site_id
 _symmetry_equiv_pos_as_xyz
  1  'x, y, z'
loop_
 _atom_site_type_symbol
 _atom_site_label
 _atom_site_symmetry_multiplicity
 _atom_site_fract_x
 _atom_site_fract_y
 _atom_site_fract_z
 _atom_site_occupancy
  Nb  Nb0  1  0.59546998  0.91609334  0.53549128  1.0
  Nb  Nb1  1  0.40453002  0.08390666  0.53549128  1.0
  Nb  Nb2  1  0.41609334  0.90453002  0.03549128  1.0
  Nb  Nb3  1  0.58390666  0.09546998  0.03549128  1.0
  Nb  Nb4  1  0.90453002  0.58390666  0.96450872  1.0
  Nb  Nb5  1  0.09546998  0.41609334  0.96450872  1.0
  Nb  Nb6  1  0.08390666  0.59546998  0.46450872  1.0
  Nb  Nb7  1  0.91609334  0.40453002  0.46450872  1.0
  Nb  Nb8  1  0.98422291  0.85150385  0.72158449  1.0
  Nb  Nb9  1  0.01577709  0.14849615  0.72158449  1.0
  Nb  Nb10  1  0.35150385  0.51577709  0.22158449  1.0
  Nb  Nb11  1  0.64849615  0.48422291  0.22158449  1.0
  Nb  Nb12  1  0.51577709  0.64849615  0.77841551  1.0
  Nb  Nb13  1  0.48422291  0.35150385  0.77841551  1.0
  Nb  Nb14  1  0.14849615  0.98422291  0.27841551  1.0
  Nb  Nb15  1  0.85150385  0.01577709  0.27841551  1.0
  Nb  Nb16  1  0.71299266  0.80927788  0.01472269  1.0
  Nb  Nb17  1  0.28700734  0.19072212  0.01472269  1.0
  Nb  Nb18  1  0.30927788  0.78700734  0.51472269  1.0
  Nb  Nb19  1  0.69072212  0.21299266  0.51472269  1.0
  Nb  Nb20  1  0.78700734  0.69072212  0.48527731  1.0
  Nb  Nb21  1  0.21299266  0.30927788  0.48527731  1.0
  Nb  Nb22  1  0.19072212  0.71299266  0.98527731  1.0
  Nb  Nb23  1  0.80927788  0.28700734  0.98527731  1.0
  Ge  Ge24  1  0.97323155  0.79515656  0.21749081  1.0
  Ge  Ge25  1  0.02676845  0.20484344  0.21749081  1.0
  Ge  Ge26  1  0.29515656  0.52676845  0.71749081  1.0
  Ge  Ge27  1  0.70484344  0.47323155  0.71749081  1.0
  Ge  Ge28  1  0.52676845  0.70484344  0.28250919  1.0
  Ge  Ge29  1  0.47323155  0.29515656  0.28250919  1.0
  Ge  Ge30  1  0.20484344  0.97323155  0.78250919  1.0
  Ge  Ge31  1  0.79515656  0.02676845  0.78250919  1.0
