# generated using pymatgen
data_K2Zn3O4
_symmetry_space_group_name_H-M   'P 1'
_cell_length_a   8.16769177
_cell_length_b   8.16769177
_cell_length_c   5.81717431
_cell_angle_alpha   77.83018504
_cell_angle_beta   102.16981496
_cell_angle_gamma   133.37359170
_symmetry_Int_Tables_number   1
_chemical_formula_structural   K2Zn3O4
_chemical_formula_sum   'K4 Zn6 O8'
_cell_volume   274.55248789
_cell_formula_units_Z   2
loop_
 _symmetry_equiv_pos_site_id
 _symmetry_equiv_pos_as_xyz
  1  'x, y, z'
loop_
 _atom_site_type_symbol
 _atom_site_label
 _atom_site_symmetry_multiplicity
 _atom_site_fract_x
 _atom_site_fract_y
 _atom_site_fract_z
 _atom_site_occupancy
  K  K0  1  0.75477308  -0.00627264  0.01209318  1.0
  K  K1  1  1.00627264  0.24522692  0.51209318  1.0
  K  K2  1  0.99372736  0.75477308  0.48790682  1.0
  K  K3  1  0.24522692  0.00627264  0.98790682  1.0
  Zn  Zn4  1  0.42648273  -0.19111246  0.41520705  1.0
  Zn  Zn5  1  1.19111246  0.57351727  0.91520705  1.0
  Zn  Zn6  1  0.80888754  0.42648273  0.08479295  1.0
  Zn  Zn7  1  0.57351727  0.19111246  0.58479295  1.0
  Zn  Zn8  1  0.48007284  0.48007284  0.25000000  1.0
  Zn  Zn9  1  0.51992716  0.51992716  0.75000000  1.0
  O  O10  1  0.61509716  0.14221323  0.28696844  1.0
  O  O11  1  0.85778677  0.38490284  0.78696844  1.0
  O  O12  1  1.14221323  0.61509716  0.21303156  1.0
  O  O13  1  0.38490284  -0.14221323  0.71303156  1.0
  O  O14  1  0.61829329  -0.26475818  0.45500387  1.0
  O  O15  1  1.26475818  0.38170671  0.95500387  1.0
  O  O16  1  0.73524182  0.61829329  0.04499613  1.0
  O  O17  1  0.38170671  0.26475818  0.54499613  1.0
