# generated using pymatgen
data_LiH3O2
_symmetry_space_group_name_H-M   'P 1'
_cell_length_a   5.59912166
_cell_length_b   5.59912166
_cell_length_c   3.23330233
_cell_angle_alpha   75.74102475
_cell_angle_beta   104.25897525
_cell_angle_gamma   84.39123863
_symmetry_Int_Tables_number   1
_chemical_formula_structural   LiH3O2
_chemical_formula_sum   'Li2 H6 O4'
_cell_volume   93.85159177
_cell_formula_units_Z   2
loop_
 _symmetry_equiv_pos_site_id
 _symmetry_equiv_pos_as_xyz
  1  'x, y, z'
loop_
 _atom_site_type_symbol
 _atom_site_label
 _atom_site_symmetry_multiplicity
 _atom_site_fract_x
 _atom_site_fract_y
 _atom_site_fract_z
 _atom_site_occupancy
  Li  Li0  1  0.84592808  -0.15407192  -0.00000000  1.0
  Li  Li1  1  1.15407192  0.15407192  -0.00000000  1.0
  H  H2  1  1.48133136  0.25532715  0.63563478  1.0
  H  H3  1  0.74467285  -0.48133136  0.63563478  1.0
  H  H4  1  1.25532715  0.48133136  0.36436522  1.0
  H  H5  1  0.51866864  -0.25532715  0.36436522  1.0
  H  H6  1  0.23287329  -0.23287329  0.83673635  1.0
  H  H7  1  0.76712671  -0.76712671  0.16326365  1.0
  O  O8  1  0.78512742  -0.78512742  0.87947575  1.0
  O  O9  1  0.21487258  -0.21487258  0.12052425  1.0
  O  O10  1  0.70727109  -0.29272891  0.50000000  1.0
  O  O11  1  1.29272891  0.29272891  0.50000000  1.0
