# generated using pymatgen
data_BaHf(PO4)2
_symmetry_space_group_name_H-M   'P 1'
_cell_length_a   5.30900862
_cell_length_b   5.30900862
_cell_length_c   7.64699953
_cell_angle_alpha   90.00000000
_cell_angle_beta   90.00000000
_cell_angle_gamma   120.00000000
_symmetry_Int_Tables_number   1
_chemical_formula_structural   BaHf(PO4)2
_chemical_formula_sum   'Ba1 Hf1 P2 O8'
_cell_volume   186.65883715
_cell_formula_units_Z   1
loop_
 _symmetry_equiv_pos_site_id
 _symmetry_equiv_pos_as_xyz
  1  'x, y, z'
loop_
 _atom_site_type_symbol
 _atom_site_label
 _atom_site_symmetry_multiplicity
 _atom_site_fract_x
 _atom_site_fract_y
 _atom_site_fract_z
 _atom_site_occupancy
  Ba  Ba0  1  0.00000000  0.00000000  0.00000000  1.0
  Hf  Hf1  1  0.00000000  0.00000000  0.50000000  1.0
  P  P2  1  0.33333333  0.66666667  0.25935236  1.0
  P  P3  1  0.66666667  0.33333333  0.74064764  1.0
  O  O4  1  0.65078259  0.82539129  0.33150058  1.0
  O  O5  1  0.82539129  0.65078259  0.66849942  1.0
  O  O6  1  0.82539129  0.17460871  0.66849942  1.0
  O  O7  1  0.17460871  0.82539129  0.33150058  1.0
  O  O8  1  0.17460871  0.34921741  0.33150058  1.0
  O  O9  1  0.34921741  0.17460871  0.66849942  1.0
  O  O10  1  0.33333333  0.66666667  0.06022027  1.0
  O  O11  1  0.66666667  0.33333333  0.93977973  1.0
