# generated using pymatgen
data_C3N2
_symmetry_space_group_name_H-M   'P 1'
_cell_length_a   8.81391420
_cell_length_b   8.81391420
_cell_length_c   8.81391420
_cell_angle_alpha   109.47122063
_cell_angle_beta   109.47122063
_cell_angle_gamma   109.47122063
_symmetry_Int_Tables_number   1
_chemical_formula_structural   C3N2
_chemical_formula_sum   'C18 N12'
_cell_volume   527.08974341
_cell_formula_units_Z   6
loop_
 _symmetry_equiv_pos_site_id
 _symmetry_equiv_pos_as_xyz
  1  'x, y, z'
loop_
 _atom_site_type_symbol
 _atom_site_label
 _atom_site_symmetry_multiplicity
 _atom_site_fract_x
 _atom_site_fract_y
 _atom_site_fract_z
 _atom_site_occupancy
  C  C0  1  0.88123053  1.35831608  1.23954661  1.0
  C  C1  1  0.88123053  0.64168392  0.52291446  1.0
  C  C2  1  0.11876947  0.35831608  0.47708554  1.0
  C  C3  1  0.11876947  0.64168392  0.76045339  1.0
  C  C4  1  0.52291446  0.88123053  0.64168392  1.0
  C  C5  1  1.23954661  0.88123053  1.35831608  1.0
  C  C6  1  0.64168392  0.76045339  0.11876947  1.0
  C  C7  1  0.64168392  0.52291446  0.88123053  1.0
  C  C8  1  0.76045339  0.11876947  0.64168392  1.0
  C  C9  1  0.47708554  0.11876947  0.35831608  1.0
  C  C10  1  0.35831608  0.47708554  0.11876947  1.0
  C  C11  1  1.35831608  1.23954661  0.88123053  1.0
  C  C12  1  0.56773472  0.56773472  0.00000000  1.0
  C  C13  1  -0.00000000  0.43226528  0.43226528  1.0
  C  C14  1  -0.00000000  0.56773472  0.56773472  1.0
  C  C15  1  0.56773472  -0.00000000  0.56773472  1.0
  C  C16  1  0.43226528  -0.00000000  0.43226528  1.0
  C  C17  1  0.43226528  0.43226528  0.00000000  1.0
  N  N18  1  0.78587663  1.29512290  1.08099953  1.0
  N  N19  1  0.78587663  0.70487710  0.49075373  1.0
  N  N20  1  0.21412337  0.29512290  0.50924627  1.0
  N  N21  1  0.21412337  0.70487710  0.91900047  1.0
  N  N22  1  0.49075373  0.78587663  0.70487710  1.0
  N  N23  1  1.08099953  0.78587663  1.29512290  1.0
  N  N24  1  0.70487710  0.91900047  0.21412337  1.0
  N  N25  1  0.70487710  0.49075373  0.78587663  1.0
  N  N26  1  0.91900047  0.21412337  0.70487710  1.0
  N  N27  1  0.50924627  0.21412337  0.29512290  1.0
  N  N28  1  0.29512290  0.50924627  0.21412337  1.0
  N  N29  1  1.29512290  1.08099953  0.78587663  1.0
