# generated using pymatgen
data_Co2TeSO8
_symmetry_space_group_name_H-M   'P 1'
_cell_length_a   7.38230375
_cell_length_b   9.59899171
_cell_length_c   8.39579990
_cell_angle_alpha   90.00000000
_cell_angle_beta   90.00000000
_cell_angle_gamma   90.00000000
_symmetry_Int_Tables_number   1
_chemical_formula_structural   Co2TeSO8
_chemical_formula_sum   'Co8 Te4 S4 O32'
_cell_volume   594.94881829
_cell_formula_units_Z   4
loop_
 _symmetry_equiv_pos_site_id
 _symmetry_equiv_pos_as_xyz
  1  'x, y, z'
loop_
 _atom_site_type_symbol
 _atom_site_label
 _atom_site_symmetry_multiplicity
 _atom_site_fract_x
 _atom_site_fract_y
 _atom_site_fract_z
 _atom_site_occupancy
  Co  Co0  1  0.67843699  0.41527565  0.44955794  1.0
  Co  Co1  1  0.67843699  0.41527565  0.05044206  1.0
  Co  Co2  1  0.67843699  0.08472435  0.94955794  1.0
  Co  Co3  1  0.67843699  0.08472435  0.55044206  1.0
  Co  Co4  1  0.32156301  0.91527565  0.44955794  1.0
  Co  Co5  1  0.32156301  0.91527565  0.05044206  1.0
  Co  Co6  1  0.32156301  0.58472435  0.94955794  1.0
  Co  Co7  1  0.32156301  0.58472435  0.55044206  1.0
  O  O8  1  0.84009432  0.98906128  0.39348927  1.0
  O  O9  1  0.84009432  0.98906128  0.10651073  1.0
  O  O10  1  0.84009432  0.51093872  0.89348927  1.0
  O  O11  1  0.84009432  0.51093872  0.60651073  1.0
  O  O12  1  0.15990568  0.48906128  0.39348927  1.0
  O  O13  1  0.15990568  0.48906128  0.10651073  1.0
  O  O14  1  0.15990568  0.01093872  0.89348927  1.0
  O  O15  1  0.15990568  0.01093872  0.60651073  1.0
  O  O16  1  0.74578320  0.25000000  0.50000000  1.0
  O  O17  1  0.74578320  0.25000000  0.00000000  1.0
  O  O18  1  0.25421680  0.75000000  0.50000000  1.0
  O  O19  1  0.25421680  0.75000000  -0.00000000  1.0
  O  O20  1  0.56178374  0.35280925  0.25000000  1.0
  O  O21  1  0.56178374  0.14719075  0.75000000  1.0
  O  O22  1  0.43821626  0.85280925  0.25000000  1.0
  O  O23  1  0.43821626  0.64719075  0.75000000  1.0
  O  O24  1  0.43039501  0.10128308  0.42653170  1.0
  O  O25  1  0.43039501  0.10128308  0.07346830  1.0
  O  O26  1  0.43039501  0.39871692  0.92653170  1.0
  O  O27  1  0.43039501  0.39871692  0.57346830  1.0
  O  O28  1  0.56960499  0.60128308  0.42653170  1.0
  O  O29  1  0.56960499  0.60128308  0.07346830  1.0
  O  O30  1  0.56960499  0.89871692  0.92653170  1.0
  O  O31  1  0.56960499  0.89871692  0.57346830  1.0
  O  O32  1  0.87214090  0.47397526  0.25000000  1.0
  O  O33  1  0.87214090  0.02602474  0.75000000  1.0
  O  O34  1  0.12785910  0.97397526  0.25000000  1.0
  O  O35  1  0.12785910  0.52602474  0.75000000  1.0
  O  O36  1  0.96652092  0.19382763  0.25000000  1.0
  O  O37  1  0.96652092  0.30617237  0.75000000  1.0
  O  O38  1  0.03347908  0.69382763  0.25000000  1.0
  O  O39  1  0.03347908  0.80617237  0.75000000  1.0
  S  S40  1  0.94195126  0.04353346  0.25000000  1.0
  S  S41  1  0.94195126  0.45646654  0.75000000  1.0
  S  S42  1  0.05804874  0.54353346  0.25000000  1.0
  S  S43  1  0.05804874  0.95646654  0.75000000  1.0
  Te  Te44  1  0.35085048  0.22526235  0.25000000  1.0
  Te  Te45  1  0.35085048  0.27473765  0.75000000  1.0
  Te  Te46  1  0.64914952  0.72526235  0.25000000  1.0
  Te  Te47  1  0.64914952  0.77473765  0.75000000  1.0
