# generated using pymatgen
data_H2Pb3O4
_symmetry_space_group_name_H-M   'P 1'
_cell_length_a   8.47497431
_cell_length_b   8.47497431
_cell_length_c   9.38313445
_cell_angle_alpha   90.00000000
_cell_angle_beta   90.00000000
_cell_angle_gamma   90.00000000
_symmetry_Int_Tables_number   1
_chemical_formula_structural   H2Pb3O4
_chemical_formula_sum   'H8 Pb12 O16'
_cell_volume   673.94541033
_cell_formula_units_Z   4
loop_
 _symmetry_equiv_pos_site_id
 _symmetry_equiv_pos_as_xyz
  1  'x, y, z'
loop_
 _atom_site_type_symbol
 _atom_site_label
 _atom_site_symmetry_multiplicity
 _atom_site_fract_x
 _atom_site_fract_y
 _atom_site_fract_z
 _atom_site_occupancy
  H  H0  1  0.17603830  0.30977038  0.25901972  1.0
  H  H1  1  0.32396170  0.80977038  0.24098028  1.0
  H  H2  1  0.69022962  0.17603830  0.74098028  1.0
  H  H3  1  0.80977038  0.67603830  0.75901972  1.0
  H  H4  1  0.82396170  0.69022962  0.25901972  1.0
  H  H5  1  0.67603830  0.19022962  0.24098028  1.0
  H  H6  1  0.30977038  0.82396170  0.74098028  1.0
  H  H7  1  0.19022962  0.32396170  0.75901972  1.0
  Pb  Pb8  1  0.29593292  0.10565768  0.49617102  1.0
  Pb  Pb9  1  0.20406708  0.60565768  0.00382898  1.0
  Pb  Pb10  1  0.89434232  0.29593292  0.50382898  1.0
  Pb  Pb11  1  0.60565768  0.79593292  0.99617102  1.0
  Pb  Pb12  1  0.70406708  0.89434232  0.49617102  1.0
  Pb  Pb13  1  0.79593292  0.39434232  0.00382898  1.0
  Pb  Pb14  1  0.10565768  0.70406708  0.50382898  1.0
  Pb  Pb15  1  0.39434232  0.20406708  0.99617102  1.0
  Pb  Pb16  1  0.50000000  0.50000000  0.28078102  1.0
  Pb  Pb17  1  0.00000000  0.00000000  0.21921898  1.0
  Pb  Pb18  1  0.50000000  0.50000000  0.71921898  1.0
  Pb  Pb19  1  0.00000000  0.00000000  0.78078102  1.0
  O  O20  1  0.31497970  0.40918510  0.12959192  1.0
  O  O21  1  0.18502030  0.90918510  0.37040808  1.0
  O  O22  1  0.59081490  0.31497970  0.87040808  1.0
  O  O23  1  0.90918510  0.81497970  0.62959192  1.0
  O  O24  1  0.68502030  0.59081490  0.12959192  1.0
  O  O25  1  0.81497970  0.09081490  0.37040808  1.0
  O  O26  1  0.40918510  0.68502030  0.87040808  1.0
  O  O27  1  0.09081490  0.18502030  0.62959192  1.0
  O  O28  1  0.11991295  0.24005696  0.32726776  1.0
  O  O29  1  0.38008705  0.74005696  0.17273224  1.0
  O  O30  1  0.75994304  0.11991295  0.67273224  1.0
  O  O31  1  0.74005696  0.61991295  0.82726776  1.0
  O  O32  1  0.88008705  0.75994304  0.32726776  1.0
  O  O33  1  0.61991295  0.25994304  0.17273224  1.0
  O  O34  1  0.24005696  0.88008705  0.67273224  1.0
  O  O35  1  0.25994304  0.38008705  0.82726776  1.0
