# generated using pymatgen
data_LaNbO4
_symmetry_space_group_name_H-M   'P 1'
_cell_length_a   7.70098585
_cell_length_b   7.70098585
_cell_length_c   5.71191425
_cell_angle_alpha   90.00000000
_cell_angle_beta   90.00000000
_cell_angle_gamma   150.19945215
_symmetry_Int_Tables_number   1
_chemical_formula_structural   LaNbO4
_chemical_formula_sum   'La2 Nb2 O8'
_cell_volume   168.35081155
_cell_formula_units_Z   2
loop_
 _symmetry_equiv_pos_site_id
 _symmetry_equiv_pos_as_xyz
  1  'x, y, z'
loop_
 _atom_site_type_symbol
 _atom_site_label
 _atom_site_symmetry_multiplicity
 _atom_site_fract_x
 _atom_site_fract_y
 _atom_site_fract_z
 _atom_site_occupancy
  La  La0  1  -0.67364316  0.67364316  0.07562735  1.0
  La  La1  1  -0.32635684  1.32635684  0.57562735  1.0
  Nb  Nb2  1  -0.91553031  0.91553031  0.12745130  1.0
  Nb  Nb3  1  -0.08446969  1.08446969  0.62745130  1.0
  O  O4  1  -0.97005098  0.97005098  0.47976489  1.0
  O  O5  1  -0.02994902  1.02994902  -0.02023511  1.0
  O  O6  1  -0.83828256  0.83828256  0.86473008  1.0
  O  O7  1  -0.16171744  1.16171744  0.36473008  1.0
  O  O8  1  -0.80005954  0.80005954  0.33858086  1.0
  O  O9  1  -0.19994046  1.19994046  0.83858086  1.0
  O  O10  1  -0.41238123  1.41238123  0.17354552  1.0
  O  O11  1  -0.58761877  0.58761877  0.67354552  1.0
