# generated using pymatgen
data_BiPO2
_symmetry_space_group_name_H-M   'P 1'
_cell_length_a   7.53494045
_cell_length_b   7.53494045
_cell_length_c   7.53494045
_cell_angle_alpha   129.21700021
_cell_angle_beta   129.21700021
_cell_angle_gamma   74.66166099
_symmetry_Int_Tables_number   1
_chemical_formula_structural   BiPO2
_chemical_formula_sum   'Bi4 P4 O8'
_cell_volume   250.18361135
_cell_formula_units_Z   4
loop_
 _symmetry_equiv_pos_site_id
 _symmetry_equiv_pos_as_xyz
  1  'x, y, z'
loop_
 _atom_site_type_symbol
 _atom_site_label
 _atom_site_symmetry_multiplicity
 _atom_site_fract_x
 _atom_site_fract_y
 _atom_site_fract_z
 _atom_site_occupancy
  Bi  Bi0  1  0.37500000  0.62500000  0.75000000  1.0
  Bi  Bi1  1  0.87500000  0.62500000  1.25000000  1.0
  Bi  Bi2  1  0.37500000  1.12500000  0.75000000  1.0
  Bi  Bi3  1  0.37500000  0.62500000  0.25000000  1.0
  P  P4  1  0.87500000  0.12500000  0.75000000  1.0
  P  P5  1  0.37500000  0.12500000  0.25000000  1.0
  P  P6  1  0.87500000  0.62500000  0.75000000  1.0
  P  P7  1  0.87500000  1.12500000  1.25000000  1.0
  O  O8  1  1.17102705  0.95734906  1.78641053  1.0
  O  O9  1  0.57906148  0.86538349  1.28641053  1.0
  O  O10  1  1.04265094  0.82906148  1.21367799  1.0
  O  O11  1  1.13461651  1.42102705  1.71367799  1.0
  O  O12  1  0.17093852  0.38461651  0.21358947  1.0
  O  O13  1  0.57897295  0.29265094  0.71358947  1.0
  O  O14  1  0.61538349  0.82897295  0.78632201  1.0
  O  O15  1  0.70734906  0.42093852  0.28632201  1.0
