# generated using pymatgen
data_LiAlSiH2O5
_symmetry_space_group_name_H-M   'P 1'
_cell_length_a   10.61837637
_cell_length_b   8.20596670
_cell_length_c   5.01393542
_cell_angle_alpha   90.00000000
_cell_angle_beta   90.00000000
_cell_angle_gamma   90.00000000
_symmetry_Int_Tables_number   1
_chemical_formula_structural   LiAlSiH2O5
_chemical_formula_sum   'Li4 Al4 Si4 H8 O20'
_cell_volume   436.88446402
_cell_formula_units_Z   4
loop_
 _symmetry_equiv_pos_site_id
 _symmetry_equiv_pos_as_xyz
  1  'x, y, z'
loop_
 _atom_site_type_symbol
 _atom_site_label
 _atom_site_symmetry_multiplicity
 _atom_site_fract_x
 _atom_site_fract_y
 _atom_site_fract_z
 _atom_site_occupancy
  Li  Li0  1  0.69370527  0.18872608  0.74007718  1.0
  Li  Li1  1  0.30629473  0.81127392  0.24007718  1.0
  Li  Li2  1  0.80629473  0.68872608  0.24007718  1.0
  Li  Li3  1  0.19370527  0.31127392  0.74007718  1.0
  Al  Al4  1  0.65265124  0.58852044  0.74762940  1.0
  Al  Al5  1  0.34734876  0.41147956  0.24762940  1.0
  Al  Al6  1  0.84734876  0.08852044  0.24762940  1.0
  Al  Al7  1  0.15265124  0.91147956  0.74762940  1.0
  Si  Si8  1  0.85502892  0.87763287  0.74861127  1.0
  Si  Si9  1  0.14497108  0.12236713  0.24861127  1.0
  Si  Si10  1  0.64497108  0.37763287  0.24861127  1.0
  Si  Si11  1  0.35502892  0.62236713  0.74861127  1.0
  H  H12  1  0.01514404  0.66929198  0.09171656  1.0
  H  H13  1  0.98485596  0.33070802  0.59171656  1.0
  H  H14  1  0.48485596  0.16929198  0.59171656  1.0
  H  H15  1  0.51514404  0.83070802  0.09171656  1.0
  H  H16  1  0.01592181  0.54855061  0.34502540  1.0
  H  H17  1  0.98407819  0.45144939  0.84502540  1.0
  H  H18  1  0.48407819  0.04855061  0.84502540  1.0
  H  H19  1  0.51592181  0.95144939  0.34502540  1.0
  O  O20  1  0.50194454  0.66841775  0.81205421  1.0
  O  O21  1  0.49805546  0.33158225  0.31205421  1.0
  O  O22  1  0.99805546  0.16841775  0.31205421  1.0
  O  O23  1  0.00194454  0.83158225  0.81205421  1.0
  O  O24  1  0.76622291  0.72939913  0.86204350  1.0
  O  O25  1  0.23377709  0.27060087  0.36204350  1.0
  O  O26  1  0.73377709  0.22939913  0.36204350  1.0
  O  O27  1  0.26622291  0.77060087  0.86204350  1.0
  O  O28  1  0.68207450  0.54796407  0.40571647  1.0
  O  O29  1  0.31792550  0.45203593  0.90571647  1.0
  O  O30  1  0.81792550  0.04796407  0.90571647  1.0
  O  O31  1  0.18207450  0.95203593  0.40571647  1.0
  O  O32  1  0.67151439  0.40230452  0.92796626  1.0
  O  O33  1  0.32848561  0.59769548  0.42796626  1.0
  O  O34  1  0.82848561  0.90230452  0.42796626  1.0
  O  O35  1  0.17151439  0.09769548  0.92796626  1.0
  O  O36  1  -0.02970241  0.58008264  0.18255974  1.0
  O  O37  1  1.02970241  0.41991736  0.68255974  1.0
  O  O38  1  0.52970241  0.08008264  0.68255974  1.0
  O  O39  1  0.47029759  0.91991736  0.18255974  1.0
