# generated using pymatgen
data_KH3O2
_symmetry_space_group_name_H-M   'P 1'
_cell_length_a   5.95313613
_cell_length_b   5.80092876
_cell_length_c   8.03000481
_cell_angle_alpha   90.00000000
_cell_angle_beta   109.61550011
_cell_angle_gamma   90.00000000
_symmetry_Int_Tables_number   1
_chemical_formula_structural   KH3O2
_chemical_formula_sum   'K4 H12 O8'
_cell_volume   261.21293969
_cell_formula_units_Z   4
loop_
 _symmetry_equiv_pos_site_id
 _symmetry_equiv_pos_as_xyz
  1  'x, y, z'
loop_
 _atom_site_type_symbol
 _atom_site_label
 _atom_site_symmetry_multiplicity
 _atom_site_fract_x
 _atom_site_fract_y
 _atom_site_fract_z
 _atom_site_occupancy
  K  K0  1  0.69525988  0.24581100  0.92302873  1.0
  K  K1  1  0.69525988  0.25418900  0.42302873  1.0
  K  K2  1  0.30474012  0.74581100  0.57697127  1.0
  K  K3  1  0.30474012  0.75418900  0.07697127  1.0
  H  H4  1  0.77522405  0.77707304  0.84567949  1.0
  H  H5  1  0.77522405  0.72292696  0.34567949  1.0
  H  H6  1  0.22477595  0.27707304  0.65432051  1.0
  H  H7  1  0.22477595  0.22292696  0.15432051  1.0
  H  H8  1  0.98426567  0.50875301  0.24620835  1.0
  H  H9  1  0.98426567  -0.00875301  0.74620835  1.0
  H  H10  1  0.01573433  1.00875301  0.25379165  1.0
  H  H11  1  0.01573433  0.49124699  0.75379165  1.0
  H  H12  1  0.77526165  0.78275771  0.54296776  1.0
  H  H13  1  0.77526165  0.71724229  0.04296776  1.0
  H  H14  1  0.22473835  0.28275771  0.95703224  1.0
  H  H15  1  0.22473835  0.21724229  0.45703224  1.0
  O  O16  1  0.94912634  0.82573668  0.73794114  1.0
  O  O17  1  0.94912634  0.67426332  0.23794114  1.0
  O  O18  1  0.05087366  0.32573668  0.76205886  1.0
  O  O19  1  0.05087366  0.17426332  0.26205886  1.0
  O  O20  1  0.66167343  0.74536019  0.91573273  1.0
  O  O21  1  0.66167343  0.75463981  0.41573273  1.0
  O  O22  1  0.33832657  0.24536019  0.58426727  1.0
  O  O23  1  0.33832657  0.25463981  0.08426727  1.0
