# generated using pymatgen
data_MnAl2P2(HO)18
_symmetry_space_group_name_H-M   'P 1'
_cell_length_a   5.27300391
_cell_length_b   10.71846974
_cell_length_c   7.00846020
_cell_angle_alpha   74.21061129
_cell_angle_beta   69.94777573
_cell_angle_gamma   72.87583871
_symmetry_Int_Tables_number   1
_chemical_formula_structural   MnAl2P2(HO)18
_chemical_formula_sum   'Mn1 Al2 P2 H18 O18'
_cell_volume   349.07891389
_cell_formula_units_Z   1
loop_
 _symmetry_equiv_pos_site_id
 _symmetry_equiv_pos_as_xyz
  1  'x, y, z'
loop_
 _atom_site_type_symbol
 _atom_site_label
 _atom_site_symmetry_multiplicity
 _atom_site_fract_x
 _atom_site_fract_y
 _atom_site_fract_z
 _atom_site_occupancy
  Mn  Mn0  1  0.00000000  -0.50000000  0.50000000  1.0
  Al  Al1  1  -0.00000000  -0.00000000  0.50000000  1.0
  Al  Al2  1  0.00000000  0.00000000  0.00000000  1.0
  P  P3  1  -0.34724682  -0.16375999  0.41780340  1.0
  P  P4  1  0.34724682  -0.83624001  0.58219660  1.0
  H  H5  1  0.40542747  -0.36880165  0.50703025  1.0
  H  H6  1  -0.40542747  -0.63119835  0.49296975  1.0
  H  H7  1  0.71552979  -0.83142926  0.20405270  1.0
  H  H8  1  -0.71552979  -0.16857074  0.79594730  1.0
  H  H9  1  0.59332111  -0.78039858  0.01015252  1.0
  H  H10  1  -0.59332111  -0.21960142  0.98984748  1.0
  H  H11  1  0.09418088  -0.29096117  0.55945452  1.0
  H  H12  1  -0.09418088  -0.70903883  0.44054548  1.0
  H  H13  1  0.22408067  -0.40382160  0.08030276  1.0
  H  H14  1  -0.22408067  -0.59617840  0.91969724  1.0
  H  H15  1  0.24225562  -0.55544466  0.09777831  1.0
  H  H16  1  -0.24225562  -0.44455534  0.90222169  1.0
  H  H17  1  0.72004216  -0.31428059  0.15638855  1.0
  H  H18  1  -0.72004216  -0.68571941  0.84361145  1.0
  H  H19  1  0.17146873  -0.75974207  0.07153340  1.0
  H  H20  1  -0.17146873  -0.24025793  0.92846660  1.0
  H  H21  1  0.34399752  -0.01322834  0.17469439  1.0
  H  H22  1  -0.34399752  -0.98677166  0.82530561  1.0
  O  O23  1  0.77237592  -0.82004565  0.04829939  1.0
  O  O24  1  -0.77237592  -0.17995435  0.95170061  1.0
  O  O25  1  0.21353625  -0.38244140  0.56838754  1.0
  O  O26  1  -0.21353625  -0.61755860  0.43161246  1.0
  O  O27  1  -0.14101176  -0.00329913  0.78972347  1.0
  O  O28  1  0.14101176  -0.99670087  0.21027653  1.0
  O  O29  1  0.24464930  -0.48989315  0.17308323  1.0
  O  O30  1  -0.24464930  -0.51010685  0.82691677  1.0
  O  O31  1  -0.15791968  -0.14949372  0.53603262  1.0
  O  O32  1  0.15791968  -0.85050628  0.46396738  1.0
  O  O33  1  0.70155422  -0.07426667  0.19816357  1.0
  O  O34  1  -0.70155422  -0.92573333  0.80183643  1.0
  O  O35  1  -0.71383484  -0.69606476  0.98878673  1.0
  O  O36  1  0.71383484  -0.30393524  0.01121327  1.0
  O  O37  1  -0.28504350  -0.31261038  0.40023839  1.0
  O  O38  1  0.28504350  -0.68738962  0.59976161  1.0
  O  O39  1  0.34123127  -0.12250028  0.54202108  1.0
  O  O40  1  -0.34123127  -0.87749972  0.45797892  1.0
