# generated using pymatgen
data_LiSiB6
_symmetry_space_group_name_H-M   'P 1'
_cell_length_a   6.29250397
_cell_length_b   6.29250397
_cell_length_c   8.42041812
_cell_angle_alpha   90.00000000
_cell_angle_beta   90.00000000
_cell_angle_gamma   121.93016983
_symmetry_Int_Tables_number   1
_chemical_formula_structural   LiSiB6
_chemical_formula_sum   'Li4 Si4 B24'
_cell_volume   282.96416150
_cell_formula_units_Z   4
loop_
 _symmetry_equiv_pos_site_id
 _symmetry_equiv_pos_as_xyz
  1  'x, y, z'
loop_
 _atom_site_type_symbol
 _atom_site_label
 _atom_site_symmetry_multiplicity
 _atom_site_fract_x
 _atom_site_fract_y
 _atom_site_fract_z
 _atom_site_occupancy
  Li  Li0  1  -0.17406213  0.17406213  0.33944934  1.0
  Li  Li1  1  0.17406213  0.82593787  0.66055066  1.0
  Li  Li2  1  -0.32593787  0.32593787  0.83944934  1.0
  Li  Li3  1  0.32593787  0.67406213  0.16055066  1.0
  Si  Si4  1  -0.16594038  0.16594038  0.62033967  1.0
  Si  Si5  1  0.16594038  0.83405962  0.37966033  1.0
  Si  Si6  1  -0.33405962  0.33405962  0.12033967  1.0
  Si  Si7  1  0.33405962  0.66594038  0.87966033  1.0
  B  B8  1  0.39947752  0.60052248  0.65038725  1.0
  B  B9  1  -0.39947752  0.39947752  0.34961275  1.0
  B  B10  1  0.10052248  0.89947752  0.15038725  1.0
  B  B11  1  -0.10052248  0.10052248  0.84961275  1.0
  B  B12  1  -0.34833131  0.34833131  0.55625739  1.0
  B  B13  1  0.34833131  0.65166869  0.44374261  1.0
  B  B14  1  -0.15166869  0.15166869  0.05625739  1.0
  B  B15  1  0.15166869  0.84833131  0.94374261  1.0
  B  B16  1  0.65511195  0.81342345  0.53136332  1.0
  B  B17  1  -0.18657655  0.65511195  0.46863668  1.0
  B  B18  1  0.31342345  1.15511195  0.03136332  1.0
  B  B19  1  0.15511195  0.31342345  0.96863668  1.0
  B  B20  1  0.34488805  1.18657655  0.46863668  1.0
  B  B21  1  0.18657655  0.34488805  0.53136332  1.0
  B  B22  1  0.68657655  0.84488805  0.96863668  1.0
  B  B23  1  -0.15511195  0.68657655  0.03136332  1.0
  B  B24  1  0.38004394  1.30185601  0.66579468  1.0
  B  B25  1  0.30185601  0.38004394  0.33420532  1.0
  B  B26  1  0.80185601  0.88004394  0.16579468  1.0
  B  B27  1  -0.11995606  0.80185601  0.83420532  1.0
  B  B28  1  0.61995606  0.69814399  0.33420532  1.0
  B  B29  1  -0.30185601  0.61995606  0.66579468  1.0
  B  B30  1  0.19814399  1.11995606  0.83420532  1.0
  B  B31  1  0.11995606  0.19814399  0.16579468  1.0
