# generated using pymatgen
data_Ca(PIr)2
_symmetry_space_group_name_H-M   'P 1'
_cell_length_a   6.65731091
_cell_length_b   6.65731091
_cell_length_c   7.09512492
_cell_angle_alpha   90.00000000
_cell_angle_beta   90.00000000
_cell_angle_gamma   120.00000000
_symmetry_Int_Tables_number   1
_chemical_formula_structural   Ca(PIr)2
_chemical_formula_sum   'Ca3 P6 Ir6'
_cell_volume   272.32552992
_cell_formula_units_Z   3
loop_
 _symmetry_equiv_pos_site_id
 _symmetry_equiv_pos_as_xyz
  1  'x, y, z'
loop_
 _atom_site_type_symbol
 _atom_site_label
 _atom_site_symmetry_multiplicity
 _atom_site_fract_x
 _atom_site_fract_y
 _atom_site_fract_z
 _atom_site_occupancy
  Ca  Ca0  1  0.39446167  0.39446167  0.00000000  1.0
  Ca  Ca1  1  0.00000000  0.60553833  0.66666667  1.0
  Ca  Ca2  1  0.60553833  0.00000000  0.33333333  1.0
  P  P3  1  0.22346009  0.88402002  0.04312952  1.0
  P  P4  1  0.88402002  0.22346009  0.95687048  1.0
  P  P5  1  0.66055993  0.77653991  0.70979619  1.0
  P  P6  1  0.11597998  0.33944007  0.37646286  1.0
  P  P7  1  0.77653991  0.66055993  0.29020381  1.0
  P  P8  1  0.33944007  0.11597998  0.62353714  1.0
  Ir  Ir9  1  0.48581833  0.48581833  0.50000000  1.0
  Ir  Ir10  1  0.00000000  0.51418167  0.16666667  1.0
  Ir  Ir11  1  0.51418167  0.00000000  0.83333333  1.0
  Ir  Ir12  1  0.86370143  0.86370143  0.00000000  1.0
  Ir  Ir13  1  0.00000000  0.13629857  0.66666667  1.0
  Ir  Ir14  1  0.13629857  0.00000000  0.33333333  1.0
