# generated using pymatgen
data_BaMgAs2O7
_symmetry_space_group_name_H-M   'P 1'
_cell_length_a   5.73027078
_cell_length_b   8.76957745
_cell_length_c   14.80927188
_cell_angle_alpha   90.00000000
_cell_angle_beta   112.39375892
_cell_angle_gamma   90.00000000
_symmetry_Int_Tables_number   1
_chemical_formula_structural   BaMgAs2O7
_chemical_formula_sum   'Ba4 Mg4 As8 O28'
_cell_volume   688.07464335
_cell_formula_units_Z   4
loop_
 _symmetry_equiv_pos_site_id
 _symmetry_equiv_pos_as_xyz
  1  'x, y, z'
loop_
 _atom_site_type_symbol
 _atom_site_label
 _atom_site_symmetry_multiplicity
 _atom_site_fract_x
 _atom_site_fract_y
 _atom_site_fract_z
 _atom_site_occupancy
  Ba  Ba0  1  0.00002831  0.15605234  0.28580595  1.0
  Ba  Ba1  1  0.00002831  0.34394766  0.78580595  1.0
  Ba  Ba2  1  0.99997169  0.65605234  0.21419405  1.0
  Ba  Ba3  1  0.99997169  0.84394766  0.71419405  1.0
  Mg  Mg4  1  0.71316979  0.85140614  0.38680245  1.0
  Mg  Mg5  1  0.71316979  0.64859386  0.88680245  1.0
  Mg  Mg6  1  0.28683021  0.35140614  0.11319755  1.0
  Mg  Mg7  1  0.28683021  0.14859386  0.61319755  1.0
  As  As8  1  0.65912261  0.18748592  0.48458544  1.0
  As  As9  1  0.65912261  0.31251408  0.98458544  1.0
  As  As10  1  0.34087739  0.68748592  0.01541456  1.0
  As  As11  1  0.34087739  0.81251408  0.51541456  1.0
  As  As12  1  0.58634602  0.46742536  0.33781298  1.0
  As  As13  1  0.58634602  0.03257464  0.83781298  1.0
  As  As14  1  0.41365398  0.96742536  0.16218702  1.0
  As  As15  1  0.41365398  0.53257464  0.66218702  1.0
  O  O16  1  0.91446096  0.33030773  0.09323835  1.0
  O  O17  1  0.91446096  0.16969227  0.59323835  1.0
  O  O18  1  0.08553904  0.83030773  0.40676165  1.0
  O  O19  1  0.08553904  0.66969227  0.90676165  1.0
  O  O20  1  0.83090954  0.43850386  0.30079836  1.0
  O  O21  1  0.83090954  0.06149614  0.80079836  1.0
  O  O22  1  0.16909046  0.93850386  0.19920164  1.0
  O  O23  1  0.16909046  0.56149614  0.69920164  1.0
  O  O24  1  0.69339722  0.08802100  0.38959503  1.0
  O  O25  1  0.69339722  0.41197900  0.88959503  1.0
  O  O26  1  0.30660278  0.58802100  0.11040497  1.0
  O  O27  1  0.30660278  0.91197900  0.61040497  1.0
  O  O28  1  0.67231445  0.38936498  0.45902563  1.0
  O  O29  1  0.67231445  0.11063502  0.95902563  1.0
  O  O30  1  0.32768555  0.88936498  0.04097437  1.0
  O  O31  1  0.32768555  0.61063502  0.54097437  1.0
  O  O32  1  0.48409018  0.15472728  0.15174035  1.0
  O  O33  1  0.48409018  0.34527272  0.65174035  1.0
  O  O34  1  0.51590982  0.65472728  0.34825965  1.0
  O  O35  1  0.51590982  0.84527272  0.84825965  1.0
  O  O36  1  0.36421090  0.15451132  0.48619108  1.0
  O  O37  1  0.36421090  0.34548868  0.98619108  1.0
  O  O38  1  0.63578910  0.65451132  0.01380892  1.0
  O  O39  1  0.63578910  0.84548868  0.51380892  1.0
  O  O40  1  0.31312681  0.38056553  0.25939240  1.0
  O  O41  1  0.31312681  0.11943447  0.75939240  1.0
  O  O42  1  0.68687319  0.88056553  0.24060760  1.0
  O  O43  1  0.68687319  0.61943447  0.74060760  1.0
