# generated using pymatgen
data_Y4Ni13C4
_symmetry_space_group_name_H-M   'P 1'
_cell_length_a   8.40018596
_cell_length_b   8.40018596
_cell_length_c   3.86832374
_cell_angle_alpha   90.00000000
_cell_angle_beta   90.00000000
_cell_angle_gamma   91.24925666
_symmetry_Int_Tables_number   1
_chemical_formula_structural   Y4Ni13C4
_chemical_formula_sum   'Y4 Ni13 C4'
_cell_volume   272.89612835
_cell_formula_units_Z   1
loop_
 _symmetry_equiv_pos_site_id
 _symmetry_equiv_pos_as_xyz
  1  'x, y, z'
loop_
 _atom_site_type_symbol
 _atom_site_label
 _atom_site_symmetry_multiplicity
 _atom_site_fract_x
 _atom_site_fract_y
 _atom_site_fract_z
 _atom_site_occupancy
  Y  Y0  1  0.18824568  0.81175432  0.50000000  1.0
  Y  Y1  1  -0.18824568  1.18824568  0.50000000  1.0
  Y  Y2  1  0.65142996  0.65142996  0.50000000  1.0
  Y  Y3  1  0.34857004  0.34857004  0.50000000  1.0
  Ni  Ni4  1  0.21562599  0.56865068  0.00000000  1.0
  Ni  Ni5  1  -0.43134932  1.21562599  0.00000000  1.0
  Ni  Ni6  1  0.43134932  0.78437401  0.00000000  1.0
  Ni  Ni7  1  -0.21562599  1.43134932  0.00000000  1.0
  Ni  Ni8  1  -0.07363910  1.70916067  0.00000000  1.0
  Ni  Ni9  1  0.70916067  0.92636090  0.00000000  1.0
  Ni  Ni10  1  -0.70916067  1.07363910  0.00000000  1.0
  Ni  Ni11  1  0.07363910  0.29083933  0.00000000  1.0
  Ni  Ni12  1  0.87709717  0.87709717  0.50000000  1.0
  Ni  Ni13  1  0.12290283  0.12290283  0.50000000  1.0
  Ni  Ni14  1  -0.00000000  1.50000000  0.50000000  1.0
  Ni  Ni15  1  0.50000000  1.00000000  0.50000000  1.0
  Ni  Ni16  1  0.00000000  0.00000000  0.00000000  1.0
  C  C17  1  0.44318107  0.55681893  0.00000000  1.0
  C  C18  1  -0.44318107  1.44318107  0.00000000  1.0
  C  C19  1  -0.00000000  1.50000000  0.00000000  1.0
  C  C20  1  0.50000000  1.00000000  0.00000000  1.0
