# generated using pymatgen
data_HfGe2Rh
_symmetry_space_group_name_H-M   'P 1'
_cell_length_a   9.31158154
_cell_length_b   10.54540535
_cell_length_c   8.07080539
_cell_angle_alpha   90.00000000
_cell_angle_beta   90.00000000
_cell_angle_gamma   90.00000000
_symmetry_Int_Tables_number   1
_chemical_formula_structural   HfGe2Rh
_chemical_formula_sum   'Hf12 Ge24 Rh12'
_cell_volume   792.50790720
_cell_formula_units_Z   12
loop_
 _symmetry_equiv_pos_site_id
 _symmetry_equiv_pos_as_xyz
  1  'x, y, z'
loop_
 _atom_site_type_symbol
 _atom_site_label
 _atom_site_symmetry_multiplicity
 _atom_site_fract_x
 _atom_site_fract_y
 _atom_site_fract_z
 _atom_site_occupancy
  Hf  Hf0  1  0.16906894  0.54724063  0.75608163  1.0
  Hf  Hf1  1  0.16906894  0.54724063  0.24391837  1.0
  Hf  Hf2  1  0.66906894  0.95275937  0.75608163  1.0
  Hf  Hf3  1  0.66906894  0.95275937  0.24391837  1.0
  Hf  Hf4  1  0.83093106  0.45275937  0.75608163  1.0
  Hf  Hf5  1  0.83093106  0.45275937  0.24391837  1.0
  Hf  Hf6  1  0.33093106  0.04724063  0.75608163  1.0
  Hf  Hf7  1  0.33093106  0.04724063  0.24391837  1.0
  Hf  Hf8  1  0.16269100  0.81791502  -0.00000000  1.0
  Hf  Hf9  1  0.66269100  0.68208498  0.00000000  1.0
  Hf  Hf10  1  0.83730900  0.18208498  -0.00000000  1.0
  Hf  Hf11  1  0.33730900  0.31791502  -0.00000000  1.0
  Ge  Ge12  1  0.15470457  0.81687259  0.65191376  1.0
  Ge  Ge13  1  0.15470457  0.81687259  0.34808624  1.0
  Ge  Ge14  1  0.65470457  0.68312741  0.65191376  1.0
  Ge  Ge15  1  0.65470457  0.68312741  0.34808624  1.0
  Ge  Ge16  1  0.84529543  0.18312741  0.65191376  1.0
  Ge  Ge17  1  0.84529543  0.18312741  0.34808624  1.0
  Ge  Ge18  1  0.34529543  0.31687259  0.65191376  1.0
  Ge  Ge19  1  0.34529543  0.31687259  0.34808624  1.0
  Ge  Ge20  1  0.45509610  0.88694234  0.50000000  1.0
  Ge  Ge21  1  0.95509610  0.61305766  0.50000000  1.0
  Ge  Ge22  1  0.54490390  0.11305766  0.50000000  1.0
  Ge  Ge23  1  0.04490390  0.38694234  0.50000000  1.0
  Ge  Ge24  1  0.36123901  0.59345680  0.50000000  1.0
  Ge  Ge25  1  0.86123901  0.90654320  0.50000000  1.0
  Ge  Ge26  1  0.63876099  0.40654320  0.50000000  1.0
  Ge  Ge27  1  0.13876099  0.09345680  0.50000000  1.0
  Ge  Ge28  1  0.45914405  0.88518281  0.00000000  1.0
  Ge  Ge29  1  0.95914405  0.61481719  -0.00000000  1.0
  Ge  Ge30  1  0.54085595  0.11481719  0.00000000  1.0
  Ge  Ge31  1  0.04085595  0.38518281  0.00000000  1.0
  Ge  Ge32  1  0.36601583  0.60006855  0.00000000  1.0
  Ge  Ge33  1  0.86601583  0.89993145  -0.00000000  1.0
  Ge  Ge34  1  0.63398417  0.39993145  0.00000000  1.0
  Ge  Ge35  1  0.13398417  0.10006855  -0.00000000  1.0
  Rh  Rh36  1  0.40022260  0.75429412  0.74942951  1.0
  Rh  Rh37  1  0.40022260  0.75429412  0.25057049  1.0
  Rh  Rh38  1  0.90022260  0.74570588  0.74942951  1.0
  Rh  Rh39  1  0.90022260  0.74570588  0.25057049  1.0
  Rh  Rh40  1  0.59977740  0.24570588  0.74942951  1.0
  Rh  Rh41  1  0.59977740  0.24570588  0.25057049  1.0
  Rh  Rh42  1  0.09977740  0.25429412  0.74942951  1.0
  Rh  Rh43  1  0.09977740  0.25429412  0.25057049  1.0
  Rh  Rh44  1  0.50000000  0.50000000  0.75336186  1.0
  Rh  Rh45  1  0.50000000  0.50000000  0.24663814  1.0
  Rh  Rh46  1  0.00000000  0.00000000  0.75336186  1.0
  Rh  Rh47  1  0.00000000  0.00000000  0.24663814  1.0
