# generated using pymatgen
data_Al2(SeO4)3
_symmetry_space_group_name_H-M   'P 1'
_cell_length_a   8.54630937
_cell_length_b   8.54630937
_cell_length_c   8.54630937
_cell_angle_alpha   65.78758237
_cell_angle_beta   65.78758237
_cell_angle_gamma   65.78758237
_symmetry_Int_Tables_number   1
_chemical_formula_structural   Al2(SeO4)3
_chemical_formula_sum   'Al4 Se6 O24'
_cell_volume   496.77928369
_cell_formula_units_Z   2
loop_
 _symmetry_equiv_pos_site_id
 _symmetry_equiv_pos_as_xyz
  1  'x, y, z'
loop_
 _atom_site_type_symbol
 _atom_site_label
 _atom_site_symmetry_multiplicity
 _atom_site_fract_x
 _atom_site_fract_y
 _atom_site_fract_z
 _atom_site_occupancy
  Al  Al0  1  1.23283167  1.23283167  0.23283167  1.0
  Al  Al1  1  0.73283167  0.73283167  -0.26716833  1.0
  Al  Al2  1  0.00766819  0.00766819  0.00766819  1.0
  Al  Al3  1  0.50766819  0.50766819  -0.49233181  1.0
  O  O4  1  0.60328705  0.32160068  -0.60204005  1.0
  O  O5  1  1.10328705  -0.10204005  -0.17839932  1.0
  O  O6  1  0.82160068  0.10328705  -0.10204005  1.0
  O  O7  1  0.32160068  0.39795995  -0.39671295  1.0
  O  O8  1  0.89795995  -0.17839932  0.10328705  1.0
  O  O9  1  0.39795995  0.60328705  -0.67839932  1.0
  O  O10  1  0.90253902  0.00401450  -0.75475163  1.0
  O  O11  1  0.40253902  0.74524837  -0.49598550  1.0
  O  O12  1  0.50401450  0.40253902  -0.25475163  1.0
  O  O13  1  1.00401450  -0.75475163  -0.09746098  1.0
  O  O14  1  0.74524837  0.50401450  -0.59746098  1.0
  O  O15  1  0.24524837  -0.09746098  0.00401450  1.0
  O  O16  1  1.33792283  1.09886164  0.42431178  1.0
  O  O17  1  0.83792283  0.92431178  -0.40113836  1.0
  O  O18  1  0.59886164  0.83792283  -0.07568822  1.0
  O  O19  1  1.09886164  1.42431178  0.33792283  1.0
  O  O20  1  0.92431178  0.59886164  -0.16207717  1.0
  O  O21  1  1.42431178  1.33792283  0.09886164  1.0
  O  O22  1  1.03237425  1.13433890  0.37010868  1.0
  O  O23  1  0.53237425  0.87010868  -0.36566110  1.0
  O  O24  1  0.63433890  0.53237425  -0.12989132  1.0
  O  O25  1  1.13433890  1.37010868  0.03237425  1.0
  O  O26  1  0.87010868  0.63433890  -0.46762575  1.0
  O  O27  1  1.37010868  1.03237425  0.13433890  1.0
  Se  Se28  1  1.01535635  -0.07343037  -0.58749350  1.0
  Se  Se29  1  0.51535635  0.91250650  -0.57343037  1.0
  Se  Se30  1  0.42656963  0.51535635  -0.08749350  1.0
  Se  Se31  1  0.92656963  -0.58749350  0.01535635  1.0
  Se  Se32  1  0.91250650  0.42656963  -0.48464365  1.0
  Se  Se33  1  0.41250650  0.01535635  -0.07343037  1.0
