# generated using pymatgen
data_RbAlF4
_symmetry_space_group_name_H-M   'P 1'
_cell_length_a   5.22543658
_cell_length_b   5.22543658
_cell_length_c   6.43253054
_cell_angle_alpha   90.00000000
_cell_angle_beta   90.00000000
_cell_angle_gamma   90.00000000
_symmetry_Int_Tables_number   1
_chemical_formula_structural   RbAlF4
_chemical_formula_sum   'Rb2 Al2 F8'
_cell_volume   175.64145199
_cell_formula_units_Z   2
loop_
 _symmetry_equiv_pos_site_id
 _symmetry_equiv_pos_as_xyz
  1  'x, y, z'
loop_
 _atom_site_type_symbol
 _atom_site_label
 _atom_site_symmetry_multiplicity
 _atom_site_fract_x
 _atom_site_fract_y
 _atom_site_fract_z
 _atom_site_occupancy
  Rb  Rb0  1  0.50000000  0.00000000  0.50000000  1.0
  Rb  Rb1  1  0.00000000  0.50000000  0.50000000  1.0
  Al  Al2  1  0.50000000  0.50000000  0.00000000  1.0
  Al  Al3  1  0.00000000  0.00000000  0.00000000  1.0
  F  F4  1  0.28279945  0.21720055  0.00000000  1.0
  F  F5  1  0.78279945  0.28279945  0.00000000  1.0
  F  F6  1  0.71720055  0.78279945  0.00000000  1.0
  F  F7  1  0.21720055  0.71720055  0.00000000  1.0
  F  F8  1  0.50000000  0.50000000  0.72193327  1.0
  F  F9  1  0.50000000  0.50000000  0.27806673  1.0
  F  F10  1  0.00000000  0.00000000  0.72193327  1.0
  F  F11  1  0.00000000  0.00000000  0.27806673  1.0
