# generated using pymatgen
data_Ba4Si3Se9Cl2
_symmetry_space_group_name_H-M   'P 1'
_cell_length_a   10.18825080
_cell_length_b   10.18825080
_cell_length_c   12.62037782
_cell_angle_alpha   90.00000000
_cell_angle_beta   90.00000000
_cell_angle_gamma   120.00000000
_symmetry_Int_Tables_number   1
_chemical_formula_structural   Ba4Si3Se9Cl2
_chemical_formula_sum   'Ba8 Si6 Se18 Cl4'
_cell_volume   1134.49410284
_cell_formula_units_Z   2
loop_
 _symmetry_equiv_pos_site_id
 _symmetry_equiv_pos_as_xyz
  1  'x, y, z'
loop_
 _atom_site_type_symbol
 _atom_site_label
 _atom_site_symmetry_multiplicity
 _atom_site_fract_x
 _atom_site_fract_y
 _atom_site_fract_z
 _atom_site_occupancy
  Ba  Ba0  1  0.75009327  0.67132219  0.42007787  1.0
  Ba  Ba1  1  0.92122892  0.24990673  0.42007787  1.0
  Ba  Ba2  1  0.32867781  0.07877108  0.42007787  1.0
  Ba  Ba3  1  0.24990673  0.32867781  0.92007787  1.0
  Ba  Ba4  1  0.07877108  0.75009327  0.92007787  1.0
  Ba  Ba5  1  0.67132219  0.92122892  0.92007787  1.0
  Ba  Ba6  1  0.66666667  0.33333333  0.72732557  1.0
  Ba  Ba7  1  0.33333333  0.66666667  0.22732557  1.0
  Si  Si8  1  0.66808376  0.55110822  0.08007904  1.0
  Si  Si9  1  0.88302446  0.33191624  0.08007904  1.0
  Si  Si10  1  0.44889178  0.11697554  0.08007904  1.0
  Si  Si11  1  0.33191624  0.44889178  0.58007904  1.0
  Si  Si12  1  0.11697554  0.66808376  0.58007904  1.0
  Si  Si13  1  0.55110822  0.88302446  0.58007904  1.0
  Se  Se14  1  0.68502855  0.74951834  0.16934771  1.0
  Se  Se15  1  0.06448979  0.31497145  0.16934771  1.0
  Se  Se16  1  0.25048166  0.93551021  0.16934771  1.0
  Se  Se17  1  0.31497145  0.25048166  0.66934771  1.0
  Se  Se18  1  0.93551021  0.68502855  0.66934771  1.0
  Se  Se19  1  0.74951834  0.06448979  0.66934771  1.0
  Se  Se20  1  0.54763907  0.66468490  0.64386122  1.0
  Se  Se21  1  0.11704583  0.45236093  0.64386122  1.0
  Se  Se22  1  0.33531510  0.88295417  0.64386122  1.0
  Se  Se23  1  0.45236093  0.33531510  0.14386122  1.0
  Se  Se24  1  0.88295417  0.54763907  0.14386122  1.0
  Se  Se25  1  0.66468490  0.11704583  0.14386122  1.0
  Se  Se26  1  0.57602846  0.91572906  0.40340312  1.0
  Se  Se27  1  0.33970059  0.42397154  0.40340312  1.0
  Se  Se28  1  0.08427094  0.66029941  0.40340312  1.0
  Se  Se29  1  0.42397154  0.08427094  0.90340312  1.0
  Se  Se30  1  0.66029941  0.57602846  0.90340312  1.0
  Se  Se31  1  0.91572906  0.33970059  0.90340312  1.0
  Cl  Cl32  1  0.66666667  0.33333333  0.47413250  1.0
  Cl  Cl33  1  0.33333333  0.66666667  0.97413250  1.0
  Cl  Cl34  1  -0.00000000  0.00000000  0.42113502  1.0
  Cl  Cl35  1  0.00000000  0.00000000  0.92113502  1.0
