# generated using pymatgen
data_Tl2Cu2SnS4
_symmetry_space_group_name_H-M   'P 1'
_cell_length_a   9.40777654
_cell_length_b   9.40777654
_cell_length_c   9.40777654
_cell_angle_alpha   147.34774678
_cell_angle_beta   102.91606253
_cell_angle_gamma   86.24535256
_symmetry_Int_Tables_number   1
_chemical_formula_structural   Tl2Cu2SnS4
_chemical_formula_sum   'Tl4 Cu4 Sn2 S8'
_cell_volume   425.79073744
_cell_formula_units_Z   2
loop_
 _symmetry_equiv_pos_site_id
 _symmetry_equiv_pos_as_xyz
  1  'x, y, z'
loop_
 _atom_site_type_symbol
 _atom_site_label
 _atom_site_symmetry_multiplicity
 _atom_site_fract_x
 _atom_site_fract_y
 _atom_site_fract_z
 _atom_site_occupancy
  Tl  Tl0  1  1.12014496  1.26198296  1.38212792  1.0
  Tl  Tl1  1  1.37985504  0.76198296  1.14183801  1.0
  Tl  Tl2  1  0.62014496  1.23801704  0.85816199  1.0
  Tl  Tl3  1  0.87985504  0.73801704  0.61787208  1.0
  Cu  Cu4  1  0.97672347  0.25000000  0.72672347  1.0
  Cu  Cu5  1  1.47672347  0.75000000  0.72672347  1.0
  Cu  Cu6  1  1.02327653  0.75000000  0.27327653  1.0
  Cu  Cu7  1  0.52327653  0.25000000  0.27327653  1.0
  Sn  Sn8  1  1.25000000  1.25000000  1.00000000  1.0
  Sn  Sn9  1  0.75000000  0.75000000  1.00000000  1.0
  S  S10  1  1.22335233  1.12274636  0.63598630  1.0
  S  S11  1  0.51323995  0.41263397  0.63598630  1.0
  S  S12  1  0.98676005  0.62274636  0.89939403  1.0
  S  S13  1  1.27664767  0.91263397  0.89939403  1.0
  S  S14  1  0.72335233  1.08736603  1.10060597  1.0
  S  S15  1  1.01323995  1.37725364  1.10060597  1.0
  S  S16  1  1.48676005  1.58736603  1.36401370  1.0
  S  S17  1  0.77664767  0.87725364  1.36401370  1.0
