# generated using pymatgen
data_NaCu5S3
_symmetry_space_group_name_H-M   'P 1'
_cell_length_a   6.93105015
_cell_length_b   6.93105015
_cell_length_c   7.17999508
_cell_angle_alpha   90.00000000
_cell_angle_beta   90.00000000
_cell_angle_gamma   120.00000000
_symmetry_Int_Tables_number   1
_chemical_formula_structural   NaCu5S3
_chemical_formula_sum   'Na2 Cu10 S6'
_cell_volume   298.71213148
_cell_formula_units_Z   2
loop_
 _symmetry_equiv_pos_site_id
 _symmetry_equiv_pos_as_xyz
  1  'x, y, z'
loop_
 _atom_site_type_symbol
 _atom_site_label
 _atom_site_symmetry_multiplicity
 _atom_site_fract_x
 _atom_site_fract_y
 _atom_site_fract_z
 _atom_site_occupancy
  Na  Na0  1  -0.00000000  0.00000000  0.25000000  1.0
  Na  Na1  1  0.00000000  0.00000000  0.75000000  1.0
  Cu  Cu2  1  0.53116200  0.46883800  0.25000000  1.0
  Cu  Cu3  1  0.53116200  0.06232400  0.25000000  1.0
  Cu  Cu4  1  0.46883800  0.53116200  0.75000000  1.0
  Cu  Cu5  1  0.46883800  0.93767600  0.75000000  1.0
  Cu  Cu6  1  0.93767600  0.46883800  0.25000000  1.0
  Cu  Cu7  1  0.06232400  0.53116200  0.75000000  1.0
  Cu  Cu8  1  0.33333333  0.66666667  0.04864054  1.0
  Cu  Cu9  1  0.33333333  0.66666667  0.45135946  1.0
  Cu  Cu10  1  0.66666667  0.33333333  0.95135946  1.0
  Cu  Cu11  1  0.66666667  0.33333333  0.54864054  1.0
  S  S12  1  0.67492683  0.67492683  0.00000000  1.0
  S  S13  1  0.67492683  -0.00000000  0.50000000  1.0
  S  S14  1  -0.00000000  0.67492683  0.50000000  1.0
  S  S15  1  -0.00000000  0.32507317  -0.00000000  1.0
  S  S16  1  0.32507317  0.32507317  0.50000000  1.0
  S  S17  1  0.32507317  0.00000000  -0.00000000  1.0
