# generated using pymatgen
data_BaH2I2O7
_symmetry_space_group_name_H-M   'P 1'
_cell_length_a   7.96732082
_cell_length_b   7.96732082
_cell_length_c   9.17221564
_cell_angle_alpha   55.12475132
_cell_angle_beta   124.87524868
_cell_angle_gamma   117.22359781
_symmetry_Int_Tables_number   1
_chemical_formula_structural   BaH2I2O7
_chemical_formula_sum   'Ba2 H4 I4 O14'
_cell_volume   384.43751907
_cell_formula_units_Z   2
loop_
 _symmetry_equiv_pos_site_id
 _symmetry_equiv_pos_as_xyz
  1  'x, y, z'
loop_
 _atom_site_type_symbol
 _atom_site_label
 _atom_site_symmetry_multiplicity
 _atom_site_fract_x
 _atom_site_fract_y
 _atom_site_fract_z
 _atom_site_occupancy
  Ba  Ba0  1  1.35796002  0.35796002  0.75000000  1.0
  Ba  Ba1  1  0.64203998  0.64203998  0.25000000  1.0
  H  H2  1  1.72274136  -0.21993817  0.63981656  1.0
  H  H3  1  1.21993817  -0.72274136  0.13981656  1.0
  H  H4  1  0.78006183  -0.27725864  0.86018344  1.0
  H  H5  1  1.27725864  0.21993817  0.36018344  1.0
  I  I6  1  1.78938796  0.15091243  0.81303513  1.0
  I  I7  1  0.84908757  0.21061204  0.31303513  1.0
  I  I8  1  1.15091243  0.78938796  0.68696487  1.0
  I  I9  1  1.21061204  -0.15091243  0.18696487  1.0
  O  O10  1  0.40890344  -0.29171560  0.86442680  1.0
  O  O11  1  1.29171560  0.59109656  0.36442680  1.0
  O  O12  1  0.70828440  0.40890344  0.63557320  1.0
  O  O13  1  0.59109656  0.29171560  0.13557320  1.0
  O  O14  1  1.72544979  0.08758578  1.00931642  1.0
  O  O15  1  0.91241422  0.27455021  0.50931642  1.0
  O  O16  1  1.08758578  0.72544979  0.49068358  1.0
  O  O17  1  1.27455021  -0.08758578  -0.00931642  1.0
  O  O18  1  1.23122008  0.08525824  0.57446467  1.0
  O  O19  1  0.91474176  0.76877992  0.07446467  1.0
  O  O20  1  1.08525824  0.23122008  0.92553533  1.0
  O  O21  1  1.76877992  -0.08525824  0.42553533  1.0
  O  O22  1  0.68276838  -0.31723162  0.75000000  1.0
  O  O23  1  0.31723162  0.31723162  0.25000000  1.0
