# generated using pymatgen
data_KHgH2C2N2ClO
_symmetry_space_group_name_H-M   'P 1'
_cell_length_a   9.42201382
_cell_length_b   4.24166807
_cell_length_c   18.92291633
_cell_angle_alpha   90.00000000
_cell_angle_beta   90.00000000
_cell_angle_gamma   90.00000000
_symmetry_Int_Tables_number   1
_chemical_formula_structural   KHgH2C2N2ClO
_chemical_formula_sum   'K4 Hg4 H8 C8 N8 Cl4 O4'
_cell_volume   756.25539579
_cell_formula_units_Z   4
loop_
 _symmetry_equiv_pos_site_id
 _symmetry_equiv_pos_as_xyz
  1  'x, y, z'
loop_
 _atom_site_type_symbol
 _atom_site_label
 _atom_site_symmetry_multiplicity
 _atom_site_fract_x
 _atom_site_fract_y
 _atom_site_fract_z
 _atom_site_occupancy
  K  K0  1  0.70964842  0.25000000  0.01684582  1.0
  K  K1  1  0.20964842  0.25000000  0.48315418  1.0
  K  K2  1  0.29035158  0.75000000  0.98315418  1.0
  K  K3  1  0.79035158  0.75000000  0.51684582  1.0
  Hg  Hg4  1  0.53914524  0.25000000  0.74963751  1.0
  Hg  Hg5  1  0.03914524  0.25000000  0.75036249  1.0
  Hg  Hg6  1  0.46085476  0.75000000  0.25036249  1.0
  Hg  Hg7  1  0.96085476  0.75000000  0.24963751  1.0
  H  H8  1  0.72720515  0.25000000  0.37866525  1.0
  H  H9  1  0.22720515  0.25000000  0.12133475  1.0
  H  H10  1  0.27279485  0.75000000  0.62133475  1.0
  H  H11  1  0.77279485  0.75000000  0.87866525  1.0
  H  H12  1  0.11200104  0.25000000  0.06300783  1.0
  H  H13  1  0.61200104  0.25000000  0.43699217  1.0
  H  H14  1  0.88799896  0.75000000  0.93699217  1.0
  H  H15  1  0.38799896  0.75000000  0.56300783  1.0
  C  C16  1  0.56359518  0.25000000  0.64227367  1.0
  C  C17  1  0.06359518  0.25000000  0.85772633  1.0
  C  C18  1  0.43640482  0.75000000  0.35772633  1.0
  C  C19  1  0.93640482  0.75000000  0.14227367  1.0
  C  C20  1  0.99191091  0.25000000  0.64489558  1.0
  C  C21  1  0.49191091  0.25000000  0.85510442  1.0
  C  C22  1  0.00808909  0.75000000  0.35510442  1.0
  C  C23  1  0.50808909  0.75000000  0.14489558  1.0
  N  N24  1  0.58095433  0.25000000  0.58120375  1.0
  N  N25  1  0.08095433  0.25000000  0.91879625  1.0
  N  N26  1  0.41904567  0.75000000  0.41879625  1.0
  N  N27  1  0.91904567  0.75000000  0.08120375  1.0
  N  N28  1  0.96618427  0.25000000  0.58460127  1.0
  N  N29  1  0.46618427  0.25000000  0.91539873  1.0
  N  N30  1  0.03381573  0.75000000  0.41539873  1.0
  N  N31  1  0.53381573  0.75000000  0.08460127  1.0
  Cl  Cl32  1  0.73775906  0.25000000  0.26578650  1.0
  Cl  Cl33  1  0.23775906  0.25000000  0.23421350  1.0
  Cl  Cl34  1  0.26224094  0.75000000  0.73421350  1.0
  Cl  Cl35  1  0.76224094  0.75000000  0.76578650  1.0
  O  O36  1  0.21443877  0.25000000  0.06930632  1.0
  O  O37  1  0.71443877  0.25000000  0.43069368  1.0
  O  O38  1  0.78556123  0.75000000  0.93069368  1.0
  O  O39  1  0.28556123  0.75000000  0.56930632  1.0
