# generated using pymatgen
data_Zr(Ni2As)2
_symmetry_space_group_name_H-M   'P 1'
_cell_length_a   7.09489057
_cell_length_b   7.09489057
_cell_length_c   3.77377748
_cell_angle_alpha   90.00000000
_cell_angle_beta   90.00000000
_cell_angle_gamma   90.00000000
_symmetry_Int_Tables_number   1
_chemical_formula_structural   Zr(Ni2As)2
_chemical_formula_sum   'Zr2 Ni8 As4'
_cell_volume   189.96241888
_cell_formula_units_Z   2
loop_
 _symmetry_equiv_pos_site_id
 _symmetry_equiv_pos_as_xyz
  1  'x, y, z'
loop_
 _atom_site_type_symbol
 _atom_site_label
 _atom_site_symmetry_multiplicity
 _atom_site_fract_x
 _atom_site_fract_y
 _atom_site_fract_z
 _atom_site_occupancy
  Zr  Zr0  1  0.50000000  0.50000000  0.50000000  1.0
  Zr  Zr1  1  0.00000000  0.00000000  0.00000000  1.0
  Ni  Ni2  1  0.34509463  0.09075939  0.50000000  1.0
  Ni  Ni3  1  0.84509463  0.40924061  0.00000000  1.0
  Ni  Ni4  1  0.90924061  0.65490537  0.50000000  1.0
  Ni  Ni5  1  0.40924061  0.84509463  0.00000000  1.0
  Ni  Ni6  1  0.65490537  0.90924061  0.50000000  1.0
  Ni  Ni7  1  0.15490537  0.59075939  0.00000000  1.0
  Ni  Ni8  1  0.09075939  0.34509463  0.50000000  1.0
  Ni  Ni9  1  0.59075939  0.15490537  0.00000000  1.0
  As  As10  1  0.21624645  0.78375355  0.50000000  1.0
  As  As11  1  0.71624645  0.71624645  0.00000000  1.0
  As  As12  1  0.78375355  0.21624645  0.50000000  1.0
  As  As13  1  0.28375355  0.28375355  0.00000000  1.0
