# generated using pymatgen
data_SmAl3Ni
_symmetry_space_group_name_H-M   'P 1'
_cell_length_a   8.19186035
_cell_length_b   4.10076133
_cell_length_c   10.87353303
_cell_angle_alpha   90.00000000
_cell_angle_beta   90.00000000
_cell_angle_gamma   90.00000000
_symmetry_Int_Tables_number   1
_chemical_formula_structural   SmAl3Ni
_chemical_formula_sum   'Sm4 Al12 Ni4'
_cell_volume   365.27311846
_cell_formula_units_Z   4
loop_
 _symmetry_equiv_pos_site_id
 _symmetry_equiv_pos_as_xyz
  1  'x, y, z'
loop_
 _atom_site_type_symbol
 _atom_site_label
 _atom_site_symmetry_multiplicity
 _atom_site_fract_x
 _atom_site_fract_y
 _atom_site_fract_z
 _atom_site_occupancy
  Sm  Sm0  1  0.82148045  0.75000000  0.00943565  1.0
  Sm  Sm1  1  0.32148045  0.75000000  0.49056435  1.0
  Sm  Sm2  1  0.17851955  0.25000000  0.99056435  1.0
  Sm  Sm3  1  0.67851955  0.25000000  0.50943565  1.0
  Al  Al4  1  0.94515287  0.75000000  0.58171497  1.0
  Al  Al5  1  0.44515287  0.75000000  0.91828503  1.0
  Al  Al6  1  0.05484713  0.25000000  0.41828503  1.0
  Al  Al7  1  0.55484713  0.25000000  0.08171497  1.0
  Al  Al8  1  0.64221161  0.75000000  0.72488697  1.0
  Al  Al9  1  0.14221161  0.75000000  0.77511303  1.0
  Al  Al10  1  0.35778839  0.25000000  0.27511303  1.0
  Al  Al11  1  0.85778839  0.25000000  0.22488697  1.0
  Al  Al12  1  0.61760447  0.75000000  0.27882887  1.0
  Al  Al13  1  0.11760447  0.75000000  0.22117113  1.0
  Al  Al14  1  0.38239553  0.25000000  0.72117113  1.0
  Al  Al15  1  0.88239553  0.25000000  0.77882887  1.0
  Ni  Ni16  1  0.89312745  0.75000000  0.35698758  1.0
  Ni  Ni17  1  0.39312745  0.75000000  0.14301242  1.0
  Ni  Ni18  1  0.10687255  0.25000000  0.64301242  1.0
  Ni  Ni19  1  0.60687255  0.25000000  0.85698758  1.0
