# generated using pymatgen
data_K2CuP2O7
_symmetry_space_group_name_H-M   'P 1'
_cell_length_a   8.19326386
_cell_length_b   8.19326386
_cell_length_c   5.56365984
_cell_angle_alpha   90.00000000
_cell_angle_beta   90.00000000
_cell_angle_gamma   90.00000000
_symmetry_Int_Tables_number   1
_chemical_formula_structural   K2CuP2O7
_chemical_formula_sum   'K4 Cu2 P4 O14'
_cell_volume   373.48610754
_cell_formula_units_Z   2
loop_
 _symmetry_equiv_pos_site_id
 _symmetry_equiv_pos_as_xyz
  1  'x, y, z'
loop_
 _atom_site_type_symbol
 _atom_site_label
 _atom_site_symmetry_multiplicity
 _atom_site_fract_x
 _atom_site_fract_y
 _atom_site_fract_z
 _atom_site_occupancy
  K  K0  1  0.83303632  0.33303632  0.49077818  1.0
  K  K1  1  0.66696368  0.83303632  0.50922182  1.0
  K  K2  1  0.16696368  0.66696368  0.49077818  1.0
  K  K3  1  0.33303632  0.16696368  0.50922182  1.0
  Cu  Cu4  1  0.50000000  0.50000000  0.00000000  1.0
  Cu  Cu5  1  0.00000000  0.00000000  0.00000000  1.0
  P  P6  1  0.36660145  0.86660145  0.01618974  1.0
  P  P7  1  0.13339855  0.36660145  0.98381026  1.0
  P  P8  1  0.63339855  0.13339855  0.01618974  1.0
  P  P9  1  0.86660145  0.63339855  0.98381026  1.0
  O  O10  1  0.29456411  0.42207378  0.86139783  1.0
  O  O11  1  0.20543589  0.92207378  0.13860217  1.0
  O  O12  1  0.57792622  0.29456411  0.13860217  1.0
  O  O13  1  0.92207378  0.79456411  0.86139783  1.0
  O  O14  1  0.70543589  0.57792622  0.86139783  1.0
  O  O15  1  0.79456411  0.07792622  0.13860217  1.0
  O  O16  1  0.42207378  0.70543589  0.13860217  1.0
  O  O17  1  0.07792622  0.20543589  0.86139783  1.0
  O  O18  1  0.36649934  0.86649934  0.74459751  1.0
  O  O19  1  0.13350066  0.36649934  0.25540249  1.0
  O  O20  1  0.63350066  0.13350066  0.74459751  1.0
  O  O21  1  0.86649934  0.63350066  0.25540249  1.0
  O  O22  1  0.00000000  0.50000000  0.87965116  1.0
  O  O23  1  0.50000000  0.00000000  0.12034884  1.0
