# generated using pymatgen
data_TaAgSe2O7
_symmetry_space_group_name_H-M   'P 1'
_cell_length_a   6.95519453
_cell_length_b   6.95519453
_cell_length_c   7.38471289
_cell_angle_alpha   90.00000000
_cell_angle_beta   90.00000000
_cell_angle_gamma   70.93542104
_symmetry_Int_Tables_number   1
_chemical_formula_structural   TaAgSe2O7
_chemical_formula_sum   'Ta2 Ag2 Se4 O14'
_cell_volume   337.63960680
_cell_formula_units_Z   2
loop_
 _symmetry_equiv_pos_site_id
 _symmetry_equiv_pos_as_xyz
  1  'x, y, z'
loop_
 _atom_site_type_symbol
 _atom_site_label
 _atom_site_symmetry_multiplicity
 _atom_site_fract_x
 _atom_site_fract_y
 _atom_site_fract_z
 _atom_site_occupancy
  Ta  Ta0  1  0.00000000  0.00000000  0.00000000  1.0
  Ta  Ta1  1  0.00000000  0.00000000  0.50000000  1.0
  Ag  Ag2  1  0.50000000  0.50000000  0.50000000  1.0
  Ag  Ag3  1  0.50000000  0.50000000  0.00000000  1.0
  Se  Se4  1  -0.45722205  1.05895805  0.75000000  1.0
  Se  Se5  1  0.45722205  0.94104195  0.25000000  1.0
  Se  Se6  1  0.05895805  0.54277795  0.25000000  1.0
  Se  Se7  1  -0.05895805  1.45722205  0.75000000  1.0
  O  O8  1  -0.58513096  1.31056073  0.75000000  1.0
  O  O9  1  0.58513096  0.68943927  0.25000000  1.0
  O  O10  1  0.31056073  0.41486904  0.25000000  1.0
  O  O11  1  -0.31056073  1.58513096  0.75000000  1.0
  O  O12  1  -0.29261482  1.04094488  0.93697593  1.0
  O  O13  1  0.29261482  0.95905512  0.43697593  1.0
  O  O14  1  0.04094488  0.70738518  0.06302407  1.0
  O  O15  1  -0.04094488  1.29261482  0.56302407  1.0
  O  O16  1  0.29261482  0.95905512  0.06302407  1.0
  O  O17  1  -0.29261482  1.04094488  0.56302407  1.0
  O  O18  1  -0.04094488  1.29261482  0.93697593  1.0
  O  O19  1  0.04094488  0.70738518  0.43697593  1.0
  O  O20  1  -0.07594565  1.07594565  0.25000000  1.0
  O  O21  1  0.07594565  0.92405435  0.75000000  1.0
