# generated using pymatgen
data_ReAgO4
_symmetry_space_group_name_H-M   'P 1'
_cell_length_a   7.01114286
_cell_length_b   7.01114286
_cell_length_c   7.01114286
_cell_angle_alpha   133.23274415
_cell_angle_beta   133.23274415
_cell_angle_gamma   68.28887306
_symmetry_Int_Tables_number   1
_chemical_formula_structural   ReAgO4
_chemical_formula_sum   'Re2 Ag2 O8'
_cell_volume   179.71773398
_cell_formula_units_Z   2
loop_
 _symmetry_equiv_pos_site_id
 _symmetry_equiv_pos_as_xyz
  1  'x, y, z'
loop_
 _atom_site_type_symbol
 _atom_site_label
 _atom_site_symmetry_multiplicity
 _atom_site_fract_x
 _atom_site_fract_y
 _atom_site_fract_z
 _atom_site_occupancy
  Re  Re0  1  0.75000000  0.25000000  0.50000000  1.0
  Re  Re1  1  1.00000000  1.00000000  1.00000000  1.0
  Ag  Ag2  1  0.50000000  0.50000000  -0.00000000  1.0
  Ag  Ag3  1  0.25000000  0.75000000  0.50000000  1.0
  O  O4  1  1.06300943  1.21164031  1.60276535  1.0
  O  O5  1  0.60887496  0.46024409  0.39723465  1.0
  O  O6  1  1.21024409  1.31300943  1.35136913  1.0
  O  O7  1  0.96164031  0.85887496  0.64863087  1.0
  O  O8  1  0.68699057  1.03835969  0.89723465  1.0
  O  O9  1  1.14112504  0.78975591  1.10276535  1.0
  O  O10  1  0.53975591  0.93699057  1.14863087  1.0
  O  O11  1  0.78835969  0.39112504  0.85136913  1.0
