# generated using pymatgen
data_LaSiAs3
_symmetry_space_group_name_H-M   'P 1'
_cell_length_a   6.12519174
_cell_length_b   26.66656853
_cell_length_c   6.00361576
_cell_angle_alpha   90.00000000
_cell_angle_beta   90.00000000
_cell_angle_gamma   90.00000000
_symmetry_Int_Tables_number   1
_chemical_formula_structural   LaSiAs3
_chemical_formula_sum   'La8 Si8 As24'
_cell_volume   980.61766331
_cell_formula_units_Z   8
loop_
 _symmetry_equiv_pos_site_id
 _symmetry_equiv_pos_as_xyz
  1  'x, y, z'
loop_
 _atom_site_type_symbol
 _atom_site_label
 _atom_site_symmetry_multiplicity
 _atom_site_fract_x
 _atom_site_fract_y
 _atom_site_fract_z
 _atom_site_occupancy
  La  La0  1  0.48216034  0.59053019  0.52827290  1.0
  La  La1  1  0.98216034  0.90946981  0.52827290  1.0
  La  La2  1  0.51783966  0.40946981  0.02827290  1.0
  La  La3  1  0.01783966  0.09053019  0.02827290  1.0
  La  La4  1  0.48055153  0.90366892  0.02783610  1.0
  La  La5  1  0.98055153  0.59633108  0.02783610  1.0
  La  La6  1  0.51944847  0.09633108  0.52783610  1.0
  La  La7  1  0.01944847  0.40366892  0.52783610  1.0
  Si  Si8  1  0.43424126  0.29461190  0.61100438  1.0
  Si  Si9  1  0.93424126  0.20538810  0.61100438  1.0
  Si  Si10  1  0.56575874  0.70538810  0.11100438  1.0
  Si  Si11  1  0.06575874  0.79461190  0.11100438  1.0
  Si  Si12  1  0.38844575  0.79204729  0.60925310  1.0
  Si  Si13  1  0.88844575  0.70795271  0.60925310  1.0
  Si  Si14  1  0.61155425  0.20795271  0.10925310  1.0
  Si  Si15  1  0.11155425  0.29204729  0.10925310  1.0
  As  As16  1  0.48668334  0.87478911  0.52600008  1.0
  As  As17  1  0.98668334  0.62521089  0.52600008  1.0
  As  As18  1  0.51331666  0.12521089  0.02600008  1.0
  As  As19  1  0.01331666  0.37478911  0.02600008  1.0
  As  As20  1  0.47720993  0.62235913  0.02561793  1.0
  As  As21  1  0.97720993  0.87764087  0.02561793  1.0
  As  As22  1  0.52279007  0.37764087  0.52561793  1.0
  As  As23  1  0.02279007  0.12235913  0.52561793  1.0
  As  As24  1  0.43542448  0.78621663  0.00372587  1.0
  As  As25  1  0.93542448  0.71378337  0.00372587  1.0
  As  As26  1  0.56457552  0.21378337  0.50372587  1.0
  As  As27  1  0.06457552  0.28621663  0.50372587  1.0
  As  As28  1  0.29507115  0.00185645  0.74439370  1.0
  As  As29  1  0.79507115  0.49814355  0.74439370  1.0
  As  As30  1  0.70492885  0.99814355  0.24439370  1.0
  As  As31  1  0.20492885  0.50185645  0.24439370  1.0
  As  As32  1  0.20621110  0.50183028  0.81788084  1.0
  As  As33  1  0.70621110  0.99816972  0.81788084  1.0
  As  As34  1  0.79378890  0.49816972  0.31788084  1.0
  As  As35  1  0.29378890  0.00183028  0.31788084  1.0
  As  As36  1  0.01711968  0.78976665  0.50501510  1.0
  As  As37  1  0.51711968  0.71023335  0.50501510  1.0
  As  As38  1  0.98288032  0.21023335  0.00501510  1.0
  As  As39  1  0.48288032  0.28976665  0.00501510  1.0
