# generated using pymatgen
data_Gd(CuO2)2
_symmetry_space_group_name_H-M   'P 1'
_cell_length_a   6.33415018
_cell_length_b   6.33415018
_cell_length_c   5.75821922
_cell_angle_alpha   62.99026921
_cell_angle_beta   117.00973079
_cell_angle_gamma   79.96221434
_symmetry_Int_Tables_number   1
_chemical_formula_structural   Gd(CuO2)2
_chemical_formula_sum   'Gd2 Cu4 O8'
_cell_volume   160.93143580
_cell_formula_units_Z   2
loop_
 _symmetry_equiv_pos_site_id
 _symmetry_equiv_pos_as_xyz
  1  'x, y, z'
loop_
 _atom_site_type_symbol
 _atom_site_label
 _atom_site_symmetry_multiplicity
 _atom_site_fract_x
 _atom_site_fract_y
 _atom_site_fract_z
 _atom_site_occupancy
  O  O0  1  1.67623186  -0.02843264  0.81562401  1.0
  O  O1  1  1.02843264  0.32376814  0.31562401  1.0
  O  O2  1  0.97156736  0.67623186  0.68437599  1.0
  O  O3  1  1.32376814  0.02843264  0.18437599  1.0
  O  O4  1  1.36045298  -0.21269228  0.88907255  1.0
  O  O5  1  1.21269228  0.63954702  0.38907255  1.0
  O  O6  1  0.78730772  0.36045298  0.61092745  1.0
  O  O7  1  1.63954702  0.21269228  0.11092745  1.0
  Gd  Gd8  1  0.62501422  0.62501422  0.75000000  1.0
  Gd  Gd9  1  1.37498578  0.37498578  0.25000000  1.0
  Cu  Cu10  1  1.50000000  -0.00000000  0.00000000  1.0
  Cu  Cu11  1  1.00000000  0.50000000  0.50000000  1.0
  Cu  Cu12  1  0.00000000  0.00000000  0.00000000  1.0
  Cu  Cu13  1  0.00000000  0.00000000  0.50000000  1.0
