# generated using pymatgen
data_CdH4Br3N
_symmetry_space_group_name_H-M   'P 1'
_cell_length_a   9.80099170
_cell_length_b   4.22352035
_cell_length_c   16.17079817
_cell_angle_alpha   90.00000000
_cell_angle_beta   90.00000000
_cell_angle_gamma   90.00000000
_symmetry_Int_Tables_number   1
_chemical_formula_structural   CdH4Br3N
_chemical_formula_sum   'Cd4 H16 Br12 N4'
_cell_volume   669.38514353
_cell_formula_units_Z   4
loop_
 _symmetry_equiv_pos_site_id
 _symmetry_equiv_pos_as_xyz
  1  'x, y, z'
loop_
 _atom_site_type_symbol
 _atom_site_label
 _atom_site_symmetry_multiplicity
 _atom_site_fract_x
 _atom_site_fract_y
 _atom_site_fract_z
 _atom_site_occupancy
  Cd  Cd0  1  0.83503005  0.75000000  0.44865182  1.0
  Cd  Cd1  1  0.33503005  0.75000000  0.05134818  1.0
  Cd  Cd2  1  0.16496995  0.25000000  0.55134818  1.0
  Cd  Cd3  1  0.66496995  0.25000000  0.94865182  1.0
  H  H4  1  1.02391048  0.44556372  0.18613369  1.0
  H  H5  1  1.02391048  0.05443628  0.18613369  1.0
  H  H6  1  0.52391048  0.44556372  0.31386631  1.0
  H  H7  1  0.52391048  0.05443628  0.31386631  1.0
  H  H8  1  -0.02391048  0.94556372  0.81386631  1.0
  H  H9  1  -0.02391048  0.55443628  0.81386631  1.0
  H  H10  1  0.47608952  0.94556372  0.68613369  1.0
  H  H11  1  0.47608952  0.55443628  0.68613369  1.0
  H  H12  1  0.11917110  0.75000000  0.78182385  1.0
  H  H13  1  0.61917110  0.75000000  0.71817615  1.0
  H  H14  1  0.88082890  0.25000000  0.21817615  1.0
  H  H15  1  0.38082890  0.25000000  0.28182385  1.0
  H  H16  1  0.57485284  0.75000000  0.61692260  1.0
  H  H17  1  0.07485284  0.75000000  0.88307740  1.0
  H  H18  1  0.42514716  0.25000000  0.38307740  1.0
  H  H19  1  0.92514716  0.25000000  0.11692260  1.0
  Br  Br20  1  0.98083516  0.75000000  0.59976046  1.0
  Br  Br21  1  0.48083516  0.75000000  0.90023954  1.0
  Br  Br22  1  0.01916484  0.25000000  0.40023954  1.0
  Br  Br23  1  0.51916484  0.25000000  0.09976046  1.0
  Br  Br24  1  0.82988145  0.75000000  0.00725160  1.0
  Br  Br25  1  0.32988145  0.75000000  0.49274840  1.0
  Br  Br26  1  0.17011855  0.25000000  0.99274840  1.0
  Br  Br27  1  0.67011855  0.25000000  0.50725160  1.0
  Br  Br28  1  0.72278155  0.75000000  0.29298402  1.0
  Br  Br29  1  0.22278155  0.75000000  0.20701598  1.0
  Br  Br30  1  0.27721845  0.25000000  0.70701598  1.0
  Br  Br31  1  0.77721845  0.25000000  0.79298402  1.0
  N  N32  1  0.53905062  0.75000000  0.67680792  1.0
  N  N33  1  0.03905062  0.75000000  0.82319208  1.0
  N  N34  1  0.46094938  0.25000000  0.32319208  1.0
  N  N35  1  0.96094938  0.25000000  0.17680792  1.0
