# generated using pymatgen
data_Hf5Te4
_symmetry_space_group_name_H-M   'P 1'
_cell_length_a   7.85243759
_cell_length_b   7.85243759
_cell_length_c   7.85243759
_cell_angle_alpha   93.30986224
_cell_angle_beta   93.30986224
_cell_angle_gamma   152.19352478
_symmetry_Int_Tables_number   1
_chemical_formula_structural   Hf5Te4
_chemical_formula_sum   'Hf5 Te4'
_cell_volume   219.24969077
_cell_formula_units_Z   1
loop_
 _symmetry_equiv_pos_site_id
 _symmetry_equiv_pos_as_xyz
  1  'x, y, z'
loop_
 _atom_site_type_symbol
 _atom_site_label
 _atom_site_symmetry_multiplicity
 _atom_site_fract_x
 _atom_site_fract_y
 _atom_site_fract_z
 _atom_site_occupancy
  Hf  Hf0  1  0.00000000  0.00000000  -0.00000000  1.0
  Hf  Hf1  1  0.63194455  0.31040923  0.94235378  1.0
  Hf  Hf2  1  0.36805545  0.68959077  1.05764622  1.0
  Hf  Hf3  1  1.31040923  1.36805545  1.67846467  1.0
  Hf  Hf4  1  0.68959077  0.63194455  0.32153533  1.0
  Te  Te5  1  0.71363013  0.05138391  0.76501404  1.0
  Te  Te6  1  0.28636987  0.94861609  1.23498596  1.0
  Te  Te7  1  1.05138391  1.28636987  1.33775378  1.0
  Te  Te8  1  0.94861609  0.71363013  0.66224622  1.0
