# generated using pymatgen
data_K4Nb2Si8O23
_symmetry_space_group_name_H-M   'P 1'
_cell_length_a   6.83938385
_cell_length_b   11.09547626
_cell_length_c   7.96461952
_cell_angle_alpha   103.90523669
_cell_angle_beta   108.03218122
_cell_angle_gamma   89.68985061
_symmetry_Int_Tables_number   1
_chemical_formula_structural   K4Nb2Si8O23
_chemical_formula_sum   'K4 Nb2 Si8 O23'
_cell_volume   556.31587303
_cell_formula_units_Z   1
loop_
 _symmetry_equiv_pos_site_id
 _symmetry_equiv_pos_as_xyz
  1  'x, y, z'
loop_
 _atom_site_type_symbol
 _atom_site_label
 _atom_site_symmetry_multiplicity
 _atom_site_fract_x
 _atom_site_fract_y
 _atom_site_fract_z
 _atom_site_occupancy
  K  K0  1  0.67068543  0.85711700  -0.31291422  1.0
  K  K1  1  0.32931457  0.14288300  -0.68708578  1.0
  K  K2  1  0.27803369  0.47667821  -0.74711358  1.0
  K  K3  1  0.72196631  0.52332179  -0.25288642  1.0
  Nb  Nb4  1  0.78587277  0.30117721  -0.71909476  1.0
  Nb  Nb5  1  0.21412723  0.69882279  -0.28090524  1.0
  Si  Si6  1  0.82362863  0.98677522  -0.69613139  1.0
  Si  Si7  1  0.17637137  0.01322478  -0.30386861  1.0
  Si  Si8  1  0.82706044  0.62036193  -0.70124094  1.0
  Si  Si9  1  0.17293956  0.37963807  -0.29875906  1.0
  Si  Si10  1  0.47824889  0.77263059  -0.82256531  1.0
  Si  Si11  1  0.52175111  0.22736941  -0.17743469  1.0
  Si  Si12  1  0.02064178  0.78041290  -0.90564596  1.0
  Si  Si13  1  0.97935822  0.21958710  -0.09435404  1.0
  O  O14  1  0.90923827  0.67214101  -0.84789578  1.0
  O  O15  1  0.09076173  0.32785899  -0.15210422  1.0
  O  O16  1  1.00552392  0.25509912  -0.88157228  1.0
  O  O17  1  -0.00552392  0.74490088  -0.11842772  1.0
  O  O18  1  0.91991888  0.91483993  -0.85473515  1.0
  O  O19  1  0.08008112  0.08516007  -0.14526485  1.0
  O  O20  1  0.95214374  0.68648164  -0.48962938  1.0
  O  O21  1  0.04785626  0.31351836  -0.51037062  1.0
  O  O22  1  0.74794050  0.11909181  -0.72532476  1.0
  O  O23  1  0.25205950  0.88090819  -0.27467524  1.0
  O  O24  1  0.84460606  0.47172645  -0.74858742  1.0
  O  O25  1  0.15539394  0.52827355  -0.25141258  1.0
  O  O26  1  0.61280828  0.35445076  -0.59461438  1.0
  O  O27  1  0.38719172  0.64554924  -0.40538562  1.0
  O  O28  1  0.62616077  0.90040410  -0.69945778  1.0
  O  O29  1  0.37383923  0.09959590  -0.30054222  1.0
  O  O30  1  0.58266745  0.65569056  -0.73977392  1.0
  O  O31  1  0.41733255  0.34430944  -0.26022608  1.0
  O  O32  1  0.55686940  0.25714821  -0.96230900  1.0
  O  O33  1  0.44313060  0.74285179  -0.03769100  1.0
  O  O34  1  0.26347552  0.79559985  -0.77324345  1.0
  O  O35  1  0.73652448  0.20440015  -0.22675655  1.0
  O  O36  1  -0.00000000  -0.00000000  -0.50000000  1.0
