# generated using pymatgen
data_YCrO4
_symmetry_space_group_name_H-M   'P 1'
_cell_length_a   6.68883352
_cell_length_b   6.68883352
_cell_length_c   6.68883352
_cell_angle_alpha   135.76171435
_cell_angle_beta   135.76171435
_cell_angle_gamma   64.34894444
_symmetry_Int_Tables_number   1
_chemical_formula_structural   YCrO4
_chemical_formula_sum   'Y2 Cr2 O8'
_cell_volume   143.65157505
_cell_formula_units_Z   2
loop_
 _symmetry_equiv_pos_site_id
 _symmetry_equiv_pos_as_xyz
  1  'x, y, z'
loop_
 _atom_site_type_symbol
 _atom_site_label
 _atom_site_symmetry_multiplicity
 _atom_site_fract_x
 _atom_site_fract_y
 _atom_site_fract_z
 _atom_site_occupancy
  Y  Y0  1  0.25000000  0.75000000  0.50000000  1.0
  Y  Y1  1  0.50000000  0.50000000  -0.00000000  1.0
  Cr  Cr2  1  0.75000000  0.25000000  0.50000000  1.0
  Cr  Cr3  1  1.00000000  1.00000000  1.00000000  1.0
  O  O4  1  1.08440212  0.46940253  0.89905835  1.0
  O  O5  1  0.57034418  1.18534377  1.10094165  1.0
  O  O6  1  0.93534377  1.33440212  1.11499959  1.0
  O  O7  1  1.21940253  0.82034418  0.88500041  1.0
  O  O8  1  0.66559788  0.78059747  0.60094165  1.0
  O  O9  1  1.17965582  1.06465623  1.39905835  1.0
  O  O10  1  0.81465623  0.91559788  1.38500041  1.0
  O  O11  1  0.53059747  0.42965582  0.61499959  1.0
