# generated using pymatgen
data_Hf(MoO4)2
_symmetry_space_group_name_H-M   'P 1'
_cell_length_a   5.88772517
_cell_length_b   5.88772517
_cell_length_c   6.59180946
_cell_angle_alpha   89.99008853
_cell_angle_beta   90.00991147
_cell_angle_gamma   119.99940161
_symmetry_Int_Tables_number   1
_chemical_formula_structural   Hf(MoO4)2
_chemical_formula_sum   'Hf1 Mo2 O8'
_cell_volume   197.89414557
_cell_formula_units_Z   1
loop_
 _symmetry_equiv_pos_site_id
 _symmetry_equiv_pos_as_xyz
  1  'x, y, z'
loop_
 _atom_site_type_symbol
 _atom_site_label
 _atom_site_symmetry_multiplicity
 _atom_site_fract_x
 _atom_site_fract_y
 _atom_site_fract_z
 _atom_site_occupancy
  Hf  Hf0  1  -0.00000000  -0.00000000  0.00000000  1.0
  Mo  Mo1  1  0.66666795  -0.66666795  0.72810956  1.0
  Mo  Mo2  1  0.33333205  -0.33333205  0.27189044  1.0
  O  O3  1  1.33397215  0.16690166  0.82013346  1.0
  O  O4  1  0.83309834  -0.33397215  0.82013346  1.0
  O  O5  1  1.16690166  0.33397215  0.17986654  1.0
  O  O6  1  0.66602785  -0.16690166  0.17986654  1.0
  O  O7  1  0.83309047  -0.83309047  0.81990619  1.0
  O  O8  1  0.16690953  -0.16690953  0.18009381  1.0
  O  O9  1  0.66655395  -0.66655395  0.46904422  1.0
  O  O10  1  0.33344605  -0.33344605  0.53095578  1.0
