# generated using pymatgen
data_K4Ta2S11
_symmetry_space_group_name_H-M   'P 1'
_cell_length_a   7.60936632
_cell_length_b   12.01308423
_cell_length_c   11.64794942
_cell_angle_alpha   68.85427153
_cell_angle_beta   85.56619657
_cell_angle_gamma   86.37344759
_symmetry_Int_Tables_number   1
_chemical_formula_structural   K4Ta2S11
_chemical_formula_sum   'K8 Ta4 S22'
_cell_volume   989.37885553
_cell_formula_units_Z   2
loop_
 _symmetry_equiv_pos_site_id
 _symmetry_equiv_pos_as_xyz
  1  'x, y, z'
loop_
 _atom_site_type_symbol
 _atom_site_label
 _atom_site_symmetry_multiplicity
 _atom_site_fract_x
 _atom_site_fract_y
 _atom_site_fract_z
 _atom_site_occupancy
  K  K0  1  -0.97291718  -0.34723990  -0.68701908  1.0
  K  K1  1  -0.02708282  -0.65276010  -0.31298092  1.0
  K  K2  1  -0.75732967  -0.99384472  -0.13058351  1.0
  K  K3  1  -0.24267033  -0.00615528  -0.86941649  1.0
  K  K4  1  -0.28389608  -0.88784348  -0.46267318  1.0
  K  K5  1  -0.71610392  -0.11215652  -0.53732682  1.0
  K  K6  1  -0.27101623  -0.55324478  -0.84738569  1.0
  K  K7  1  -0.72898377  -0.44675522  -0.15261431  1.0
  Ta  Ta8  1  -0.85489698  -0.70471663  -0.63246094  1.0
  Ta  Ta9  1  -0.14510302  -0.29528337  -0.36753906  1.0
  Ta  Ta10  1  -0.76692490  -0.84042282  -0.85246718  1.0
  Ta  Ta11  1  -0.23307510  -0.15957718  -0.14753282  1.0
  S  S12  1  -1.01438435  -0.75499485  -0.98395121  1.0
  S  S13  1  0.01438435  -0.24500515  -0.01604879  1.0
  S  S14  1  -0.99180559  -0.86622989  -0.68097957  1.0
  S  S15  1  -0.00819441  -0.13377011  -0.31902043  1.0
  S  S16  1  -0.88855318  -0.38019744  -0.41733295  1.0
  S  S17  1  -0.11144682  -0.61980256  -0.58266705  1.0
  S  S18  1  -0.84680972  -0.60260770  -0.86241827  1.0
  S  S19  1  -0.15319028  -0.39739230  -0.13758173  1.0
  S  S20  1  -0.78954908  -0.86581666  -0.43571578  1.0
  S  S21  1  -0.21045092  -0.13418334  -0.56428422  1.0
  S  S22  1  -0.76856780  -0.74085012  -0.08415465  1.0
  S  S23  1  -0.23143220  -0.25914988  -0.91584535  1.0
  S  S24  1  -0.73562619  -0.03367811  -0.83871859  1.0
  S  S25  1  -0.26437381  -0.96632189  -0.16128141  1.0
  S  S26  1  -0.68991440  -0.53091900  -0.76675293  1.0
  S  S27  1  -0.31008560  -0.46908100  -0.23324707  1.0
  S  S28  1  -0.66688634  -0.70384434  -0.46801329  1.0
  S  S29  1  -0.33311366  -0.29615566  -0.53198671  1.0
  S  S30  1  -0.56813578  -0.83636606  -0.69250923  1.0
  S  S31  1  -0.43186422  -0.16363394  -0.30749077  1.0
  S  S32  1  -0.46412414  -0.77128468  -0.87547077  1.0
  S  S33  1  -0.53587586  -0.22871532  -0.12452923  1.0
