# generated using pymatgen
data_SiO2
_symmetry_space_group_name_H-M   'P 1'
_cell_length_a   9.92559940
_cell_length_b   9.93613112
_cell_length_c   8.45526133
_cell_angle_alpha   90.00000000
_cell_angle_beta   90.00000000
_cell_angle_gamma   90.00000000
_symmetry_Int_Tables_number   1
_chemical_formula_structural   SiO2
_chemical_formula_sum   'Si16 O32'
_cell_volume   833.87526549
_cell_formula_units_Z   16
loop_
 _symmetry_equiv_pos_site_id
 _symmetry_equiv_pos_as_xyz
  1  'x, y, z'
loop_
 _atom_site_type_symbol
 _atom_site_label
 _atom_site_symmetry_multiplicity
 _atom_site_fract_x
 _atom_site_fract_y
 _atom_site_fract_z
 _atom_site_occupancy
  Si  Si0  1  0.66729328  0.37639721  0.31264863  1.0
  Si  Si1  1  0.33270672  0.62360279  0.31264863  1.0
  Si  Si2  1  0.16729328  0.12360279  0.68735137  1.0
  Si  Si3  1  0.83270672  0.87639721  0.68735137  1.0
  Si  Si4  1  0.33270672  0.62360279  0.68735137  1.0
  Si  Si5  1  0.66729328  0.37639721  0.68735137  1.0
  Si  Si6  1  0.83270672  0.87639721  0.31264863  1.0
  Si  Si7  1  0.16729328  0.12360279  0.31264863  1.0
  Si  Si8  1  0.87610888  0.16696190  0.18736740  1.0
  Si  Si9  1  0.12389112  0.83303810  0.18736740  1.0
  Si  Si10  1  0.37610888  0.33303810  0.81263260  1.0
  Si  Si11  1  0.62389112  0.66696190  0.81263260  1.0
  Si  Si12  1  0.12389112  0.83303810  0.81263260  1.0
  Si  Si13  1  0.87610888  0.16696190  0.81263260  1.0
  Si  Si14  1  0.62389112  0.66696190  0.18736740  1.0
  Si  Si15  1  0.37610888  0.33303810  0.18736740  1.0
  O  O16  1  0.35382529  0.65255912  0.50000000  1.0
  O  O17  1  0.64617471  0.34744088  0.50000000  1.0
  O  O18  1  0.85382529  0.84744088  0.50000000  1.0
  O  O19  1  0.14617471  0.15255912  0.50000000  1.0
  O  O20  1  0.15285910  0.85411804  0.00000000  1.0
  O  O21  1  0.84714090  0.14588196  0.00000000  1.0
  O  O22  1  0.65285910  0.64588196  0.00000000  1.0
  O  O23  1  0.34714090  0.35411804  0.00000000  1.0
  O  O24  1  0.80311447  0.30296347  0.24994353  1.0
  O  O25  1  0.19688553  0.69703653  0.24994353  1.0
  O  O26  1  0.30311447  0.19703653  0.75005647  1.0
  O  O27  1  0.69688553  0.80296347  0.75005647  1.0
  O  O28  1  0.19688553  0.69703653  0.75005647  1.0
  O  O29  1  0.80311447  0.30296347  0.75005647  1.0
  O  O30  1  0.69688553  0.80296347  0.24994353  1.0
  O  O31  1  0.30311447  0.19703653  0.24994353  1.0
  O  O32  1  0.53791425  0.31796546  0.21558868  1.0
  O  O33  1  0.46208575  0.68203454  0.21558868  1.0
  O  O34  1  0.03791425  0.18203454  0.78441132  1.0
  O  O35  1  0.96208575  0.81796546  0.78441132  1.0
  O  O36  1  0.46208575  0.68203454  0.78441132  1.0
  O  O37  1  0.53791425  0.31796546  0.78441132  1.0
  O  O38  1  0.96208575  0.81796546  0.21558868  1.0
  O  O39  1  0.03791425  0.18203454  0.21558868  1.0
  O  O40  1  0.81702897  0.03800019  0.28449423  1.0
  O  O41  1  0.18297103  0.96199981  0.28449423  1.0
  O  O42  1  0.31702897  0.46199981  0.71550577  1.0
  O  O43  1  0.68297103  0.53800019  0.71550577  1.0
  O  O44  1  0.18297103  0.96199981  0.71550577  1.0
  O  O45  1  0.81702897  0.03800019  0.71550577  1.0
  O  O46  1  0.68297103  0.53800019  0.28449423  1.0
  O  O47  1  0.31702897  0.46199981  0.28449423  1.0
