# generated using pymatgen
data_Al4Bi2O9
_symmetry_space_group_name_H-M   'P 1'
_cell_length_a   7.80389509
_cell_length_b   8.24417607
_cell_length_c   5.77073229
_cell_angle_alpha   90.00000000
_cell_angle_beta   90.00000000
_cell_angle_gamma   90.00000000
_symmetry_Int_Tables_number   1
_chemical_formula_structural   Al4Bi2O9
_chemical_formula_sum   'Al8 Bi4 O18'
_cell_volume   371.26978626
_cell_formula_units_Z   2
loop_
 _symmetry_equiv_pos_site_id
 _symmetry_equiv_pos_as_xyz
  1  'x, y, z'
loop_
 _atom_site_type_symbol
 _atom_site_label
 _atom_site_symmetry_multiplicity
 _atom_site_fract_x
 _atom_site_fract_y
 _atom_site_fract_z
 _atom_site_occupancy
  Al  Al0  1  0.35200745  0.66052936  0.00000000  1.0
  Al  Al1  1  0.85200745  0.83947064  0.00000000  1.0
  Al  Al2  1  0.64799255  0.33947064  0.00000000  1.0
  Al  Al3  1  0.14799255  0.16052936  0.00000000  1.0
  Al  Al4  1  0.50000000  0.00000000  0.76116212  1.0
  Al  Al5  1  0.50000000  0.00000000  0.23883788  1.0
  Al  Al6  1  0.00000000  0.50000000  0.76116212  1.0
  Al  Al7  1  0.00000000  0.50000000  0.23883788  1.0
  Bi  Bi8  1  0.17195308  0.83019314  0.50000000  1.0
  Bi  Bi9  1  0.67195308  0.66980686  0.50000000  1.0
  Bi  Bi10  1  0.82804692  0.16980686  0.50000000  1.0
  Bi  Bi11  1  0.32804692  0.33019314  0.50000000  1.0
  O  O12  1  0.37584577  0.79217406  0.75148591  1.0
  O  O13  1  0.37584577  0.79217406  0.24851409  1.0
  O  O14  1  0.87584577  0.70782594  0.75148591  1.0
  O  O15  1  0.87584577  0.70782594  0.24851409  1.0
  O  O16  1  0.62415423  0.20782594  0.75148591  1.0
  O  O17  1  0.62415423  0.20782594  0.24851409  1.0
  O  O18  1  0.12415423  0.29217406  0.75148591  1.0
  O  O19  1  0.12415423  0.29217406  0.24851409  1.0
  O  O20  1  0.14354332  0.56549875  0.50000000  1.0
  O  O21  1  0.64354332  0.93450125  0.50000000  1.0
  O  O22  1  0.85645668  0.43450125  0.50000000  1.0
  O  O23  1  0.35645668  0.06549875  0.50000000  1.0
  O  O24  1  0.13840710  0.58506667  0.00000000  1.0
  O  O25  1  0.63840710  0.91493333  0.00000000  1.0
  O  O26  1  0.86159290  0.41493333  0.00000000  1.0
  O  O27  1  0.36159290  0.08506667  0.00000000  1.0
  O  O28  1  0.50000000  0.50000000  0.00000000  1.0
  O  O29  1  0.00000000  0.00000000  0.00000000  1.0
