# generated using pymatgen
data_AgC3N4O5
_symmetry_space_group_name_H-M   'P 1'
_cell_length_a   7.63243320
_cell_length_b   5.25260964
_cell_length_c   10.38497858
_cell_angle_alpha   68.00373460
_cell_angle_beta   63.52753206
_cell_angle_gamma   72.43929742
_symmetry_Int_Tables_number   1
_chemical_formula_structural   AgC3N4O5
_chemical_formula_sum   'Ag2 C6 N8 O10'
_cell_volume   340.96938006
_cell_formula_units_Z   2
loop_
 _symmetry_equiv_pos_site_id
 _symmetry_equiv_pos_as_xyz
  1  'x, y, z'
loop_
 _atom_site_type_symbol
 _atom_site_label
 _atom_site_symmetry_multiplicity
 _atom_site_fract_x
 _atom_site_fract_y
 _atom_site_fract_z
 _atom_site_occupancy
  Ag  Ag0  1  -0.93854312  0.03728112  0.68548057  1.0
  Ag  Ag1  1  -0.06145688  -0.03728112  0.31451943  1.0
  C  C2  1  -0.44024974  -0.26325780  0.71624894  1.0
  C  C3  1  -0.55975026  0.26325780  0.28375106  1.0
  C  C4  1  -0.89353494  -0.50129660  0.96864502  1.0
  C  C5  1  -0.10646506  0.50129660  0.03135498  1.0
  C  C6  1  -0.61035426  -0.39090885  0.82709333  1.0
  C  C7  1  -0.38964574  0.39090885  0.17290667  1.0
  N  N8  1  -0.75082498  0.41951169  0.31797469  1.0
  N  N9  1  -0.24917502  -0.41951169  0.68202531  1.0
  N  N10  1  -0.22341950  -0.30643310  0.96827948  1.0
  N  N11  1  -0.77658050  0.30643310  0.03172052  1.0
  N  N12  1  -0.46876958  0.02459222  0.64241610  1.0
  N  N13  1  -0.53123042  -0.02459222  0.35758390  1.0
  N  N14  1  -0.79861572  -0.30903321  0.84200671  1.0
  N  N15  1  -0.20138428  0.30903321  0.15799329  1.0
  O  O16  1  -0.76070902  0.68157028  0.26293743  1.0
  O  O17  1  -0.23929098  -0.68157028  0.73706257  1.0
  O  O18  1  -0.63274288  0.16470318  0.69899726  1.0
  O  O19  1  -0.36725712  -0.16470318  0.30100274  1.0
  O  O20  1  -0.90287632  0.30931375  0.39524724  1.0
  O  O21  1  -0.09712368  -0.30931375  0.60475276  1.0
  O  O22  1  -0.33705866  0.13264701  0.52433120  1.0
  O  O23  1  -0.66294134  -0.13264701  0.47566880  1.0
  O  O24  1  -0.58888827  -0.62297140  0.93883874  1.0
  O  O25  1  -0.41111173  0.62297140  0.06116126  1.0
