# generated using pymatgen
data_CaZrGeO5
_symmetry_space_group_name_H-M   'P 1'
_cell_length_a   5.63758903
_cell_length_b   7.54243778
_cell_length_c   5.83524968
_cell_angle_alpha   104.48165305
_cell_angle_beta   106.95302532
_cell_angle_gamma   102.17448707
_symmetry_Int_Tables_number   1
_chemical_formula_structural   CaZrGeO5
_chemical_formula_sum   'Ca2 Zr2 Ge2 O10'
_cell_volume   218.74313260
_cell_formula_units_Z   2
loop_
 _symmetry_equiv_pos_site_id
 _symmetry_equiv_pos_as_xyz
  1  'x, y, z'
loop_
 _atom_site_type_symbol
 _atom_site_label
 _atom_site_symmetry_multiplicity
 _atom_site_fract_x
 _atom_site_fract_y
 _atom_site_fract_z
 _atom_site_occupancy
  Ca  Ca0  1  -0.34332904  -0.70760406  -0.68233843  1.0
  Ca  Ca1  1  -0.65667096  -0.29239594  -0.31766157  1.0
  Zr  Zr2  1  -0.00000000  -0.50000000  -0.00000000  1.0
  Zr  Zr3  1  0.00000000  0.00000000  0.00000000  1.0
  Ge  Ge4  1  -0.68453654  -0.74878460  -0.32569705  1.0
  Ge  Ge5  1  -0.31546346  -0.25121540  -0.67430295  1.0
  O  O6  1  -0.92296260  -0.62435339  -0.33534115  1.0
  O  O7  1  -0.07703740  -0.37564661  -0.66465885  1.0
  O  O8  1  -0.71781150  -0.89473383  -0.62808797  1.0
  O  O9  1  -0.28218850  -0.10526617  -0.37191203  1.0
  O  O10  1  -0.69011640  -0.87659004  -0.11068838  1.0
  O  O11  1  -0.30988360  -0.12340996  -0.88931162  1.0
  O  O12  1  -0.60695834  -0.44176752  -0.75362832  1.0
  O  O13  1  -0.39304166  -0.55823248  -0.24637168  1.0
  O  O14  1  -0.10086598  -0.75133030  -0.93171248  1.0
  O  O15  1  -0.89913402  -0.24866970  -0.06828752  1.0
