# generated using pymatgen
data_H2S
_symmetry_space_group_name_H-M   'P 1'
_cell_length_a   8.98733376
_cell_length_b   8.98733376
_cell_length_c   8.98733376
_cell_angle_alpha   116.17548874
_cell_angle_beta   116.17548874
_cell_angle_gamma   96.76261683
_symmetry_Int_Tables_number   1
_chemical_formula_structural   H2S
_chemical_formula_sum   'H16 S8'
_cell_volume   538.91340992
_cell_formula_units_Z   8
loop_
 _symmetry_equiv_pos_site_id
 _symmetry_equiv_pos_as_xyz
  1  'x, y, z'
loop_
 _atom_site_type_symbol
 _atom_site_label
 _atom_site_symmetry_multiplicity
 _atom_site_fract_x
 _atom_site_fract_y
 _atom_site_fract_z
 _atom_site_occupancy
  H  H0  1  0.54666791  1.28744470  0.74801768  1.0
  H  H1  1  0.04666791  0.29865024  0.25922321  1.0
  H  H2  1  0.21057298  0.45134976  0.24801768  1.0
  H  H3  1  0.71057298  0.46255530  0.75922321  1.0
  H  H4  1  0.53942702  0.79865024  1.25198232  1.0
  H  H5  1  1.03942702  0.78744470  0.74077679  1.0
  H  H6  1  1.20333209  0.96255530  1.75198232  1.0
  H  H7  1  0.70333209  0.95134976  1.24077679  1.0
  H  H8  1  0.71255530  0.46057298  0.25922321  1.0
  H  H9  1  0.70134976  0.96057298  0.74801768  1.0
  H  H10  1  0.54865024  0.79666791  0.75922321  1.0
  H  H11  1  0.53744470  0.29666791  0.24801768  1.0
  H  H12  1  1.20134976  1.45333209  0.74077679  1.0
  H  H13  1  1.21255530  1.95333209  1.25198232  1.0
  H  H14  1  1.03744470  0.78942702  1.24077679  1.0
  H  H15  1  1.04865024  1.28942702  1.75198232  1.0
  S  S16  1  0.62500000  1.28059917  1.15559917  1.0
  S  S17  1  1.12500000  0.96940083  0.34440083  1.0
  S  S18  1  0.62500000  0.78059917  0.65559917  1.0
  S  S19  1  1.12500000  0.46940083  0.84440083  1.0
  S  S20  1  0.71940083  0.87500000  1.34440083  1.0
  S  S21  1  1.03059917  0.37500000  1.15559917  1.0
  S  S22  1  1.21940083  0.87500000  0.84440083  1.0
  S  S23  1  0.53059917  0.37500000  0.65559917  1.0
