# generated using pymatgen
data_Na2PtF6
_symmetry_space_group_name_H-M   'P 1'
_cell_length_a   9.51523504
_cell_length_b   9.51523504
_cell_length_c   5.26159421
_cell_angle_alpha   90.00000000
_cell_angle_beta   90.00000000
_cell_angle_gamma   120.00000000
_symmetry_Int_Tables_number   1
_chemical_formula_structural   Na2PtF6
_chemical_formula_sum   'Na6 Pt3 F18'
_cell_volume   412.55990995
_cell_formula_units_Z   3
loop_
 _symmetry_equiv_pos_site_id
 _symmetry_equiv_pos_as_xyz
  1  'x, y, z'
loop_
 _atom_site_type_symbol
 _atom_site_label
 _atom_site_symmetry_multiplicity
 _atom_site_fract_x
 _atom_site_fract_y
 _atom_site_fract_z
 _atom_site_occupancy
  Na  Na0  1  0.70351879  0.70351879  0.50000000  1.0
  Na  Na1  1  0.00000000  0.29648121  0.50000000  1.0
  Na  Na2  1  0.29648121  0.00000000  0.50000000  1.0
  Na  Na3  1  0.36947910  0.36947910  -0.00000000  1.0
  Na  Na4  1  0.00000000  0.63052090  -0.00000000  1.0
  Na  Na5  1  0.63052090  0.00000000  -0.00000000  1.0
  Pt  Pt6  1  0.33333333  0.66666667  0.49320966  1.0
  Pt  Pt7  1  0.66666667  0.33333333  0.50679034  1.0
  Pt  Pt8  1  -0.00000000  0.00000000  0.00000000  1.0
  F  F9  1  0.09412905  0.89487426  0.20520318  1.0
  F  F10  1  0.89487426  0.09412905  0.79479682  1.0
  F  F11  1  0.80074521  0.90587095  0.20520318  1.0
  F  F12  1  0.10512574  0.19925479  0.20520318  1.0
  F  F13  1  0.90587095  0.80074521  0.79479682  1.0
  F  F14  1  0.19925479  0.10512574  0.79479682  1.0
  F  F15  1  0.41225831  0.86279682  0.28232031  1.0
  F  F16  1  0.86279682  0.41225831  0.71767969  1.0
  F  F17  1  0.45053851  0.58774169  0.28232031  1.0
  F  F18  1  0.13720318  0.54946149  0.28232031  1.0
  F  F19  1  0.58774169  0.45053851  0.71767969  1.0
  F  F20  1  0.54946149  0.13720318  0.71767969  1.0
  F  F21  1  0.77949522  0.53054149  0.29658901  1.0
  F  F22  1  0.53054149  0.77949522  0.70341099  1.0
  F  F23  1  0.75104626  0.22050478  0.29658901  1.0
  F  F24  1  0.46945851  0.24895374  0.29658901  1.0
  F  F25  1  0.22050478  0.75104626  0.70341099  1.0
  F  F26  1  0.24895374  0.46945851  0.70341099  1.0
