# generated using pymatgen
data_BaAlGeH
_symmetry_space_group_name_H-M   'P 1'
_cell_length_a   4.37497353
_cell_length_b   4.37497353
_cell_length_c   5.25105073
_cell_angle_alpha   90.00000000
_cell_angle_beta   90.00000000
_cell_angle_gamma   120.00000000
_symmetry_Int_Tables_number   1
_chemical_formula_structural   BaAlGeH
_chemical_formula_sum   'Ba1 Al1 Ge1 H1'
_cell_volume   87.04176814
_cell_formula_units_Z   1
loop_
 _symmetry_equiv_pos_site_id
 _symmetry_equiv_pos_as_xyz
  1  'x, y, z'
loop_
 _atom_site_type_symbol
 _atom_site_label
 _atom_site_symmetry_multiplicity
 _atom_site_fract_x
 _atom_site_fract_y
 _atom_site_fract_z
 _atom_site_occupancy
  Ba  Ba0  1  0.33333333  0.66666667  0.53942371  1.0
  Al  Al1  1  0.00000000  0.00000000  -0.00116555  1.0
  Ge  Ge2  1  0.66666667  0.33333333  0.08755364  1.0
  H  H3  1  0.00000000  0.00000000  0.66728820  1.0
