# generated using pymatgen
data_Sr3Ru2O7
_symmetry_space_group_name_H-M   'P 1'
_cell_length_a   10.79373076
_cell_length_b   10.79373076
_cell_length_c   5.55957725
_cell_angle_alpha   90.00000000
_cell_angle_beta   90.00000000
_cell_angle_gamma   150.15358678
_symmetry_Int_Tables_number   1
_chemical_formula_structural   Sr3Ru2O7
_chemical_formula_sum   'Sr6 Ru4 O14'
_cell_volume   322.35341602
_cell_formula_units_Z   2
loop_
 _symmetry_equiv_pos_site_id
 _symmetry_equiv_pos_as_xyz
  1  'x, y, z'
loop_
 _atom_site_type_symbol
 _atom_site_label
 _atom_site_symmetry_multiplicity
 _atom_site_fract_x
 _atom_site_fract_y
 _atom_site_fract_z
 _atom_site_occupancy
  O  O0  1  -0.19455035  1.19455035  0.50000000  1.0
  O  O1  1  -0.30544965  1.30544965  0.00000000  1.0
  O  O2  1  -0.69455035  0.69455035  0.00000000  1.0
  O  O3  1  -0.80544965  0.80544965  0.50000000  1.0
  O  O4  1  0.00000000  0.00000000  0.50000000  1.0
  O  O5  1  0.50000000  0.50000000  0.00000000  1.0
  O  O6  1  -0.11086466  1.69677674  0.79301826  1.0
  O  O7  1  0.19677674  1.38913534  0.29301826  1.0
  O  O8  1  -0.19677674  1.61086466  0.29301826  1.0
  O  O9  1  0.11086466  1.30322326  0.79301826  1.0
  O  O10  1  -0.38913534  0.80322326  0.70698174  1.0
  O  O11  1  -0.69677674  1.11086466  0.20698174  1.0
  O  O12  1  -0.30322326  0.88913534  0.20698174  1.0
  O  O13  1  -0.61086466  1.19677674  0.70698174  1.0
  Sr  Sr14  1  0.50000000  0.50000000  0.50000000  1.0
  Sr  Sr15  1  0.00000000  0.00000000  0.00000000  1.0
  Sr  Sr16  1  -0.31369385  1.31369385  0.50000000  1.0
  Sr  Sr17  1  -0.18630615  1.18630615  0.00000000  1.0
  Sr  Sr18  1  -0.81369385  0.81369385  0.00000000  1.0
  Sr  Sr19  1  -0.68630615  0.68630615  0.50000000  1.0
  Ru  Ru20  1  -0.09709571  1.09709571  0.50000000  1.0
  Ru  Ru21  1  -0.40290429  1.40290429  0.00000000  1.0
  Ru  Ru22  1  -0.59709571  0.59709571  0.00000000  1.0
  Ru  Ru23  1  -0.90290429  0.90290429  0.50000000  1.0
