# generated using pymatgen
data_K2MgCr2(H2O5)2
_symmetry_space_group_name_H-M   'P 1'
_cell_length_a   5.74360635
_cell_length_b   7.67650111
_cell_length_c   6.50481204
_cell_angle_alpha   111.70885108
_cell_angle_beta   110.11800600
_cell_angle_gamma   94.90559673
_symmetry_Int_Tables_number   1
_chemical_formula_structural   K2MgCr2(H2O5)2
_chemical_formula_sum   'K2 Mg1 Cr2 H4 O10'
_cell_volume   242.64978773
_cell_formula_units_Z   1
loop_
 _symmetry_equiv_pos_site_id
 _symmetry_equiv_pos_as_xyz
  1  'x, y, z'
loop_
 _atom_site_type_symbol
 _atom_site_label
 _atom_site_symmetry_multiplicity
 _atom_site_fract_x
 _atom_site_fract_y
 _atom_site_fract_z
 _atom_site_occupancy
  K  K0  1  -0.84238565  -0.24087792  -0.70924110  1.0
  K  K1  1  -0.15761435  -0.75912208  -0.29075890  1.0
  Mg  Mg2  1  -0.50000000  -0.00000000  -0.00000000  1.0
  Cr  Cr3  1  -0.83078421  -0.76375797  -0.65437200  1.0
  Cr  Cr4  1  -0.16921579  -0.23624203  -0.34562800  1.0
  H  H5  1  -0.57494269  -0.70331271  -0.14131729  1.0
  H  H6  1  -0.42505731  -0.29668729  -0.85868271  1.0
  H  H7  1  -0.38974718  -0.61045523  -0.86208665  1.0
  H  H8  1  -0.61025282  -0.38954477  -0.13791335  1.0
  O  O9  1  -0.86471235  -0.62407748  -0.79224509  1.0
  O  O10  1  -0.13528765  -0.37592252  -0.20775491  1.0
  O  O11  1  -0.72408445  -0.63298087  -0.35625123  1.0
  O  O12  1  -0.27591555  -0.36701913  -0.64374877  1.0
  O  O13  1  -0.62235179  -0.89307001  -0.71187697  1.0
  O  O14  1  -0.37764821  -0.10692999  -0.28812303  1.0
  O  O15  1  -0.54282288  -0.26683742  -0.98808366  1.0
  O  O16  1  -0.45717712  -0.73316258  -0.01191634  1.0
  O  O17  1  -0.11179016  -0.91277338  -0.74536610  1.0
  O  O18  1  -0.88820984  -0.08722662  -0.25463390  1.0
