# generated using pymatgen
data_Y3VH3O8
_symmetry_space_group_name_H-M   'P 1'
_cell_length_a   5.57561270
_cell_length_b   10.36027772
_cell_length_c   5.93043883
_cell_angle_alpha   90.00000000
_cell_angle_beta   105.20744898
_cell_angle_gamma   90.00000000
_symmetry_Int_Tables_number   1
_chemical_formula_structural   Y3VH3O8
_chemical_formula_sum   'Y6 V2 H6 O16'
_cell_volume   330.57516156
_cell_formula_units_Z   2
loop_
 _symmetry_equiv_pos_site_id
 _symmetry_equiv_pos_as_xyz
  1  'x, y, z'
loop_
 _atom_site_type_symbol
 _atom_site_label
 _atom_site_symmetry_multiplicity
 _atom_site_fract_x
 _atom_site_fract_y
 _atom_site_fract_z
 _atom_site_occupancy
  Y  Y0  1  0.31387482  0.46139387  0.69374492  1.0
  Y  Y1  1  0.31387482  0.03860613  0.69374492  1.0
  Y  Y2  1  0.68612518  0.96139387  0.30625508  1.0
  Y  Y3  1  0.68612518  0.53860613  0.30625508  1.0
  Y  Y4  1  0.22850623  0.25000000  0.20432089  1.0
  Y  Y5  1  0.77149377  0.75000000  0.79567911  1.0
  V  V6  1  0.81131889  0.25000000  0.54183295  1.0
  V  V7  1  0.18868111  0.75000000  0.45816705  1.0
  H  H8  1  0.84248649  0.45420309  0.91075511  1.0
  H  H9  1  0.84248649  0.04579691  0.91075511  1.0
  H  H10  1  0.15751351  0.95420309  0.08924489  1.0
  H  H11  1  0.15751351  0.54579691  0.08924489  1.0
  H  H12  1  0.60457723  0.25000000  0.91141558  1.0
  H  H13  1  0.39542277  0.75000000  0.08858442  1.0
  O  O14  1  0.92376712  0.25000000  0.83858386  1.0
  O  O15  1  0.07623288  0.75000000  0.16141614  1.0
  O  O16  1  0.99600921  0.37451939  0.40513468  1.0
  O  O17  1  0.99600921  0.12548061  0.40513468  1.0
  O  O18  1  0.00399079  0.87451939  0.59486532  1.0
  O  O19  1  0.00399079  0.62548061  0.59486532  1.0
  O  O20  1  0.72838511  0.97991918  0.93757947  1.0
  O  O21  1  0.72838511  0.52008082  0.93757947  1.0
  O  O22  1  0.27161489  0.47991918  0.06242053  1.0
  O  O23  1  0.27161489  0.02008082  0.06242053  1.0
  O  O24  1  0.53981433  0.36943102  0.45959950  1.0
  O  O25  1  0.53981433  0.13056898  0.45959950  1.0
  O  O26  1  0.46018567  0.86943102  0.54040050  1.0
  O  O27  1  0.46018567  0.63056898  0.54040050  1.0
  O  O28  1  0.42424020  0.25000000  0.89135875  1.0
  O  O29  1  0.57575980  0.75000000  0.10864125  1.0
