# generated using pymatgen
data_TiO2
_symmetry_space_group_name_H-M   'P 1'
_cell_length_a   5.74736263
_cell_length_b   5.74736263
_cell_length_c   6.31530715
_cell_angle_alpha   90.00000000
_cell_angle_beta   90.00000000
_cell_angle_gamma   120.00000000
_symmetry_Int_Tables_number   1
_chemical_formula_structural   TiO2
_chemical_formula_sum   'Ti3 O6'
_cell_volume   180.66012598
_cell_formula_units_Z   3
loop_
 _symmetry_equiv_pos_site_id
 _symmetry_equiv_pos_as_xyz
  1  'x, y, z'
loop_
 _atom_site_type_symbol
 _atom_site_label
 _atom_site_symmetry_multiplicity
 _atom_site_fract_x
 _atom_site_fract_y
 _atom_site_fract_z
 _atom_site_occupancy
  Ti  Ti0  1  0.50012851  0.00000000  0.33333333  1.0
  Ti  Ti1  1  0.49987149  0.49987149  0.00000000  1.0
  Ti  Ti2  1  -0.00000000  0.50012851  0.66666667  1.0
  O  O3  1  0.21321159  0.78720850  0.50015644  1.0
  O  O4  1  0.57399691  0.78678841  0.16682310  1.0
  O  O5  1  0.21279150  0.42600309  0.83348977  1.0
  O  O6  1  0.78678841  0.57399691  0.83317690  1.0
  O  O7  1  0.78720850  0.21321159  0.49984356  1.0
  O  O8  1  0.42600309  0.21279150  0.16651023  1.0
