# generated using pymatgen
data_Sn2IF3
_symmetry_space_group_name_H-M   'P 1'
_cell_length_a   7.46409247
_cell_length_b   7.46409247
_cell_length_c   9.35844719
_cell_angle_alpha   90.00000000
_cell_angle_beta   90.00000000
_cell_angle_gamma   145.98450384
_symmetry_Int_Tables_number   1
_chemical_formula_structural   Sn2IF3
_chemical_formula_sum   'Sn4 I2 F6'
_cell_volume   291.67120574
_cell_formula_units_Z   2
loop_
 _symmetry_equiv_pos_site_id
 _symmetry_equiv_pos_as_xyz
  1  'x, y, z'
loop_
 _atom_site_type_symbol
 _atom_site_label
 _atom_site_symmetry_multiplicity
 _atom_site_fract_x
 _atom_site_fract_y
 _atom_site_fract_z
 _atom_site_occupancy
  Sn  Sn0  1  0.35907548  0.64092452  0.95773428  1.0
  Sn  Sn1  1  0.35907548  0.64092452  0.54226572  1.0
  Sn  Sn2  1  -0.35907548  0.35907548  0.45773428  1.0
  Sn  Sn3  1  -0.35907548  0.35907548  0.04226572  1.0
  I  I4  1  0.00260773  0.99739227  0.75000000  1.0
  I  I5  1  -0.00260773  0.00260773  0.25000000  1.0
  F  F6  1  0.20838494  0.79161506  0.46225546  1.0
  F  F7  1  0.20838494  0.79161506  0.03774454  1.0
  F  F8  1  -0.20838494  0.20838494  0.96225546  1.0
  F  F9  1  -0.20838494  0.20838494  0.53774454  1.0
  F  F10  1  0.29224525  0.70775475  0.75000000  1.0
  F  F11  1  -0.29224525  0.29224525  0.25000000  1.0
