# generated using pymatgen
data_Sb2P(ClF3)2
_symmetry_space_group_name_H-M   'P 1'
_cell_length_a   11.86481732
_cell_length_b   11.86481732
_cell_length_c   9.42329641
_cell_angle_alpha   90.00000000
_cell_angle_beta   90.00000000
_cell_angle_gamma   90.00000000
_symmetry_Int_Tables_number   1
_chemical_formula_structural   Sb2P(ClF3)2
_chemical_formula_sum   'Sb8 P4 Cl8 F24'
_cell_volume   1326.55409335
_cell_formula_units_Z   4
loop_
 _symmetry_equiv_pos_site_id
 _symmetry_equiv_pos_as_xyz
  1  'x, y, z'
loop_
 _atom_site_type_symbol
 _atom_site_label
 _atom_site_symmetry_multiplicity
 _atom_site_fract_x
 _atom_site_fract_y
 _atom_site_fract_z
 _atom_site_occupancy
  Sb  Sb0  1  0.15280140  0.27983961  0.64699340  1.0
  Sb  Sb1  1  0.65280140  0.77983961  0.35300660  1.0
  Sb  Sb2  1  0.27983961  0.84719860  0.35300660  1.0
  Sb  Sb3  1  0.77983961  0.34719860  0.64699340  1.0
  Sb  Sb4  1  0.84719860  0.72016039  0.64699340  1.0
  Sb  Sb5  1  0.34719860  0.22016039  0.35300660  1.0
  Sb  Sb6  1  0.72016039  0.15280140  0.35300660  1.0
  Sb  Sb7  1  0.22016039  0.65280140  0.64699340  1.0
  P  P8  1  0.25000000  0.75000000  0.00000000  1.0
  P  P9  1  0.75000000  0.25000000  0.00000000  1.0
  P  P10  1  0.75000000  0.75000000  0.00000000  1.0
  P  P11  1  0.25000000  0.25000000  0.00000000  1.0
  Cl  Cl12  1  0.39938144  0.71063155  0.84165642  1.0
  Cl  Cl13  1  0.89938144  0.21063155  0.15834358  1.0
  Cl  Cl14  1  0.71063155  0.60061856  0.15834358  1.0
  Cl  Cl15  1  0.21063155  0.10061856  0.84165642  1.0
  Cl  Cl16  1  0.60061856  0.28936845  0.84165642  1.0
  Cl  Cl17  1  0.10061856  0.78936845  0.15834358  1.0
  Cl  Cl18  1  0.28936845  0.39938144  0.15834358  1.0
  Cl  Cl19  1  0.78936845  0.89938144  0.84165642  1.0
  F  F20  1  0.16743150  0.43891657  0.58363597  1.0
  F  F21  1  0.66743150  0.93891657  0.41636403  1.0
  F  F22  1  0.43891657  0.83256850  0.41636403  1.0
  F  F23  1  0.93891657  0.33256850  0.58363597  1.0
  F  F24  1  0.83256850  0.56108343  0.58363597  1.0
  F  F25  1  0.33256850  0.06108343  0.41636403  1.0
  F  F26  1  0.56108343  0.16743150  0.41636403  1.0
  F  F27  1  0.06108343  0.66743150  0.58363597  1.0
  F  F28  1  0.19558210  0.35575611  0.84138245  1.0
  F  F29  1  0.69558210  0.85575611  0.15861755  1.0
  F  F30  1  0.35575611  0.80441790  0.15861755  1.0
  F  F31  1  0.85575611  0.30441790  0.84138245  1.0
  F  F32  1  0.80441790  0.64424389  0.84138245  1.0
  F  F33  1  0.30441790  0.14424389  0.15861755  1.0
  F  F34  1  0.64424389  0.19558210  0.15861755  1.0
  F  F35  1  0.14424389  0.69558210  0.84138245  1.0
  F  F36  1  0.18053545  0.23105783  0.39707452  1.0
  F  F37  1  0.68053545  0.73105783  0.60292548  1.0
  F  F38  1  0.23105783  0.81946455  0.60292548  1.0
  F  F39  1  0.73105783  0.31946455  0.39707452  1.0
  F  F40  1  0.81946455  0.76894217  0.39707452  1.0
  F  F41  1  0.31946455  0.26894217  0.60292548  1.0
  F  F42  1  0.76894217  0.18053545  0.60292548  1.0
  F  F43  1  0.26894217  0.68053545  0.39707452  1.0
