# generated using pymatgen
data_ZnS
_symmetry_space_group_name_H-M   'P 1'
_cell_length_a   3.85008668
_cell_length_b   3.85008668
_cell_length_c   75.47653390
_cell_angle_alpha   90.00000000
_cell_angle_beta   90.00000000
_cell_angle_gamma   120.00000000
_symmetry_Int_Tables_number   1
_chemical_formula_structural   ZnS
_chemical_formula_sum   'Zn24 S24'
_cell_volume   968.91034624
_cell_formula_units_Z   24
loop_
 _symmetry_equiv_pos_site_id
 _symmetry_equiv_pos_as_xyz
  1  'x, y, z'
loop_
 _atom_site_type_symbol
 _atom_site_label
 _atom_site_symmetry_multiplicity
 _atom_site_fract_x
 _atom_site_fract_y
 _atom_site_fract_z
 _atom_site_occupancy
  Zn  Zn0  1  0.00000000  0.00000000  0.01042563  1.0
  Zn  Zn1  1  0.00000000  0.00000000  0.13542626  1.0
  Zn  Zn2  1  0.00000000  0.00000000  0.26042667  1.0
  Zn  Zn3  1  0.00000000  0.00000000  0.38542647  1.0
  Zn  Zn4  1  0.00000000  0.00000000  0.51042535  1.0
  Zn  Zn5  1  0.00000000  0.00000000  0.63542600  1.0
  Zn  Zn6  1  0.00000000  0.00000000  0.76042686  1.0
  Zn  Zn7  1  0.00000000  0.00000000  0.88542591  1.0
  Zn  Zn8  1  0.66666667  0.33333333  0.09376442  1.0
  Zn  Zn9  1  0.66666667  0.33333333  0.21876006  1.0
  Zn  Zn10  1  0.66666667  0.33333333  0.34375910  1.0
  Zn  Zn11  1  0.66666667  0.33333333  0.46875953  1.0
  Zn  Zn12  1  0.66666667  0.33333333  0.59373244  1.0
  Zn  Zn13  1  0.66666667  0.33333333  0.67712387  1.0
  Zn  Zn14  1  0.66666667  0.33333333  0.80209311  1.0
  Zn  Zn15  1  0.66666667  0.33333333  0.92708856  1.0
  Zn  Zn16  1  0.33333333  0.66666667  0.05212506  1.0
  Zn  Zn17  1  0.33333333  0.66666667  0.17709303  1.0
  Zn  Zn18  1  0.33333333  0.66666667  0.30209295  1.0
  Zn  Zn19  1  0.33333333  0.66666667  0.42709406  1.0
  Zn  Zn20  1  0.33333333  0.66666667  0.55208861  1.0
  Zn  Zn21  1  0.33333333  0.66666667  0.71876378  1.0
  Zn  Zn22  1  0.33333333  0.66666667  0.84375926  1.0
  Zn  Zn23  1  0.33333333  0.66666667  0.96873153  1.0
  S  S24  1  0.00000000  0.00000000  0.04171375  1.0
  S  S25  1  0.00000000  0.00000000  0.16667403  1.0
  S  S26  1  0.00000000  0.00000000  0.29167460  1.0
  S  S27  1  0.00000000  0.00000000  0.41667444  1.0
  S  S28  1  0.00000000  0.00000000  0.54167179  1.0
  S  S29  1  0.00000000  0.00000000  0.66671397  1.0
  S  S30  1  0.00000000  0.00000000  0.79167465  1.0
  S  S31  1  0.00000000  0.00000000  0.91667237  1.0
  S  S32  1  0.66666667  0.33333333  0.12500868  1.0
  S  S33  1  0.66666667  0.33333333  0.25000674  1.0
  S  S34  1  0.66666667  0.33333333  0.37500582  1.0
  S  S35  1  0.66666667  0.33333333  0.50000631  1.0
  S  S36  1  0.66666667  0.33333333  0.62496525  1.0
  S  S37  1  0.66666667  0.33333333  0.70835259  1.0
  S  S38  1  0.66666667  0.33333333  0.83333962  1.0
  S  S39  1  0.66666667  0.33333333  0.95832793  1.0
  S  S40  1  0.33333333  0.66666667  -0.00003578  1.0
  S  S41  1  0.33333333  0.66666667  0.08335384  1.0
  S  S42  1  0.33333333  0.66666667  0.20833934  1.0
  S  S43  1  0.33333333  0.66666667  0.33333942  1.0
  S  S44  1  0.33333333  0.66666667  0.45834062  1.0
  S  S45  1  0.33333333  0.66666667  0.58332779  1.0
  S  S46  1  0.33333333  0.66666667  0.75000798  1.0
  S  S47  1  0.33333333  0.66666667  0.87500575  1.0
