# generated using pymatgen
data_CdH6C6Cl2O7
_symmetry_space_group_name_H-M   'P 1'
_cell_length_a   7.77162458
_cell_length_b   7.77162458
_cell_length_c   15.15538283
_cell_angle_alpha   87.81221165
_cell_angle_beta   92.18778835
_cell_angle_gamma   37.00726463
_symmetry_Int_Tables_number   1
_chemical_formula_structural   CdH6C6Cl2O7
_chemical_formula_sum   'Cd2 H12 C12 Cl4 O14'
_cell_volume   546.96782975
_cell_formula_units_Z   2
loop_
 _symmetry_equiv_pos_site_id
 _symmetry_equiv_pos_as_xyz
  1  'x, y, z'
loop_
 _atom_site_type_symbol
 _atom_site_label
 _atom_site_symmetry_multiplicity
 _atom_site_fract_x
 _atom_site_fract_y
 _atom_site_fract_z
 _atom_site_occupancy
  Cd  Cd0  1  0.36999342  0.36999342  0.75000000  1.0
  Cd  Cd1  1  0.63000658  -0.36999342  0.25000000  1.0
  H  H2  1  0.55065912  -0.20061518  0.71113826  1.0
  H  H3  1  1.20061518  -0.55065912  0.21113826  1.0
  H  H4  1  0.79938482  -0.44934088  0.78886174  1.0
  H  H5  1  0.44934088  0.20061518  0.28886174  1.0
  H  H6  1  0.85153699  0.09707296  0.65234452  1.0
  H  H7  1  0.90292704  -0.85153699  0.15234452  1.0
  H  H8  1  1.09707296  -0.14846301  0.84765548  1.0
  H  H9  1  0.14846301  -0.09707296  0.34765548  1.0
  H  H10  1  0.36698225  -0.27435658  0.80419271  1.0
  H  H11  1  1.27435658  -0.36698225  0.30419271  1.0
  H  H12  1  0.72564342  -0.63301775  0.69580729  1.0
  H  H13  1  0.63301775  0.27435658  0.19580729  1.0
  C  C14  1  0.61553134  0.01976884  0.93400667  1.0
  C  C15  1  0.98023116  -0.61553134  0.43400667  1.0
  C  C16  1  1.01976884  -0.38446866  0.56599333  1.0
  C  C17  1  0.38446866  -0.01976884  0.06599333  1.0
  C  C18  1  0.31442271  0.17868178  0.91750284  1.0
  C  C19  1  0.82131822  -0.31442271  0.41750284  1.0
  C  C20  1  1.17868178  -0.68557729  0.58249716  1.0
  C  C21  1  0.68557729  -0.17868178  0.08249716  1.0
  C  C22  1  0.22214368  0.13970265  0.98285589  1.0
  C  C23  1  0.86029735  -0.22214368  0.48285589  1.0
  C  C24  1  1.13970265  -0.77785632  0.51714411  1.0
  C  C25  1  0.77785632  -0.13970265  0.01714411  1.0
  Cl  Cl26  1  0.68938686  0.11212787  0.46245019  1.0
  Cl  Cl27  1  0.88787213  -0.68938686  0.96245019  1.0
  Cl  Cl28  1  1.11212787  -0.31061314  0.03754981  1.0
  Cl  Cl29  1  0.31061314  -0.11212787  0.53754981  1.0
  O  O30  1  0.70377983  0.03768750  0.87080647  1.0
  O  O31  1  0.96231250  -0.70377983  0.37080647  1.0
  O  O32  1  1.03768750  -0.29622017  0.62919353  1.0
  O  O33  1  0.29622017  -0.03768750  0.12919353  1.0
  O  O34  1  0.68801275  0.27807222  0.67686545  1.0
  O  O35  1  0.72192778  -0.68801275  0.17686545  1.0
  O  O36  1  1.27807222  -0.31198725  0.82313455  1.0
  O  O37  1  0.31198725  -0.27807222  0.32313455  1.0
  O  O38  1  0.33899531  0.16376286  0.65541434  1.0
  O  O39  1  0.83623714  -0.33899531  0.15541434  1.0
  O  O40  1  1.16376286  -0.66100469  0.84458566  1.0
  O  O41  1  0.66100469  -0.16376286  0.34458566  1.0
  O  O42  1  0.63572905  -0.36427095  0.75000000  1.0
  O  O43  1  0.36427095  0.36427095  0.25000000  1.0
