# generated using pymatgen
data_La3Sn5
_symmetry_space_group_name_H-M   'P 1'
_cell_length_a   6.71537729
_cell_length_b   6.71537729
_cell_length_c   10.72896611
_cell_angle_alpha   90.00000000
_cell_angle_beta   90.00000000
_cell_angle_gamma   77.40436742
_symmetry_Int_Tables_number   1
_chemical_formula_structural   La3Sn5
_chemical_formula_sum   'La6 Sn10'
_cell_volume   472.19228273
_cell_formula_units_Z   2
loop_
 _symmetry_equiv_pos_site_id
 _symmetry_equiv_pos_as_xyz
  1  'x, y, z'
loop_
 _atom_site_type_symbol
 _atom_site_label
 _atom_site_symmetry_multiplicity
 _atom_site_fract_x
 _atom_site_fract_y
 _atom_site_fract_z
 _atom_site_occupancy
  La  La0  1  0.79724958  0.79724958  0.50000000  1.0
  La  La1  1  0.79724958  0.79724958  0.00000000  1.0
  La  La2  1  0.20275042  0.20275042  0.50000000  1.0
  La  La3  1  0.20275042  0.20275042  0.00000000  1.0
  La  La4  1  -0.36514247  1.36514247  0.25000000  1.0
  La  La5  1  0.36514247  0.63485753  0.75000000  1.0
  Sn  Sn6  1  0.07501102  0.50570708  0.25000000  1.0
  Sn  Sn7  1  -0.49429292  1.07501102  0.75000000  1.0
  Sn  Sn8  1  0.49429292  0.92498898  0.25000000  1.0
  Sn  Sn9  1  -0.07501102  1.49429292  0.75000000  1.0
  Sn  Sn10  1  0.31692535  0.68307465  0.45159611  1.0
  Sn  Sn11  1  0.31692535  0.68307465  0.04840389  1.0
  Sn  Sn12  1  -0.31692535  1.31692535  0.95159611  1.0
  Sn  Sn13  1  -0.31692535  1.31692535  0.54840389  1.0
  Sn  Sn14  1  0.02524656  0.97475344  0.25000000  1.0
  Sn  Sn15  1  -0.02524656  1.02524656  0.75000000  1.0
