# generated using pymatgen
data_Mg3Si4O13
_symmetry_space_group_name_H-M   'P 1'
_cell_length_a   5.37666959
_cell_length_b   5.37666959
_cell_length_c   10.69447472
_cell_angle_alpha   92.07384320
_cell_angle_beta   87.92615680
_cell_angle_gamma   59.37811388
_symmetry_Int_Tables_number   1
_chemical_formula_structural   Mg3Si4O13
_chemical_formula_sum   'Mg3 Si4 O13'
_cell_volume   265.33756300
_cell_formula_units_Z   1
loop_
 _symmetry_equiv_pos_site_id
 _symmetry_equiv_pos_as_xyz
  1  'x, y, z'
loop_
 _atom_site_type_symbol
 _atom_site_label
 _atom_site_symmetry_multiplicity
 _atom_site_fract_x
 _atom_site_fract_y
 _atom_site_fract_z
 _atom_site_occupancy
  Si  Si0  1  0.47109406  -0.13601384  0.76055070  1.0
  Si  Si1  1  1.13601384  0.52890594  0.76055070  1.0
  Si  Si2  1  0.86398616  -0.52890594  0.23944930  1.0
  Si  Si3  1  1.52890594  0.13601384  0.23944930  1.0
  Mg  Mg4  1  0.82620397  -0.17379603  0.50000000  1.0
  Mg  Mg5  1  1.17379603  0.17379603  0.50000000  1.0
  Mg  Mg6  1  0.50000000  -0.50000000  0.50000000  1.0
  O  O7  1  0.49583555  -0.15976423  0.60709729  1.0
  O  O8  1  1.15976423  0.50416445  0.60709729  1.0
  O  O9  1  0.84023577  -0.50416445  0.39290271  1.0
  O  O10  1  1.50416445  0.15976423  0.39290271  1.0
  O  O11  1  1.29438817  0.20422299  0.81439552  1.0
  O  O12  1  0.79577701  -0.29438817  0.81439552  1.0
  O  O13  1  1.20422299  0.29438817  0.18560448  1.0
  O  O14  1  0.70561183  -0.20422299  0.18560448  1.0
  O  O15  1  0.29682876  -0.29682876  0.81148814  1.0
  O  O16  1  0.70317124  -0.70317124  0.18851186  1.0
  O  O17  1  0.00000000  0.00000000  0.00000000  1.0
  O  O18  1  0.83801622  -0.83801622  0.58076851  1.0
  O  O19  1  0.16198378  -0.16198378  0.41923149  1.0
