# generated using pymatgen
data_CdSeO3
_symmetry_space_group_name_H-M   'P 1'
_cell_length_a   5.80892493
_cell_length_b   13.31512821
_cell_length_c   8.87304091
_cell_angle_alpha   90.00000000
_cell_angle_beta   101.38338671
_cell_angle_gamma   90.00000000
_symmetry_Int_Tables_number   1
_chemical_formula_structural   CdSeO3
_chemical_formula_sum   'Cd8 Se8 O24'
_cell_volume   672.79879535
_cell_formula_units_Z   8
loop_
 _symmetry_equiv_pos_site_id
 _symmetry_equiv_pos_as_xyz
  1  'x, y, z'
loop_
 _atom_site_type_symbol
 _atom_site_label
 _atom_site_symmetry_multiplicity
 _atom_site_fract_x
 _atom_site_fract_y
 _atom_site_fract_z
 _atom_site_occupancy
  Cd  Cd0  1  0.88592938  0.74852487  0.33909892  1.0
  Cd  Cd1  1  0.88592938  0.75147513  0.83909892  1.0
  Cd  Cd2  1  0.11407062  0.24852487  0.16090108  1.0
  Cd  Cd3  1  0.11407062  0.25147513  0.66090108  1.0
  Cd  Cd4  1  0.67811085  0.07763876  0.39033384  1.0
  Cd  Cd5  1  0.67811085  0.42236124  0.89033384  1.0
  Cd  Cd6  1  0.32188915  0.57763876  0.10966616  1.0
  Cd  Cd7  1  0.32188915  0.92236124  0.60966616  1.0
  Se  Se8  1  0.91860971  0.48140729  0.26614118  1.0
  Se  Se9  1  0.91860971  0.01859271  0.76614118  1.0
  Se  Se10  1  0.08139029  0.98140729  0.23385882  1.0
  Se  Se11  1  0.08139029  0.51859271  0.73385882  1.0
  Se  Se12  1  0.52301230  0.32528925  0.49534928  1.0
  Se  Se13  1  0.52301230  0.17471075  0.99534928  1.0
  Se  Se14  1  0.47698770  0.82528925  0.00465072  1.0
  Se  Se15  1  0.47698770  0.67471075  0.50465072  1.0
  O  O16  1  0.95276880  0.09873135  0.23175591  1.0
  O  O17  1  0.95276880  0.40126865  0.73175591  1.0
  O  O18  1  0.04723120  0.59873135  0.26824409  1.0
  O  O19  1  0.04723120  0.90126865  0.76824409  1.0
  O  O20  1  0.89357199  0.92274865  0.33469792  1.0
  O  O21  1  0.89357199  0.57725135  0.83469792  1.0
  O  O22  1  0.10642801  0.42274865  0.16530208  1.0
  O  O23  1  0.10642801  0.07725135  0.66530208  1.0
  O  O24  1  0.73355994  0.23088208  0.51921428  1.0
  O  O25  1  0.73355994  0.26911792  0.01921428  1.0
  O  O26  1  0.26644006  0.73088208  0.98078572  1.0
  O  O27  1  0.26644006  0.76911792  0.48078572  1.0
  O  O28  1  0.66626273  0.48632597  0.12799302  1.0
  O  O29  1  0.66626273  0.01367403  0.62799302  1.0
  O  O30  1  0.33373727  0.98632597  0.37200698  1.0
  O  O31  1  0.33373727  0.51367403  0.87200698  1.0
  O  O32  1  0.46035416  0.15709346  0.17578268  1.0
  O  O33  1  0.46035416  0.34290654  0.67578268  1.0
  O  O34  1  0.53964584  0.65709346  0.32421732  1.0
  O  O35  1  0.53964584  0.84290654  0.82421732  1.0
  O  O36  1  0.26444362  0.26200245  0.42592406  1.0
  O  O37  1  0.26444362  0.23799755  0.92592406  1.0
  O  O38  1  0.73555638  0.76200245  0.07407594  1.0
  O  O39  1  0.73555638  0.73799755  0.57407594  1.0
