# generated using pymatgen
data_Y5(NiTe)2
_symmetry_space_group_name_H-M   'P 1'
_cell_length_a   7.79973726
_cell_length_b   7.79973726
_cell_length_c   14.92661195
_cell_angle_alpha   90.00000000
_cell_angle_beta   90.00000000
_cell_angle_gamma   150.26663510
_symmetry_Int_Tables_number   1
_chemical_formula_structural   Y5(NiTe)2
_chemical_formula_sum   'Y10 Ni4 Te4'
_cell_volume   450.37233450
_cell_formula_units_Z   2
loop_
 _symmetry_equiv_pos_site_id
 _symmetry_equiv_pos_as_xyz
  1  'x, y, z'
loop_
 _atom_site_type_symbol
 _atom_site_label
 _atom_site_symmetry_multiplicity
 _atom_site_fract_x
 _atom_site_fract_y
 _atom_site_fract_z
 _atom_site_occupancy
  Y  Y0  1  0.04142164  0.95857836  0.87638547  1.0
  Y  Y1  1  0.04142164  0.95857836  0.62361453  1.0
  Y  Y2  1  -0.04142164  0.04142164  0.37638547  1.0
  Y  Y3  1  -0.04142164  0.04142164  0.12361453  1.0
  Y  Y4  1  0.25798779  0.74201221  0.37367252  1.0
  Y  Y5  1  0.25798779  0.74201221  0.12632748  1.0
  Y  Y6  1  -0.25798779  0.25798779  0.87367252  1.0
  Y  Y7  1  -0.25798779  0.25798779  0.62632748  1.0
  Y  Y8  1  0.39487519  0.60512481  0.75000000  1.0
  Y  Y9  1  -0.39487519  0.39487519  0.25000000  1.0
  Ni  Ni10  1  0.18622682  0.81377318  0.75000000  1.0
  Ni  Ni11  1  -0.18622682  0.18622682  0.25000000  1.0
  Ni  Ni12  1  -0.41018535  0.41018535  0.75000000  1.0
  Ni  Ni13  1  0.41018535  0.58981465  0.25000000  1.0
  Te  Te14  1  0.38566090  0.61433910  0.95964500  1.0
  Te  Te15  1  0.38566090  0.61433910  0.54035500  1.0
  Te  Te16  1  -0.38566090  0.38566090  0.45964500  1.0
  Te  Te17  1  -0.38566090  0.38566090  0.04035500  1.0
