# generated using pymatgen
data_IrC2
_symmetry_space_group_name_H-M   'P 1'
_cell_length_a   5.09407374
_cell_length_b   5.09407374
_cell_length_c   9.44272117
_cell_angle_alpha   90.00000000
_cell_angle_beta   90.00000000
_cell_angle_gamma   77.39109867
_symmetry_Int_Tables_number   1
_chemical_formula_structural   IrC2
_chemical_formula_sum   'Ir8 C16'
_cell_volume   239.12518046
_cell_formula_units_Z   8
loop_
 _symmetry_equiv_pos_site_id
 _symmetry_equiv_pos_as_xyz
  1  'x, y, z'
loop_
 _atom_site_type_symbol
 _atom_site_label
 _atom_site_symmetry_multiplicity
 _atom_site_fract_x
 _atom_site_fract_y
 _atom_site_fract_z
 _atom_site_occupancy
  Ir  Ir0  1  -0.23502162  0.76497838  0.00000000  1.0
  Ir  Ir1  1  0.26497838  1.26497838  0.50000000  1.0
  Ir  Ir2  1  0.23502162  1.23502162  -0.00000000  1.0
  Ir  Ir3  1  -0.26497838  0.73502162  0.50000000  1.0
  Ir  Ir4  1  0.16462766  0.83537234  0.19647525  1.0
  Ir  Ir5  1  -0.16462766  1.16462766  0.80352475  1.0
  Ir  Ir6  1  0.33537234  0.66462766  0.69647525  1.0
  Ir  Ir7  1  -0.33537234  1.33537234  0.30352475  1.0
  C  C8  1  -0.18091666  1.35134417  0.01729884  1.0
  C  C9  1  0.35134417  0.81908334  0.98270116  1.0
  C  C10  1  -0.14865583  1.31908334  0.51729884  1.0
  C  C11  1  0.31908334  0.85134417  0.48270116  1.0
  C  C12  1  0.18091666  0.64865583  0.98270116  1.0
  C  C13  1  -0.35134417  1.18091666  0.01729884  1.0
  C  C14  1  0.14865583  0.68091666  0.48270116  1.0
  C  C15  1  -0.31908334  1.14865583  0.51729884  1.0
  C  C16  1  -0.09790848  0.75362915  0.71529322  1.0
  C  C17  1  -0.24637085  0.90209152  0.28470678  1.0
  C  C18  1  0.25362915  1.40209152  0.21529322  1.0
  C  C19  1  0.40209152  1.25362915  0.78470678  1.0
  C  C20  1  0.09790848  1.24637085  0.28470678  1.0
  C  C21  1  0.24637085  1.09790848  0.71529322  1.0
  C  C22  1  -0.25362915  0.59790848  0.78470678  1.0
  C  C23  1  -0.40209152  0.74637085  0.21529322  1.0
