# generated using pymatgen
data_As2Pb4S6ICl
_symmetry_space_group_name_H-M   'P 1'
_cell_length_a   6.78827869
_cell_length_b   11.71257902
_cell_length_c   9.86662396
_cell_angle_alpha   90.00000000
_cell_angle_beta   90.00000000
_cell_angle_gamma   90.00000000
_symmetry_Int_Tables_number   1
_chemical_formula_structural   As2Pb4S6ICl
_chemical_formula_sum   'As4 Pb8 S12 I2 Cl2'
_cell_volume   784.47801016
_cell_formula_units_Z   2
loop_
 _symmetry_equiv_pos_site_id
 _symmetry_equiv_pos_as_xyz
  1  'x, y, z'
loop_
 _atom_site_type_symbol
 _atom_site_label
 _atom_site_symmetry_multiplicity
 _atom_site_fract_x
 _atom_site_fract_y
 _atom_site_fract_z
 _atom_site_occupancy
  As  As0  1  0.50000000  0.66926988  0.15246292  1.0
  As  As1  1  0.00000000  0.33073012  0.65246292  1.0
  As  As2  1  0.50000000  0.16838176  0.73166236  1.0
  As  As3  1  0.00000000  0.83161824  0.23166236  1.0
  Pb  Pb4  1  0.50000000  0.91985706  0.96036477  1.0
  Pb  Pb5  1  0.00000000  0.08014294  0.46036477  1.0
  Pb  Pb6  1  0.50000000  0.86803066  0.48680237  1.0
  Pb  Pb7  1  0.00000000  0.13196934  -0.01319763  1.0
  Pb  Pb8  1  0.50000000  0.43323159  0.91086720  1.0
  Pb  Pb9  1  0.00000000  0.56676841  0.41086720  1.0
  Pb  Pb10  1  0.50000000  0.36670298  0.39800352  1.0
  Pb  Pb11  1  0.00000000  0.63329702  0.89800352  1.0
  S  S12  1  0.74823685  0.54422492  0.10174448  1.0
  S  S13  1  0.24823685  0.45577508  0.60174448  1.0
  S  S14  1  0.25176315  0.54422492  0.10174448  1.0
  S  S15  1  0.75176315  0.45577508  0.60174448  1.0
  S  S16  1  0.75014782  0.95617015  0.27859317  1.0
  S  S17  1  0.25014782  0.04382985  0.77859317  1.0
  S  S18  1  0.24985218  0.95617015  0.27859317  1.0
  S  S19  1  0.74985218  0.04382985  0.77859317  1.0
  S  S20  1  0.50000000  0.64475471  0.38024906  1.0
  S  S21  1  0.00000000  0.35524529  0.88024906  1.0
  S  S22  1  0.50000000  0.14484726  0.50255155  1.0
  S  S23  1  0.00000000  0.85515274  1.00255155  1.0
  I  I24  1  0.50000000  0.21095170  0.09064675  1.0
  I  I25  1  0.00000000  0.78904830  0.59064675  1.0
  Cl  Cl26  1  0.50000000  0.71583951  0.81341420  1.0
  Cl  Cl27  1  0.00000000  0.28416049  0.31341420  1.0
