# generated using pymatgen
data_N2
_symmetry_space_group_name_H-M   'P 1'
_cell_length_a   4.09211469
_cell_length_b   4.09211469
_cell_length_c   4.09211469
_cell_angle_alpha   115.26053810
_cell_angle_beta   112.72976727
_cell_angle_gamma   100.77073887
_symmetry_Int_Tables_number   1
_chemical_formula_structural   N2
_chemical_formula_sum   N2
_cell_volume   51.82763287
_cell_formula_units_Z   1
loop_
 _symmetry_equiv_pos_site_id
 _symmetry_equiv_pos_as_xyz
  1  'x, y, z'
loop_
 _atom_site_type_symbol
 _atom_site_label
 _atom_site_symmetry_multiplicity
 _atom_site_fract_x
 _atom_site_fract_y
 _atom_site_fract_z
 _atom_site_occupancy
  N  N0  1  0.89412415  0.39412415  0.50000000  1.0
  N  N1  1  0.10587585  0.60587585  0.50000000  1.0
