# generated using pymatgen
data_PCl5
_symmetry_space_group_name_H-M   'P 1'
_cell_length_a   9.85176712
_cell_length_b   9.85176712
_cell_length_c   7.67186613
_cell_angle_alpha   90.00000000
_cell_angle_beta   90.00000000
_cell_angle_gamma   90.00000000
_symmetry_Int_Tables_number   1
_chemical_formula_structural   PCl5
_chemical_formula_sum   'P4 Cl20'
_cell_volume   744.61072984
_cell_formula_units_Z   4
loop_
 _symmetry_equiv_pos_site_id
 _symmetry_equiv_pos_as_xyz
  1  'x, y, z'
loop_
 _atom_site_type_symbol
 _atom_site_label
 _atom_site_symmetry_multiplicity
 _atom_site_fract_x
 _atom_site_fract_y
 _atom_site_fract_z
 _atom_site_occupancy
  P  P0  1  0.00000000  0.00000000  0.00000000  1.0
  P  P1  1  0.50000000  0.50000000  0.00000000  1.0
  P  P2  1  0.00000000  0.50000000  0.40874121  1.0
  P  P3  1  0.50000000  0.00000000  0.59125879  1.0
  Cl  Cl4  1  0.00000000  0.50000000  0.69823480  1.0
  Cl  Cl5  1  0.50000000  0.00000000  0.30176520  1.0
  Cl  Cl6  1  0.00000000  0.50000000  0.12733541  1.0
  Cl  Cl7  1  0.50000000  0.00000000  0.87266459  1.0
  Cl  Cl8  1  0.16115884  0.02486514  0.14816280  1.0
  Cl  Cl9  1  0.83884116  0.97513486  0.14816280  1.0
  Cl  Cl10  1  0.52486514  0.33884116  0.14816280  1.0
  Cl  Cl11  1  0.47513486  0.66115884  0.14816280  1.0
  Cl  Cl12  1  0.33884116  0.47513486  0.85183720  1.0
  Cl  Cl13  1  0.66115884  0.52486514  0.85183720  1.0
  Cl  Cl14  1  0.97513486  0.16115884  0.85183720  1.0
  Cl  Cl15  1  0.02486514  0.83884116  0.85183720  1.0
  Cl  Cl16  1  0.20900554  0.43056699  0.41268229  1.0
  Cl  Cl17  1  0.79099446  0.56943301  0.41268229  1.0
  Cl  Cl18  1  0.93056699  0.29099446  0.41268229  1.0
  Cl  Cl19  1  0.06943301  0.70900554  0.41268229  1.0
  Cl  Cl20  1  0.29099446  0.06943301  0.58731771  1.0
  Cl  Cl21  1  0.70900554  0.93056699  0.58731771  1.0
  Cl  Cl22  1  0.56943301  0.20900554  0.58731771  1.0
  Cl  Cl23  1  0.43056699  0.79099446  0.58731771  1.0
