# generated using pymatgen
data_SiIr
_symmetry_space_group_name_H-M   'P 1'
_cell_length_a   5.57907845
_cell_length_b   3.25159504
_cell_length_c   6.32639228
_cell_angle_alpha   90.00000000
_cell_angle_beta   90.00000000
_cell_angle_gamma   90.00000000
_symmetry_Int_Tables_number   1
_chemical_formula_structural   SiIr
_chemical_formula_sum   'Si4 Ir4'
_cell_volume   114.76647395
_cell_formula_units_Z   4
loop_
 _symmetry_equiv_pos_site_id
 _symmetry_equiv_pos_as_xyz
  1  'x, y, z'
loop_
 _atom_site_type_symbol
 _atom_site_label
 _atom_site_symmetry_multiplicity
 _atom_site_fract_x
 _atom_site_fract_y
 _atom_site_fract_z
 _atom_site_occupancy
  Si  Si0  1  0.81771712  0.75000000  0.56207758  1.0
  Si  Si1  1  0.31771712  0.75000000  0.93792242  1.0
  Si  Si2  1  0.18228288  0.25000000  0.43792242  1.0
  Si  Si3  1  0.68228288  0.25000000  0.06207758  1.0
  Ir  Ir4  1  0.99742172  0.75000000  0.20504069  1.0
  Ir  Ir5  1  0.49742172  0.75000000  0.29495931  1.0
  Ir  Ir6  1  0.00257828  0.25000000  0.79495931  1.0
  Ir  Ir7  1  0.50257828  0.25000000  0.70504069  1.0
