# generated using pymatgen
data_ReNClF5
_symmetry_space_group_name_H-M   'P 1'
_cell_length_a   5.40295620
_cell_length_b   9.07763441
_cell_length_c   6.58393834
_cell_angle_alpha   90.00000000
_cell_angle_beta   98.46862007
_cell_angle_gamma   90.00000000
_symmetry_Int_Tables_number   1
_chemical_formula_structural   ReNClF5
_chemical_formula_sum   'Re2 N2 Cl2 F10'
_cell_volume   319.39537926
_cell_formula_units_Z   2
loop_
 _symmetry_equiv_pos_site_id
 _symmetry_equiv_pos_as_xyz
  1  'x, y, z'
loop_
 _atom_site_type_symbol
 _atom_site_label
 _atom_site_symmetry_multiplicity
 _atom_site_fract_x
 _atom_site_fract_y
 _atom_site_fract_z
 _atom_site_occupancy
  Re  Re0  1  0.97524823  0.25000000  0.70546984  1.0
  Re  Re1  1  0.02475177  0.75000000  0.29453016  1.0
  N  N2  1  0.76570590  0.25000000  0.47709317  1.0
  N  N3  1  0.23429410  0.75000000  0.52290683  1.0
  Cl  Cl4  1  0.56854910  0.25000000  0.27405609  1.0
  Cl  Cl5  1  0.43145090  0.75000000  0.72594391  1.0
  F  F6  1  0.81164376  0.89418359  0.37827960  1.0
  F  F7  1  0.81164376  0.60581641  0.37827960  1.0
  F  F8  1  0.18835624  0.39418359  0.62172040  1.0
  F  F9  1  0.18835624  0.10581641  0.62172040  1.0
  F  F10  1  0.80647799  0.39601608  0.83145323  1.0
  F  F11  1  0.80647799  0.10398392  0.83145323  1.0
  F  F12  1  0.19352201  0.89601608  0.16854677  1.0
  F  F13  1  0.19352201  0.60398392  0.16854677  1.0
  F  F14  1  0.20379916  0.25000000  0.95948295  1.0
  F  F15  1  0.79620084  0.75000000  0.04051705  1.0
