# generated using pymatgen
data_Zr6Al16Pd7
_symmetry_space_group_name_H-M   'P 1'
_cell_length_a   8.79145156
_cell_length_b   8.79145156
_cell_length_c   8.79145156
_cell_angle_alpha   60.00000000
_cell_angle_beta   60.00000000
_cell_angle_gamma   60.00000000
_symmetry_Int_Tables_number   1
_chemical_formula_structural   Zr6Al16Pd7
_chemical_formula_sum   'Zr6 Al16 Pd7'
_cell_volume   480.47054001
_cell_formula_units_Z   1
loop_
 _symmetry_equiv_pos_site_id
 _symmetry_equiv_pos_as_xyz
  1  'x, y, z'
loop_
 _atom_site_type_symbol
 _atom_site_label
 _atom_site_symmetry_multiplicity
 _atom_site_fract_x
 _atom_site_fract_y
 _atom_site_fract_z
 _atom_site_occupancy
  Zr  Zr0  1  -0.68655168  0.68655168  0.68655168  1.0
  Zr  Zr1  1  -0.31344832  0.31344832  0.68655168  1.0
  Zr  Zr2  1  0.68655168  0.68655168  -0.68655168  1.0
  Zr  Zr3  1  0.31344832  1.31344832  -0.31344832  1.0
  Zr  Zr4  1  0.31344832  -0.31344832  1.31344832  1.0
  Zr  Zr5  1  -0.31344832  0.31344832  0.31344832  1.0
  Al  Al6  1  0.87965088  0.87965088  -0.12034912  1.0
  Al  Al7  1  1.12034912  0.12034912  0.63895263  1.0
  Al  Al8  1  1.12034912  0.63895263  0.12034912  1.0
  Al  Al9  1  0.36104737  0.87965088  -0.12034912  1.0
  Al  Al10  1  1.63895263  0.12034912  0.12034912  1.0
  Al  Al11  1  0.87965088  0.36104737  -0.12034912  1.0
  Al  Al12  1  0.87965088  0.87965088  -0.63895263  1.0
  Al  Al13  1  1.12034912  0.12034912  0.12034912  1.0
  Al  Al14  1  0.66581199  0.66581199  -0.33418801  1.0
  Al  Al15  1  1.33418801  0.33418801  -0.00256403  1.0
  Al  Al16  1  1.33418801  -0.00256403  0.33418801  1.0
  Al  Al17  1  1.00256403  0.66581199  -0.33418801  1.0
  Al  Al18  1  0.99743597  0.33418801  0.33418801  1.0
  Al  Al19  1  0.66581199  1.00256403  -0.33418801  1.0
  Al  Al20  1  0.66581199  0.66581199  0.00256403  1.0
  Al  Al21  1  1.33418801  0.33418801  0.33418801  1.0
  Pd  Pd22  1  0.00000000  0.00000000  0.00000000  1.0
  Pd  Pd23  1  1.50000000  0.00000000  -0.00000000  1.0
  Pd  Pd24  1  1.00000000  0.50000000  -0.50000000  1.0
  Pd  Pd25  1  0.00000000  1.50000000  -0.00000000  1.0
  Pd  Pd26  1  0.50000000  1.00000000  -0.50000000  1.0
  Pd  Pd27  1  0.00000000  0.00000000  0.50000000  1.0
  Pd  Pd28  1  0.50000000  -0.50000000  1.00000000  1.0
