# generated using pymatgen
data_CeZn3
_symmetry_space_group_name_H-M   'P 1'
_cell_length_a   5.65792379
_cell_length_b   5.65792379
_cell_length_c   6.51065297
_cell_angle_alpha   90.00000000
_cell_angle_beta   90.00000000
_cell_angle_gamma   132.20126080
_symmetry_Int_Tables_number   1
_chemical_formula_structural   CeZn3
_chemical_formula_sum   'Ce2 Zn6'
_cell_volume   154.39517969
_cell_formula_units_Z   2
loop_
 _symmetry_equiv_pos_site_id
 _symmetry_equiv_pos_as_xyz
  1  'x, y, z'
loop_
 _atom_site_type_symbol
 _atom_site_label
 _atom_site_symmetry_multiplicity
 _atom_site_fract_x
 _atom_site_fract_y
 _atom_site_fract_z
 _atom_site_occupancy
  Ce  Ce0  1  0.40027524  0.59972476  0.75000000  1.0
  Ce  Ce1  1  -0.40027524  0.40027524  0.25000000  1.0
  Zn  Zn2  1  0.11939596  0.88060404  0.94313396  1.0
  Zn  Zn3  1  0.11939596  0.88060404  0.55686604  1.0
  Zn  Zn4  1  -0.11939596  0.11939596  0.44313396  1.0
  Zn  Zn5  1  -0.11939596  0.11939596  0.05686604  1.0
  Zn  Zn6  1  -0.29771850  0.29771850  0.75000000  1.0
  Zn  Zn7  1  0.29771850  0.70228150  0.25000000  1.0
