# generated using pymatgen
data_MnNiC4N4O3
_symmetry_space_group_name_H-M   'P 1'
_cell_length_a   9.06637328
_cell_length_b   9.06637328
_cell_length_c   9.06637328
_cell_angle_alpha   78.61706043
_cell_angle_beta   133.92652954
_cell_angle_gamma   120.24045460
_symmetry_Int_Tables_number   1
_chemical_formula_structural   MnNiC4N4O3
_chemical_formula_sum   'Mn2 Ni2 C8 N8 O6'
_cell_volume   449.65589498
_cell_formula_units_Z   2
loop_
 _symmetry_equiv_pos_site_id
 _symmetry_equiv_pos_as_xyz
  1  'x, y, z'
loop_
 _atom_site_type_symbol
 _atom_site_label
 _atom_site_symmetry_multiplicity
 _atom_site_fract_x
 _atom_site_fract_y
 _atom_site_fract_z
 _atom_site_occupancy
  Ni  Ni0  1  1.46801208  1.21801208  1.25000000  1.0
  Ni  Ni1  1  0.53198792  0.78198792  0.75000000  1.0
  Mn  Mn2  1  1.00000000  1.00000000  0.50000000  1.0
  Mn  Mn3  1  1.00000000  0.50000000  1.00000000  1.0
  C  C4  1  1.30427871  1.33385738  1.15691670  1.0
  C  C5  1  0.32305931  0.85263799  0.65691670  1.0
  C  C6  1  0.32305931  0.66614262  0.47042132  1.0
  C  C7  1  1.30427871  1.14736201  0.97042132  1.0
  C  C8  1  1.67694069  1.33385738  1.52957868  1.0
  C  C9  1  0.69572129  0.85263799  1.02957868  1.0
  C  C10  1  0.69572129  0.66614262  0.84308330  1.0
  C  C11  1  1.67694069  1.14736201  1.34308330  1.0
  O  O12  1  1.26495430  1.01495430  1.25000000  1.0
  O  O13  1  0.73504570  0.98504570  0.75000000  1.0
  O  O14  1  1.18220391  1.18219958  1.49999566  1.0
  O  O15  1  0.81779609  1.31779175  0.99999566  1.0
  O  O16  1  0.81779609  0.81780042  0.50000434  1.0
  O  O17  1  1.18220391  0.68220825  1.00000434  1.0
  N  N18  1  1.19533192  1.39950275  1.09764094  1.0
  N  N19  1  1.19813820  0.90230902  1.59764094  1.0
  N  N20  1  1.19813820  0.60049725  1.29582917  1.0
  N  N21  1  1.19533192  1.09769098  0.79582917  1.0
  N  N22  1  0.80186180  1.39950275  0.70417083  1.0
  N  N23  1  0.80466808  0.90230902  1.20417083  1.0
  N  N24  1  0.80466808  0.60049725  0.90235906  1.0
  N  N25  1  0.80186180  1.09769098  0.40235906  1.0
