# generated using pymatgen
data_Rb2VAgSe2
_symmetry_space_group_name_H-M   'P 1'
_cell_length_a   19.41620347
_cell_length_b   18.48982613
_cell_length_c   7.35112316
_cell_angle_alpha   86.00824274
_cell_angle_beta   71.80113909
_cell_angle_gamma   22.19061818
_symmetry_Int_Tables_number   1
_chemical_formula_structural   Rb2VAgSe2
_chemical_formula_sum   'Rb8 V4 Ag4 Se8'
_cell_volume   748.88076902
_cell_formula_units_Z   4
loop_
 _symmetry_equiv_pos_site_id
 _symmetry_equiv_pos_as_xyz
  1  'x, y, z'
loop_
 _atom_site_type_symbol
 _atom_site_label
 _atom_site_symmetry_multiplicity
 _atom_site_fract_x
 _atom_site_fract_y
 _atom_site_fract_z
 _atom_site_occupancy
  Rb  Rb0  1  1.12907383  0.44432045  0.60587549  1.0
  Rb  Rb1  1  0.82073024  0.60587549  0.44432045  1.0
  Rb  Rb2  1  0.80567955  1.12092617  0.42926976  1.0
  Rb  Rb3  1  0.64412451  0.42926976  1.12092617  1.0
  Rb  Rb4  1  1.60587549  -0.17926976  0.12907383  1.0
  Rb  Rb5  1  1.44432045  0.12907383  -0.17926976  1.0
  Rb  Rb6  1  0.42926976  0.64412451  0.80567955  1.0
  Rb  Rb7  1  1.12092617  0.80567955  0.64412451  1.0
  V  V8  1  1.12500000  0.12500000  0.62500000  1.0
  V  V9  1  1.12500000  0.62500000  0.12500000  1.0
  V  V10  1  1.12500000  0.12500000  0.12500000  1.0
  V  V11  1  1.62500000  0.12500000  0.12500000  1.0
  Ag  Ag12  1  0.62500000  0.62500000  1.12500000  1.0
  Ag  Ag13  1  0.62500000  1.12500000  0.62500000  1.0
  Ag  Ag14  1  0.62500000  0.62500000  0.62500000  1.0
  Ag  Ag15  1  1.12500000  0.62500000  0.62500000  1.0
  Se  Se16  1  1.16446242  -0.03804580  0.60052859  1.0
  Se  Se17  1  1.27305479  0.60052859  -0.03804580  1.0
  Se  Se18  1  0.28804580  1.08553758  0.97694521  1.0
  Se  Se19  1  0.64947141  0.97694521  1.08553758  1.0
  Se  Se20  1  1.60052859  0.27305479  0.16446242  1.0
  Se  Se21  1  0.96195420  0.16446242  0.27305479  1.0
  Se  Se22  1  0.97694521  0.64947141  0.28804580  1.0
  Se  Se23  1  1.08553758  0.28804580  0.64947141  1.0
