# generated using pymatgen
data_In2Cu2SiS6
_symmetry_space_group_name_H-M   'P 1'
_cell_length_a   6.92222498
_cell_length_b   6.92222498
_cell_length_c   12.12703445
_cell_angle_alpha   72.43179182
_cell_angle_beta   107.56820818
_cell_angle_gamma   120.45368121
_symmetry_Int_Tables_number   1
_chemical_formula_structural   In2Cu2SiS6
_chemical_formula_sum   'In4 Cu4 Si2 S12'
_cell_volume   469.66243348
_cell_formula_units_Z   2
loop_
 _symmetry_equiv_pos_site_id
 _symmetry_equiv_pos_as_xyz
  1  'x, y, z'
loop_
 _atom_site_type_symbol
 _atom_site_label
 _atom_site_symmetry_multiplicity
 _atom_site_fract_x
 _atom_site_fract_y
 _atom_site_fract_z
 _atom_site_occupancy
  In  In0  1  1.78279430  0.07596957  0.29677318  1.0
  In  In1  1  0.92403043  0.21720570  0.79677318  1.0
  In  In2  1  0.56263914  0.20169031  0.49024621  1.0
  In  In3  1  0.79830969  0.43736086  0.99024621  1.0
  Cu  Cu4  1  1.07878649  -0.31171900  0.29476293  1.0
  Cu  Cu5  1  0.31171900  -0.07878649  0.79476293  1.0
  Cu  Cu6  1  1.26840054  -0.72221854  0.14036950  1.0
  Cu  Cu7  1  1.72221854  -0.26840054  0.64036950  1.0
  Si  Si8  1  1.69018248  -0.16746881  0.05515526  1.0
  Si  Si9  1  1.16746881  -0.69018248  0.55515526  1.0
  S  S10  1  0.98475874  0.98457179  0.50495105  1.0
  S  S11  1  0.01542821  0.01524126  0.00495105  1.0
  S  S12  1  0.74513680  0.73521031  0.24137361  1.0
  S  S13  1  0.26478969  0.25486320  0.74137361  1.0
  S  S14  1  1.48062242  -0.48384401  0.49164106  1.0
  S  S15  1  0.48384401  -0.48062242  0.99164106  1.0
  S  S16  1  0.49789464  0.01568559  0.98695527  1.0
  S  S17  1  0.98431441  0.50210536  0.48695527  1.0
  S  S18  1  1.40141325  0.05040583  0.29823672  1.0
  S  S19  1  0.94959417  0.59858675  0.79823672  1.0
  S  S20  1  1.06407216  -0.56298208  0.18703521  1.0
  S  S21  1  0.56298208  -0.06407216  0.68703521  1.0
