# generated using pymatgen
data_La2Co2Se2O3
_symmetry_space_group_name_H-M   'P 1'
_cell_length_a   9.78569371
_cell_length_b   9.78569371
_cell_length_c   9.78569371
_cell_angle_alpha   156.13933121
_cell_angle_beta   156.13933121
_cell_angle_gamma   33.99732225
_symmetry_Int_Tables_number   1
_chemical_formula_structural   La2Co2Se2O3
_chemical_formula_sum   'La2 Co2 Se2 O3'
_cell_volume   153.18228996
_cell_formula_units_Z   1
loop_
 _symmetry_equiv_pos_site_id
 _symmetry_equiv_pos_as_xyz
  1  'x, y, z'
loop_
 _atom_site_type_symbol
 _atom_site_label
 _atom_site_symmetry_multiplicity
 _atom_site_fract_x
 _atom_site_fract_y
 _atom_site_fract_z
 _atom_site_occupancy
  O  O0  1  0.25000000  0.75000000  0.50000000  1.0
  O  O1  1  0.75000000  0.25000000  0.50000000  1.0
  O  O2  1  0.00000000  0.00000000  0.00000000  1.0
  Se  Se3  1  0.59352418  0.59352418  1.00000000  1.0
  Se  Se4  1  0.40647582  0.40647582  -0.00000000  1.0
  Co  Co5  1  0.50000000  0.00000000  0.50000000  1.0
  Co  Co6  1  0.00000000  0.50000000  0.50000000  1.0
  La  La7  1  0.81693187  0.81693187  1.00000000  1.0
  La  La8  1  0.18306813  0.18306813  0.00000000  1.0
