# generated using pymatgen
data_PS2N3(Cl2O)2
_symmetry_space_group_name_H-M   'P 1'
_cell_length_a   11.62137533
_cell_length_b   8.19930986
_cell_length_c   15.35274734
_cell_angle_alpha   90.00000000
_cell_angle_beta   126.01620759
_cell_angle_gamma   90.00000000
_symmetry_Int_Tables_number   1
_chemical_formula_structural   PS2N3(Cl2O)2
_chemical_formula_sum   'P4 S8 N12 Cl16 O8'
_cell_volume   1183.28481452
_cell_formula_units_Z   4
loop_
 _symmetry_equiv_pos_site_id
 _symmetry_equiv_pos_as_xyz
  1  'x, y, z'
loop_
 _atom_site_type_symbol
 _atom_site_label
 _atom_site_symmetry_multiplicity
 _atom_site_fract_x
 _atom_site_fract_y
 _atom_site_fract_z
 _atom_site_occupancy
  P  P0  1  0.87903389  0.16418543  0.32916709  1.0
  P  P1  1  0.87903389  0.33581457  0.82916709  1.0
  P  P2  1  0.12096611  0.66418543  0.17083291  1.0
  P  P3  1  0.12096611  0.83581457  0.67083291  1.0
  S  S4  1  0.69411046  0.42334568  0.22797898  1.0
  S  S5  1  0.69411046  0.07665432  0.72797898  1.0
  S  S6  1  0.30588954  0.92334568  0.27202102  1.0
  S  S7  1  0.30588954  0.57665432  0.77202102  1.0
  S  S8  1  0.81126266  0.35623572  0.44281898  1.0
  S  S9  1  0.81126266  0.14376428  0.94281898  1.0
  S  S10  1  0.18873734  0.85623572  0.05718102  1.0
  S  S11  1  0.18873734  0.64376428  0.55718102  1.0
  N  N12  1  0.79521209  0.29418827  0.23148384  1.0
  N  N13  1  0.79521209  0.20581173  0.73148384  1.0
  N  N14  1  0.20478791  0.79418827  0.26851616  1.0
  N  N15  1  0.20478791  0.70581173  0.76851616  1.0
  N  N16  1  0.73606105  0.47858142  0.34272999  1.0
  N  N17  1  0.73606105  0.02141858  0.84272999  1.0
  N  N18  1  0.26393895  0.97858142  0.15727001  1.0
  N  N19  1  0.26393895  0.52141858  0.65727001  1.0
  N  N20  1  0.89792902  0.21507857  0.43850597  1.0
  N  N21  1  0.89792902  0.28492143  0.93850597  1.0
  N  N22  1  0.10207098  0.71507857  0.06149403  1.0
  N  N23  1  0.10207098  0.78492143  0.56149403  1.0
  Cl  Cl24  1  0.78673723  0.94444364  0.27981648  1.0
  Cl  Cl25  1  0.78673723  0.55555636  0.77981648  1.0
  Cl  Cl26  1  0.21326277  0.44444364  0.22018352  1.0
  Cl  Cl27  1  0.21326277  0.05555636  0.72018352  1.0
  Cl  Cl28  1  0.64644060  0.24354476  0.43481058  1.0
  Cl  Cl29  1  0.64644060  0.25645524  0.93481058  1.0
  Cl  Cl30  1  0.35355940  0.74354476  0.06518942  1.0
  Cl  Cl31  1  0.35355940  0.75645524  0.56518942  1.0
  Cl  Cl32  1  0.49787199  0.30851688  0.15134921  1.0
  Cl  Cl33  1  0.49787199  0.19148312  0.65134921  1.0
  Cl  Cl34  1  0.50212801  0.80851688  0.34865079  1.0
  Cl  Cl35  1  0.50212801  0.69148312  0.84865079  1.0
  Cl  Cl36  1  0.92969938  0.63194621  0.13754611  1.0
  Cl  Cl37  1  0.92969938  0.86805379  0.63754611  1.0
  Cl  Cl38  1  0.07030062  0.13194621  0.36245389  1.0
  Cl  Cl39  1  0.07030062  0.36805379  0.86245389  1.0
  O  O40  1  0.32902497  0.06394654  0.33648650  1.0
  O  O41  1  0.32902497  0.43605346  0.83648650  1.0
  O  O42  1  0.67097503  0.56394654  0.16351350  1.0
  O  O43  1  0.67097503  0.93605346  0.66351350  1.0
  O  O44  1  0.88860950  0.05420278  0.04226005  1.0
  O  O45  1  0.88860950  0.44579722  0.54226005  1.0
  O  O46  1  0.11139050  0.55420278  0.45773995  1.0
  O  O47  1  0.11139050  0.94579722  0.95773995  1.0
