# generated using pymatgen
data_KH(IO3)2
_symmetry_space_group_name_H-M   'P 1'
_cell_length_a   10.64815617
_cell_length_b   7.57619432
_cell_length_c   8.74297807
_cell_angle_alpha   90.00000000
_cell_angle_beta   111.92481914
_cell_angle_gamma   90.00000000
_symmetry_Int_Tables_number   1
_chemical_formula_structural   KH(IO3)2
_chemical_formula_sum   'K4 H4 I8 O24'
_cell_volume   654.30550006
_cell_formula_units_Z   4
loop_
 _symmetry_equiv_pos_site_id
 _symmetry_equiv_pos_as_xyz
  1  'x, y, z'
loop_
 _atom_site_type_symbol
 _atom_site_label
 _atom_site_symmetry_multiplicity
 _atom_site_fract_x
 _atom_site_fract_y
 _atom_site_fract_z
 _atom_site_occupancy
  K  K0  1  0.80393584  0.75793157  0.66756724  1.0
  K  K1  1  0.80393584  0.74206843  0.16756724  1.0
  K  K2  1  0.19606416  0.25793157  0.83243276  1.0
  K  K3  1  0.19606416  0.24206843  0.33243276  1.0
  H  H4  1  0.50000000  0.00000000  0.00000000  1.0
  H  H5  1  0.50000000  0.50000000  0.50000000  1.0
  H  H6  1  0.00000000  0.00000000  0.00000000  1.0
  H  H7  1  -0.00000000  0.50000000  0.50000000  1.0
  I  I8  1  0.87207080  0.30735031  0.92754924  1.0
  I  I9  1  0.87207080  0.19264969  0.42754924  1.0
  I  I10  1  0.12792920  0.80735031  0.57245076  1.0
  I  I11  1  0.12792920  0.69264969  0.07245076  1.0
  I  I12  1  0.49942120  0.56788512  0.80205861  1.0
  I  I13  1  0.49942120  0.93211488  0.30205861  1.0
  I  I14  1  0.50057880  0.06788512  0.69794139  1.0
  I  I15  1  0.50057880  0.43211488  0.19794139  1.0
  O  O16  1  0.97098257  0.84443995  0.99051839  1.0
  O  O17  1  0.97098257  0.65556005  0.49051839  1.0
  O  O18  1  0.02901743  0.34443995  0.50948161  1.0
  O  O19  1  0.02901743  0.15556005  0.00948161  1.0
  O  O20  1  0.94518567  0.45893857  0.81413189  1.0
  O  O21  1  0.94518567  0.04106143  0.31413189  1.0
  O  O22  1  0.05481433  0.95893857  0.68586811  1.0
  O  O23  1  0.05481433  0.54106143  0.18586811  1.0
  O  O24  1  0.68859043  0.55189640  0.86293624  1.0
  O  O25  1  0.68859043  0.94810360  0.36293624  1.0
  O  O26  1  0.31140957  0.05189640  0.63706376  1.0
  O  O27  1  0.31140957  0.44810360  0.13706376  1.0
  O  O28  1  0.56095354  0.95853517  0.91295489  1.0
  O  O29  1  0.56095354  0.54146483  0.41295489  1.0
  O  O30  1  0.43904646  0.45853517  0.58704511  1.0
  O  O31  1  0.43904646  0.04146483  0.08704511  1.0
  O  O32  1  0.53662751  0.85451285  0.60523919  1.0
  O  O33  1  0.53662751  0.64548715  0.10523919  1.0
  O  O34  1  0.46337249  0.35451285  0.89476081  1.0
  O  O35  1  0.46337249  0.14548715  0.39476081  1.0
  O  O36  1  0.24114268  0.65763149  0.73737263  1.0
  O  O37  1  0.24114268  0.84236851  0.23737263  1.0
  O  O38  1  0.75885732  0.15763149  0.76262737  1.0
  O  O39  1  0.75885732  0.34236851  0.26262737  1.0
