# generated using pymatgen
data_BaBPd4
_symmetry_space_group_name_H-M   'P 1'
_cell_length_a   6.16964271
_cell_length_b   5.68356393
_cell_length_c   12.15397410
_cell_angle_alpha   90.00000000
_cell_angle_beta   90.00000000
_cell_angle_gamma   90.00000000
_symmetry_Int_Tables_number   1
_chemical_formula_structural   BaBPd4
_chemical_formula_sum   'Ba4 B4 Pd16'
_cell_volume   426.18589294
_cell_formula_units_Z   4
loop_
 _symmetry_equiv_pos_site_id
 _symmetry_equiv_pos_as_xyz
  1  'x, y, z'
loop_
 _atom_site_type_symbol
 _atom_site_label
 _atom_site_symmetry_multiplicity
 _atom_site_fract_x
 _atom_site_fract_y
 _atom_site_fract_z
 _atom_site_occupancy
  Ba  Ba0  1  0.81561698  0.75000000  0.66406263  1.0
  Ba  Ba1  1  0.31561698  0.75000000  0.83593737  1.0
  Ba  Ba2  1  0.18438302  0.25000000  0.33593737  1.0
  Ba  Ba3  1  0.68438302  0.25000000  0.16406263  1.0
  B  B4  1  0.90320398  0.75000000  0.05171911  1.0
  B  B5  1  0.40320398  0.75000000  0.44828089  1.0
  B  B6  1  0.09679602  0.25000000  0.94828089  1.0
  B  B7  1  0.59679602  0.25000000  0.55171911  1.0
  Pd  Pd8  1  0.66553125  0.99418313  0.41865407  1.0
  Pd  Pd9  1  0.66553125  0.50581687  0.41865407  1.0
  Pd  Pd10  1  0.16553125  0.99418313  0.08134593  1.0
  Pd  Pd11  1  0.16553125  0.50581687  0.08134593  1.0
  Pd  Pd12  1  0.33446875  0.49418313  0.58134593  1.0
  Pd  Pd13  1  0.33446875  0.00581687  0.58134593  1.0
  Pd  Pd14  1  0.83446875  0.49418313  0.91865407  1.0
  Pd  Pd15  1  0.83446875  0.00581687  0.91865407  1.0
  Pd  Pd16  1  0.89106304  0.75000000  0.23203041  1.0
  Pd  Pd17  1  0.39106304  0.75000000  0.26796959  1.0
  Pd  Pd18  1  0.10893696  0.25000000  0.76796959  1.0
  Pd  Pd19  1  0.60893696  0.25000000  0.73203041  1.0
  Pd  Pd20  1  0.56425078  0.75000000  0.05995796  1.0
  Pd  Pd21  1  0.06425078  0.75000000  0.44004204  1.0
  Pd  Pd22  1  0.43574922  0.25000000  0.94004204  1.0
  Pd  Pd23  1  0.93574922  0.25000000  0.55995796  1.0
