# generated using pymatgen
data_Na3CuPHClO5
_symmetry_space_group_name_H-M   'P 1'
_cell_length_a   11.27978804
_cell_length_b   6.87039495
_cell_length_c   8.61258490
_cell_angle_alpha   90.00000000
_cell_angle_beta   90.00000000
_cell_angle_gamma   90.00000000
_symmetry_Int_Tables_number   1
_chemical_formula_structural   Na3CuPHClO5
_chemical_formula_sum   'Na12 Cu4 P4 H4 Cl4 O20'
_cell_volume   667.44603551
_cell_formula_units_Z   4
loop_
 _symmetry_equiv_pos_site_id
 _symmetry_equiv_pos_as_xyz
  1  'x, y, z'
loop_
 _atom_site_type_symbol
 _atom_site_label
 _atom_site_symmetry_multiplicity
 _atom_site_fract_x
 _atom_site_fract_y
 _atom_site_fract_z
 _atom_site_occupancy
  Cl  Cl0  1  0.22693159  0.75000000  0.13614230  1.0
  Cl  Cl1  1  0.72693159  0.75000000  0.36385770  1.0
  Cl  Cl2  1  0.77306841  0.25000000  0.86385770  1.0
  Cl  Cl3  1  0.27306841  0.25000000  0.63614230  1.0
  H  H4  1  0.37541977  0.75000000  0.96666168  1.0
  H  H5  1  0.87541977  0.75000000  0.53333832  1.0
  H  H6  1  0.62458023  0.25000000  0.03333832  1.0
  H  H7  1  0.12458023  0.25000000  0.46666168  1.0
  P  P8  1  0.03871639  0.75000000  0.67928099  1.0
  P  P9  1  0.53871639  0.75000000  0.82071901  1.0
  P  P10  1  0.96128361  0.25000000  0.32071901  1.0
  P  P11  1  0.46128361  0.25000000  0.17928099  1.0
  Cu  Cu12  1  0.50000000  0.00000000  0.50000000  1.0
  Cu  Cu13  1  0.50000000  0.50000000  0.50000000  1.0
  Cu  Cu14  1  0.00000000  0.00000000  0.00000000  1.0
  Cu  Cu15  1  0.00000000  0.50000000  0.00000000  1.0
  O  O16  1  0.06425999  0.93613549  0.77389712  1.0
  O  O17  1  0.06425999  0.56386451  0.77389712  1.0
  O  O18  1  0.56425999  0.93613549  0.72610288  1.0
  O  O19  1  0.56425999  0.56386451  0.72610288  1.0
  O  O20  1  0.93574001  0.43613549  0.22610288  1.0
  O  O21  1  0.93574001  0.06386451  0.22610288  1.0
  O  O22  1  0.43574001  0.43613549  0.27389712  1.0
  O  O23  1  0.43574001  0.06386451  0.27389712  1.0
  O  O24  1  0.39356285  0.75000000  0.85493267  1.0
  O  O25  1  0.89356285  0.75000000  0.64506733  1.0
  O  O26  1  0.60643715  0.25000000  0.14506733  1.0
  O  O27  1  0.10643715  0.25000000  0.35493267  1.0
  O  O28  1  0.09923595  0.75000000  0.51893632  1.0
  O  O29  1  0.59923595  0.75000000  0.98106368  1.0
  O  O30  1  0.90076405  0.25000000  0.48106368  1.0
  O  O31  1  0.40076405  0.25000000  0.01893632  1.0
  O  O32  1  0.42581449  0.75000000  0.47406940  1.0
  O  O33  1  0.92581449  0.75000000  1.02593060  1.0
  O  O34  1  0.57418551  0.25000000  0.52593060  1.0
  O  O35  1  0.07418551  0.25000000  -0.02593060  1.0
  Na  Na36  1  0.24228500  0.46134082  0.90989924  1.0
  Na  Na37  1  0.24228500  0.03865918  0.90989924  1.0
  Na  Na38  1  0.74228500  0.46134082  0.59010076  1.0
  Na  Na39  1  0.74228500  0.03865918  0.59010076  1.0
  Na  Na40  1  0.75771500  0.96134082  0.09010076  1.0
  Na  Na41  1  0.75771500  0.53865918  0.09010076  1.0
  Na  Na42  1  0.25771500  0.96134082  0.40989924  1.0
  Na  Na43  1  0.25771500  0.53865918  0.40989924  1.0
  Na  Na44  1  0.49196661  0.75000000  0.21867538  1.0
  Na  Na45  1  0.99196661  0.75000000  0.28132462  1.0
  Na  Na46  1  0.50803339  0.25000000  0.78132462  1.0
  Na  Na47  1  0.00803339  0.25000000  0.71867538  1.0
