# generated using pymatgen
data_Mg(BH4)2
_symmetry_space_group_name_H-M   'P 1'
_cell_length_a   7.92209948
_cell_length_b   7.92209948
_cell_length_c   7.92209948
_cell_angle_alpha   116.72116050
_cell_angle_beta   116.72116050
_cell_angle_gamma   95.77960675
_symmetry_Int_Tables_number   1
_chemical_formula_structural   Mg(BH4)2
_chemical_formula_sum   'Mg4 B8 H32'
_cell_volume   366.96739156
_cell_formula_units_Z   4
loop_
 _symmetry_equiv_pos_site_id
 _symmetry_equiv_pos_as_xyz
  1  'x, y, z'
loop_
 _atom_site_type_symbol
 _atom_site_label
 _atom_site_symmetry_multiplicity
 _atom_site_fract_x
 _atom_site_fract_y
 _atom_site_fract_z
 _atom_site_occupancy
  Mg  Mg0  1  0.25000000  0.75000000  0.50000000  1.0
  Mg  Mg1  1  0.50000000  0.50000000  -0.00000000  1.0
  Mg  Mg2  1  0.00000000  0.00000000  0.00000000  1.0
  Mg  Mg3  1  0.75000000  1.25000000  0.50000000  1.0
  B  B4  1  0.14327388  0.90801166  0.76473778  1.0
  B  B5  1  0.65801166  0.39327388  0.26473778  1.0
  B  B6  1  1.12853610  1.39327388  0.73526222  1.0
  B  B7  1  0.14327388  0.37853610  0.23526222  1.0
  B  B8  1  0.60672612  1.34198834  0.73526222  1.0
  B  B9  1  1.09198834  0.85672612  1.23526222  1.0
  B  B10  1  1.62146390  0.85672612  0.76473778  1.0
  B  B11  1  0.60672612  0.87146390  0.26473778  1.0
  H  H12  1  0.23785493  0.94895039  0.95881877  1.0
  H  H13  1  0.99013162  0.94895039  0.71109546  1.0
  H  H14  1  0.69895039  0.48785493  0.45881877  1.0
  H  H15  1  1.02903615  0.48785493  0.78890454  1.0
  H  H16  1  0.23785493  0.27903615  0.28890454  1.0
  H  H17  1  0.99013162  0.27903615  1.04118123  1.0
  H  H18  1  0.69895039  1.24013162  1.21109546  1.0
  H  H19  1  1.02903615  1.24013162  0.54118123  1.0
  H  H20  1  1.51214507  1.30104961  1.54118123  1.0
  H  H21  1  0.75986838  0.30104961  0.78890454  1.0
  H  H22  1  1.05104961  0.76214507  1.04118123  1.0
  H  H23  1  0.72096385  0.76214507  0.71109546  1.0
  H  H24  1  1.51214507  0.97096385  1.21109546  1.0
  H  H25  1  0.75986838  0.97096385  0.45881877  1.0
  H  H26  1  1.05104961  1.00986838  1.28890454  1.0
  H  H27  1  1.72096385  1.00986838  0.95881877  1.0
  H  H28  1  0.08746053  0.45159586  0.36413534  1.0
  H  H29  1  1.20159586  0.33746053  0.86413534  1.0
  H  H30  1  0.47332519  0.33746053  0.13586466  1.0
  H  H31  1  1.08746053  0.72332519  0.63586466  1.0
  H  H32  1  0.66253947  0.79840414  0.13586466  1.0
  H  H33  1  0.54840414  0.91253947  0.63586466  1.0
  H  H34  1  1.27667481  0.91253947  1.36413534  1.0
  H  H35  1  0.66253947  0.52667481  0.86413534  1.0
  H  H36  1  0.25822989  1.01148402  0.75325413  1.0
  H  H37  1  0.76148402  0.50822989  0.25325413  1.0
  H  H38  1  0.25497576  0.50822989  0.74674587  1.0
  H  H39  1  0.25822989  0.50497576  0.24674587  1.0
  H  H40  1  0.49177011  1.23851598  0.74674587  1.0
  H  H41  1  0.98851598  0.74177011  1.24674587  1.0
  H  H42  1  1.49502424  0.74177011  0.75325413  1.0
  H  H43  1  0.49177011  0.74502424  0.25325413  1.0
