# generated using pymatgen
data_KMnF4
_symmetry_space_group_name_H-M   'P 1'
_cell_length_a   5.89067771
_cell_length_b   7.85492255
_cell_length_c   7.88008347
_cell_angle_alpha   90.00000000
_cell_angle_beta   90.81486465
_cell_angle_gamma   90.00000000
_symmetry_Int_Tables_number   1
_chemical_formula_structural   KMnF4
_chemical_formula_sum   'K4 Mn4 F16'
_cell_volume   364.58102695
_cell_formula_units_Z   4
loop_
 _symmetry_equiv_pos_site_id
 _symmetry_equiv_pos_as_xyz
  1  'x, y, z'
loop_
 _atom_site_type_symbol
 _atom_site_label
 _atom_site_symmetry_multiplicity
 _atom_site_fract_x
 _atom_site_fract_y
 _atom_site_fract_z
 _atom_site_occupancy
  K  K0  1  0.49428689  0.69327021  0.74482558  1.0
  K  K1  1  0.49428689  0.80672979  0.24482558  1.0
  K  K2  1  0.50571311  0.19327021  0.75517442  1.0
  K  K3  1  0.50571311  0.30672979  0.25517442  1.0
  Mn  Mn4  1  -0.00000000  -0.00000000  0.50000000  1.0
  Mn  Mn5  1  0.00000000  0.50000000  0.00000000  1.0
  Mn  Mn6  1  -0.00000000  -0.00000000  -0.00000000  1.0
  Mn  Mn7  1  -0.00000000  0.50000000  0.50000000  1.0
  F  F8  1  0.90525964  0.51809936  0.77043586  1.0
  F  F9  1  0.90525964  0.98190064  0.27043586  1.0
  F  F10  1  0.09474036  0.01809936  0.72956414  1.0
  F  F11  1  0.09474036  0.48190064  0.22956414  1.0
  F  F12  1  0.88661455  0.22606352  0.99622410  1.0
  F  F13  1  0.88661455  0.27393648  0.49622410  1.0
  F  F14  1  0.11338545  0.72606352  0.50377590  1.0
  F  F15  1  0.11338545  0.77393648  0.00377590  1.0
  F  F16  1  0.71275965  0.92434605  0.94671578  1.0
  F  F17  1  0.71275965  0.57565395  0.44671578  1.0
  F  F18  1  0.28724035  0.42434605  0.55328422  1.0
  F  F19  1  0.28724035  0.07565395  0.05328422  1.0
  F  F20  1  0.71179564  0.94388530  0.56480898  1.0
  F  F21  1  0.71179564  0.55611470  0.06480898  1.0
  F  F22  1  0.28820436  0.44388530  0.93519102  1.0
  F  F23  1  0.28820436  0.05611470  0.43519102  1.0
