# generated using pymatgen
data_Ba2CaMgAl2F14
_symmetry_space_group_name_H-M   'P 1'
_cell_length_a   7.38898115
_cell_length_b   7.38898115
_cell_length_c   14.80375812
_cell_angle_alpha   88.33897543
_cell_angle_beta   91.66102457
_cell_angle_gamma   138.07637590
_symmetry_Int_Tables_number   1
_chemical_formula_structural   Ba2CaMgAl2F14
_chemical_formula_sum   'Ba4 Ca2 Mg2 Al4 F28'
_cell_volume   539.75770282
_cell_formula_units_Z   2
loop_
 _symmetry_equiv_pos_site_id
 _symmetry_equiv_pos_as_xyz
  1  'x, y, z'
loop_
 _atom_site_type_symbol
 _atom_site_label
 _atom_site_symmetry_multiplicity
 _atom_site_fract_x
 _atom_site_fract_y
 _atom_site_fract_z
 _atom_site_occupancy
  Ba  Ba0  1  0.64805961  0.26767625  0.61856507  1.0
  Ba  Ba1  1  0.73232375  0.35194039  0.11856507  1.0
  Ba  Ba2  1  1.26767625  0.64805961  0.88143493  1.0
  Ba  Ba3  1  0.35194039  -0.26767625  0.38143493  1.0
  Ca  Ca4  1  0.93906699  0.93906699  0.75000000  1.0
  Ca  Ca5  1  0.06093301  0.06093301  0.25000000  1.0
  Mg  Mg6  1  0.00000000  0.00000000  0.00000000  1.0
  Mg  Mg7  1  -0.00000000  0.00000000  0.50000000  1.0
  Al  Al8  1  0.61051065  0.37793814  0.87833543  1.0
  Al  Al9  1  0.62206186  0.38948935  0.37833543  1.0
  Al  Al10  1  1.37793814  0.61051065  0.62166457  1.0
  Al  Al11  1  0.38948935  -0.37793814  0.12166457  1.0
  F  F12  1  0.55773794  -0.42925707  0.84189538  1.0
  F  F13  1  1.42925707  0.44226206  0.34189538  1.0
  F  F14  1  0.57074293  0.55773794  0.65810462  1.0
  F  F15  1  0.44226206  0.42925707  0.15810462  1.0
  F  F16  1  0.88090001  0.00925001  0.38076801  1.0
  F  F17  1  0.99074999  0.11909999  0.88076801  1.0
  F  F18  1  1.00925001  0.88090001  0.11923199  1.0
  F  F19  1  0.11909999  -0.00925001  0.61923199  1.0
  F  F20  1  0.67102473  -0.10222776  0.54930263  1.0
  F  F21  1  1.10222776  0.32897527  0.04930263  1.0
  F  F22  1  0.89777224  0.67102473  0.95069737  1.0
  F  F23  1  0.32897527  0.10222776  0.45069737  1.0
  F  F24  1  0.54013420  -0.14197330  0.71515185  1.0
  F  F25  1  1.14197330  0.45986580  0.21515185  1.0
  F  F26  1  0.85802670  0.54013420  0.78484815  1.0
  F  F27  1  0.45986580  0.14197330  0.28484815  1.0
  F  F28  1  0.69660628  0.21502409  0.91935398  1.0
  F  F29  1  0.78497591  0.30339372  0.41935398  1.0
  F  F30  1  1.21502409  0.69660628  0.58064602  1.0
  F  F31  1  0.30339372  -0.21502409  0.08064602  1.0
  F  F32  1  0.34595278  0.09490709  0.80483056  1.0
  F  F33  1  0.90509291  0.65404722  0.30483056  1.0
  F  F34  1  1.09490709  0.34595278  0.69516944  1.0
  F  F35  1  0.65404722  -0.09490709  0.19516944  1.0
  F  F36  1  0.38910168  0.22998834  0.97612069  1.0
  F  F37  1  0.77001166  0.61089832  0.47612069  1.0
  F  F38  1  1.22998834  0.38910168  0.52387931  1.0
  F  F39  1  0.61089832  -0.22998834  0.02387931  1.0
