# generated using pymatgen
data_K2PtC4(IN2)2
_symmetry_space_group_name_H-M   'P 1'
_cell_length_a   7.38339158
_cell_length_b   9.89610180
_cell_length_c   9.09415046
_cell_angle_alpha   90.00000000
_cell_angle_beta   108.39541188
_cell_angle_gamma   90.00000000
_symmetry_Int_Tables_number   1
_chemical_formula_structural   K2PtC4(IN2)2
_chemical_formula_sum   'K4 Pt2 C8 I4 N8'
_cell_volume   630.52632856
_cell_formula_units_Z   2
loop_
 _symmetry_equiv_pos_site_id
 _symmetry_equiv_pos_as_xyz
  1  'x, y, z'
loop_
 _atom_site_type_symbol
 _atom_site_label
 _atom_site_symmetry_multiplicity
 _atom_site_fract_x
 _atom_site_fract_y
 _atom_site_fract_z
 _atom_site_occupancy
  K  K0  1  0.95276976  0.30300896  0.11355155  1.0
  K  K1  1  0.95276976  0.19699104  0.61355155  1.0
  K  K2  1  0.04723024  0.80300896  0.38644845  1.0
  K  K3  1  0.04723024  0.69699104  0.88644845  1.0
  Pt  Pt4  1  0.50000000  0.50000000  0.50000000  1.0
  Pt  Pt5  1  0.50000000  0.00000000  0.00000000  1.0
  C  C6  1  0.69291707  0.45197694  0.39411454  1.0
  C  C7  1  0.69291707  0.04802306  0.89411454  1.0
  C  C8  1  0.30708293  0.95197694  0.10588546  1.0
  C  C9  1  0.30708293  0.54802306  0.60588546  1.0
  C  C10  1  0.69834334  0.04015643  0.20402012  1.0
  C  C11  1  0.69834334  0.45984357  0.70402012  1.0
  C  C12  1  0.30165666  0.54015643  0.29597988  1.0
  C  C13  1  0.30165666  0.95984357  0.79597988  1.0
  I  I14  1  0.38074172  0.23735000  0.47110019  1.0
  I  I15  1  0.38074172  0.26265000  0.97110019  1.0
  I  I16  1  0.61925828  0.73735000  0.02889981  1.0
  I  I17  1  0.61925828  0.76265000  0.52889981  1.0
  N  N18  1  0.80738386  0.41952843  0.33699831  1.0
  N  N19  1  0.80738386  0.08047157  0.83699831  1.0
  N  N20  1  0.19261614  0.91952843  0.16300169  1.0
  N  N21  1  0.19261614  0.58047157  0.66300169  1.0
  N  N22  1  0.81892013  0.06286359  0.32026215  1.0
  N  N23  1  0.81892013  0.43713641  0.82026215  1.0
  N  N24  1  0.18107987  0.56286359  0.17973785  1.0
  N  N25  1  0.18107987  0.93713641  0.67973785  1.0
