# generated using pymatgen
data_Li
_symmetry_space_group_name_H-M   'P 1'
_cell_length_a   7.68636728
_cell_length_b   7.68636728
_cell_length_c   7.68636728
_cell_angle_alpha   22.95990787
_cell_angle_beta   22.95990787
_cell_angle_gamma   22.95990786
_symmetry_Int_Tables_number   1
_chemical_formula_structural   Li
_chemical_formula_sum   Li3
_cell_volume   60.64389773
_cell_formula_units_Z   3
loop_
 _symmetry_equiv_pos_site_id
 _symmetry_equiv_pos_as_xyz
  1  'x, y, z'
loop_
 _atom_site_type_symbol
 _atom_site_label
 _atom_site_symmetry_multiplicity
 _atom_site_fract_x
 _atom_site_fract_y
 _atom_site_fract_z
 _atom_site_occupancy
  Li  Li0  1  0.77778031  0.77778031  0.77778031  1.0
  Li  Li1  1  1.22221969  1.22221969  0.22221969  1.0
  Li  Li2  1  0.00000000  0.00000000  0.00000000  1.0
