# generated using pymatgen
data_BaTa4O14
_symmetry_space_group_name_H-M   'P 1'
_cell_length_a   7.51669063
_cell_length_b   7.51669063
_cell_length_c   7.51669063
_cell_angle_alpha   60.35756423
_cell_angle_beta   60.35756423
_cell_angle_gamma   60.35756423
_symmetry_Int_Tables_number   1
_chemical_formula_structural   BaTa4O14
_chemical_formula_sum   'Ba1 Ta4 O14'
_cell_volume   302.73570574
_cell_formula_units_Z   1
loop_
 _symmetry_equiv_pos_site_id
 _symmetry_equiv_pos_as_xyz
  1  'x, y, z'
loop_
 _atom_site_type_symbol
 _atom_site_label
 _atom_site_symmetry_multiplicity
 _atom_site_fract_x
 _atom_site_fract_y
 _atom_site_fract_z
 _atom_site_occupancy
  Ba  Ba0  1  0.00000000  0.00000000  0.00000000  1.0
  Ta  Ta1  1  0.50000000  0.00000000  -0.50000000  1.0
  Ta  Ta2  1  0.50000000  -0.50000000  0.00000000  1.0
  Ta  Ta3  1  0.00000000  0.50000000  -0.50000000  1.0
  Ta  Ta4  1  1.50000000  0.50000000  0.50000000  1.0
  O  O5  1  0.83576131  0.83576131  0.83576131  1.0
  O  O6  1  1.16423869  1.16423869  0.16423869  1.0
  O  O7  1  1.43928658  0.43928658  0.81030034  1.0
  O  O8  1  1.43928658  0.81030034  0.43928658  1.0
  O  O9  1  1.18969966  0.56071342  0.56071342  1.0
  O  O10  1  1.56071342  0.18969966  0.56071342  1.0
  O  O11  1  1.56071342  0.56071342  0.18969966  1.0
  O  O12  1  1.81030034  0.43928658  0.43928658  1.0
  O  O13  1  1.19071293  1.19071293  0.56779743  1.0
  O  O14  1  1.19071293  1.56779743  0.19071293  1.0
  O  O15  1  1.43220257  0.80928707  -0.19071293  1.0
  O  O16  1  0.80928707  1.43220257  -0.19071293  1.0
  O  O17  1  0.80928707  0.80928707  0.43220257  1.0
  O  O18  1  1.56779743  1.19071293  0.19071293  1.0
