# generated using pymatgen
data_Tl3(RhS)2
_symmetry_space_group_name_H-M   'P 1'
_cell_length_a   5.75720082
_cell_length_b   5.75720082
_cell_length_c   5.75720082
_cell_angle_alpha   72.12845077
_cell_angle_beta   72.12845077
_cell_angle_gamma   72.12845077
_symmetry_Int_Tables_number   1
_chemical_formula_structural   Tl3(RhS)2
_chemical_formula_sum   'Tl3 Rh2 S2'
_cell_volume   168.01984908
_cell_formula_units_Z   1
loop_
 _symmetry_equiv_pos_site_id
 _symmetry_equiv_pos_as_xyz
  1  'x, y, z'
loop_
 _atom_site_type_symbol
 _atom_site_label
 _atom_site_symmetry_multiplicity
 _atom_site_fract_x
 _atom_site_fract_y
 _atom_site_fract_z
 _atom_site_occupancy
  Tl  Tl0  1  0.50000000  0.00000000  -0.50000000  1.0
  Tl  Tl1  1  0.50000000  -0.50000000  0.00000000  1.0
  Tl  Tl2  1  0.00000000  0.50000000  -0.50000000  1.0
  Rh  Rh3  1  1.50000000  0.50000000  0.50000000  1.0
  Rh  Rh4  1  0.00000000  0.00000000  0.00000000  1.0
  S  S5  1  0.83223767  0.83223767  0.83223767  1.0
  S  S6  1  1.16776233  1.16776233  0.16776233  1.0
