# generated using pymatgen
data_MgAu3
_symmetry_space_group_name_H-M   'P 1'
_cell_length_a   10.49643319
_cell_length_b   10.49643319
_cell_length_c   9.56463492
_cell_angle_alpha   90.00000000
_cell_angle_beta   90.00000000
_cell_angle_gamma   147.76689659
_symmetry_Int_Tables_number   1
_chemical_formula_structural   MgAu3
_chemical_formula_sum   'Mg8 Au24'
_cell_volume   562.05196828
_cell_formula_units_Z   8
loop_
 _symmetry_equiv_pos_site_id
 _symmetry_equiv_pos_as_xyz
  1  'x, y, z'
loop_
 _atom_site_type_symbol
 _atom_site_label
 _atom_site_symmetry_multiplicity
 _atom_site_fract_x
 _atom_site_fract_y
 _atom_site_fract_z
 _atom_site_occupancy
  Mg  Mg0  1  -0.70674700  0.70674700  0.25000000  1.0
  Mg  Mg1  1  -0.29325300  1.29325300  0.75000000  1.0
  Mg  Mg2  1  -0.87609545  0.87609545  0.50112058  1.0
  Mg  Mg3  1  -0.87609545  0.87609545  -0.00112058  1.0
  Mg  Mg4  1  -0.12390455  1.12390455  0.00112058  1.0
  Mg  Mg5  1  -0.12390455  1.12390455  0.49887942  1.0
  Mg  Mg6  1  -0.45945600  1.45945600  0.25000000  1.0
  Mg  Mg7  1  -0.54054400  0.54054400  0.75000000  1.0
  Au  Au8  1  0.16608926  1.33332602  0.25000000  1.0
  Au  Au9  1  -0.66667398  1.16608926  0.75000000  1.0
  Au  Au10  1  -0.33332602  0.83391074  0.25000000  1.0
  Au  Au11  1  -0.16608926  1.66667398  0.75000000  1.0
  Au  Au12  1  -0.08104336  1.58550714  0.25000000  1.0
  Au  Au13  1  -0.41449286  0.91895664  0.75000000  1.0
  Au  Au14  1  -0.58550714  1.08104336  0.25000000  1.0
  Au  Au15  1  0.08104336  1.41449286  0.75000000  1.0
  Au  Au16  1  -0.62594436  0.62594436  0.50126887  1.0
  Au  Au17  1  -0.62594436  0.62594436  -0.00126887  1.0
  Au  Au18  1  -0.37405564  1.37405564  0.00126887  1.0
  Au  Au19  1  -0.37405564  1.37405564  0.49873113  1.0
  Au  Au20  1  0.74821936  0.74821936  0.50000000  1.0
  Au  Au21  1  0.74821936  0.74821936  0.00000000  1.0
  Au  Au22  1  0.25178064  0.25178064  0.50000000  1.0
  Au  Au23  1  0.25178064  0.25178064  0.00000000  1.0
  Au  Au24  1  -0.00000000  1.50000000  0.50000000  1.0
  Au  Au25  1  -0.00000000  1.50000000  0.00000000  1.0
  Au  Au26  1  -0.50000000  1.00000000  0.00000000  1.0
  Au  Au27  1  -0.50000000  1.00000000  0.50000000  1.0
  Au  Au28  1  -0.95580855  0.95580855  0.25000000  1.0
  Au  Au29  1  -0.04419145  1.04419145  0.75000000  1.0
  Au  Au30  1  -0.20835654  1.20835654  0.25000000  1.0
  Au  Au31  1  -0.79164346  0.79164346  0.75000000  1.0
