# generated using pymatgen
data_BH11C4NClF4
_symmetry_space_group_name_H-M   'P 1'
_cell_length_a   6.21546905
_cell_length_b   7.79912570
_cell_length_c   9.70063625
_cell_angle_alpha   90.00000000
_cell_angle_beta   103.43876836
_cell_angle_gamma   90.00000000
_symmetry_Int_Tables_number   1
_chemical_formula_structural   BH11C4NClF4
_chemical_formula_sum   'B2 H22 C8 N2 Cl2 F8'
_cell_volume   457.36479112
_cell_formula_units_Z   2
loop_
 _symmetry_equiv_pos_site_id
 _symmetry_equiv_pos_as_xyz
  1  'x, y, z'
loop_
 _atom_site_type_symbol
 _atom_site_label
 _atom_site_symmetry_multiplicity
 _atom_site_fract_x
 _atom_site_fract_y
 _atom_site_fract_z
 _atom_site_occupancy
  B  B0  1  0.93077851  0.25000000  0.22825834  1.0
  B  B1  1  0.06922149  0.75000000  0.77174166  1.0
  H  H2  1  0.25294539  0.36598621  0.59048351  1.0
  H  H3  1  0.74705461  0.86598621  0.40951649  1.0
  H  H4  1  0.74705461  0.63401379  0.40951649  1.0
  H  H5  1  0.25294539  0.13401379  0.59048351  1.0
  H  H6  1  0.73532453  0.41249672  0.73984657  1.0
  H  H7  1  0.26467547  0.91249672  0.26015343  1.0
  H  H8  1  0.26467547  0.58750328  0.26015343  1.0
  H  H9  1  0.73532453  0.08750328  0.73984657  1.0
  H  H10  1  0.50570220  0.52098429  0.78380669  1.0
  H  H11  1  0.49429780  0.02098429  0.21619331  1.0
  H  H12  1  0.49429780  0.47901571  0.21619331  1.0
  H  H13  1  0.50570220  0.97901571  0.78380669  1.0
  H  H14  1  0.69411926  0.39908513  0.91668604  1.0
  H  H15  1  0.30588074  0.89908513  0.08331396  1.0
  H  H16  1  0.30588074  0.60091487  0.08331396  1.0
  H  H17  1  0.69411926  0.10091487  0.91668604  1.0
  H  H18  1  0.37457011  0.25000000  0.96165356  1.0
  H  H19  1  0.62542989  0.75000000  0.03834644  1.0
  H  H20  1  0.19358158  0.36569609  0.82053778  1.0
  H  H21  1  0.80641842  0.86569609  0.17946222  1.0
  H  H22  1  0.80641842  0.63430391  0.17946222  1.0
  H  H23  1  0.19358158  0.13430391  0.82053778  1.0
  C  C24  1  0.35450878  0.25000000  0.61127690  1.0
  C  C25  1  0.64549122  0.75000000  0.38872310  1.0
  C  C26  1  0.61253044  0.40786478  0.80413953  1.0
  C  C27  1  0.38746956  0.90786478  0.19586047  1.0
  C  C28  1  0.38746956  0.59213522  0.19586047  1.0
  C  C29  1  0.61253044  0.09213522  0.80413953  1.0
  C  C30  1  0.29388533  0.25000000  0.84875257  1.0
  C  C31  1  0.70611467  0.75000000  0.15124743  1.0
  N  N32  1  0.47220132  0.25000000  0.76658656  1.0
  N  N33  1  0.52779868  0.75000000  0.23341344  1.0
  Cl  Cl34  1  0.54166106  0.25000000  0.49867729  1.0
  Cl  Cl35  1  0.45833894  0.75000000  0.50132271  1.0
  F  F36  1  0.07217739  0.25000000  0.13370980  1.0
  F  F37  1  0.92782261  0.75000000  0.86629020  1.0
  F  F38  1  0.70598378  0.25000000  0.14842517  1.0
  F  F39  1  0.29401622  0.75000000  0.85157483  1.0
  F  F40  1  0.96695403  0.39883748  0.31474217  1.0
  F  F41  1  0.03304597  0.89883748  0.68525783  1.0
  F  F42  1  0.03304597  0.60116252  0.68525783  1.0
  F  F43  1  0.96695403  0.10116252  0.31474217  1.0
