# generated using pymatgen
data_ZnAg2SnSe4
_symmetry_space_group_name_H-M   'P 1'
_cell_length_a   7.25479333
_cell_length_b   7.25479333
_cell_length_c   7.25479333
_cell_angle_alpha   130.17182882
_cell_angle_beta   130.17182882
_cell_angle_gamma   73.13221730
_symmetry_Int_Tables_number   1
_chemical_formula_structural   ZnAg2SnSe4
_chemical_formula_sum   'Zn1 Ag2 Sn1 Se4'
_cell_volume   217.69104267
_cell_formula_units_Z   1
loop_
 _symmetry_equiv_pos_site_id
 _symmetry_equiv_pos_as_xyz
  1  'x, y, z'
loop_
 _atom_site_type_symbol
 _atom_site_label
 _atom_site_symmetry_multiplicity
 _atom_site_fract_x
 _atom_site_fract_y
 _atom_site_fract_z
 _atom_site_occupancy
  Zn  Zn0  1  0.25000000  0.75000000  0.50000000  1.0
  Ag  Ag1  1  0.75000000  0.25000000  0.50000000  1.0
  Ag  Ag2  1  0.00000000  0.00000000  0.00000000  1.0
  Sn  Sn3  1  0.50000000  0.50000000  1.00000000  1.0
  Se  Se4  1  0.37293451  0.86275961  0.97650297  1.0
  Se  Se5  1  1.13724039  1.11374335  1.51017490  1.0
  Se  Se6  1  0.88625665  0.39643154  1.02349703  1.0
  Se  Se7  1  0.60356846  0.62706549  0.48982510  1.0
