# generated using pymatgen
data_La3TiGa5O14
_symmetry_space_group_name_H-M   'P 1'
_cell_length_a   8.31193813
_cell_length_b   8.31193813
_cell_length_c   5.14456079
_cell_angle_alpha   90.00000000
_cell_angle_beta   90.00000000
_cell_angle_gamma   120.00000000
_symmetry_Int_Tables_number   1
_chemical_formula_structural   La3TiGa5O14
_chemical_formula_sum   'La3 Ti1 Ga5 O14'
_cell_volume   307.81057670
_cell_formula_units_Z   1
loop_
 _symmetry_equiv_pos_site_id
 _symmetry_equiv_pos_as_xyz
  1  'x, y, z'
loop_
 _atom_site_type_symbol
 _atom_site_label
 _atom_site_symmetry_multiplicity
 _atom_site_fract_x
 _atom_site_fract_y
 _atom_site_fract_z
 _atom_site_occupancy
  La  La0  1  0.42104229  0.42104229  -0.00000000  1.0
  La  La1  1  0.00000000  0.57895771  0.00000000  1.0
  La  La2  1  0.57895771  -0.00000000  0.00000000  1.0
  Ti  Ti3  1  0.00000000  0.00000000  0.00000000  1.0
  Ga  Ga4  1  0.33333333  0.66666667  0.53175651  1.0
  Ga  Ga5  1  0.66666667  0.33333333  0.46824349  1.0
  Ga  Ga6  1  0.75969149  0.75969149  0.50000000  1.0
  Ga  Ga7  1  0.00000000  0.24030851  0.50000000  1.0
  Ga  Ga8  1  0.24030851  0.00000000  0.50000000  1.0
  O  O9  1  0.07619625  0.85950526  0.23426868  1.0
  O  O10  1  0.85950526  0.07619625  0.76573132  1.0
  O  O11  1  0.78330901  0.92380375  0.23426868  1.0
  O  O12  1  0.14049474  0.21669099  0.23426868  1.0
  O  O13  1  0.92380375  0.78330901  0.76573132  1.0
  O  O14  1  0.21669099  0.14049474  0.76573132  1.0
  O  O15  1  0.68916039  0.54341659  0.30102767  1.0
  O  O16  1  0.54341659  0.68916039  0.69897233  1.0
  O  O17  1  0.85425621  0.31083961  0.30102767  1.0
  O  O18  1  0.45658341  0.14574379  0.30102767  1.0
  O  O19  1  0.31083961  0.85425621  0.69897233  1.0
  O  O20  1  0.14574379  0.45658341  0.69897233  1.0
  O  O21  1  0.33333333  0.66666667  0.17790770  1.0
  O  O22  1  0.66666667  0.33333333  0.82209230  1.0
