# generated using pymatgen
data_K3Mn2O8
_symmetry_space_group_name_H-M   'P 1'
_cell_length_a   7.94246722
_cell_length_b   5.85895128
_cell_length_c   9.86845009
_cell_angle_alpha   90.00000000
_cell_angle_beta   111.48351273
_cell_angle_gamma   90.00000000
_symmetry_Int_Tables_number   1
_chemical_formula_structural   K3Mn2O8
_chemical_formula_sum   'K6 Mn4 O16'
_cell_volume   427.31818561
_cell_formula_units_Z   2
loop_
 _symmetry_equiv_pos_site_id
 _symmetry_equiv_pos_as_xyz
  1  'x, y, z'
loop_
 _atom_site_type_symbol
 _atom_site_label
 _atom_site_symmetry_multiplicity
 _atom_site_fract_x
 _atom_site_fract_y
 _atom_site_fract_z
 _atom_site_occupancy
  K  K0  1  0.74994389  0.25000000  0.25019130  1.0
  K  K1  1  0.25005611  0.75000000  0.74980870  1.0
  K  K2  1  0.34124197  0.25000000  0.45414010  1.0
  K  K3  1  0.65875803  0.75000000  0.54585990  1.0
  K  K4  1  0.15852902  0.25000000  0.04558397  1.0
  K  K5  1  0.84147098  0.75000000  0.95441603  1.0
  Mn  Mn6  1  0.93541418  0.25000000  0.65741215  1.0
  Mn  Mn7  1  0.06458582  0.75000000  0.34258785  1.0
  Mn  Mn8  1  0.56464224  0.25000000  0.84261674  1.0
  Mn  Mn9  1  0.43535776  0.75000000  0.15738326  1.0
  O  O10  1  0.96031585  0.47756613  0.75880922  1.0
  O  O11  1  0.96031585  0.02243387  0.75880922  1.0
  O  O12  1  0.03968415  0.97756613  0.24119078  1.0
  O  O13  1  0.03968415  0.52243387  0.24119078  1.0
  O  O14  1  0.54008245  0.47757956  0.74127328  1.0
  O  O15  1  0.54008245  0.02242044  0.74127328  1.0
  O  O16  1  0.45991755  0.97757956  0.25872672  1.0
  O  O17  1  0.45991755  0.52242044  0.25872672  1.0
  O  O18  1  0.76716934  0.25000000  0.96895334  1.0
  O  O19  1  0.23283066  0.75000000  0.03104666  1.0
  O  O20  1  0.73264923  0.25000000  0.53138063  1.0
  O  O21  1  0.26735077  0.75000000  0.46861937  1.0
  O  O22  1  0.41374144  0.25000000  0.91767213  1.0
  O  O23  1  0.58625856  0.75000000  0.08232787  1.0
  O  O24  1  0.08585556  0.25000000  0.58189232  1.0
  O  O25  1  0.91414444  0.75000000  0.41810768  1.0
