# generated using pymatgen
data_SiO2
_symmetry_space_group_name_H-M   'P 1'
_cell_length_a   6.91718626
_cell_length_b   6.91718626
_cell_length_c   7.14837063
_cell_angle_alpha   90.00000000
_cell_angle_beta   90.00000000
_cell_angle_gamma   90.00000000
_symmetry_Int_Tables_number   1
_chemical_formula_structural   SiO2
_chemical_formula_sum   'Si8 O16'
_cell_volume   342.03141884
_cell_formula_units_Z   8
loop_
 _symmetry_equiv_pos_site_id
 _symmetry_equiv_pos_as_xyz
  1  'x, y, z'
loop_
 _atom_site_type_symbol
 _atom_site_label
 _atom_site_symmetry_multiplicity
 _atom_site_fract_x
 _atom_site_fract_y
 _atom_site_fract_z
 _atom_site_occupancy
  Si  Si0  1  0.29419696  0.95120985  0.44798441  1.0
  Si  Si1  1  0.79419696  0.54879015  0.94798441  1.0
  Si  Si2  1  0.04879015  0.29419696  0.55201559  1.0
  Si  Si3  1  0.54879015  0.20580304  0.05201559  1.0
  Si  Si4  1  0.70580304  0.04879015  0.44798441  1.0
  Si  Si5  1  0.20580304  0.45120985  0.94798441  1.0
  Si  Si6  1  0.95120985  0.70580304  0.55201559  1.0
  Si  Si7  1  0.45120985  0.79419696  0.05201559  1.0
  O  O8  1  0.18234558  0.15813490  0.41761191  1.0
  O  O9  1  0.68234558  0.34186510  0.91761191  1.0
  O  O10  1  0.84186510  0.18234558  0.58238809  1.0
  O  O11  1  0.34186510  0.31765442  0.08238809  1.0
  O  O12  1  0.81765442  0.84186510  0.41761191  1.0
  O  O13  1  0.31765442  0.65813490  0.91761191  1.0
  O  O14  1  0.15813490  0.81765442  0.58238809  1.0
  O  O15  1  0.65813490  0.68234558  0.08238809  1.0
  O  O16  1  0.33900837  0.83900837  0.25000000  1.0
  O  O17  1  0.83900837  0.66099163  0.75000000  1.0
  O  O18  1  0.16099163  0.33900837  0.75000000  1.0
  O  O19  1  0.66099163  0.16099163  0.25000000  1.0
  O  O20  1  0.50000000  -0.00000000  0.54904101  1.0
  O  O21  1  0.00000000  0.50000000  0.04904101  1.0
  O  O22  1  0.00000000  0.50000000  0.45095899  1.0
  O  O23  1  0.50000000  -0.00000000  0.95095899  1.0
