# generated using pymatgen
data_BaCo2(PO4)2
_symmetry_space_group_name_H-M   'P 1'
_cell_length_a   8.28374972
_cell_length_b   5.06345030
_cell_length_c   9.21828043
_cell_angle_alpha   90.00000000
_cell_angle_beta   92.53713265
_cell_angle_gamma   90.00000000
_symmetry_Int_Tables_number   1
_chemical_formula_structural   BaCo2(PO4)2
_chemical_formula_sum   'Ba2 Co4 P4 O16'
_cell_volume   386.27580507
_cell_formula_units_Z   2
loop_
 _symmetry_equiv_pos_site_id
 _symmetry_equiv_pos_as_xyz
  1  'x, y, z'
loop_
 _atom_site_type_symbol
 _atom_site_label
 _atom_site_symmetry_multiplicity
 _atom_site_fract_x
 _atom_site_fract_y
 _atom_site_fract_z
 _atom_site_occupancy
  O  O0  1  0.86791871  0.36430650  0.22806426  1.0
  O  O1  1  0.86791871  0.13569350  0.72806426  1.0
  O  O2  1  0.13208129  0.86430650  0.27193574  1.0
  O  O3  1  0.13208129  0.63569350  0.77193574  1.0
  O  O4  1  0.76956409  0.06459253  0.47123260  1.0
  O  O5  1  0.76956409  0.43540747  0.97123260  1.0
  O  O6  1  0.23043591  0.56459253  0.02876740  1.0
  O  O7  1  0.23043591  0.93540747  0.52876740  1.0
  O  O8  1  0.26551587  0.30815648  0.35287984  1.0
  O  O9  1  0.26551587  0.19184352  0.85287984  1.0
  O  O10  1  0.73448413  0.80815648  0.14712016  1.0
  O  O11  1  0.73448413  0.69184352  0.64712016  1.0
  O  O12  1  0.56920605  0.38049765  0.17914922  1.0
  O  O13  1  0.56920605  0.11950235  0.67914922  1.0
  O  O14  1  0.43079395  0.88049765  0.32085078  1.0
  O  O15  1  0.43079395  0.61950235  0.82085078  1.0
  Ba  Ba16  1  0.00000000  0.50000000  0.50000000  1.0
  Ba  Ba17  1  0.00000000  0.00000000  0.00000000  1.0
  P  P18  1  0.26376960  0.00245842  0.36732072  1.0
  P  P19  1  0.26376960  0.49754158  0.86732072  1.0
  P  P20  1  0.73623040  0.50245842  0.13267928  1.0
  P  P21  1  0.73623040  0.99754158  0.63267928  1.0
  Co  Co22  1  0.64419529  0.05556243  0.28801980  1.0
  Co  Co23  1  0.64419529  0.44443757  0.78801980  1.0
  Co  Co24  1  0.35580471  0.55556243  0.21198020  1.0
  Co  Co25  1  0.35580471  0.94443757  0.71198020  1.0
