# generated using pymatgen
data_K2TeS3
_symmetry_space_group_name_H-M   'P 1'
_cell_length_a   6.49630213
_cell_length_b   9.33357490
_cell_length_c   14.81212801
_cell_angle_alpha   90.00000000
_cell_angle_beta   114.86575161
_cell_angle_gamma   90.00000000
_symmetry_Int_Tables_number   1
_chemical_formula_structural   K2TeS3
_chemical_formula_sum   'K8 Te4 S12'
_cell_volume   814.85523088
_cell_formula_units_Z   4
loop_
 _symmetry_equiv_pos_site_id
 _symmetry_equiv_pos_as_xyz
  1  'x, y, z'
loop_
 _atom_site_type_symbol
 _atom_site_label
 _atom_site_symmetry_multiplicity
 _atom_site_fract_x
 _atom_site_fract_y
 _atom_site_fract_z
 _atom_site_occupancy
  K  K0  1  1.00184275  0.11692569  0.24548384  1.0
  K  K1  1  1.00184275  0.38307431  0.74548384  1.0
  K  K2  1  -0.00184275  0.61692569  0.25451616  1.0
  K  K3  1  -0.00184275  0.88307431  0.75451616  1.0
  K  K4  1  0.66067095  0.86946823  0.41577623  1.0
  K  K5  1  0.66067095  0.63053177  0.91577623  1.0
  K  K6  1  0.33932905  0.36946823  0.08422377  1.0
  K  K7  1  0.33932905  0.13053177  0.58422377  1.0
  Te  Te8  1  0.72634169  0.31443054  0.41843117  1.0
  Te  Te9  1  0.72634169  0.18556946  0.91843117  1.0
  Te  Te10  1  0.27365831  0.81443054  0.08156883  1.0
  Te  Te11  1  0.27365831  0.68556946  0.58156883  1.0
  S  S12  1  0.91878624  0.85882720  0.08828544  1.0
  S  S13  1  0.91878624  0.64117280  0.58828544  1.0
  S  S14  1  0.08121376  0.35882720  0.41171456  1.0
  S  S15  1  0.08121376  0.14117280  0.91171456  1.0
  S  S16  1  0.81837195  0.34076716  0.05943741  1.0
  S  S17  1  0.81837195  0.15923284  0.55943741  1.0
  S  S18  1  0.18162805  0.84076716  0.44056259  1.0
  S  S19  1  0.18162805  0.65923284  0.94056259  1.0
  S  S20  1  0.53856224  0.15600721  0.28008109  1.0
  S  S21  1  0.53856224  0.34399279  0.78008109  1.0
  S  S22  1  0.46143776  0.65600721  0.21991891  1.0
  S  S23  1  0.46143776  0.84399279  0.71991891  1.0
