# generated using pymatgen
data_La2Zn17
_symmetry_space_group_name_H-M   'P 1'
_cell_length_a   9.13340277
_cell_length_b   9.13340277
_cell_length_c   8.89965066
_cell_angle_alpha   90.00000000
_cell_angle_beta   90.00000000
_cell_angle_gamma   120.00000000
_symmetry_Int_Tables_number   1
_chemical_formula_structural   La2Zn17
_chemical_formula_sum   'La4 Zn34'
_cell_volume   642.93757925
_cell_formula_units_Z   2
loop_
 _symmetry_equiv_pos_site_id
 _symmetry_equiv_pos_as_xyz
  1  'x, y, z'
loop_
 _atom_site_type_symbol
 _atom_site_label
 _atom_site_symmetry_multiplicity
 _atom_site_fract_x
 _atom_site_fract_y
 _atom_site_fract_z
 _atom_site_occupancy
  La  La0  1  0.33333333  0.66666667  0.25000000  1.0
  La  La1  1  0.66666667  0.33333333  0.75000000  1.0
  La  La2  1  0.00000000  0.00000000  0.25000000  1.0
  La  La3  1  0.00000000  0.00000000  0.75000000  1.0
  Zn  Zn4  1  0.16248165  0.83751835  0.48104114  1.0
  Zn  Zn5  1  0.16248165  0.83751835  0.01895886  1.0
  Zn  Zn6  1  0.16248165  0.32496331  0.48104114  1.0
  Zn  Zn7  1  0.16248165  0.32496331  0.01895886  1.0
  Zn  Zn8  1  0.83751835  0.16248165  -0.01895886  1.0
  Zn  Zn9  1  0.83751835  0.16248165  0.51895886  1.0
  Zn  Zn10  1  0.83751835  0.67503669  -0.01895886  1.0
  Zn  Zn11  1  0.83751835  0.67503669  0.51895886  1.0
  Zn  Zn12  1  0.67503669  0.83751835  0.48104114  1.0
  Zn  Zn13  1  0.67503669  0.83751835  0.01895886  1.0
  Zn  Zn14  1  0.32496331  0.16248165  -0.01895886  1.0
  Zn  Zn15  1  0.32496331  0.16248165  0.51895886  1.0
  Zn  Zn16  1  0.37393609  0.04413991  0.25000000  1.0
  Zn  Zn17  1  0.37393609  0.32979618  0.25000000  1.0
  Zn  Zn18  1  0.04413991  0.37393609  0.75000000  1.0
  Zn  Zn19  1  0.04413991  0.67020382  0.75000000  1.0
  Zn  Zn20  1  0.67020382  0.04413991  0.25000000  1.0
  Zn  Zn21  1  0.67020382  0.62606391  0.25000000  1.0
  Zn  Zn22  1  -0.04413991  0.62606391  0.25000000  1.0
  Zn  Zn23  1  -0.04413991  0.32979618  0.25000000  1.0
  Zn  Zn24  1  0.62606391  0.67020382  0.75000000  1.0
  Zn  Zn25  1  0.62606391  -0.04413991  0.75000000  1.0
  Zn  Zn26  1  0.32979618  0.37393609  0.75000000  1.0
  Zn  Zn27  1  0.32979618  -0.04413991  0.75000000  1.0
  Zn  Zn28  1  0.50000000  0.50000000  0.50000000  1.0
  Zn  Zn29  1  0.50000000  0.50000000  0.00000000  1.0
  Zn  Zn30  1  0.50000000  0.00000000  0.50000000  1.0
  Zn  Zn31  1  0.50000000  0.00000000  0.00000000  1.0
  Zn  Zn32  1  -0.00000000  0.50000000  0.50000000  1.0
  Zn  Zn33  1  -0.00000000  0.50000000  0.00000000  1.0
  Zn  Zn34  1  0.33333333  0.66666667  0.89628730  1.0
  Zn  Zn35  1  0.33333333  0.66666667  0.60371270  1.0
  Zn  Zn36  1  0.66666667  0.33333333  0.39628730  1.0
  Zn  Zn37  1  0.66666667  0.33333333  0.10371270  1.0
