# generated using pymatgen
data_H6CNClO
_symmetry_space_group_name_H-M   'P 1'
_cell_length_a   7.99998350
_cell_length_b   9.21336043
_cell_length_c   5.94457725
_cell_angle_alpha   90.00000000
_cell_angle_beta   90.00000000
_cell_angle_gamma   90.00000000
_symmetry_Int_Tables_number   1
_chemical_formula_structural   H6CNClO
_chemical_formula_sum   'H24 C4 N4 Cl4 O4'
_cell_volume   438.15535898
_cell_formula_units_Z   4
loop_
 _symmetry_equiv_pos_site_id
 _symmetry_equiv_pos_as_xyz
  1  'x, y, z'
loop_
 _atom_site_type_symbol
 _atom_site_label
 _atom_site_symmetry_multiplicity
 _atom_site_fract_x
 _atom_site_fract_y
 _atom_site_fract_z
 _atom_site_occupancy
  H  H0  1  0.20328238  0.25512476  0.75000000  1.0
  H  H1  1  0.79671762  0.74487524  0.25000000  1.0
  H  H2  1  0.20328238  0.24487524  0.25000000  1.0
  H  H3  1  0.79671762  0.75512476  0.75000000  1.0
  H  H4  1  0.32971916  0.44694885  0.89716873  1.0
  H  H5  1  0.67028084  0.55305115  0.39716873  1.0
  H  H6  1  0.32971916  0.05305115  0.10283127  1.0
  H  H7  1  0.67028084  0.94694885  0.60283127  1.0
  H  H8  1  0.67028084  0.55305115  0.10283127  1.0
  H  H9  1  0.32971916  0.44694885  0.60283127  1.0
  H  H10  1  0.67028084  0.94694885  0.89716873  1.0
  H  H11  1  0.32971916  0.05305115  0.39716873  1.0
  H  H12  1  0.27312899  0.68349967  0.75000000  1.0
  H  H13  1  0.72687101  0.31650033  0.25000000  1.0
  H  H14  1  0.27312899  0.81650033  0.25000000  1.0
  H  H15  1  0.72687101  0.18349967  0.75000000  1.0
  H  H16  1  0.09740784  0.60973831  0.59832754  1.0
  H  H17  1  0.90259216  0.39026169  0.09832754  1.0
  H  H18  1  0.09740784  0.89026169  0.40167246  1.0
  H  H19  1  0.90259216  0.10973831  0.90167246  1.0
  H  H20  1  0.90259216  0.39026169  0.40167246  1.0
  H  H21  1  0.09740784  0.60973831  0.90167246  1.0
  H  H22  1  0.90259216  0.10973831  0.59832754  1.0
  H  H23  1  0.09740784  0.89026169  0.09832754  1.0
  C  C24  1  0.17426591  0.60112793  0.75000000  1.0
  C  C25  1  0.82573409  0.39887207  0.25000000  1.0
  C  C26  1  0.17426591  0.89887207  0.25000000  1.0
  C  C27  1  0.82573409  0.10112793  0.75000000  1.0
  N  N28  1  0.25763317  0.45851540  0.75000000  1.0
  N  N29  1  0.74236683  0.54148460  0.25000000  1.0
  N  N30  1  0.25763317  0.04148460  0.25000000  1.0
  N  N31  1  0.74236683  0.95851540  0.75000000  1.0
  Cl  Cl32  1  0.36436041  0.08903060  0.75000000  1.0
  Cl  Cl33  1  0.63563959  0.91096940  0.25000000  1.0
  Cl  Cl34  1  0.36436041  0.41096940  0.25000000  1.0
  Cl  Cl35  1  0.63563959  0.58903060  0.75000000  1.0
  O  O36  1  0.13438840  0.34774998  0.75000000  1.0
  O  O37  1  0.86561160  0.65225002  0.25000000  1.0
  O  O38  1  0.13438840  0.15225002  0.25000000  1.0
  O  O39  1  0.86561160  0.84774998  0.75000000  1.0
