# generated using pymatgen
data_Mn4Al11
_symmetry_space_group_name_H-M   'P 1'
_cell_length_a   8.77358184
_cell_length_b   5.02478245
_cell_length_c   5.04842381
_cell_angle_alpha   100.45057903
_cell_angle_beta   105.33733805
_cell_angle_gamma   90.05361942
_symmetry_Int_Tables_number   1
_chemical_formula_structural   Mn4Al11
_chemical_formula_sum   'Mn4 Al11'
_cell_volume   210.79367303
_cell_formula_units_Z   1
loop_
 _symmetry_equiv_pos_site_id
 _symmetry_equiv_pos_as_xyz
  1  'x, y, z'
loop_
 _atom_site_type_symbol
 _atom_site_label
 _atom_site_symmetry_multiplicity
 _atom_site_fract_x
 _atom_site_fract_y
 _atom_site_fract_z
 _atom_site_occupancy
  Mn  Mn0  1  -0.59861163  -0.28649624  0.85068248  1.0
  Mn  Mn1  1  -0.40138837  -0.71350376  0.14931752  1.0
  Mn  Mn2  1  -0.86660656  -0.66448365  0.38922053  1.0
  Mn  Mn3  1  -0.13339344  -0.33551635  0.61077947  1.0
  Al  Al4  1  -0.67502677  -0.94809253  0.18027342  1.0
  Al  Al5  1  -0.32497323  -0.05190747  0.81972658  1.0
  Al  Al6  1  -0.87480179  -0.50667590  0.89238261  1.0
  Al  Al7  1  -0.12519821  -0.49332410  0.10761739  1.0
  Al  Al8  1  -0.87352937  -0.15524970  0.53117807  1.0
  Al  Al9  1  -0.12647063  -0.84475030  0.46882193  1.0
  Al  Al10  1  0.00000000  0.00000000  0.00000000  1.0
  Al  Al11  1  -0.37398157  -0.56775515  0.67129878  1.0
  Al  Al12  1  -0.62601843  -0.43224485  0.32870122  1.0
  Al  Al13  1  -0.63247463  -0.80187887  0.72987413  1.0
  Al  Al14  1  -0.36752537  -0.19812113  0.27012587  1.0
