# generated using pymatgen
data_KFeP2O7
_symmetry_space_group_name_H-M   'P 1'
_cell_length_a   7.51578088
_cell_length_b   10.21812690
_cell_length_c   8.34805393
_cell_angle_alpha   90.00000000
_cell_angle_beta   106.69956061
_cell_angle_gamma   90.00000000
_symmetry_Int_Tables_number   1
_chemical_formula_structural   KFeP2O7
_chemical_formula_sum   'K4 Fe4 P8 O28'
_cell_volume   614.06830192
_cell_formula_units_Z   4
loop_
 _symmetry_equiv_pos_site_id
 _symmetry_equiv_pos_as_xyz
  1  'x, y, z'
loop_
 _atom_site_type_symbol
 _atom_site_label
 _atom_site_symmetry_multiplicity
 _atom_site_fract_x
 _atom_site_fract_y
 _atom_site_fract_z
 _atom_site_occupancy
  Fe  Fe0  1  0.76330010  0.40032910  0.24084989  1.0
  Fe  Fe1  1  0.76330010  0.09967090  0.74084989  1.0
  Fe  Fe2  1  0.23669990  0.90032910  0.25915011  1.0
  Fe  Fe3  1  0.23669990  0.59967090  0.75915011  1.0
  O  O4  1  0.66382028  0.05933834  0.18816590  1.0
  O  O5  1  0.66382028  0.44066166  0.68816590  1.0
  O  O6  1  0.33617972  0.55933834  0.31183410  1.0
  O  O7  1  0.33617972  0.94066166  0.81183410  1.0
  O  O8  1  0.36398466  0.07823824  0.26572724  1.0
  O  O9  1  0.36398466  0.42176176  0.76572724  1.0
  O  O10  1  0.63601534  0.57823824  0.23427276  1.0
  O  O11  1  0.63601534  0.92176176  0.73427276  1.0
  O  O12  1  0.54960806  0.28187998  0.25808778  1.0
  O  O13  1  0.54960806  0.21812002  0.75808778  1.0
  O  O14  1  0.45039194  0.78187998  0.24191222  1.0
  O  O15  1  0.45039194  0.71812002  0.74191222  1.0
  O  O16  1  0.99819689  0.49465112  0.22223282  1.0
  O  O17  1  0.99819689  0.00534888  0.72223282  1.0
  O  O18  1  0.00180311  0.99465112  0.27776718  1.0
  O  O19  1  0.00180311  0.50534888  0.77776718  1.0
  O  O20  1  0.85491234  0.40934248  0.48601045  1.0
  O  O21  1  0.85491234  0.09065752  0.98601045  1.0
  O  O22  1  0.14508766  0.90934248  0.01398955  1.0
  O  O23  1  0.14508766  0.59065752  0.51398955  1.0
  O  O24  1  0.92131439  0.23418274  0.24664708  1.0
  O  O25  1  0.92131439  0.26581726  0.74664708  1.0
  O  O26  1  0.07868561  0.73418274  0.25335292  1.0
  O  O27  1  0.07868561  0.76581726  0.75335292  1.0
  O  O28  1  0.67848054  0.10687707  0.48839035  1.0
  O  O29  1  0.67848054  0.39312293  0.98839035  1.0
  O  O30  1  0.32151946  0.60687707  0.01160965  1.0
  O  O31  1  0.32151946  0.89312293  0.51160965  1.0
  K  K32  1  0.82202716  0.82322080  0.44286178  1.0
  K  K33  1  0.82202716  0.67677920  0.94286178  1.0
  K  K34  1  0.17797284  0.32322080  0.05713822  1.0
  K  K35  1  0.17797284  0.17677920  0.55713822  1.0
  P  P36  1  0.56061700  0.13616710  0.30943931  1.0
  P  P37  1  0.56061700  0.36383290  0.80943931  1.0
  P  P38  1  0.43938300  0.63616710  0.19056069  1.0
  P  P39  1  0.43938300  0.86383290  0.69056069  1.0
  P  P40  1  0.86871848  0.09687167  0.17097728  1.0
  P  P41  1  0.86871848  0.40312833  0.67097728  1.0
  P  P42  1  0.13128152  0.59687167  0.32902272  1.0
  P  P43  1  0.13128152  0.90312833  0.82902272  1.0
