# generated using pymatgen
data_SrTaNO2
_symmetry_space_group_name_H-M   'P 1'
_cell_length_a   5.74289906
_cell_length_b   5.74289906
_cell_length_c   5.74289906
_cell_angle_alpha   121.00871728
_cell_angle_beta   121.00871728
_cell_angle_gamma   88.26155318
_symmetry_Int_Tables_number   1
_chemical_formula_structural   SrTaNO2
_chemical_formula_sum   'Sr2 Ta2 N2 O4'
_cell_volume   131.82234422
_cell_formula_units_Z   2
loop_
 _symmetry_equiv_pos_site_id
 _symmetry_equiv_pos_as_xyz
  1  'x, y, z'
loop_
 _atom_site_type_symbol
 _atom_site_label
 _atom_site_symmetry_multiplicity
 _atom_site_fract_x
 _atom_site_fract_y
 _atom_site_fract_z
 _atom_site_occupancy
  Sr  Sr0  1  0.75000000  0.25000000  0.50000000  1.0
  Sr  Sr1  1  0.25000000  0.75000000  0.50000000  1.0
  Ta  Ta2  1  0.50000000  0.50000000  -0.00000000  1.0
  Ta  Ta3  1  0.00000000  0.00000000  0.00000000  1.0
  N  N4  1  0.25000000  0.25000000  -0.00000000  1.0
  N  N5  1  0.75000000  0.75000000  0.00000000  1.0
  O  O6  1  0.79855464  0.29855464  1.09710927  1.0
  O  O7  1  0.70144536  0.79855464  0.50000000  1.0
  O  O8  1  0.29855464  0.20144536  0.50000000  1.0
  O  O9  1  1.20144536  0.70144536  0.90289073  1.0
