# generated using pymatgen
data_Si(AgP)2
_symmetry_space_group_name_H-M   'P 1'
_cell_length_a   6.33102548
_cell_length_b   6.33102548
_cell_length_c   6.33102548
_cell_angle_alpha   117.16320999
_cell_angle_beta   117.16320999
_cell_angle_gamma   94.98796760
_symmetry_Int_Tables_number   1
_chemical_formula_structural   Si(AgP)2
_chemical_formula_sum   'Si2 Ag4 P4'
_cell_volume   186.36462222
_cell_formula_units_Z   2
loop_
 _symmetry_equiv_pos_site_id
 _symmetry_equiv_pos_as_xyz
  1  'x, y, z'
loop_
 _atom_site_type_symbol
 _atom_site_label
 _atom_site_symmetry_multiplicity
 _atom_site_fract_x
 _atom_site_fract_y
 _atom_site_fract_z
 _atom_site_occupancy
  Si  Si0  1  0.00000000  0.00000000  0.00000000  1.0
  Si  Si1  1  0.75000000  1.25000000  0.50000000  1.0
  Ag  Ag2  1  0.87500000  1.57258167  1.19758167  1.0
  Ag  Ag3  1  1.32258167  1.12500000  0.69758167  1.0
  Ag  Ag4  1  0.42741833  0.62500000  0.30241833  1.0
  Ag  Ag5  1  0.37500000  0.67741833  0.80241833  1.0
  P  P6  1  0.87500000  0.95450605  0.57950605  1.0
  P  P7  1  0.70450605  1.12500000  1.07950605  1.0
  P  P8  1  1.04549395  1.62500000  0.92049395  1.0
  P  P9  1  0.37500000  0.29549395  0.42049395  1.0
