# generated using pymatgen
data_Nb5PbSe8
_symmetry_space_group_name_H-M   'P 1'
_cell_length_a   9.52658997
_cell_length_b   9.52658997
_cell_length_c   9.40856396
_cell_angle_alpha   76.85785159
_cell_angle_beta   103.14214841
_cell_angle_gamma   159.14339357
_symmetry_Int_Tables_number   1
_chemical_formula_structural   Nb5PbSe8
_chemical_formula_sum   'Nb5 Pb1 Se8'
_cell_volume   295.77247904
_cell_formula_units_Z   1
loop_
 _symmetry_equiv_pos_site_id
 _symmetry_equiv_pos_as_xyz
  1  'x, y, z'
loop_
 _atom_site_type_symbol
 _atom_site_label
 _atom_site_symmetry_multiplicity
 _atom_site_fract_x
 _atom_site_fract_y
 _atom_site_fract_z
 _atom_site_occupancy
  Nb  Nb0  1  0.00000000  0.00000000  0.00000000  1.0
  Nb  Nb1  1  0.64064314  0.35935686  1.00307887  1.0
  Nb  Nb2  1  0.35935686  -0.35935686  -0.00307887  1.0
  Nb  Nb3  1  0.71236537  0.28763463  0.36923147  1.0
  Nb  Nb4  1  0.28763463  -0.28763463  0.63076853  1.0
  Pb  Pb5  1  0.50000000  0.50000000  0.50000000  1.0
  Se  Se6  1  0.43092136  -0.43092136  0.79929074  1.0
  Se  Se7  1  0.56907864  0.43092136  0.20070926  1.0
  Se  Se8  1  0.91497981  0.08502019  0.19026143  1.0
  Se  Se9  1  0.08502019  -0.08502019  0.80973857  1.0
  Se  Se10  1  0.84855939  0.15144061  0.49032559  1.0
  Se  Se11  1  0.15144061  -0.15144061  0.50967441  1.0
  Se  Se12  1  0.75864202  0.24135798  0.84027873  1.0
  Se  Se13  1  0.24135798  -0.24135798  0.15972127  1.0
