# generated using pymatgen
data_Lu7(TePd)2
_symmetry_space_group_name_H-M   'P 1'
_cell_length_a   9.22211811
_cell_length_b   9.22211811
_cell_length_c   9.22211811
_cell_angle_alpha   155.60910331
_cell_angle_beta   67.66132494
_cell_angle_gamma   117.99089928
_symmetry_Int_Tables_number   1
_chemical_formula_structural   Lu7(TePd)2
_chemical_formula_sum   'Lu7 Te2 Pd2'
_cell_volume   283.58081565
_cell_formula_units_Z   1
loop_
 _symmetry_equiv_pos_site_id
 _symmetry_equiv_pos_as_xyz
  1  'x, y, z'
loop_
 _atom_site_type_symbol
 _atom_site_label
 _atom_site_symmetry_multiplicity
 _atom_site_fract_x
 _atom_site_fract_y
 _atom_site_fract_z
 _atom_site_occupancy
  Lu  Lu0  1  0.54696114  0.41627225  0.13068889  1.0
  Lu  Lu1  1  1.28558336  0.41627225  0.86931111  1.0
  Lu  Lu2  1  0.94390161  0.62697210  0.31692951  1.0
  Lu  Lu3  1  1.31004260  0.62697210  0.68307049  1.0
  Lu  Lu4  1  1.62245934  1.26607516  1.35638418  1.0
  Lu  Lu5  1  0.90969098  1.26607516  0.64361582  1.0
  Lu  Lu6  1  -0.00130447  -0.00130447  0.00000000  1.0
  Te  Te7  1  0.26542205  0.76542205  0.50000000  1.0
  Te  Te8  1  0.65987435  0.65987435  0.00000000  1.0
  Pd  Pd9  1  1.16706222  0.93098453  1.23607770  1.0
  Pd  Pd10  1  0.69490683  0.93098453  0.76392230  1.0
