# generated using pymatgen
data_B
_symmetry_space_group_name_H-M   'P 1'
_cell_length_a   8.60701614
_cell_length_b   8.60701614
_cell_length_c   5.05966514
_cell_angle_alpha   90.00000000
_cell_angle_beta   90.00000000
_cell_angle_gamma   90.00000000
_symmetry_Int_Tables_number   1
_chemical_formula_structural   B
_chemical_formula_sum   B50
_cell_volume   374.82367113
_cell_formula_units_Z   50
loop_
 _symmetry_equiv_pos_site_id
 _symmetry_equiv_pos_as_xyz
  1  'x, y, z'
loop_
 _atom_site_type_symbol
 _atom_site_label
 _atom_site_symmetry_multiplicity
 _atom_site_fract_x
 _atom_site_fract_y
 _atom_site_fract_z
 _atom_site_occupancy
  B  B0  1  0.41783690  0.17125706  0.09618356  1.0
  B  B1  1  0.58216310  0.82874294  0.09618356  1.0
  B  B2  1  0.91783690  0.67125706  0.40381644  1.0
  B  B3  1  0.08216310  0.32874294  0.40381644  1.0
  B  B4  1  0.58216310  0.17125706  0.90381644  1.0
  B  B5  1  0.41783690  0.82874294  0.90381644  1.0
  B  B6  1  0.08216310  0.67125706  0.59618356  1.0
  B  B7  1  0.91783690  0.32874294  0.59618356  1.0
  B  B8  1  0.82874294  0.41783690  0.90381644  1.0
  B  B9  1  0.17125706  0.58216310  0.90381644  1.0
  B  B10  1  0.32874294  0.91783690  0.59618356  1.0
  B  B11  1  0.67125706  0.08216310  0.59618356  1.0
  B  B12  1  0.17125706  0.41783690  0.09618356  1.0
  B  B13  1  0.82874294  0.58216310  0.09618356  1.0
  B  B14  1  0.67125706  0.91783690  0.40381644  1.0
  B  B15  1  0.32874294  0.08216310  0.40381644  1.0
  B  B16  1  0.41855493  0.27274097  0.40689674  1.0
  B  B17  1  0.58144507  0.72725903  0.40689674  1.0
  B  B18  1  0.91855493  0.77274097  0.09310326  1.0
  B  B19  1  0.08144507  0.22725903  0.09310326  1.0
  B  B20  1  0.58144507  0.27274097  0.59310326  1.0
  B  B21  1  0.41855493  0.72725903  0.59310326  1.0
  B  B22  1  0.08144507  0.77274097  0.90689674  1.0
  B  B23  1  0.91855493  0.22725903  0.90689674  1.0
  B  B24  1  0.72725903  0.41855493  0.59310326  1.0
  B  B25  1  0.27274097  0.58144507  0.59310326  1.0
  B  B26  1  0.22725903  0.91855493  0.90689674  1.0
  B  B27  1  0.77274097  0.08144507  0.90689674  1.0
  B  B28  1  0.27274097  0.41855493  0.40689674  1.0
  B  B29  1  0.72725903  0.58144507  0.40689674  1.0
  B  B30  1  0.77274097  0.91855493  0.09310326  1.0
  B  B31  1  0.22725903  0.08144507  0.09310326  1.0
  B  B32  1  0.37079651  0.37079651  0.11601243  1.0
  B  B33  1  0.62920349  0.62920349  0.11601243  1.0
  B  B34  1  0.87079651  0.87079651  0.38398757  1.0
  B  B35  1  0.12920349  0.12920349  0.38398757  1.0
  B  B36  1  0.62920349  0.37079651  0.88398757  1.0
  B  B37  1  0.37079651  0.62920349  0.88398757  1.0
  B  B38  1  0.12920349  0.87079651  0.61601243  1.0
  B  B39  1  0.87079651  0.12920349  0.61601243  1.0
  B  B40  1  0.25418589  0.25418589  0.91576160  1.0
  B  B41  1  0.74581411  0.74581411  0.91576160  1.0
  B  B42  1  0.75418589  0.75418589  0.58423840  1.0
  B  B43  1  0.24581411  0.24581411  0.58423840  1.0
  B  B44  1  0.74581411  0.25418589  0.08423840  1.0
  B  B45  1  0.25418589  0.74581411  0.08423840  1.0
  B  B46  1  0.24581411  0.75418589  0.41576160  1.0
  B  B47  1  0.75418589  0.24581411  0.41576160  1.0
  B  B48  1  0.50000000  0.50000000  0.50000000  1.0
  B  B49  1  0.00000000  0.00000000  0.00000000  1.0
