# generated using pymatgen
data_Na2PHO3
_symmetry_space_group_name_H-M   'P 1'
_cell_length_a   5.17524873
_cell_length_b   7.10546506
_cell_length_c   10.86128059
_cell_angle_alpha   90.00000000
_cell_angle_beta   115.91257684
_cell_angle_gamma   90.00000000
_symmetry_Int_Tables_number   1
_chemical_formula_structural   Na2PHO3
_chemical_formula_sum   'Na8 P4 H4 O12'
_cell_volume   359.24235044
_cell_formula_units_Z   4
loop_
 _symmetry_equiv_pos_site_id
 _symmetry_equiv_pos_as_xyz
  1  'x, y, z'
loop_
 _atom_site_type_symbol
 _atom_site_label
 _atom_site_symmetry_multiplicity
 _atom_site_fract_x
 _atom_site_fract_y
 _atom_site_fract_z
 _atom_site_occupancy
  Na  Na0  1  0.88578994  0.69710282  0.10656627  1.0
  Na  Na1  1  0.88578994  0.80289718  0.60656627  1.0
  Na  Na2  1  0.11421006  0.19710282  0.39343373  1.0
  Na  Na3  1  0.11421006  0.30289718  0.89343373  1.0
  Na  Na4  1  0.46552355  0.44197743  0.24468500  1.0
  Na  Na5  1  0.46552355  0.05802257  0.74468500  1.0
  Na  Na6  1  0.53447645  0.94197743  0.25531500  1.0
  Na  Na7  1  0.53447645  0.55802257  0.75531500  1.0
  P  P8  1  0.75574870  0.24163323  0.07158523  1.0
  P  P9  1  0.75574870  0.25836677  0.57158523  1.0
  P  P10  1  0.24425130  0.74163323  0.42841477  1.0
  P  P11  1  0.24425130  0.75836677  0.92841477  1.0
  H  H12  1  0.91424519  0.07222464  0.08884536  1.0
  H  H13  1  0.91424519  0.42777536  0.58884536  1.0
  H  H14  1  0.08575481  0.57222464  0.41115464  1.0
  H  H15  1  0.08575481  0.92777536  0.91115464  1.0
  O  O16  1  0.96281638  0.37877753  0.18160458  1.0
  O  O17  1  0.96281638  0.12122247  0.68160458  1.0
  O  O18  1  0.03718362  0.87877753  0.31839542  1.0
  O  O19  1  0.03718362  0.62122247  0.81839542  1.0
  O  O20  1  0.67209147  0.19524469  0.42242223  1.0
  O  O21  1  0.67209147  0.30475531  0.92242223  1.0
  O  O22  1  0.32790853  0.69524469  0.07757777  1.0
  O  O23  1  0.32790853  0.80475531  0.57757777  1.0
  O  O24  1  0.49216164  0.19495711  0.09725410  1.0
  O  O25  1  0.49216164  0.30504289  0.59725410  1.0
  O  O26  1  0.50783836  0.69495711  0.40274590  1.0
  O  O27  1  0.50783836  0.80504289  0.90274590  1.0
