# generated using pymatgen
data_BaCaGe
_symmetry_space_group_name_H-M   'P 1'
_cell_length_a   8.62236655
_cell_length_b   5.07903695
_cell_length_c   9.27368611
_cell_angle_alpha   90.00000000
_cell_angle_beta   90.00000000
_cell_angle_gamma   90.00000000
_symmetry_Int_Tables_number   1
_chemical_formula_structural   BaCaGe
_chemical_formula_sum   'Ba4 Ca4 Ge4'
_cell_volume   406.12548798
_cell_formula_units_Z   4
loop_
 _symmetry_equiv_pos_site_id
 _symmetry_equiv_pos_as_xyz
  1  'x, y, z'
loop_
 _atom_site_type_symbol
 _atom_site_label
 _atom_site_symmetry_multiplicity
 _atom_site_fract_x
 _atom_site_fract_y
 _atom_site_fract_z
 _atom_site_occupancy
  Ba  Ba0  1  0.97153724  0.75000000  0.67582589  1.0
  Ba  Ba1  1  0.47153724  0.75000000  0.82417411  1.0
  Ba  Ba2  1  0.02846276  0.25000000  0.32417411  1.0
  Ba  Ba3  1  0.52846276  0.25000000  0.17582589  1.0
  Ca  Ca4  1  0.85868211  0.75000000  0.07391073  1.0
  Ca  Ca5  1  0.35868211  0.75000000  0.42608927  1.0
  Ca  Ca6  1  0.14131789  0.25000000  0.92608927  1.0
  Ca  Ca7  1  0.64131789  0.25000000  0.57391073  1.0
  Ge  Ge8  1  0.71998384  0.75000000  0.39103531  1.0
  Ge  Ge9  1  0.21998384  0.75000000  0.10896469  1.0
  Ge  Ge10  1  0.28001616  0.25000000  0.60896469  1.0
  Ge  Ge11  1  0.78001616  0.25000000  0.89103531  1.0
