# generated using pymatgen
data_In(TeMo)3
_symmetry_space_group_name_H-M   'P 1'
_cell_length_a   9.64209833
_cell_length_b   9.64209833
_cell_length_c   4.60222677
_cell_angle_alpha   90.00000000
_cell_angle_beta   90.00000000
_cell_angle_gamma   120.00000000
_symmetry_Int_Tables_number   1
_chemical_formula_structural   In(TeMo)3
_chemical_formula_sum   'In2 Te6 Mo6'
_cell_volume   370.54568370
_cell_formula_units_Z   2
loop_
 _symmetry_equiv_pos_site_id
 _symmetry_equiv_pos_as_xyz
  1  'x, y, z'
loop_
 _atom_site_type_symbol
 _atom_site_label
 _atom_site_symmetry_multiplicity
 _atom_site_fract_x
 _atom_site_fract_y
 _atom_site_fract_z
 _atom_site_occupancy
  In  In0  1  0.33333333  0.66666667  0.25000000  1.0
  In  In1  1  0.66666667  0.33333333  0.75000000  1.0
  Te  Te2  1  0.36653020  1.05765798  0.25000000  1.0
  Te  Te3  1  0.69112778  0.63346980  0.25000000  1.0
  Te  Te4  1  -0.05765798  0.30887222  0.25000000  1.0
  Te  Te5  1  0.63346980  -0.05765798  0.75000000  1.0
  Te  Te6  1  0.30887222  0.36653020  0.75000000  1.0
  Te  Te7  1  1.05765798  0.69112778  0.75000000  1.0
  Mo  Mo8  1  1.02640726  0.85626757  0.25000000  1.0
  Mo  Mo9  1  0.82986031  -0.02640726  0.25000000  1.0
  Mo  Mo10  1  0.14373243  0.17013969  0.25000000  1.0
  Mo  Mo11  1  -0.02640726  0.14373243  0.75000000  1.0
  Mo  Mo12  1  0.17013969  1.02640726  0.75000000  1.0
  Mo  Mo13  1  0.85626757  0.82986031  0.75000000  1.0
