# generated using pymatgen
data_KLaH2S2O9
_symmetry_space_group_name_H-M   'P 1'
_cell_length_a   7.29797570
_cell_length_b   7.29797570
_cell_length_c   13.39555139
_cell_angle_alpha   90.00000000
_cell_angle_beta   90.00000000
_cell_angle_gamma   120.00000000
_symmetry_Int_Tables_number   1
_chemical_formula_structural   KLaH2S2O9
_chemical_formula_sum   'K3 La3 H6 S6 O27'
_cell_volume   617.86849693
_cell_formula_units_Z   3
loop_
 _symmetry_equiv_pos_site_id
 _symmetry_equiv_pos_as_xyz
  1  'x, y, z'
loop_
 _atom_site_type_symbol
 _atom_site_label
 _atom_site_symmetry_multiplicity
 _atom_site_fract_x
 _atom_site_fract_y
 _atom_site_fract_z
 _atom_site_occupancy
  K  K0  1  -0.00000000  0.45260065  0.83333333  1.0
  K  K1  1  0.54739935  0.54739935  0.50000000  1.0
  K  K2  1  0.45260065  -0.00000000  0.16666667  1.0
  La  La3  1  0.43625371  -0.00000000  0.66666667  1.0
  La  La4  1  -0.00000000  0.43625371  0.33333333  1.0
  La  La5  1  0.56374629  0.56374629  -0.00000000  1.0
  H  H6  1  0.04717079  0.08762578  0.62528428  1.0
  H  H7  1  0.91237422  0.95954501  0.29195094  1.0
  H  H8  1  0.04045499  0.95282921  0.95861761  1.0
  H  H9  1  0.08762578  0.04717079  0.37471572  1.0
  H  H10  1  0.95954501  0.91237422  0.70804906  1.0
  H  H11  1  0.95282921  0.04045499  0.04138239  1.0
  S  S12  1  0.99400351  0.44029952  0.57288149  1.0
  S  S13  1  0.55970048  0.55370398  0.23954816  1.0
  S  S14  1  0.44629602  0.00599649  0.90621482  1.0
  S  S15  1  0.44029952  0.99400351  0.42711851  1.0
  S  S16  1  0.55370398  0.55970048  0.76045184  1.0
  S  S17  1  0.00599649  0.44629602  0.09378518  1.0
  O  O18  1  0.11737157  0.37095461  0.50872342  1.0
  O  O19  1  0.62904539  0.74641696  0.17539008  1.0
  O  O20  1  0.25358304  0.88262843  0.84205675  1.0
  O  O21  1  0.37095461  0.11737157  0.49127658  1.0
  O  O22  1  0.74641696  0.62904539  0.82460992  1.0
  O  O23  1  0.88262843  0.25358304  0.15794325  1.0
  O  O24  1  0.88581774  0.51297637  0.50093392  1.0
  O  O25  1  0.48702363  0.37284138  0.16760059  1.0
  O  O26  1  0.62715862  0.11418226  0.83426726  1.0
  O  O27  1  0.51297637  0.88581774  0.49906608  1.0
  O  O28  1  0.37284138  0.48702363  0.83239941  1.0
  O  O29  1  0.11418226  0.62715862  0.16573274  1.0
  O  O30  1  0.13503789  0.61556779  0.64121562  1.0
  O  O31  1  0.38443221  0.51947010  0.30788229  1.0
  O  O32  1  0.48052990  0.86496211  0.97454896  1.0
  O  O33  1  0.61556779  0.13503789  0.35878438  1.0
  O  O34  1  0.51947010  0.38443221  0.69211771  1.0
  O  O35  1  0.86496211  0.48052990  0.02545104  1.0
  O  O36  1  0.83740467  0.25780515  0.63432277  1.0
  O  O37  1  0.74219485  0.57959952  0.30098943  1.0
  O  O38  1  0.42040048  0.16259533  0.96765610  1.0
  O  O39  1  0.25780515  0.83740467  0.36567723  1.0
  O  O40  1  0.57959952  0.74219485  0.69901057  1.0
  O  O41  1  0.16259533  0.42040048  0.03234390  1.0
  O  O42  1  0.08292034  0.00000000  0.66666667  1.0
  O  O43  1  -0.00000000  0.08292034  0.33333333  1.0
  O  O44  1  0.91707966  0.91707966  0.00000000  1.0
