# generated using pymatgen
data_CN2O
_symmetry_space_group_name_H-M   'P 1'
_cell_length_a   4.62981408
_cell_length_b   4.62981408
_cell_length_c   6.35774455
_cell_angle_alpha   90.00000000
_cell_angle_beta   90.00000000
_cell_angle_gamma   90.00000000
_symmetry_Int_Tables_number   1
_chemical_formula_structural   CN2O
_chemical_formula_sum   'C2 N4 O2'
_cell_volume   136.27938866
_cell_formula_units_Z   2
loop_
 _symmetry_equiv_pos_site_id
 _symmetry_equiv_pos_as_xyz
  1  'x, y, z'
loop_
 _atom_site_type_symbol
 _atom_site_label
 _atom_site_symmetry_multiplicity
 _atom_site_fract_x
 _atom_site_fract_y
 _atom_site_fract_z
 _atom_site_occupancy
  C  C0  1  0.00000000  0.50000000  0.64161885  1.0
  C  C1  1  0.50000000  0.00000000  0.35838115  1.0
  N  N2  1  0.89938724  0.39938724  0.83359430  1.0
  N  N3  1  0.60061276  0.89938724  0.16640570  1.0
  N  N4  1  0.10061276  0.60061276  0.83359430  1.0
  N  N5  1  0.39938724  0.10061276  0.16640570  1.0
  O  O6  1  0.00000000  0.50000000  0.45299796  1.0
  O  O7  1  0.50000000  0.00000000  0.54700204  1.0
