# generated using pymatgen
data_GdTaO4
_symmetry_space_group_name_H-M   'P 1'
_cell_length_a   5.20698614
_cell_length_b   5.58682811
_cell_length_c   5.39226004
_cell_angle_alpha   90.00000000
_cell_angle_beta   96.80503215
_cell_angle_gamma   90.00000000
_symmetry_Int_Tables_number   1
_chemical_formula_structural   GdTaO4
_chemical_formula_sum   'Gd2 Ta2 O8'
_cell_volume   155.75864883
_cell_formula_units_Z   2
loop_
 _symmetry_equiv_pos_site_id
 _symmetry_equiv_pos_as_xyz
  1  'x, y, z'
loop_
 _atom_site_type_symbol
 _atom_site_label
 _atom_site_symmetry_multiplicity
 _atom_site_fract_x
 _atom_site_fract_y
 _atom_site_fract_z
 _atom_site_occupancy
  Gd  Gd0  1  0.50000000  0.26779415  0.25000000  1.0
  Gd  Gd1  1  0.50000000  0.73220585  0.75000000  1.0
  Ta  Ta2  1  -0.00000000  0.81169685  0.25000000  1.0
  Ta  Ta3  1  0.00000000  0.18830315  0.75000000  1.0
  O  O4  1  0.77284985  0.93478585  0.49657878  1.0
  O  O5  1  0.77284985  0.06521415  0.99657878  1.0
  O  O6  1  0.22715015  0.93478585  0.00342122  1.0
  O  O7  1  0.22715015  0.06521415  0.50342122  1.0
  O  O8  1  0.75199527  0.59104510  0.10592060  1.0
  O  O9  1  0.75199527  0.40895490  0.60592060  1.0
  O  O10  1  0.24800473  0.59104510  0.39407940  1.0
  O  O11  1  0.24800473  0.40895490  0.89407940  1.0
