# generated using pymatgen
data_LiY(BH4)4
_symmetry_space_group_name_H-M   'P 1'
_cell_length_a   6.20685496
_cell_length_b   6.20685496
_cell_length_c   12.56870347
_cell_angle_alpha   90.00000000
_cell_angle_beta   90.00000000
_cell_angle_gamma   90.00000000
_symmetry_Int_Tables_number   1
_chemical_formula_structural   LiY(BH4)4
_chemical_formula_sum   'Li2 Y2 B8 H32'
_cell_volume   484.20991018
_cell_formula_units_Z   2
loop_
 _symmetry_equiv_pos_site_id
 _symmetry_equiv_pos_as_xyz
  1  'x, y, z'
loop_
 _atom_site_type_symbol
 _atom_site_label
 _atom_site_symmetry_multiplicity
 _atom_site_fract_x
 _atom_site_fract_y
 _atom_site_fract_z
 _atom_site_occupancy
  Li  Li0  1  0.00000000  0.00000000  0.75000000  1.0
  Li  Li1  1  0.00000000  0.00000000  0.25000000  1.0
  Y  Y2  1  0.50000000  0.50000000  0.75000000  1.0
  Y  Y3  1  0.50000000  0.50000000  0.25000000  1.0
  B  B4  1  0.25431304  0.74597462  0.15282626  1.0
  B  B5  1  0.74568696  0.25402538  0.15282626  1.0
  B  B6  1  0.74568696  0.74597462  0.34717374  1.0
  B  B7  1  0.25431304  0.25402538  0.34717374  1.0
  B  B8  1  0.74597462  0.74568696  0.84717374  1.0
  B  B9  1  0.25402538  0.25431304  0.84717374  1.0
  B  B10  1  0.74597462  0.25431304  0.65282626  1.0
  B  B11  1  0.25402538  0.74568696  0.65282626  1.0
  H  H12  1  0.23522644  0.76161525  0.25094777  1.0
  H  H13  1  0.76477356  0.23838475  0.25094777  1.0
  H  H14  1  0.76477356  0.76161525  0.24905223  1.0
  H  H15  1  0.23522644  0.23838475  0.24905223  1.0
  H  H16  1  0.76161525  0.76477356  0.74905223  1.0
  H  H17  1  0.23838475  0.23522644  0.74905223  1.0
  H  H18  1  0.76161525  0.23522644  0.75094777  1.0
  H  H19  1  0.23838475  0.76477356  0.75094777  1.0
  H  H20  1  0.13500715  0.86565166  0.10540349  1.0
  H  H21  1  0.86499285  0.13434834  0.10540349  1.0
  H  H22  1  0.86499285  0.86565166  0.39459651  1.0
  H  H23  1  0.13500715  0.13434834  0.39459651  1.0
  H  H24  1  0.86565166  0.86499285  0.89459651  1.0
  H  H25  1  0.13434834  0.13500715  0.89459651  1.0
  H  H26  1  0.86565166  0.13500715  0.60540349  1.0
  H  H27  1  0.13434834  0.86499285  0.60540349  1.0
  H  H28  1  0.44520850  0.78522998  0.13254826  1.0
  H  H29  1  0.55479150  0.21477002  0.13254826  1.0
  H  H30  1  0.55479150  0.78522998  0.36745174  1.0
  H  H31  1  0.44520850  0.21477002  0.36745174  1.0
  H  H32  1  0.78522998  0.55479150  0.86745174  1.0
  H  H33  1  0.21477002  0.44520850  0.86745174  1.0
  H  H34  1  0.78522998  0.44520850  0.63254826  1.0
  H  H35  1  0.21477002  0.55479150  0.63254826  1.0
  H  H36  1  0.21770843  0.55542778  0.13067366  1.0
  H  H37  1  0.78229157  0.44457222  0.13067366  1.0
  H  H38  1  0.78229157  0.55542778  0.36932634  1.0
  H  H39  1  0.21770843  0.44457222  0.36932634  1.0
  H  H40  1  0.55542778  0.78229157  0.86932634  1.0
  H  H41  1  0.44457222  0.21770843  0.86932634  1.0
  H  H42  1  0.55542778  0.21770843  0.63067366  1.0
  H  H43  1  0.44457222  0.78229157  0.63067366  1.0
