# generated using pymatgen
data_AgS2(O3F)2
_symmetry_space_group_name_H-M   'P 1'
_cell_length_a   10.65976887
_cell_length_b   8.03542172
_cell_length_c   9.17519983
_cell_angle_alpha   90.00000000
_cell_angle_beta   113.16876033
_cell_angle_gamma   90.00000000
_symmetry_Int_Tables_number   1
_chemical_formula_structural   AgS2(O3F)2
_chemical_formula_sum   'Ag4 S8 O24 F8'
_cell_volume   722.52498888
_cell_formula_units_Z   4
loop_
 _symmetry_equiv_pos_site_id
 _symmetry_equiv_pos_as_xyz
  1  'x, y, z'
loop_
 _atom_site_type_symbol
 _atom_site_label
 _atom_site_symmetry_multiplicity
 _atom_site_fract_x
 _atom_site_fract_y
 _atom_site_fract_z
 _atom_site_occupancy
  F  F0  1  0.88706273  0.91951694  0.55724814  1.0
  F  F1  1  0.88706273  0.58048306  0.05724814  1.0
  F  F2  1  0.11293727  0.41951694  0.94275186  1.0
  F  F3  1  0.11293727  0.08048306  0.44275186  1.0
  F  F4  1  0.36103782  0.92247873  0.81513356  1.0
  F  F5  1  0.36103782  0.57752127  0.31513356  1.0
  F  F6  1  0.63896218  0.42247873  0.68486644  1.0
  F  F7  1  0.63896218  0.07752127  0.18486644  1.0
  S  S8  1  0.85588667  0.78484212  0.66702063  1.0
  S  S9  1  0.85588667  0.71515788  0.16702063  1.0
  S  S10  1  0.14411333  0.28484212  0.83297937  1.0
  S  S11  1  0.14411333  0.21515788  0.33297937  1.0
  S  S12  1  0.34956218  0.76425016  0.70561846  1.0
  S  S13  1  0.34956218  0.73574984  0.20561846  1.0
  S  S14  1  0.65043782  0.26425016  0.79438154  1.0
  S  S15  1  0.65043782  0.23574984  0.29438154  1.0
  O  O16  1  0.78074956  0.18987113  0.82135647  1.0
  O  O17  1  0.78074956  0.31012887  0.32135647  1.0
  O  O18  1  0.21925044  0.68987113  0.67864353  1.0
  O  O19  1  0.21925044  0.81012887  0.17864353  1.0
  O  O20  1  0.72320616  0.82663683  0.66394578  1.0
  O  O21  1  0.72320616  0.67336317  0.16394578  1.0
  O  O22  1  0.27679384  0.32663683  0.83605422  1.0
  O  O23  1  0.27679384  0.17336317  0.33605422  1.0
  O  O24  1  0.47225245  0.66494376  0.79864457  1.0
  O  O25  1  0.47225245  0.83505624  0.29864457  1.0
  O  O26  1  0.52774755  0.16494376  0.70135543  1.0
  O  O27  1  0.52774755  0.33505624  0.20135543  1.0
  O  O28  1  0.97234812  0.80318724  0.82150713  1.0
  O  O29  1  0.97234812  0.69681276  0.32150713  1.0
  O  O30  1  0.02765188  0.30318724  0.67849287  1.0
  O  O31  1  0.02765188  0.19681276  0.17849287  1.0
  O  O32  1  0.63988036  0.33451223  0.93731427  1.0
  O  O33  1  0.63988036  0.16548777  0.43731427  1.0
  O  O34  1  0.36011964  0.83451223  0.56268573  1.0
  O  O35  1  0.36011964  0.66548777  0.06268573  1.0
  O  O36  1  0.85981573  0.62447254  0.59102322  1.0
  O  O37  1  0.85981573  0.87552746  0.09102322  1.0
  O  O38  1  0.14018427  0.12447254  0.90897678  1.0
  O  O39  1  0.14018427  0.37552746  0.40897678  1.0
  Ag  Ag40  1  0.00000000  0.00000000  0.00000000  1.0
  Ag  Ag41  1  -0.00000000  0.50000000  0.50000000  1.0
  Ag  Ag42  1  0.50000000  0.00000000  0.50000000  1.0
  Ag  Ag43  1  0.50000000  0.50000000  -0.00000000  1.0
