# generated using pymatgen
data_CaHfF6
_symmetry_space_group_name_H-M   'P 1'
_cell_length_a   6.05957987
_cell_length_b   6.05957987
_cell_length_c   6.05957987
_cell_angle_alpha   60.00000000
_cell_angle_beta   60.00000000
_cell_angle_gamma   60.00000000
_symmetry_Int_Tables_number   1
_chemical_formula_structural   CaHfF6
_chemical_formula_sum   'Ca1 Hf1 F6'
_cell_volume   157.33036297
_cell_formula_units_Z   1
loop_
 _symmetry_equiv_pos_site_id
 _symmetry_equiv_pos_as_xyz
  1  'x, y, z'
loop_
 _atom_site_type_symbol
 _atom_site_label
 _atom_site_symmetry_multiplicity
 _atom_site_fract_x
 _atom_site_fract_y
 _atom_site_fract_z
 _atom_site_occupancy
  Ca  Ca0  1  -0.50000000  0.50000000  0.50000000  1.0
  Hf  Hf1  1  0.00000000  0.00000000  0.00000000  1.0
  F  F2  1  -0.76512603  0.76512603  0.76512603  1.0
  F  F3  1  -0.23487397  0.23487397  0.76512603  1.0
  F  F4  1  0.76512603  0.76512603  -0.76512603  1.0
  F  F5  1  0.23487397  1.23487397  -0.23487397  1.0
  F  F6  1  0.23487397  -0.23487397  1.23487397  1.0
  F  F7  1  -0.23487397  0.23487397  0.23487397  1.0
