# generated using pymatgen
data_TcC5BrO5
_symmetry_space_group_name_H-M   'P 1'
_cell_length_a   12.68973182
_cell_length_b   12.53855153
_cell_length_c   6.54821704
_cell_angle_alpha   90.00000000
_cell_angle_beta   90.00000000
_cell_angle_gamma   90.00000000
_symmetry_Int_Tables_number   1
_chemical_formula_structural   TcC5BrO5
_chemical_formula_sum   'Tc4 C20 Br4 O20'
_cell_volume   1041.89242164
_cell_formula_units_Z   4
loop_
 _symmetry_equiv_pos_site_id
 _symmetry_equiv_pos_as_xyz
  1  'x, y, z'
loop_
 _atom_site_type_symbol
 _atom_site_label
 _atom_site_symmetry_multiplicity
 _atom_site_fract_x
 _atom_site_fract_y
 _atom_site_fract_z
 _atom_site_occupancy
  Tc  Tc0  1  0.37351379  0.25000000  0.55383650  1.0
  Tc  Tc1  1  0.87351379  0.25000000  0.94616350  1.0
  Tc  Tc2  1  0.62648621  0.75000000  0.44616350  1.0
  Tc  Tc3  1  0.12648621  0.75000000  0.05383650  1.0
  C  C4  1  0.95808945  0.36398070  0.80752612  1.0
  C  C5  1  0.95808945  0.13601930  0.80752612  1.0
  C  C6  1  0.45808945  0.36398070  0.69247388  1.0
  C  C7  1  0.45808945  0.13601930  0.69247388  1.0
  C  C8  1  0.04191055  0.86398070  0.19247388  1.0
  C  C9  1  0.04191055  0.63601930  0.19247388  1.0
  C  C10  1  0.54191055  0.86398070  0.30752612  1.0
  C  C11  1  0.54191055  0.63601930  0.30752612  1.0
  C  C12  1  0.78015136  0.36291652  0.06676301  1.0
  C  C13  1  0.78015136  0.13708348  0.06676301  1.0
  C  C14  1  0.28015136  0.36291652  0.43323699  1.0
  C  C15  1  0.28015136  0.13708348  0.43323699  1.0
  C  C16  1  0.21984864  0.86291652  0.93323699  1.0
  C  C17  1  0.21984864  0.63708348  0.93323699  1.0
  C  C18  1  0.71984864  0.86291652  0.56676301  1.0
  C  C19  1  0.71984864  0.63708348  0.56676301  1.0
  C  C20  1  0.96541614  0.25000000  0.17994828  1.0
  C  C21  1  0.46541614  0.25000000  0.32005172  1.0
  C  C22  1  0.03458386  0.75000000  0.82005172  1.0
  C  C23  1  0.53458386  0.75000000  0.67994828  1.0
  Br  Br24  1  0.74746261  0.25000000  0.62345827  1.0
  Br  Br25  1  0.24746261  0.25000000  0.87654173  1.0
  Br  Br26  1  0.25253739  0.75000000  0.37654173  1.0
  Br  Br27  1  0.75253739  0.75000000  0.12345827  1.0
  O  O28  1  0.99545629  0.93091031  0.27088903  1.0
  O  O29  1  0.99545629  0.56908969  0.27088903  1.0
  O  O30  1  0.49545629  0.93091031  0.22911097  1.0
  O  O31  1  0.49545629  0.56908969  0.22911097  1.0
  O  O32  1  0.00454371  0.43091031  0.72911097  1.0
  O  O33  1  0.00454371  0.06908969  0.72911097  1.0
  O  O34  1  0.50454371  0.43091031  0.77088903  1.0
  O  O35  1  0.50454371  0.06908969  0.77088903  1.0
  O  O36  1  0.72621165  0.42771622  0.13238355  1.0
  O  O37  1  0.72621165  0.07228378  0.13238355  1.0
  O  O38  1  0.22621165  0.42771622  0.36761645  1.0
  O  O39  1  0.22621165  0.07228378  0.36761645  1.0
  O  O40  1  0.27378835  0.92771622  0.86761645  1.0
  O  O41  1  0.27378835  0.57228378  0.86761645  1.0
  O  O42  1  0.77378835  0.92771622  0.63238355  1.0
  O  O43  1  0.77378835  0.57228378  0.63238355  1.0
  O  O44  1  0.52147560  0.25000000  0.18060780  1.0
  O  O45  1  0.02147560  0.25000000  0.31939220  1.0
  O  O46  1  0.47852440  0.75000000  0.81939220  1.0
  O  O47  1  0.97852440  0.75000000  0.68060780  1.0
