# generated using pymatgen
data_H2PbCl2O7
_symmetry_space_group_name_H-M   'P 1'
_cell_length_a   7.58596680
_cell_length_b   7.58596680
_cell_length_c   8.94763238
_cell_angle_alpha   54.96690812
_cell_angle_beta   125.03309188
_cell_angle_gamma   114.24181162
_symmetry_Int_Tables_number   1
_chemical_formula_structural   H2PbCl2O7
_chemical_formula_sum   'H4 Pb2 Cl4 O14'
_cell_volume   342.69710180
_cell_formula_units_Z   2
loop_
 _symmetry_equiv_pos_site_id
 _symmetry_equiv_pos_as_xyz
  1  'x, y, z'
loop_
 _atom_site_type_symbol
 _atom_site_label
 _atom_site_symmetry_multiplicity
 _atom_site_fract_x
 _atom_site_fract_y
 _atom_site_fract_z
 _atom_site_occupancy
  H  H0  1  1.71987811  -0.18912744  0.62840149  1.0
  H  H1  1  1.18912744  -0.71987811  0.12840149  1.0
  H  H2  1  0.81087256  -0.28012189  0.87159852  1.0
  H  H3  1  1.28012189  0.18912744  0.37159852  1.0
  Pb  Pb4  1  1.40742099  0.40742099  0.75000000  1.0
  Pb  Pb5  1  0.59257901  0.59257901  0.25000000  1.0
  Cl  Cl6  1  1.78073353  0.17470257  0.81904660  1.0
  Cl  Cl7  1  0.82529743  0.21926647  0.31904660  1.0
  Cl  Cl8  1  1.17470257  0.78073353  0.68095340  1.0
  Cl  Cl9  1  1.21926647  -0.17470257  0.18095340  1.0
  O  O10  1  0.36992329  -0.34400936  0.86741979  1.0
  O  O11  1  1.34400936  0.63007671  0.36741979  1.0
  O  O12  1  0.65599064  0.36992329  0.63258021  1.0
  O  O13  1  0.63007671  0.34400936  0.13258021  1.0
  O  O14  1  1.71021967  0.10464608  0.97452974  1.0
  O  O15  1  0.89535392  0.28978033  0.47452974  1.0
  O  O16  1  1.10464608  0.71021967  0.52547026  1.0
  O  O17  1  1.28978033  -0.10464608  0.02547026  1.0
  O  O18  1  1.25938218  0.01756676  0.60273025  1.0
  O  O19  1  0.98243324  0.74061782  0.10273025  1.0
  O  O20  1  1.01756676  0.25938218  0.89726975  1.0
  O  O21  1  1.74061782  -0.01756676  0.39726975  1.0
  O  O22  1  0.69707802  -0.30292198  0.75000000  1.0
  O  O23  1  0.30292198  0.30292198  0.25000000  1.0
