# generated using pymatgen
data_MgAl2(PO5)2
_symmetry_space_group_name_H-M   'P 1'
_cell_length_a   7.18033476
_cell_length_b   7.51689398
_cell_length_c   7.11475966
_cell_angle_alpha   90.00000000
_cell_angle_beta   118.88598003
_cell_angle_gamma   90.00000000
_symmetry_Int_Tables_number   1
_chemical_formula_structural   MgAl2(PO5)2
_chemical_formula_sum   'Mg2 Al4 P4 O20'
_cell_volume   336.23316736
_cell_formula_units_Z   2
loop_
 _symmetry_equiv_pos_site_id
 _symmetry_equiv_pos_as_xyz
  1  'x, y, z'
loop_
 _atom_site_type_symbol
 _atom_site_label
 _atom_site_symmetry_multiplicity
 _atom_site_fract_x
 _atom_site_fract_y
 _atom_site_fract_z
 _atom_site_occupancy
  O  O0  1  0.21246103  0.48879884  0.81838959  1.0
  O  O1  1  0.78753897  -0.01120116  0.68161041  1.0
  O  O2  1  0.78753897  0.51120116  0.18161041  1.0
  O  O3  1  0.21246103  0.01120116  0.31838959  1.0
  O  O4  1  0.26661187  0.50144344  0.19871950  1.0
  O  O5  1  0.73338813  0.00144344  0.30128050  1.0
  O  O6  1  0.73338813  0.49855656  0.80128050  1.0
  O  O7  1  0.26661187  -0.00144344  0.69871950  1.0
  O  O8  1  0.77255302  0.67232550  0.49225102  1.0
  O  O9  1  0.22744698  0.17232550  1.00774898  1.0
  O  O10  1  0.22744698  0.32767450  0.50774898  1.0
  O  O11  1  0.77255302  0.82767450  -0.00774898  1.0
  O  O12  1  0.44613415  0.76875465  0.58005935  1.0
  O  O13  1  0.55386585  0.26875465  0.91994065  1.0
  O  O14  1  0.55386585  0.23124535  0.41994065  1.0
  O  O15  1  0.44613415  0.73124535  0.08005935  1.0
  O  O16  1  0.05471525  0.75629565  0.42250939  1.0
  O  O17  1  0.94528475  0.25629565  0.07749061  1.0
  O  O18  1  0.94528475  0.24370435  0.57749061  1.0
  O  O19  1  0.05471525  0.74370435  0.92250939  1.0
  Al  Al20  1  0.73379948  0.76566924  0.22569151  1.0
  Al  Al21  1  0.26620052  0.26566924  0.27430849  1.0
  Al  Al22  1  0.26620052  0.23433076  0.77430849  1.0
  Al  Al23  1  0.73379948  0.73433076  0.72569151  1.0
  P  P24  1  0.25079863  0.61204490  0.01078907  1.0
  P  P25  1  0.74920137  0.11204490  0.48921093  1.0
  P  P26  1  0.74920137  0.38795510  0.98921093  1.0
  P  P27  1  0.25079863  0.88795510  0.51078907  1.0
  Mg  Mg28  1  0.00000000  0.50000000  0.50000000  1.0
  Mg  Mg29  1  0.00000000  0.00000000  0.00000000  1.0
