# generated using pymatgen
data_Tb2Si5Os3
_symmetry_space_group_name_H-M   'P 1'
_cell_length_a   10.74382617
_cell_length_b   10.74382617
_cell_length_c   5.68472884
_cell_angle_alpha   90.00000000
_cell_angle_beta   90.00000000
_cell_angle_gamma   90.00000000
_symmetry_Int_Tables_number   1
_chemical_formula_structural   Tb2Si5Os3
_chemical_formula_sum   'Tb8 Si20 Os12'
_cell_volume   656.18711677
_cell_formula_units_Z   4
loop_
 _symmetry_equiv_pos_site_id
 _symmetry_equiv_pos_as_xyz
  1  'x, y, z'
loop_
 _atom_site_type_symbol
 _atom_site_label
 _atom_site_symmetry_multiplicity
 _atom_site_fract_x
 _atom_site_fract_y
 _atom_site_fract_z
 _atom_site_occupancy
  Tb  Tb0  1  0.92972941  0.76576763  0.50000000  1.0
  Tb  Tb1  1  0.07027059  0.23423237  0.50000000  1.0
  Tb  Tb2  1  0.57027059  0.26576763  0.00000000  1.0
  Tb  Tb3  1  0.42972941  0.73423237  0.00000000  1.0
  Tb  Tb4  1  0.76576763  0.07027059  0.50000000  1.0
  Tb  Tb5  1  0.23423237  0.92972941  0.50000000  1.0
  Tb  Tb6  1  0.26576763  0.42972941  0.00000000  1.0
  Tb  Tb7  1  0.73423237  0.57027059  0.00000000  1.0
  Si  Si8  1  0.50000000  0.50000000  0.25517593  1.0
  Si  Si9  1  0.00000000  0.00000000  0.75517593  1.0
  Si  Si10  1  0.50000000  0.50000000  0.74482407  1.0
  Si  Si11  1  0.00000000  0.00000000  0.24482407  1.0
  Si  Si12  1  0.17254295  0.67254295  0.25000000  1.0
  Si  Si13  1  0.82745705  0.32745705  0.25000000  1.0
  Si  Si14  1  0.32745705  0.17254295  0.75000000  1.0
  Si  Si15  1  0.67254295  0.82745705  0.75000000  1.0
  Si  Si16  1  0.67254295  0.82745705  0.25000000  1.0
  Si  Si17  1  0.32745705  0.17254295  0.25000000  1.0
  Si  Si18  1  0.17254295  0.67254295  0.75000000  1.0
  Si  Si19  1  0.82745705  0.32745705  0.75000000  1.0
  Si  Si20  1  0.81990936  0.52717944  0.50000000  1.0
  Si  Si21  1  0.18009064  0.47282056  0.50000000  1.0
  Si  Si22  1  0.68009064  0.02717944  0.00000000  1.0
  Si  Si23  1  0.31990936  0.97282056  0.00000000  1.0
  Si  Si24  1  0.52717944  0.18009064  0.50000000  1.0
  Si  Si25  1  0.47282056  0.81990936  0.50000000  1.0
  Si  Si26  1  0.02717944  0.31990936  0.00000000  1.0
  Si  Si27  1  0.97282056  0.68009064  0.00000000  1.0
  Os  Os28  1  0.00000000  0.50000000  0.25000000  1.0
  Os  Os29  1  0.50000000  0.00000000  0.75000000  1.0
  Os  Os30  1  0.50000000  0.00000000  0.25000000  1.0
  Os  Os31  1  0.00000000  0.50000000  0.75000000  1.0
  Os  Os32  1  0.62519614  0.64646397  0.50000000  1.0
  Os  Os33  1  0.37480386  0.35353603  0.50000000  1.0
  Os  Os34  1  0.87480386  0.14646397  0.00000000  1.0
  Os  Os35  1  0.12519614  0.85353603  0.00000000  1.0
  Os  Os36  1  0.64646397  0.37480386  0.50000000  1.0
  Os  Os37  1  0.35353603  0.62519614  0.50000000  1.0
  Os  Os38  1  0.14646397  0.12519614  0.00000000  1.0
  Os  Os39  1  0.85353603  0.87480386  0.00000000  1.0
