# generated using pymatgen
data_LiAlSiH2O5
_symmetry_space_group_name_H-M   'P 1'
_cell_length_a   10.61215328
_cell_length_b   8.20754266
_cell_length_c   5.01464623
_cell_angle_alpha   90.00000000
_cell_angle_beta   90.00000000
_cell_angle_gamma   90.00000000
_symmetry_Int_Tables_number   1
_chemical_formula_structural   LiAlSiH2O5
_chemical_formula_sum   'Li4 Al4 Si4 H8 O20'
_cell_volume   436.77418598
_cell_formula_units_Z   4
loop_
 _symmetry_equiv_pos_site_id
 _symmetry_equiv_pos_as_xyz
  1  'x, y, z'
loop_
 _atom_site_type_symbol
 _atom_site_label
 _atom_site_symmetry_multiplicity
 _atom_site_fract_x
 _atom_site_fract_y
 _atom_site_fract_z
 _atom_site_occupancy
  Al  Al0  1  0.65304804  0.58761371  0.81538724  1.0
  Al  Al1  1  0.34695196  0.41238629  0.31538724  1.0
  Al  Al2  1  0.84695196  0.08761371  0.31538724  1.0
  Al  Al3  1  0.15304804  0.91238629  0.81538724  1.0
  Si  Si4  1  0.85529633  0.87686886  0.81638183  1.0
  Si  Si5  1  0.14470367  0.12313114  0.31638183  1.0
  Si  Si6  1  0.64470367  0.37686886  0.31638183  1.0
  Si  Si7  1  0.35529633  0.62313114  0.81638183  1.0
  O  O8  1  0.50247531  0.66818391  0.87977053  1.0
  O  O9  1  0.49752469  0.33181609  0.37977053  1.0
  O  O10  1  0.99752469  0.16818391  0.37977053  1.0
  O  O11  1  0.00247531  0.83181609  0.87977053  1.0
  O  O12  1  0.76700142  0.72807849  0.92974698  1.0
  O  O13  1  0.23299858  0.27192151  0.42974698  1.0
  O  O14  1  0.73299858  0.22807849  0.42974698  1.0
  O  O15  1  0.26700142  0.77192151  0.92974698  1.0
  O  O16  1  0.68247155  0.54691203  0.47355126  1.0
  O  O17  1  0.31752845  0.45308797  0.97355126  1.0
  O  O18  1  0.81752845  0.04691203  0.97355126  1.0
  O  O19  1  0.18247155  0.95308797  0.47355126  1.0
  O  O20  1  0.67149154  0.40139603  0.99580844  1.0
  O  O21  1  0.32850846  0.59860397  0.49580844  1.0
  O  O22  1  0.82850846  0.90139603  0.49580844  1.0
  O  O23  1  0.17149154  0.09860397  0.99580844  1.0
  O  O24  1  0.02885928  0.42011251  0.75006660  1.0
  O  O25  1  0.97114072  0.57988749  0.25006660  1.0
  O  O26  1  0.47114072  -0.07988749  0.25006660  1.0
  O  O27  1  0.52885928  1.07988749  0.75006660  1.0
  H  H28  1  0.01616903  0.66911257  0.15975787  1.0
  H  H29  1  0.98383097  0.33088743  0.65975787  1.0
  H  H30  1  0.48383097  0.16911257  0.65975787  1.0
  H  H31  1  0.51616903  0.83088743  0.15975787  1.0
  H  H32  1  -0.01660541  0.45199042  -0.08741996  1.0
  H  H33  1  1.01660541  0.54800958  0.41258004  1.0
  H  H34  1  0.51660541  -0.04800958  0.41258004  1.0
  H  H35  1  0.48339459  1.04800958  -0.08741996  1.0
  Li  Li36  1  0.69321058  0.18768416  0.80784922  1.0
  Li  Li37  1  0.30678942  0.81231584  0.30784922  1.0
  Li  Li38  1  0.80678942  0.68768416  0.30784922  1.0
  Li  Li39  1  0.19321058  0.31231584  0.80784922  1.0
