# generated using pymatgen
data_PHPbO4
_symmetry_space_group_name_H-M   'P 1'
_cell_length_a   4.77661494
_cell_length_b   6.67411730
_cell_length_c   5.88526643
_cell_angle_alpha   90.00000000
_cell_angle_beta   96.39012262
_cell_angle_gamma   90.00000000
_symmetry_Int_Tables_number   1
_chemical_formula_structural   PHPbO4
_chemical_formula_sum   'P2 H2 Pb2 O8'
_cell_volume   186.45479663
_cell_formula_units_Z   2
loop_
 _symmetry_equiv_pos_site_id
 _symmetry_equiv_pos_as_xyz
  1  'x, y, z'
loop_
 _atom_site_type_symbol
 _atom_site_label
 _atom_site_symmetry_multiplicity
 _atom_site_fract_x
 _atom_site_fract_y
 _atom_site_fract_z
 _atom_site_occupancy
  P  P0  1  -0.00000000  0.71517942  0.25000000  1.0
  P  P1  1  -0.00000000  0.28482058  0.75000000  1.0
  H  H2  1  0.00000000  0.00000000  0.50000000  1.0
  H  H3  1  0.00000000  0.00000000  0.00000000  1.0
  Pb  Pb4  1  0.50000000  0.30408569  0.25000000  1.0
  Pb  Pb5  1  0.50000000  0.69591431  0.75000000  1.0
  O  O6  1  0.87440870  0.85107671  0.43192466  1.0
  O  O7  1  0.87440870  0.14892329  0.93192466  1.0
  O  O8  1  0.12559130  0.85107671  0.06807534  1.0
  O  O9  1  0.12559130  0.14892329  0.56807534  1.0
  O  O10  1  0.75989600  0.58451197  0.12706460  1.0
  O  O11  1  0.75989600  0.41548803  0.62706460  1.0
  O  O12  1  0.24010400  0.58451197  0.37293540  1.0
  O  O13  1  0.24010400  0.41548803  0.87293540  1.0
