# generated using pymatgen
data_TaS2
_symmetry_space_group_name_H-M   'P 1'
_cell_length_a   3.35334539
_cell_length_b   3.35334539
_cell_length_c   25.54360842
_cell_angle_alpha   90.00000000
_cell_angle_beta   90.00000000
_cell_angle_gamma   120.00000000
_symmetry_Int_Tables_number   1
_chemical_formula_structural   TaS2
_chemical_formula_sum   'Ta4 S8'
_cell_volume   248.75364508
_cell_formula_units_Z   4
loop_
 _symmetry_equiv_pos_site_id
 _symmetry_equiv_pos_as_xyz
  1  'x, y, z'
loop_
 _atom_site_type_symbol
 _atom_site_label
 _atom_site_symmetry_multiplicity
 _atom_site_fract_x
 _atom_site_fract_y
 _atom_site_fract_z
 _atom_site_occupancy
  Ta  Ta0  1  0.00000000  0.00000000  0.25000000  1.0
  Ta  Ta1  1  0.00000000  0.00000000  0.75000000  1.0
  Ta  Ta2  1  0.00000000  0.00000000  0.50000000  1.0
  Ta  Ta3  1  0.00000000  0.00000000  0.00000000  1.0
  S  S4  1  0.33333333  0.66666667  0.31093116  1.0
  S  S5  1  0.33333333  0.66666667  0.18906884  1.0
  S  S6  1  0.66666667  0.33333333  0.81093116  1.0
  S  S7  1  0.66666667  0.33333333  0.68906884  1.0
  S  S8  1  0.33333333  0.66666667  0.93963396  1.0
  S  S9  1  0.33333333  0.66666667  0.56036604  1.0
  S  S10  1  0.66666667  0.33333333  0.43963396  1.0
  S  S11  1  0.66666667  0.33333333  0.06036604  1.0
