# generated using pymatgen
data_PbWO4
_symmetry_space_group_name_H-M   'P 1'
_cell_length_a   7.83321044
_cell_length_b   5.71692878
_cell_length_c   8.27299517
_cell_angle_alpha   90.00000000
_cell_angle_beta   106.63534029
_cell_angle_gamma   90.00000000
_symmetry_Int_Tables_number   1
_chemical_formula_structural   PbWO4
_chemical_formula_sum   'Pb4 W4 O16'
_cell_volume   354.97446950
_cell_formula_units_Z   4
loop_
 _symmetry_equiv_pos_site_id
 _symmetry_equiv_pos_as_xyz
  1  'x, y, z'
loop_
 _atom_site_type_symbol
 _atom_site_label
 _atom_site_symmetry_multiplicity
 _atom_site_fract_x
 _atom_site_fract_y
 _atom_site_fract_z
 _atom_site_occupancy
  Pb  Pb0  1  0.86443905  0.74997667  0.07665638  1.0
  Pb  Pb1  1  0.86443905  0.75002333  0.57665638  1.0
  Pb  Pb2  1  0.13556095  0.24997667  0.42334362  1.0
  Pb  Pb3  1  0.13556095  0.25002333  0.92334362  1.0
  W  W4  1  0.67225847  0.25000514  0.25865177  1.0
  W  W5  1  0.67225847  0.24999486  0.75865177  1.0
  W  W6  1  0.32774153  0.75000514  0.24134823  1.0
  W  W7  1  0.32774153  0.74999486  0.74134823  1.0
  O  O8  1  0.85445427  0.02478913  0.33861232  1.0
  O  O9  1  0.85445427  0.47521087  0.83861232  1.0
  O  O10  1  0.14554573  0.52478913  0.16138768  1.0
  O  O11  1  0.14554573  0.97521087  0.66138768  1.0
  O  O12  1  0.85444981  0.47518929  0.33868677  1.0
  O  O13  1  0.85444981  0.02481071  0.83868677  1.0
  O  O14  1  0.14555019  0.97518929  0.16131323  1.0
  O  O15  1  0.14555019  0.52481071  0.66131323  1.0
  O  O16  1  0.66516778  0.25012180  0.04117062  1.0
  O  O17  1  0.66516778  0.24987820  0.54117062  1.0
  O  O18  1  0.33483222  0.75012180  0.45882938  1.0
  O  O19  1  0.33483222  0.74987820  0.95882938  1.0
  O  O20  1  0.50000190  0.49999109  0.25005953  1.0
  O  O21  1  0.50000190  0.00000891  0.75005953  1.0
  O  O22  1  0.49999810  0.99999109  0.24994047  1.0
  O  O23  1  0.49999810  0.50000891  0.74994047  1.0
