# generated using pymatgen
data_K2Zn3(SeO3)4
_symmetry_space_group_name_H-M   'P 1'
_cell_length_a   7.36759229
_cell_length_b   7.36759229
_cell_length_c   13.92616496
_cell_angle_alpha   87.61110345
_cell_angle_beta   92.38889655
_cell_angle_gamma   104.91994184
_symmetry_Int_Tables_number   1
_chemical_formula_structural   K2Zn3(SeO3)4
_chemical_formula_sum   'K4 Zn6 Se8 O24'
_cell_volume   729.43693695
_cell_formula_units_Z   2
loop_
 _symmetry_equiv_pos_site_id
 _symmetry_equiv_pos_as_xyz
  1  'x, y, z'
loop_
 _atom_site_type_symbol
 _atom_site_label
 _atom_site_symmetry_multiplicity
 _atom_site_fract_x
 _atom_site_fract_y
 _atom_site_fract_z
 _atom_site_occupancy
  K  K0  1  1.77638365  0.19203905  0.01639799  1.0
  K  K1  1  0.80796095  -0.77638365  0.51639799  1.0
  K  K2  1  1.19203905  0.77638365  0.48360201  1.0
  K  K3  1  0.22361635  -0.19203905  0.98360201  1.0
  Zn  Zn4  1  0.61815087  -0.32152403  0.10457674  1.0
  Zn  Zn5  1  1.32152403  0.38184913  0.60457674  1.0
  Zn  Zn6  1  0.67847597  -0.38184913  0.39542326  1.0
  Zn  Zn7  1  1.38184913  0.32152403  0.89542326  1.0
  Zn  Zn8  1  1.01306825  0.01306825  0.25000000  1.0
  Zn  Zn9  1  0.98693175  -0.01306825  0.75000000  1.0
  Se  Se10  1  0.58519116  -0.02553192  0.28101629  1.0
  Se  Se11  1  1.02553192  0.41480884  0.78101629  1.0
  Se  Se12  1  0.97446808  -0.41480884  0.21898371  1.0
  Se  Se13  1  1.41480884  0.02553192  0.71898371  1.0
  Se  Se14  1  1.28937509  0.32218437  0.37181482  1.0
  Se  Se15  1  0.67781563  -0.28937509  0.87181482  1.0
  Se  Se16  1  1.32218437  0.28937509  0.12818518  1.0
  Se  Se17  1  0.71062491  -0.32218437  0.62818518  1.0
  O  O18  1  0.64870274  -0.18696204  0.97744830  1.0
  O  O19  1  1.18696204  0.35129726  0.47744830  1.0
  O  O20  1  0.81303796  -0.35129726  0.52255170  1.0
  O  O21  1  1.35129726  0.18696204  0.02255170  1.0
  O  O22  1  0.63916594  -0.08219998  0.16849811  1.0
  O  O23  1  1.08219998  0.36083406  0.66849811  1.0
  O  O24  1  0.91780002  -0.36083406  0.33150189  1.0
  O  O25  1  1.36083406  0.08219998  0.83150189  1.0
  O  O26  1  0.50472585  -0.23769498  0.34366050  1.0
  O  O27  1  1.23769498  0.49527415  0.84366050  1.0
  O  O28  1  0.76230502  -0.49527415  0.15633950  1.0
  O  O29  1  1.49527415  0.23769498  0.65633950  1.0
  O  O30  1  1.81044510  0.05515391  0.32904229  1.0
  O  O31  1  0.94484609  -0.81044510  0.82904229  1.0
  O  O32  1  1.05515391  0.81044510  0.17095771  1.0
  O  O33  1  0.18955490  -0.05515391  0.67095771  1.0
  O  O34  1  1.52214000  0.35096812  0.40740995  1.0
  O  O35  1  0.64903188  -0.52214000  0.90740995  1.0
  O  O36  1  1.35096812  0.52214000  0.09259005  1.0
  O  O37  1  0.47786000  -0.35096812  0.59259005  1.0
  O  O38  1  1.21727862  0.08306373  0.35617500  1.0
  O  O39  1  0.91693627  -0.21727862  0.85617500  1.0
  O  O40  1  1.08306373  0.21727862  0.14382500  1.0
  O  O41  1  0.78272138  -0.08306373  0.64382500  1.0
