# generated using pymatgen
data_Rb3IO
_symmetry_space_group_name_H-M   'P 1'
_cell_length_a   8.03900026
_cell_length_b   8.03900026
_cell_length_c   20.00189506
_cell_angle_alpha   90.00000000
_cell_angle_beta   90.00000000
_cell_angle_gamma   120.00000000
_symmetry_Int_Tables_number   1
_chemical_formula_structural   Rb3IO
_chemical_formula_sum   'Rb18 I6 O6'
_cell_volume   1119.45299334
_cell_formula_units_Z   6
loop_
 _symmetry_equiv_pos_site_id
 _symmetry_equiv_pos_as_xyz
  1  'x, y, z'
loop_
 _atom_site_type_symbol
 _atom_site_label
 _atom_site_symmetry_multiplicity
 _atom_site_fract_x
 _atom_site_fract_y
 _atom_site_fract_z
 _atom_site_occupancy
  Rb  Rb0  1  0.16603236  0.83396764  0.91912406  1.0
  Rb  Rb1  1  0.16603236  0.83396764  0.58087594  1.0
  Rb  Rb2  1  0.16603236  0.33206472  0.91912406  1.0
  Rb  Rb3  1  0.16603236  0.33206472  0.58087594  1.0
  Rb  Rb4  1  0.83396764  0.16603236  0.41912406  1.0
  Rb  Rb5  1  0.83396764  0.16603236  0.08087594  1.0
  Rb  Rb6  1  0.83396764  0.66793528  0.41912406  1.0
  Rb  Rb7  1  0.83396764  0.66793528  0.08087594  1.0
  Rb  Rb8  1  0.66793528  0.83396764  0.91912406  1.0
  Rb  Rb9  1  0.66793528  0.83396764  0.58087594  1.0
  Rb  Rb10  1  0.33206472  0.16603236  0.41912406  1.0
  Rb  Rb11  1  0.33206472  0.16603236  0.08087594  1.0
  Rb  Rb12  1  0.52005027  0.47994973  0.25000000  1.0
  Rb  Rb13  1  0.52005027  0.04010054  0.25000000  1.0
  Rb  Rb14  1  0.47994973  0.52005027  0.75000000  1.0
  Rb  Rb15  1  0.47994973  0.95989946  0.75000000  1.0
  Rb  Rb16  1  0.95989946  0.47994973  0.25000000  1.0
  Rb  Rb17  1  0.04010054  0.52005027  0.75000000  1.0
  I  I18  1  0.33333333  0.66666667  0.41367063  1.0
  I  I19  1  0.33333333  0.66666667  0.08632937  1.0
  I  I20  1  0.66666667  0.33333333  0.91367063  1.0
  I  I21  1  0.66666667  0.33333333  0.58632937  1.0
  I  I22  1  0.00000000  0.00000000  0.25000000  1.0
  I  I23  1  0.00000000  0.00000000  0.75000000  1.0
  O  O24  1  0.33333333  0.66666667  0.84075289  1.0
  O  O25  1  0.33333333  0.66666667  0.65924711  1.0
  O  O26  1  0.66666667  0.33333333  0.34075289  1.0
  O  O27  1  0.66666667  0.33333333  0.15924711  1.0
  O  O28  1  0.00000000  0.00000000  0.50000000  1.0
  O  O29  1  0.00000000  0.00000000  0.00000000  1.0
