# generated using pymatgen
data_LiCaBO3
_symmetry_space_group_name_H-M   'P 1'
_cell_length_a   6.11634101
_cell_length_b   13.28270487
_cell_length_c   6.26620692
_cell_angle_alpha   90.00000000
_cell_angle_beta   90.00000000
_cell_angle_gamma   90.00000000
_symmetry_Int_Tables_number   1
_chemical_formula_structural   LiCaBO3
_chemical_formula_sum   'Li8 Ca8 B8 O24'
_cell_volume   509.07637845
_cell_formula_units_Z   8
loop_
 _symmetry_equiv_pos_site_id
 _symmetry_equiv_pos_as_xyz
  1  'x, y, z'
loop_
 _atom_site_type_symbol
 _atom_site_label
 _atom_site_symmetry_multiplicity
 _atom_site_fract_x
 _atom_site_fract_y
 _atom_site_fract_z
 _atom_site_occupancy
  Li  Li0  1  0.47768466  0.25288632  0.30281968  1.0
  Li  Li1  1  0.47768466  0.24711368  0.80281968  1.0
  Li  Li2  1  0.97768466  0.25288632  0.19718032  1.0
  Li  Li3  1  0.97768466  0.24711368  0.69718032  1.0
  Li  Li4  1  0.52231534  0.75288632  0.19718032  1.0
  Li  Li5  1  0.52231534  0.74711368  0.69718032  1.0
  Li  Li6  1  0.02231534  0.75288632  0.30281968  1.0
  Li  Li7  1  0.02231534  0.74711368  0.80281968  1.0
  Ca  Ca8  1  0.24900875  0.42961962  0.01468016  1.0
  Ca  Ca9  1  0.24900875  0.07038038  0.51468016  1.0
  Ca  Ca10  1  0.74900875  0.42961962  0.48531984  1.0
  Ca  Ca11  1  0.74900875  0.07038038  0.98531984  1.0
  Ca  Ca12  1  0.75099125  0.92961962  0.48531984  1.0
  Ca  Ca13  1  0.75099125  0.57038038  0.98531984  1.0
  Ca  Ca14  1  0.25099125  0.92961962  0.01468016  1.0
  Ca  Ca15  1  0.25099125  0.57038038  0.51468016  1.0
  B  B16  1  0.25036496  0.14732363  0.02505164  1.0
  B  B17  1  0.25036496  0.35267637  0.52505164  1.0
  B  B18  1  0.75036496  0.14732363  0.47494836  1.0
  B  B19  1  0.75036496  0.35267637  0.97494836  1.0
  B  B20  1  0.74963504  0.64732363  0.47494836  1.0
  B  B21  1  0.74963504  0.85267637  0.97494836  1.0
  B  B22  1  0.24963504  0.64732363  0.02505164  1.0
  B  B23  1  0.24963504  0.85267637  0.52505164  1.0
  O  O24  1  0.38048367  0.40465287  0.37923872  1.0
  O  O25  1  0.38048367  0.09534713  0.87923872  1.0
  O  O26  1  0.88048367  0.40465287  0.12076128  1.0
  O  O27  1  0.88048367  0.09534713  0.62076128  1.0
  O  O28  1  0.61951633  0.90465287  0.12076128  1.0
  O  O29  1  0.61951633  0.59534713  0.62076128  1.0
  O  O30  1  0.11951633  0.90465287  0.37923872  1.0
  O  O31  1  0.11951633  0.59534713  0.87923872  1.0
  O  O32  1  0.27210350  0.25021131  0.04987159  1.0
  O  O33  1  0.27210350  0.24978869  0.54987159  1.0
  O  O34  1  0.77210350  0.25021131  0.45012841  1.0
  O  O35  1  0.77210350  0.24978869  0.95012841  1.0
  O  O36  1  0.72789650  0.75021131  0.45012841  1.0
  O  O37  1  0.72789650  0.74978869  0.95012841  1.0
  O  O38  1  0.22789650  0.75021131  0.04987159  1.0
  O  O39  1  0.22789650  0.74978869  0.54987159  1.0
  O  O40  1  0.09809234  0.09438330  0.14584995  1.0
  O  O41  1  0.09809234  0.40561670  0.64584995  1.0
  O  O42  1  0.59809234  0.09438330  0.35415005  1.0
  O  O43  1  0.59809234  0.40561670  0.85415005  1.0
  O  O44  1  0.90190766  0.59438330  0.35415005  1.0
  O  O45  1  0.90190766  0.90561670  0.85415005  1.0
  O  O46  1  0.40190766  0.59438330  0.14584995  1.0
  O  O47  1  0.40190766  0.90561670  0.64584995  1.0
