# generated using pymatgen
data_ZnP14Pb
_symmetry_space_group_name_H-M   'P 1'
_cell_length_a   13.12595711
_cell_length_b   9.87720374
_cell_length_c   10.80388730
_cell_angle_alpha   90.00000000
_cell_angle_beta   90.00000000
_cell_angle_gamma   90.00000000
_symmetry_Int_Tables_number   1
_chemical_formula_structural   ZnP14Pb
_chemical_formula_sum   'Zn4 P56 Pb4'
_cell_volume   1400.69970835
_cell_formula_units_Z   4
loop_
 _symmetry_equiv_pos_site_id
 _symmetry_equiv_pos_as_xyz
  1  'x, y, z'
loop_
 _atom_site_type_symbol
 _atom_site_label
 _atom_site_symmetry_multiplicity
 _atom_site_fract_x
 _atom_site_fract_y
 _atom_site_fract_z
 _atom_site_occupancy
  Zn  Zn0  1  0.17368771  0.75000000  1.00619867  1.0
  Zn  Zn1  1  0.67368771  0.75000000  0.49380133  1.0
  Zn  Zn2  1  0.82631229  0.25000000  -0.00619867  1.0
  Zn  Zn3  1  0.32631229  0.25000000  0.50619867  1.0
  P  P4  1  0.47554720  0.92214764  0.64836491  1.0
  P  P5  1  0.47554720  0.57785236  0.64836491  1.0
  P  P6  1  0.97554720  0.92214764  0.85163509  1.0
  P  P7  1  0.97554720  0.57785236  0.85163509  1.0
  P  P8  1  0.52445280  0.42214764  0.35163509  1.0
  P  P9  1  0.52445280  0.07785236  0.35163509  1.0
  P  P10  1  0.02445280  0.42214764  0.14836491  1.0
  P  P11  1  0.02445280  0.07785236  0.14836491  1.0
  P  P12  1  0.41448601  0.92248931  0.08990728  1.0
  P  P13  1  0.41448601  0.57751069  0.08990728  1.0
  P  P14  1  0.91448601  0.92248931  0.41009272  1.0
  P  P15  1  0.91448601  0.57751069  0.41009272  1.0
  P  P16  1  0.58551399  0.42248931  0.91009272  1.0
  P  P17  1  0.58551399  0.07751069  0.91009272  1.0
  P  P18  1  0.08551399  0.42248931  0.58990728  1.0
  P  P19  1  0.08551399  0.07751069  0.58990728  1.0
  P  P20  1  0.44238160  0.41694280  0.78667260  1.0
  P  P21  1  0.44238160  0.08305720  0.78667260  1.0
  P  P22  1  0.94238160  0.41694280  0.71332740  1.0
  P  P23  1  0.94238160  0.08305720  0.71332740  1.0
  P  P24  1  0.55761840  0.91694280  0.21332740  1.0
  P  P25  1  0.55761840  0.58305720  0.21332740  1.0
  P  P26  1  0.05761840  0.91694280  0.28667260  1.0
  P  P27  1  0.05761840  0.58305720  0.28667260  1.0
  P  P28  1  0.18424300  0.92150753  0.68011912  1.0
  P  P29  1  0.18424300  0.57849247  0.68011912  1.0
  P  P30  1  0.68424300  0.92150753  0.81988088  1.0
  P  P31  1  0.68424300  0.57849247  0.81988088  1.0
  P  P32  1  0.81575700  0.42150753  0.31988088  1.0
  P  P33  1  0.81575700  0.07849247  0.31988088  1.0
  P  P34  1  0.31575700  0.42150753  0.18011912  1.0
  P  P35  1  0.31575700  0.07849247  0.18011912  1.0
  P  P36  1  0.14123127  0.94630940  0.87589747  1.0
  P  P37  1  0.14123127  0.55369060  0.87589747  1.0
  P  P38  1  0.64123127  0.94630940  0.62410253  1.0
  P  P39  1  0.64123127  0.55369060  0.62410253  1.0
  P  P40  1  0.85876873  0.44630940  0.12410253  1.0
  P  P41  1  0.85876873  0.05369060  0.12410253  1.0
  P  P42  1  0.35876873  0.44630940  0.37589747  1.0
  P  P43  1  0.35876873  0.05369060  0.37589747  1.0
  P  P44  1  0.45095379  0.75000000  0.77805043  1.0
  P  P45  1  0.95095379  0.75000000  0.72194957  1.0
  P  P46  1  0.54904621  0.25000000  0.22194957  1.0
  P  P47  1  0.04904621  0.25000000  0.27805043  1.0
  P  P48  1  0.31798914  0.75000000  0.15130988  1.0
  P  P49  1  0.81798914  0.75000000  0.34869012  1.0
  P  P50  1  0.68201086  0.25000000  0.84869012  1.0
  P  P51  1  0.18201086  0.25000000  0.65130988  1.0
  P  P52  1  0.09321997  0.75000000  0.60559035  1.0
  P  P53  1  0.59321997  0.75000000  0.89440965  1.0
  P  P54  1  0.90678003  0.25000000  0.39440965  1.0
  P  P55  1  0.40678003  0.25000000  0.10559035  1.0
  P  P56  1  0.02787938  0.75000000  0.15396870  1.0
  P  P57  1  0.52787938  0.75000000  0.34603130  1.0
  P  P58  1  0.97212062  0.25000000  0.84603130  1.0
  P  P59  1  0.47212062  0.25000000  0.65396870  1.0
  Pb  Pb60  1  0.82210713  0.75000000  0.08527314  1.0
  Pb  Pb61  1  0.32210713  0.75000000  0.41472686  1.0
  Pb  Pb62  1  0.17789287  0.25000000  0.91472686  1.0
  Pb  Pb63  1  0.67789287  0.25000000  0.58527314  1.0
