# generated using pymatgen
data_Eu(SiAu)2
_symmetry_space_group_name_H-M   'P 1'
_cell_length_a   5.95155382
_cell_length_b   5.95155382
_cell_length_c   5.95155382
_cell_angle_alpha   137.03477827
_cell_angle_beta   137.03477827
_cell_angle_gamma   62.38454436
_symmetry_Int_Tables_number   1
_chemical_formula_structural   Eu(SiAu)2
_chemical_formula_sum   'Eu1 Si2 Au2'
_cell_volume   96.74287698
_cell_formula_units_Z   1
loop_
 _symmetry_equiv_pos_site_id
 _symmetry_equiv_pos_as_xyz
  1  'x, y, z'
loop_
 _atom_site_type_symbol
 _atom_site_label
 _atom_site_symmetry_multiplicity
 _atom_site_fract_x
 _atom_site_fract_y
 _atom_site_fract_z
 _atom_site_occupancy
  Eu  Eu0  1  0.00000000  0.00000000  0.00000000  1.0
  Si  Si1  1  0.61468508  0.61468508  1.00000000  1.0
  Si  Si2  1  0.38531492  0.38531492  -0.00000000  1.0
  Au  Au3  1  0.25000000  0.75000000  0.50000000  1.0
  Au  Au4  1  0.75000000  0.25000000  0.50000000  1.0
