# generated using pymatgen
data_Hg3C2(N2Cl)2
_symmetry_space_group_name_H-M   'P 1'
_cell_length_a   7.36775649
_cell_length_b   10.93535936
_cell_length_c   10.71911532
_cell_angle_alpha   90.00000000
_cell_angle_beta   90.00000000
_cell_angle_gamma   90.00000000
_symmetry_Int_Tables_number   1
_chemical_formula_structural   Hg3C2(N2Cl)2
_chemical_formula_sum   'Hg12 C8 N16 Cl8'
_cell_volume   863.62909721
_cell_formula_units_Z   4
loop_
 _symmetry_equiv_pos_site_id
 _symmetry_equiv_pos_as_xyz
  1  'x, y, z'
loop_
 _atom_site_type_symbol
 _atom_site_label
 _atom_site_symmetry_multiplicity
 _atom_site_fract_x
 _atom_site_fract_y
 _atom_site_fract_z
 _atom_site_occupancy
  Hg  Hg0  1  0.77048038  0.29272926  0.43969088  1.0
  Hg  Hg1  1  0.27048038  0.70727074  0.43969088  1.0
  Hg  Hg2  1  0.22951962  0.70727074  0.93969088  1.0
  Hg  Hg3  1  0.72951962  0.29272926  0.93969088  1.0
  Hg  Hg4  1  0.78992721  0.58259457  0.12270364  1.0
  Hg  Hg5  1  0.28992721  0.41740543  0.12270364  1.0
  Hg  Hg6  1  0.21007279  0.41740543  0.62270364  1.0
  Hg  Hg7  1  0.71007279  0.58259457  0.62270364  1.0
  Hg  Hg8  1  0.00334809  0.05365790  0.07958711  1.0
  Hg  Hg9  1  0.50334809  0.94634210  0.07958711  1.0
  Hg  Hg10  1  0.99665191  0.94634210  0.57958711  1.0
  Hg  Hg11  1  0.49665191  0.05365790  0.57958711  1.0
  C  C12  1  0.64024391  0.05864950  0.32131790  1.0
  C  C13  1  0.14024391  0.94135050  0.32131790  1.0
  C  C14  1  0.35975609  0.94135050  0.82131790  1.0
  C  C15  1  0.85975609  0.05864950  0.82131790  1.0
  C  C16  1  0.87968610  0.54425615  0.37722163  1.0
  C  C17  1  0.37968610  0.45574385  0.37722163  1.0
  C  C18  1  0.12031390  0.45574385  0.87722163  1.0
  C  C19  1  0.62031390  0.54425615  0.87722163  1.0
  N  N20  1  0.63705577  0.11722609  0.42238407  1.0
  N  N21  1  0.13705577  0.88277391  0.42238407  1.0
  N  N22  1  0.36294423  0.88277391  0.92238407  1.0
  N  N23  1  0.86294423  0.11722609  0.92238407  1.0
  N  N24  1  0.66239060  0.00060341  0.22704559  1.0
  N  N25  1  0.16239060  0.99939659  0.22704559  1.0
  N  N26  1  0.33760940  0.99939659  0.72704559  1.0
  N  N27  1  0.83760940  0.00060341  0.72704559  1.0
  N  N28  1  0.83131717  0.48477961  0.47184341  1.0
  N  N29  1  0.33131717  0.51522039  0.47184341  1.0
  N  N30  1  0.16868283  0.51522039  0.97184341  1.0
  N  N31  1  0.66868283  0.48477961  0.97184341  1.0
  N  N32  1  0.93919398  0.60078161  0.28907959  1.0
  N  N33  1  0.43919398  0.39921839  0.28907959  1.0
  N  N34  1  0.06080602  0.39921839  0.78907959  1.0
  N  N35  1  0.56080602  0.60078161  0.78907959  1.0
  Cl  Cl36  1  0.92591031  0.29972837  0.17920991  1.0
  Cl  Cl37  1  0.42591031  0.70027163  0.17920991  1.0
  Cl  Cl38  1  0.07408969  0.70027163  0.67920991  1.0
  Cl  Cl39  1  0.57408969  0.29972837  0.67920991  1.0
  Cl  Cl40  1  0.11331898  0.20477235  0.50571626  1.0
  Cl  Cl41  1  0.61331898  0.79522765  0.50571626  1.0
  Cl  Cl42  1  0.88668102  0.79522765  0.00571626  1.0
  Cl  Cl43  1  0.38668102  0.20477235  0.00571626  1.0
