# generated using pymatgen
data_NaEuP2H4CO7
_symmetry_space_group_name_H-M   'P 1'
_cell_length_a   6.80584808
_cell_length_b   15.30335681
_cell_length_c   6.78501518
_cell_angle_alpha   90.00000000
_cell_angle_beta   91.09868892
_cell_angle_gamma   90.00000000
_symmetry_Int_Tables_number   1
_chemical_formula_structural   NaEuP2H4CO7
_chemical_formula_sum   'Na4 Eu4 P8 H16 C4 O28'
_cell_volume   706.54516210
_cell_formula_units_Z   4
loop_
 _symmetry_equiv_pos_site_id
 _symmetry_equiv_pos_as_xyz
  1  'x, y, z'
loop_
 _atom_site_type_symbol
 _atom_site_label
 _atom_site_symmetry_multiplicity
 _atom_site_fract_x
 _atom_site_fract_y
 _atom_site_fract_z
 _atom_site_occupancy
  Na  Na0  1  0.30696368  0.97085435  0.86558863  1.0
  Na  Na1  1  0.69303632  0.47085435  0.63441137  1.0
  Na  Na2  1  0.69303632  0.02914565  0.13441137  1.0
  Na  Na3  1  0.30696368  0.52914565  0.36558863  1.0
  Eu  Eu4  1  0.82546062  0.90103362  0.59989447  1.0
  Eu  Eu5  1  0.17453938  0.40103362  0.90010553  1.0
  Eu  Eu6  1  0.17453938  0.09896638  0.40010553  1.0
  Eu  Eu7  1  0.82546062  0.59896638  0.09989447  1.0
  P  P8  1  0.68070071  0.09657666  0.63299600  1.0
  P  P9  1  0.31929929  0.59657666  0.86700400  1.0
  P  P10  1  0.31929929  0.90342334  0.36700400  1.0
  P  P11  1  0.68070071  0.40342334  0.13299600  1.0
  P  P12  1  0.96709959  0.83991456  0.10448238  1.0
  P  P13  1  0.03290041  0.33991456  0.39551762  1.0
  P  P14  1  0.03290041  0.16008544  0.89551762  1.0
  P  P15  1  0.96709959  0.66008544  0.60448238  1.0
  H  H16  1  0.50030910  0.81036809  0.73581419  1.0
  H  H17  1  0.49969090  0.31036809  0.76418581  1.0
  H  H18  1  0.49969090  0.18963191  0.26418581  1.0
  H  H19  1  0.50030910  0.68963191  0.23581419  1.0
  H  H20  1  0.63515999  0.78802048  0.92160467  1.0
  H  H21  1  0.36484001  0.28802048  0.57839533  1.0
  H  H22  1  0.36484001  0.21197952  0.07839533  1.0
  H  H23  1  0.63515999  0.71197952  0.42160467  1.0
  H  H24  1  0.81766058  0.24015791  0.67979078  1.0
  H  H25  1  0.18233942  0.74015791  0.82020922  1.0
  H  H26  1  0.18233942  0.75984209  0.32020922  1.0
  H  H27  1  0.81766058  0.25984209  0.17979078  1.0
  H  H28  1  0.69000803  0.20257101  0.88976970  1.0
  H  H29  1  0.30999197  0.70257101  0.61023030  1.0
  H  H30  1  0.30999197  0.79742899  0.11023030  1.0
  H  H31  1  0.69000803  0.29742899  0.38976970  1.0
  C  C32  1  0.79549889  0.18367002  0.77654261  1.0
  C  C33  1  0.20450111  0.68367002  0.72345739  1.0
  C  C34  1  0.20450111  0.81632998  0.22345739  1.0
  C  C35  1  0.79549889  0.31632998  0.27654261  1.0
  O  O36  1  0.84982905  0.89856872  0.24386898  1.0
  O  O37  1  0.15017095  0.39856872  0.25613102  1.0
  O  O38  1  0.15017095  0.10143128  0.75613102  1.0
  O  O39  1  0.84982905  0.60143128  0.74386898  1.0
  O  O40  1  0.63611279  0.01896230  0.77258206  1.0
  O  O41  1  0.36388721  0.51896230  0.72741794  1.0
  O  O42  1  0.36388721  0.98103770  0.22741794  1.0
  O  O43  1  0.63611279  0.48103770  0.27258206  1.0
  O  O44  1  0.82856773  0.06037631  0.47821852  1.0
  O  O45  1  0.17143227  0.56037631  0.02178148  1.0
  O  O46  1  0.17143227  0.93962369  0.52178148  1.0
  O  O47  1  0.82856773  0.43962369  0.97821852  1.0
  O  O48  1  0.00750787  0.88653847  0.90640001  1.0
  O  O49  1  0.99249213  0.38653847  0.59359999  1.0
  O  O50  1  0.99249213  0.11346153  0.09359999  1.0
  O  O51  1  0.00750787  0.61346153  0.40640001  1.0
  O  O52  1  0.49951558  0.13654897  0.52970420  1.0
  O  O53  1  0.50048442  0.63654897  0.97029580  1.0
  O  O54  1  0.50048442  0.86345103  0.47029580  1.0
  O  O55  1  0.49951558  0.36345103  0.02970420  1.0
  O  O56  1  0.86640995  0.75013832  0.06668614  1.0
  O  O57  1  0.13359005  0.25013832  0.43331386  1.0
  O  O58  1  0.13359005  0.24986168  0.93331386  1.0
  O  O59  1  0.86640995  0.74986168  0.56668614  1.0
  O  O60  1  0.56561962  0.83584549  0.85196992  1.0
  O  O61  1  0.43438038  0.33584549  0.64803008  1.0
  O  O62  1  0.43438038  0.16415451  0.14803008  1.0
  O  O63  1  0.56561962  0.66415451  0.35196992  1.0
