# generated using pymatgen
data_LiMnGaF6
_symmetry_space_group_name_H-M   'P 1'
_cell_length_a   8.77449650
_cell_length_b   8.77449650
_cell_length_c   4.79974390
_cell_angle_alpha   90.00000000
_cell_angle_beta   90.00000000
_cell_angle_gamma   120.00000000
_symmetry_Int_Tables_number   1
_chemical_formula_structural   LiMnGaF6
_chemical_formula_sum   'Li3 Mn3 Ga3 F18'
_cell_volume   320.03178007
_cell_formula_units_Z   3
loop_
 _symmetry_equiv_pos_site_id
 _symmetry_equiv_pos_as_xyz
  1  'x, y, z'
loop_
 _atom_site_type_symbol
 _atom_site_label
 _atom_site_symmetry_multiplicity
 _atom_site_fract_x
 _atom_site_fract_y
 _atom_site_fract_z
 _atom_site_occupancy
  Li  Li0  1  0.29327461  0.29327461  0.50000000  1.0
  Li  Li1  1  -0.00000000  0.70672539  0.50000000  1.0
  Li  Li2  1  0.70672539  -0.00000000  0.50000000  1.0
  Mn  Mn3  1  0.63648441  0.63648441  -0.00000000  1.0
  Mn  Mn4  1  -0.00000000  0.36351559  0.00000000  1.0
  Mn  Mn5  1  0.36351559  0.00000000  0.00000000  1.0
  Ga  Ga6  1  0.33333333  0.66666667  0.49677217  1.0
  Ga  Ga7  1  0.66666667  0.33333333  0.50322783  1.0
  Ga  Ga8  1  0.00000000  0.00000000  0.00000000  1.0
  F  F9  1  0.11261287  0.90171113  0.22210290  1.0
  F  F10  1  0.90171113  0.11261287  0.77789710  1.0
  F  F11  1  0.78909826  0.88738713  0.22210290  1.0
  F  F12  1  0.09828887  0.21090174  0.22210290  1.0
  F  F13  1  0.88738713  0.78909826  0.77789710  1.0
  F  F14  1  0.21090174  0.09828887  0.77789710  1.0
  F  F15  1  0.45508503  0.87518794  0.27004408  1.0
  F  F16  1  0.87518794  0.45508503  0.72995592  1.0
  F  F17  1  0.42010292  0.54491497  0.27004408  1.0
  F  F18  1  0.12481206  0.57989708  0.27004408  1.0
  F  F19  1  0.54491497  0.42010292  0.72995592  1.0
  F  F20  1  0.57989708  0.12481206  0.72995592  1.0
  F  F21  1  0.76621859  0.54452505  0.28228616  1.0
  F  F22  1  0.54452505  0.76621859  0.71771384  1.0
  F  F23  1  0.77830646  0.23378141  0.28228616  1.0
  F  F24  1  0.45547495  0.22169354  0.28228616  1.0
  F  F25  1  0.23378141  0.77830646  0.71771384  1.0
  F  F26  1  0.22169354  0.45547495  0.71771384  1.0
