# generated using pymatgen
data_Na3Si17
_symmetry_space_group_name_H-M   'P 1'
_cell_length_a   10.45428770
_cell_length_b   10.45428770
_cell_length_c   10.45428770
_cell_angle_alpha   60.00000000
_cell_angle_beta   60.00000000
_cell_angle_gamma   60.00000000
_symmetry_Int_Tables_number   1
_chemical_formula_structural   Na3Si17
_chemical_formula_sum   'Na6 Si34'
_cell_volume   807.91997312
_cell_formula_units_Z   2
loop_
 _symmetry_equiv_pos_site_id
 _symmetry_equiv_pos_as_xyz
  1  'x, y, z'
loop_
 _atom_site_type_symbol
 _atom_site_label
 _atom_site_symmetry_multiplicity
 _atom_site_fract_x
 _atom_site_fract_y
 _atom_site_fract_z
 _atom_site_occupancy
  Na  Na0  1  -0.00000000  -0.00000000  1.00000000  1.0
  Na  Na1  1  0.25000000  0.25000000  0.25000000  1.0
  Na  Na2  1  -0.37500000  0.62500000  0.62500000  1.0
  Na  Na3  1  -0.37500000  0.62500000  1.12500000  1.0
  Na  Na4  1  0.62500000  1.12500000  -0.37500000  1.0
  Na  Na5  1  0.12500000  0.62500000  0.62500000  1.0
  Si  Si6  1  0.75000000  0.75000000  -0.25000000  1.0
  Si  Si7  1  0.50000000  0.50000000  0.50000000  1.0
  Si  Si8  1  0.38858695  0.61894969  -0.00376832  1.0
  Si  Si9  1  0.61894969  0.38858695  -0.00376832  1.0
  Si  Si10  1  0.99623168  0.99623168  -0.61141305  1.0
  Si  Si11  1  0.99623168  0.99623168  -0.38105031  1.0
  Si  Si12  1  -0.00376832  0.38858695  0.61894969  1.0
  Si  Si13  1  -0.00376832  0.61894969  0.38858695  1.0
  Si  Si14  1  -0.61141305  0.99623168  0.99623168  1.0
  Si  Si15  1  -0.38105031  0.99623168  0.99623168  1.0
  Si  Si16  1  0.61894969  -0.00376832  0.38858695  1.0
  Si  Si17  1  0.38858695  -0.00376832  0.61894969  1.0
  Si  Si18  1  -0.00376832  0.38858695  0.99623168  1.0
  Si  Si19  1  -0.00376832  0.61894969  0.99623168  1.0
  Si  Si20  1  0.86141305  0.63105031  0.25376832  1.0
  Si  Si21  1  0.63105031  0.86141305  0.25376832  1.0
  Si  Si22  1  0.25376832  0.25376832  0.63105031  1.0
  Si  Si23  1  0.25376832  0.25376832  0.86141305  1.0
  Si  Si24  1  0.25376832  -0.13858695  0.25376832  1.0
  Si  Si25  1  0.25376832  1.63105031  0.25376832  1.0
  Si  Si26  1  -0.13858695  0.25376832  0.63105031  1.0
  Si  Si27  1  0.63105031  1.25376832  -0.13858695  1.0
  Si  Si28  1  0.63105031  1.25376832  0.25376832  1.0
  Si  Si29  1  -0.13858695  0.25376832  1.25376832  1.0
  Si  Si30  1  0.25376832  -0.13858695  0.63105031  1.0
  Si  Si31  1  1.25376832  0.63105031  -0.13858695  1.0
  Si  Si32  1  -0.52894266  0.84298089  0.84298089  1.0
  Si  Si33  1  -0.15701911  0.47105734  0.84298089  1.0
  Si  Si34  1  0.84298089  0.84298089  -0.52894266  1.0
  Si  Si35  1  0.84298089  0.84298089  -0.15701911  1.0
  Si  Si36  1  -0.22105734  0.40701911  1.40701911  1.0
  Si  Si37  1  0.40701911  -0.22105734  0.40701911  1.0
  Si  Si38  1  0.40701911  0.40701911  0.40701911  1.0
  Si  Si39  1  0.40701911  0.40701911  0.77894266  1.0
