# generated using pymatgen
data_BaHClO
_symmetry_space_group_name_H-M   'P 1'
_cell_length_a   7.40447135
_cell_length_b   4.32340516
_cell_length_c   10.28661484
_cell_angle_alpha   90.00000000
_cell_angle_beta   90.00000000
_cell_angle_gamma   90.00000000
_symmetry_Int_Tables_number   1
_chemical_formula_structural   BaHClO
_chemical_formula_sum   'Ba4 H4 Cl4 O4'
_cell_volume   329.30056226
_cell_formula_units_Z   4
loop_
 _symmetry_equiv_pos_site_id
 _symmetry_equiv_pos_as_xyz
  1  'x, y, z'
loop_
 _atom_site_type_symbol
 _atom_site_label
 _atom_site_symmetry_multiplicity
 _atom_site_fract_x
 _atom_site_fract_y
 _atom_site_fract_z
 _atom_site_occupancy
  Ba  Ba0  1  0.70141239  0.75000000  0.40012594  1.0
  Ba  Ba1  1  0.20141239  0.75000000  0.09987406  1.0
  Ba  Ba2  1  0.29858761  0.25000000  0.59987406  1.0
  Ba  Ba3  1  0.79858761  0.25000000  0.90012594  1.0
  H  H4  1  0.74879208  0.75000000  0.09485086  1.0
  H  H5  1  0.24879208  0.75000000  0.40514914  1.0
  H  H6  1  0.25120792  0.25000000  0.90514914  1.0
  H  H7  1  0.75120792  0.25000000  0.59485086  1.0
  Cl  Cl8  1  0.96478190  0.75000000  0.67438941  1.0
  Cl  Cl9  1  0.46478190  0.75000000  0.82561059  1.0
  Cl  Cl10  1  0.03521810  0.25000000  0.32561059  1.0
  Cl  Cl11  1  0.53521810  0.25000000  0.17438941  1.0
  O  O12  1  0.85592741  0.75000000  0.04027684  1.0
  O  O13  1  0.35592741  0.75000000  0.45972316  1.0
  O  O14  1  0.14407259  0.25000000  0.95972316  1.0
  O  O15  1  0.64407259  0.25000000  0.54027684  1.0
