# generated using pymatgen
data_ScSiNi
_symmetry_space_group_name_H-M   'P 1'
_cell_length_a   6.43138849
_cell_length_b   4.01235012
_cell_length_c   6.96283653
_cell_angle_alpha   90.00000000
_cell_angle_beta   90.00000000
_cell_angle_gamma   90.00000000
_symmetry_Int_Tables_number   1
_chemical_formula_structural   ScSiNi
_chemical_formula_sum   'Sc4 Si4 Ni4'
_cell_volume   179.67587413
_cell_formula_units_Z   4
loop_
 _symmetry_equiv_pos_site_id
 _symmetry_equiv_pos_as_xyz
  1  'x, y, z'
loop_
 _atom_site_type_symbol
 _atom_site_label
 _atom_site_symmetry_multiplicity
 _atom_site_fract_x
 _atom_site_fract_y
 _atom_site_fract_z
 _atom_site_occupancy
  Sc  Sc0  1  1.00645968  0.75000000  0.70260887  1.0
  Sc  Sc1  1  0.50645968  0.75000000  0.79739113  1.0
  Sc  Sc2  1  -0.00645968  0.25000000  0.29739113  1.0
  Sc  Sc3  1  0.49354032  0.25000000  0.20260887  1.0
  Si  Si4  1  0.69908599  0.75000000  0.40679104  1.0
  Si  Si5  1  0.19908599  0.75000000  0.09320896  1.0
  Si  Si6  1  0.30091401  0.25000000  0.59320896  1.0
  Si  Si7  1  0.80091401  0.25000000  0.90679104  1.0
  Ni  Ni8  1  0.81500522  0.75000000  0.07958119  1.0
  Ni  Ni9  1  0.31500522  0.75000000  0.42041881  1.0
  Ni  Ni10  1  0.18499478  0.25000000  0.92041881  1.0
  Ni  Ni11  1  0.68499478  0.25000000  0.57958119  1.0
