# generated using pymatgen
data_BaCu(SeO3)2
_symmetry_space_group_name_H-M   'P 1'
_cell_length_a   5.47074045
_cell_length_b   13.38396594
_cell_length_c   9.02204651
_cell_angle_alpha   90.00000000
_cell_angle_beta   90.77484580
_cell_angle_gamma   90.00000000
_symmetry_Int_Tables_number   1
_chemical_formula_structural   BaCu(SeO3)2
_chemical_formula_sum   'Ba4 Cu4 Se8 O24'
_cell_volume   660.53567735
_cell_formula_units_Z   4
loop_
 _symmetry_equiv_pos_site_id
 _symmetry_equiv_pos_as_xyz
  1  'x, y, z'
loop_
 _atom_site_type_symbol
 _atom_site_label
 _atom_site_symmetry_multiplicity
 _atom_site_fract_x
 _atom_site_fract_y
 _atom_site_fract_z
 _atom_site_occupancy
  Ba  Ba0  1  0.77949716  0.70115252  0.30804088  1.0
  Ba  Ba1  1  0.77949716  0.79884748  0.80804088  1.0
  Ba  Ba2  1  0.22050284  0.20115252  0.19195912  1.0
  Ba  Ba3  1  0.22050284  0.29884748  0.69195912  1.0
  Cu  Cu4  1  0.76623878  0.36762269  0.40039990  1.0
  Cu  Cu5  1  0.76623878  0.13237731  0.90039990  1.0
  Cu  Cu6  1  0.23376122  0.86762269  0.09960010  1.0
  Cu  Cu7  1  0.23376122  0.63237731  0.59960010  1.0
  Se  Se8  1  0.72115632  0.35968089  0.03655797  1.0
  Se  Se9  1  0.72115632  0.14031911  0.53655797  1.0
  Se  Se10  1  0.27884368  0.85968089  0.46344203  1.0
  Se  Se11  1  0.27884368  0.64031911  0.96344203  1.0
  Se  Se12  1  0.69361450  0.99085605  0.20988825  1.0
  Se  Se13  1  0.69361450  0.50914395  0.70988825  1.0
  Se  Se14  1  0.30638550  0.49085605  0.29011175  1.0
  Se  Se15  1  0.30638550  0.00914395  0.79011175  1.0
  O  O16  1  0.90654571  0.22944792  0.45338227  1.0
  O  O17  1  0.90654571  0.27055208  0.95338227  1.0
  O  O18  1  0.09345429  0.72944792  0.04661773  1.0
  O  O19  1  0.09345429  0.77055208  0.54661773  1.0
  O  O20  1  0.80334254  0.09076135  0.10693266  1.0
  O  O21  1  0.80334254  0.40923865  0.60693266  1.0
  O  O22  1  0.19665746  0.59076135  0.39306734  1.0
  O  O23  1  0.19665746  0.90923865  0.89306734  1.0
  O  O24  1  0.78449767  0.88293349  0.12904549  1.0
  O  O25  1  0.78449767  0.61706651  0.62904549  1.0
  O  O26  1  0.21550233  0.38293349  0.37095451  1.0
  O  O27  1  0.21550233  0.11706651  0.87095451  1.0
  O  O28  1  0.70728712  0.30262859  0.21005162  1.0
  O  O29  1  0.70728712  0.19737141  0.71005162  1.0
  O  O30  1  0.29271288  0.80262859  0.28994838  1.0
  O  O31  1  0.29271288  0.69737141  0.78994838  1.0
  O  O32  1  0.62003937  0.49614972  0.32876593  1.0
  O  O33  1  0.62003937  0.00385028  0.82876593  1.0
  O  O34  1  0.37996063  0.99614972  0.17123407  1.0
  O  O35  1  0.37996063  0.50385028  0.67123407  1.0
  O  O36  1  0.43533841  0.16492679  0.47173044  1.0
  O  O37  1  0.43533841  0.33507321  0.97173044  1.0
  O  O38  1  0.56466159  0.66492679  0.02826956  1.0
  O  O39  1  0.56466159  0.83507321  0.52826956  1.0
