# generated using pymatgen
data_KHgB(CN)4
_symmetry_space_group_name_H-M   'P 1'
_cell_length_a   8.80351736
_cell_length_b   13.28743789
_cell_length_c   8.76255808
_cell_angle_alpha   90.00000000
_cell_angle_beta   116.94821349
_cell_angle_gamma   90.00000000
_symmetry_Int_Tables_number   1
_chemical_formula_structural   KHgB(CN)4
_chemical_formula_sum   'K4 Hg4 B4 C16 N16'
_cell_volume   913.71141215
_cell_formula_units_Z   4
loop_
 _symmetry_equiv_pos_site_id
 _symmetry_equiv_pos_as_xyz
  1  'x, y, z'
loop_
 _atom_site_type_symbol
 _atom_site_label
 _atom_site_symmetry_multiplicity
 _atom_site_fract_x
 _atom_site_fract_y
 _atom_site_fract_z
 _atom_site_occupancy
  K  K0  1  0.08618269  0.13831958  0.10215493  1.0
  K  K1  1  0.91381731  0.63831958  0.39784507  1.0
  K  K2  1  0.91381731  0.86168042  0.89784507  1.0
  K  K3  1  0.08618269  0.36168042  0.60215493  1.0
  Hg  Hg4  1  0.53388629  0.32219892  0.45289813  1.0
  Hg  Hg5  1  0.46611371  0.82219892  0.04710187  1.0
  Hg  Hg6  1  0.46611371  0.67780108  0.54710187  1.0
  Hg  Hg7  1  0.53388629  0.17780108  0.95289813  1.0
  B  B8  1  0.35979797  0.42221616  0.24590617  1.0
  B  B9  1  0.64020203  0.92221616  0.25409383  1.0
  B  B10  1  0.64020203  0.57778384  0.75409383  1.0
  B  B11  1  0.35979797  0.07778384  0.74590617  1.0
  C  C12  1  0.22355880  0.46163729  0.30026952  1.0
  C  C13  1  0.77644120  0.96163729  0.19973048  1.0
  C  C14  1  0.77644120  0.53836271  0.69973048  1.0
  C  C15  1  0.22355880  0.03836271  0.80026952  1.0
  C  C16  1  0.47165994  0.51132199  0.23627202  1.0
  C  C17  1  0.52834006  0.01132199  0.26372798  1.0
  C  C18  1  0.52834006  0.48867801  0.76372798  1.0
  C  C19  1  0.47165994  0.98867801  0.73627202  1.0
  C  C20  1  0.27861082  0.35732903  0.07939972  1.0
  C  C21  1  0.72138918  0.85732903  0.42060028  1.0
  C  C22  1  0.72138918  0.64267097  0.92060028  1.0
  C  C23  1  0.27861082  0.14267097  0.57939972  1.0
  C  C24  1  0.70501228  0.23786092  0.66682799  1.0
  C  C25  1  0.29498772  0.73786092  0.83317201  1.0
  C  C26  1  0.29498772  0.76213908  0.33317201  1.0
  C  C27  1  0.70501228  0.26213908  0.16682799  1.0
  N  N28  1  0.12709271  0.49190829  0.34668008  1.0
  N  N29  1  0.87290729  0.99190829  0.15331992  1.0
  N  N30  1  0.87290729  0.50809171  0.65331992  1.0
  N  N31  1  0.12709271  0.00809171  0.84668008  1.0
  N  N32  1  0.55790857  0.57876684  0.23941314  1.0
  N  N33  1  0.44209143  0.07876684  0.26058686  1.0
  N  N34  1  0.44209143  0.42123316  0.76058686  1.0
  N  N35  1  0.55790857  0.92123316  0.73941314  1.0
  N  N36  1  0.22003347  0.30544696  0.95882889  1.0
  N  N37  1  0.77996653  0.80544696  0.54117111  1.0
  N  N38  1  0.77996653  0.69455304  0.04117111  1.0
  N  N39  1  0.22003347  0.19455304  0.45882889  1.0
  N  N40  1  0.79604388  0.19793334  0.79455003  1.0
  N  N41  1  0.20395612  0.69793334  0.70544997  1.0
  N  N42  1  0.20395612  0.80206666  0.20544997  1.0
  N  N43  1  0.79604388  0.30206666  0.29455003  1.0
