# generated using pymatgen
data_NaLiY2F8
_symmetry_space_group_name_H-M   'P 1'
_cell_length_a   6.75167276
_cell_length_b   6.75167276
_cell_length_c   7.10691023
_cell_angle_alpha   89.99735643
_cell_angle_beta   90.00264357
_cell_angle_gamma   103.46816427
_symmetry_Int_Tables_number   1
_chemical_formula_structural   NaLiY2F8
_chemical_formula_sum   'Na2 Li2 Y4 F16'
_cell_volume   315.05978847
_cell_formula_units_Z   2
loop_
 _symmetry_equiv_pos_site_id
 _symmetry_equiv_pos_as_xyz
  1  'x, y, z'
loop_
 _atom_site_type_symbol
 _atom_site_label
 _atom_site_symmetry_multiplicity
 _atom_site_fract_x
 _atom_site_fract_y
 _atom_site_fract_z
 _atom_site_occupancy
  Na  Na0  1  1.34105942  0.34105942  0.25000000  1.0
  Na  Na1  1  0.65894058  -0.34105942  0.75000000  1.0
  Li  Li2  1  0.00000000  -0.00000000  0.50000000  1.0
  Li  Li3  1  0.00000000  0.00000000  0.00000000  1.0
  Y  Y4  1  0.55027856  -0.07607049  0.24999604  1.0
  Y  Y5  1  1.07607049  0.44972144  0.74999604  1.0
  Y  Y6  1  0.92392951  -0.44972144  0.25000396  1.0
  Y  Y7  1  1.44972144  0.07607049  0.75000396  1.0
  F  F8  1  0.91534784  -0.08465216  0.25000000  1.0
  F  F9  1  1.08465216  0.08465216  0.75000000  1.0
  F  F10  1  0.65957051  -0.06453690  0.94986918  1.0
  F  F11  1  1.06453690  0.34042949  0.44986918  1.0
  F  F12  1  0.93546310  -0.34042949  0.55013082  1.0
  F  F13  1  1.34042949  0.06453690  0.05013082  1.0
  F  F14  1  1.69300419  0.25431630  0.24991982  1.0
  F  F15  1  0.74568370  -0.69300419  0.74991982  1.0
  F  F16  1  1.25431630  0.69300419  0.25008018  1.0
  F  F17  1  0.30699581  -0.25431630  0.75008018  1.0
  F  F18  1  1.34051193  0.06465378  0.44987178  1.0
  F  F19  1  0.93534622  -0.34051193  0.94987178  1.0
  F  F20  1  1.06465378  0.34051193  0.05012822  1.0
  F  F21  1  0.65948807  -0.06465378  0.55012822  1.0
  F  F22  1  0.61029424  -0.38970576  0.25000000  1.0
  F  F23  1  1.38970576  0.38970576  0.75000000  1.0
