# generated using pymatgen
data_SiO2
_symmetry_space_group_name_H-M   'P 1'
_cell_length_a   12.68788270
_cell_length_b   11.33216374
_cell_length_c   11.23342202
_cell_angle_alpha   68.42381985
_cell_angle_beta   56.15683294
_cell_angle_gamma   55.41934721
_symmetry_Int_Tables_number   1
_chemical_formula_structural   SiO2
_chemical_formula_sum   'Si18 O36'
_cell_volume   1101.33237877
_cell_formula_units_Z   18
loop_
 _symmetry_equiv_pos_site_id
 _symmetry_equiv_pos_as_xyz
  1  'x, y, z'
loop_
 _atom_site_type_symbol
 _atom_site_label
 _atom_site_symmetry_multiplicity
 _atom_site_fract_x
 _atom_site_fract_y
 _atom_site_fract_z
 _atom_site_occupancy
  Si  Si0  1  0.29732055  0.31864945  1.45433760  1.0
  Si  Si1  1  -0.07030760  0.45433760  0.31864945  1.0
  Si  Si2  1  0.31864945  0.29732055  -0.07030760  1.0
  Si  Si3  1  0.45433760  -0.07030760  1.29732055  1.0
  Si  Si4  1  -0.29732055  0.68135055  0.54566240  1.0
  Si  Si5  1  1.07030760  -0.45433760  0.68135055  1.0
  Si  Si6  1  0.68135055  -0.29732055  1.07030760  1.0
  Si  Si7  1  -0.45433760  1.07030760  0.70267945  1.0
  Si  Si8  1  -0.39011590  1.21231701  0.39011590  1.0
  Si  Si9  1  -0.21231701  0.39011590  0.21231701  1.0
  Si  Si10  1  0.21231701  0.60988410  -0.21231701  1.0
  Si  Si11  1  -0.60988410  0.78768299  0.60988410  1.0
  Si  Si12  1  -0.70708869  1.07163385  0.70708869  1.0
  Si  Si13  1  -0.07163385  0.70708869  0.07163385  1.0
  Si  Si14  1  0.07163385  0.29291131  -0.07163385  1.0
  Si  Si15  1  -0.29291131  0.92836615  0.29291131  1.0
  Si  Si16  1  0.25000000  0.25000000  0.25000000  1.0
  Si  Si17  1  0.75000000  -0.25000000  0.75000000  1.0
  O  O18  1  0.28698064  0.32014462  0.31617701  1.0
  O  O19  1  0.07669772  0.31617701  0.32014462  1.0
  O  O20  1  0.32014462  0.28698064  0.07669772  1.0
  O  O21  1  0.31617701  0.07669772  0.28698064  1.0
  O  O22  1  0.71301936  -0.32014462  0.68382299  1.0
  O  O23  1  0.92330228  -0.31617701  0.67985538  1.0
  O  O24  1  0.67985538  -0.28698064  0.92330228  1.0
  O  O25  1  0.68382299  -0.07669772  0.71301936  1.0
  O  O26  1  0.28619586  0.17891025  1.56421580  1.0
  O  O27  1  -0.02932191  0.56421580  0.17891025  1.0
  O  O28  1  0.17891025  0.28619586  -0.02932191  1.0
  O  O29  1  0.56421580  -0.02932191  1.28619586  1.0
  O  O30  1  -0.28619586  0.82108975  0.43578420  1.0
  O  O31  1  1.02932191  -0.56421580  0.82108975  1.0
  O  O32  1  0.82108975  -0.28619586  1.02932191  1.0
  O  O33  1  -0.56421580  1.02932191  0.71380414  1.0
  O  O34  1  0.44920791  0.31111617  1.40108844  1.0
  O  O35  1  -0.16141251  0.40108844  0.31111617  1.0
  O  O36  1  0.31111617  0.44920791  -0.16141251  1.0
  O  O37  1  0.40108844  -0.16141251  1.44920791  1.0
  O  O38  1  -0.44920791  0.68888383  0.59891156  1.0
  O  O39  1  1.16141251  -0.40108844  0.68888383  1.0
  O  O40  1  0.68888383  -0.44920791  1.16141251  1.0
  O  O41  1  -0.40108844  1.16141251  0.55079209  1.0
  O  O42  1  1.16577177  -0.53379978  0.53379978  1.0
  O  O43  1  -0.16577177  0.53379978  0.46620022  1.0
  O  O44  1  0.46620022  0.16577177  -0.16577177  1.0
  O  O45  1  0.53379978  -0.16577177  1.16577177  1.0
  O  O46  1  -0.69992118  0.92703221  0.69992118  1.0
  O  O47  1  0.07296779  0.69992118  -0.07296779  1.0
  O  O48  1  -0.07296779  0.30007882  0.07296779  1.0
  O  O49  1  -0.30007882  1.07296779  0.30007882  1.0
  O  O50  1  -0.30748448  0.30748448  0.30748448  1.0
  O  O51  1  -0.69251552  0.69251552  0.69251552  1.0
  O  O52  1  0.14895470  0.14895470  -0.14895470  1.0
  O  O53  1  -0.14895470  0.85104530  0.14895470  1.0
