# generated using pymatgen
data_Rb3Mo2Br9
_symmetry_space_group_name_H-M   'P 1'
_cell_length_a   7.69682803
_cell_length_b   7.69682803
_cell_length_c   18.79768541
_cell_angle_alpha   90.00000000
_cell_angle_beta   90.00000000
_cell_angle_gamma   120.00000000
_symmetry_Int_Tables_number   1
_chemical_formula_structural   Rb3Mo2Br9
_chemical_formula_sum   'Rb6 Mo4 Br18'
_cell_volume   964.40305097
_cell_formula_units_Z   2
loop_
 _symmetry_equiv_pos_site_id
 _symmetry_equiv_pos_as_xyz
  1  'x, y, z'
loop_
 _atom_site_type_symbol
 _atom_site_label
 _atom_site_symmetry_multiplicity
 _atom_site_fract_x
 _atom_site_fract_y
 _atom_site_fract_z
 _atom_site_occupancy
  Rb  Rb0  1  -0.00000000  -0.00000000  0.25000000  1.0
  Rb  Rb1  1  0.00000000  0.00000000  0.75000000  1.0
  Rb  Rb2  1  0.33333333  0.66666667  0.43913245  1.0
  Rb  Rb3  1  0.33333333  0.66666667  0.06086755  1.0
  Rb  Rb4  1  0.66666667  0.33333333  0.93913245  1.0
  Rb  Rb5  1  0.66666667  0.33333333  0.56086755  1.0
  Mo  Mo6  1  0.33333333  0.66666667  0.82561610  1.0
  Mo  Mo7  1  0.33333333  0.66666667  0.67438390  1.0
  Mo  Mo8  1  0.66666667  0.33333333  0.32561610  1.0
  Mo  Mo9  1  0.66666667  0.33333333  0.17438390  1.0
  Br  Br10  1  0.50141101  0.49858899  0.25000000  1.0
  Br  Br11  1  0.50141101  1.00282202  0.25000000  1.0
  Br  Br12  1  0.49858899  0.50141101  0.75000000  1.0
  Br  Br13  1  0.49858899  -0.00282202  0.75000000  1.0
  Br  Br14  1  -0.00282202  0.49858899  0.25000000  1.0
  Br  Br15  1  1.00282202  0.50141101  0.75000000  1.0
  Br  Br16  1  0.17532543  0.82467457  0.90507539  1.0
  Br  Br17  1  0.17532543  0.82467457  0.59492461  1.0
  Br  Br18  1  0.17532543  0.35065086  0.90507539  1.0
  Br  Br19  1  0.17532543  0.35065086  0.59492461  1.0
  Br  Br20  1  0.82467457  0.17532543  0.40507539  1.0
  Br  Br21  1  0.82467457  0.17532543  0.09492461  1.0
  Br  Br22  1  0.82467457  0.64934914  0.40507539  1.0
  Br  Br23  1  0.82467457  0.64934914  0.09492461  1.0
  Br  Br24  1  0.64934914  0.82467457  0.90507539  1.0
  Br  Br25  1  0.64934914  0.82467457  0.59492461  1.0
  Br  Br26  1  0.35065086  0.17532543  0.40507539  1.0
  Br  Br27  1  0.35065086  0.17532543  0.09492461  1.0
