# generated using pymatgen
data_Rb2MnTe2
_symmetry_space_group_name_H-M   'P 1'
_cell_length_a   9.10063322
_cell_length_b   9.10063322
_cell_length_c   9.10063322
_cell_angle_alpha   129.66271571
_cell_angle_beta   70.81752239
_cell_angle_gamma   133.65471728
_symmetry_Int_Tables_number   1
_chemical_formula_structural   Rb2MnTe2
_chemical_formula_sum   'Rb4 Mn2 Te4'
_cell_volume   411.22585621
_cell_formula_units_Z   2
loop_
 _symmetry_equiv_pos_site_id
 _symmetry_equiv_pos_as_xyz
  1  'x, y, z'
loop_
 _atom_site_type_symbol
 _atom_site_label
 _atom_site_symmetry_multiplicity
 _atom_site_fract_x
 _atom_site_fract_y
 _atom_site_fract_z
 _atom_site_occupancy
  Rb  Rb0  1  0.14340134  0.32354275  0.46694409  1.0
  Rb  Rb1  1  0.35659866  0.82354275  1.18014140  1.0
  Rb  Rb2  1  0.64340134  1.17645725  0.81985860  1.0
  Rb  Rb3  1  0.85659866  0.67645725  0.53305591  1.0
  Mn  Mn4  1  0.25000000  0.25000000  0.00000000  1.0
  Mn  Mn5  1  0.75000000  0.75000000  0.00000000  1.0
  Te  Te6  1  0.39637214  0.31155173  0.70792388  1.0
  Te  Te7  1  0.10362786  0.81155173  0.91517959  1.0
  Te  Te8  1  0.89637214  1.18844827  1.08482041  1.0
  Te  Te9  1  0.60362786  0.68844827  0.29207612  1.0
