# generated using pymatgen
data_H3C4O3F2
_symmetry_space_group_name_H-M   'P 1'
_cell_length_a   8.75902614
_cell_length_b   8.43981107
_cell_length_c   7.57631782
_cell_angle_alpha   90.00000000
_cell_angle_beta   93.36936383
_cell_angle_gamma   90.00000000
_symmetry_Int_Tables_number   1
_chemical_formula_structural   H3C4O3F2
_chemical_formula_sum   'H12 C16 O12 F8'
_cell_volume   559.10755332
_cell_formula_units_Z   4
loop_
 _symmetry_equiv_pos_site_id
 _symmetry_equiv_pos_as_xyz
  1  'x, y, z'
loop_
 _atom_site_type_symbol
 _atom_site_label
 _atom_site_symmetry_multiplicity
 _atom_site_fract_x
 _atom_site_fract_y
 _atom_site_fract_z
 _atom_site_occupancy
  H  H0  1  0.65181859  0.84258573  0.41008734  1.0
  H  H1  1  0.65181859  0.65741427  0.91008734  1.0
  H  H2  1  0.34818141  0.34258573  0.08991266  1.0
  H  H3  1  0.34818141  0.15741427  0.58991266  1.0
  H  H4  1  0.55065482  0.22085802  0.06407017  1.0
  H  H5  1  0.55065482  0.27914198  0.56407017  1.0
  H  H6  1  0.44934518  0.72085802  0.43592983  1.0
  H  H7  1  0.44934518  0.77914198  0.93592983  1.0
  H  H8  1  0.53245905  0.15196740  0.40864023  1.0
  H  H9  1  0.53245905  0.34803260  0.90864023  1.0
  H  H10  1  0.46754095  0.65196740  0.09135977  1.0
  H  H11  1  0.46754095  0.84803260  0.59135977  1.0
  C  C12  1  0.97250546  0.45771574  0.32487325  1.0
  C  C13  1  0.97250546  0.04228426  0.82487325  1.0
  C  C14  1  0.02749454  0.95771574  0.17512675  1.0
  C  C15  1  0.02749454  0.54228426  0.67512675  1.0
  C  C16  1  0.87628009  0.98770021  0.11430523  1.0
  C  C17  1  0.87628009  0.51229979  0.61430523  1.0
  C  C18  1  0.12371991  0.48770021  0.38569477  1.0
  C  C19  1  0.12371991  0.01229979  0.88569477  1.0
  C  C20  1  0.85214076  0.47052688  0.43623084  1.0
  C  C21  1  0.85214076  0.02947312  0.93623084  1.0
  C  C22  1  0.14785924  0.97052688  0.06376916  1.0
  C  C23  1  0.14785924  0.52947312  0.56376916  1.0
  C  C24  1  0.74513149  0.97914466  0.23360048  1.0
  C  C25  1  0.74513149  0.52085534  0.73360048  1.0
  C  C26  1  0.25486851  0.47914466  0.26639952  1.0
  C  C27  1  0.25486851  0.02085534  0.76639952  1.0
  O  O28  1  0.75139739  0.85671030  0.33861920  1.0
  O  O29  1  0.75139739  0.64328970  0.83861920  1.0
  O  O30  1  0.24860261  0.35671030  0.16138080  1.0
  O  O31  1  0.24860261  0.14328970  0.66138080  1.0
  O  O32  1  0.64455423  0.08265376  0.22880257  1.0
  O  O33  1  0.64455423  0.41734624  0.72880257  1.0
  O  O34  1  0.35544577  0.58265376  0.27119743  1.0
  O  O35  1  0.35544577  0.91734624  0.77119743  1.0
  O  O36  1  0.47641611  0.21338982  0.49462203  1.0
  O  O37  1  0.47641611  0.28661018  0.99462203  1.0
  O  O38  1  0.52358389  0.71338982  0.00537797  1.0
  O  O39  1  0.52358389  0.78661018  0.50537797  1.0
  F  F40  1  0.93798222  0.41980452  0.15424293  1.0
  F  F41  1  0.93798222  0.08019548  0.65424293  1.0
  F  F42  1  0.06201778  0.91980452  0.34575707  1.0
  F  F43  1  0.06201778  0.58019548  0.84575707  1.0
  F  F44  1  0.70912732  0.44606859  0.36564854  1.0
  F  F45  1  0.70912732  0.05393141  0.86564854  1.0
  F  F46  1  0.29087268  0.94606859  0.13435146  1.0
  F  F47  1  0.29087268  0.55393141  0.63435146  1.0
