# generated using pymatgen
data_Ba(YTe2)2
_symmetry_space_group_name_H-M   'P 1'
_cell_length_a   13.79018005
_cell_length_b   4.48763559
_cell_length_c   16.30741164
_cell_angle_alpha   90.00000000
_cell_angle_beta   90.00000000
_cell_angle_gamma   90.00000000
_symmetry_Int_Tables_number   1
_chemical_formula_structural   Ba(YTe2)2
_chemical_formula_sum   'Ba4 Y8 Te16'
_cell_volume   1009.18910766
_cell_formula_units_Z   4
loop_
 _symmetry_equiv_pos_site_id
 _symmetry_equiv_pos_as_xyz
  1  'x, y, z'
loop_
 _atom_site_type_symbol
 _atom_site_label
 _atom_site_symmetry_multiplicity
 _atom_site_fract_x
 _atom_site_fract_y
 _atom_site_fract_z
 _atom_site_occupancy
  Ba  Ba0  1  0.76168698  0.75000000  0.66981157  1.0
  Ba  Ba1  1  0.26168698  0.75000000  0.83018843  1.0
  Ba  Ba2  1  0.23831302  0.25000000  0.33018843  1.0
  Ba  Ba3  1  0.73831302  0.25000000  0.16981157  1.0
  Y  Y4  1  0.91928290  0.75000000  0.40372380  1.0
  Y  Y5  1  0.41928290  0.75000000  0.09627620  1.0
  Y  Y6  1  0.08071710  0.25000000  0.59627620  1.0
  Y  Y7  1  0.58071710  0.25000000  0.90372380  1.0
  Y  Y8  1  0.44093439  0.75000000  0.60951708  1.0
  Y  Y9  1  0.94093439  0.75000000  0.89048292  1.0
  Y  Y10  1  0.55906561  0.25000000  0.39048292  1.0
  Y  Y11  1  0.05906561  0.25000000  0.10951708  1.0
  Te  Te12  1  0.52772403  0.75000000  0.78419940  1.0
  Te  Te13  1  0.02772403  0.75000000  0.71580060  1.0
  Te  Te14  1  0.47227597  0.25000000  0.21580060  1.0
  Te  Te15  1  0.97227597  0.25000000  0.28419940  1.0
  Te  Te16  1  0.90945775  0.75000000  0.07629220  1.0
  Te  Te17  1  0.40945775  0.75000000  0.42370780  1.0
  Te  Te18  1  0.09054225  0.25000000  0.92370780  1.0
  Te  Te19  1  0.59054225  0.25000000  0.57629220  1.0
  Te  Te20  1  0.70457372  0.75000000  0.33882954  1.0
  Te  Te21  1  0.20457372  0.75000000  0.16117046  1.0
  Te  Te22  1  0.29542628  0.25000000  0.66117046  1.0
  Te  Te23  1  0.79542628  0.25000000  0.83882954  1.0
  Te  Te24  1  0.62761739  0.75000000  0.02868980  1.0
  Te  Te25  1  0.12761739  0.75000000  0.47131020  1.0
  Te  Te26  1  0.37238261  0.25000000  0.97131020  1.0
  Te  Te27  1  0.87238261  0.25000000  0.52868980  1.0
