# generated using pymatgen
data_Ge2Sb2Te5
_symmetry_space_group_name_H-M   'P 1'
_cell_length_a   4.26695057
_cell_length_b   4.26695057
_cell_length_c   17.89970869
_cell_angle_alpha   90.00000000
_cell_angle_beta   90.00000000
_cell_angle_gamma   120.00000000
_symmetry_Int_Tables_number   1
_chemical_formula_structural   Ge2Sb2Te5
_chemical_formula_sum   'Ge2 Sb2 Te5'
_cell_volume   282.23561702
_cell_formula_units_Z   1
loop_
 _symmetry_equiv_pos_site_id
 _symmetry_equiv_pos_as_xyz
  1  'x, y, z'
loop_
 _atom_site_type_symbol
 _atom_site_label
 _atom_site_symmetry_multiplicity
 _atom_site_fract_x
 _atom_site_fract_y
 _atom_site_fract_z
 _atom_site_occupancy
  Ge  Ge0  1  -0.00000000  -0.00000000  0.33380843  1.0
  Ge  Ge1  1  0.00000000  0.00000000  0.66619157  1.0
  Sb  Sb2  1  0.33333333  0.66666667  0.11299833  1.0
  Sb  Sb3  1  0.66666667  0.33333333  0.88700167  1.0
  Te  Te4  1  0.33333333  0.66666667  0.41303476  1.0
  Te  Te5  1  0.66666667  0.33333333  0.58696524  1.0
  Te  Te6  1  0.33333333  0.66666667  0.78937392  1.0
  Te  Te7  1  0.66666667  0.33333333  0.21062608  1.0
  Te  Te8  1  -0.00000000  -0.00000000  0.00000000  1.0
