# generated using pymatgen
data_Si
_symmetry_space_group_name_H-M   'P 1'
_cell_length_a   5.25195965
_cell_length_b   5.25195965
_cell_length_c   5.36841596
_cell_angle_alpha   90.00000000
_cell_angle_beta   90.00000000
_cell_angle_gamma   55.84002242
_symmetry_Int_Tables_number   1
_chemical_formula_structural   Si
_chemical_formula_sum   Si8
_cell_volume   122.53008980
_cell_formula_units_Z   8
loop_
 _symmetry_equiv_pos_site_id
 _symmetry_equiv_pos_as_xyz
  1  'x, y, z'
loop_
 _atom_site_type_symbol
 _atom_site_label
 _atom_site_symmetry_multiplicity
 _atom_site_fract_x
 _atom_site_fract_y
 _atom_site_fract_z
 _atom_site_occupancy
  Si  Si0  1  -0.49999988  1.49999988  0.27160864  1.0
  Si  Si1  1  0.00000012  0.99999988  0.22839136  1.0
  Si  Si2  1  0.49999988  0.50000012  0.72839136  1.0
  Si  Si3  1  -0.00000012  1.00000012  0.77160864  1.0
  Si  Si4  1  0.22379961  1.22379961  0.50000000  1.0
  Si  Si5  1  -0.27620039  0.72379961  0.00000000  1.0
  Si  Si6  1  -0.22379961  0.77620039  0.50000000  1.0
  Si  Si7  1  0.27620039  1.27620039  0.00000000  1.0
