# generated using pymatgen
data_Sr2Cu3(BrO2)2
_symmetry_space_group_name_H-M   'P 1'
_cell_length_a   7.92946386
_cell_length_b   7.92946386
_cell_length_c   7.92946386
_cell_angle_alpha   139.27829978
_cell_angle_beta   139.27829978
_cell_angle_gamma   58.95075482
_symmetry_Int_Tables_number   1
_chemical_formula_structural   Sr2Cu3(BrO2)2
_chemical_formula_sum   'Sr2 Cu3 Br2 O4'
_cell_volume   210.17513969
_cell_formula_units_Z   1
loop_
 _symmetry_equiv_pos_site_id
 _symmetry_equiv_pos_as_xyz
  1  'x, y, z'
loop_
 _atom_site_type_symbol
 _atom_site_label
 _atom_site_symmetry_multiplicity
 _atom_site_fract_x
 _atom_site_fract_y
 _atom_site_fract_z
 _atom_site_occupancy
  Sr  Sr0  1  0.63002960  0.63002960  1.00000000  1.0
  Sr  Sr1  1  0.36997040  0.36997040  0.00000000  1.0
  Cu  Cu2  1  0.50000000  0.00000000  0.50000000  1.0
  Cu  Cu3  1  0.00000000  0.50000000  0.50000000  1.0
  Cu  Cu4  1  0.00000000  0.00000000  0.00000000  1.0
  Br  Br5  1  0.25000000  0.75000000  0.50000000  1.0
  Br  Br6  1  0.75000000  0.25000000  0.50000000  1.0
  O  O7  1  0.75045359  0.75045359  1.50090718  1.0
  O  O8  1  0.24954641  0.75045359  1.00000000  1.0
  O  O9  1  0.75045359  0.24954641  1.00000000  1.0
  O  O10  1  0.24954641  0.24954641  0.49909282  1.0
