# generated using pymatgen
data_Cu2B(ClO)2
_symmetry_space_group_name_H-M   'P 1'
_cell_length_a   9.91865129
_cell_length_b   9.91865129
_cell_length_c   7.43178507
_cell_angle_alpha   90.00000000
_cell_angle_beta   90.00000000
_cell_angle_gamma   90.00000000
_symmetry_Int_Tables_number   1
_chemical_formula_structural   Cu2B(ClO)2
_chemical_formula_sum   'Cu8 B4 Cl8 O8'
_cell_volume   731.13636485
_cell_formula_units_Z   4
loop_
 _symmetry_equiv_pos_site_id
 _symmetry_equiv_pos_as_xyz
  1  'x, y, z'
loop_
 _atom_site_type_symbol
 _atom_site_label
 _atom_site_symmetry_multiplicity
 _atom_site_fract_x
 _atom_site_fract_y
 _atom_site_fract_z
 _atom_site_occupancy
  Cu  Cu0  1  0.12024668  0.25397564  0.62799118  1.0
  Cu  Cu1  1  0.62024668  0.75397564  0.37200882  1.0
  Cu  Cu2  1  0.25397564  0.87975332  0.37200882  1.0
  Cu  Cu3  1  0.75397564  0.37975332  0.62799118  1.0
  Cu  Cu4  1  0.87975333  0.74602436  0.62799118  1.0
  Cu  Cu5  1  0.37975332  0.24602436  0.37200882  1.0
  Cu  Cu6  1  0.74602436  0.12024668  0.37200882  1.0
  Cu  Cu7  1  0.24602436  0.62024667  0.62799118  1.0
  B  B8  1  0.25000000  0.75000000  0.00000000  1.0
  B  B9  1  0.75000000  0.25000000  0.00000000  1.0
  B  B10  1  0.75000000  0.75000000  0.00000000  1.0
  B  B11  1  0.25000000  0.25000000  0.00000000  1.0
  Cl  Cl12  1  -0.07387169  0.26017529  0.47688982  1.0
  Cl  Cl13  1  0.42612831  0.76017529  0.52311018  1.0
  Cl  Cl14  1  0.26017529  1.07387169  0.52311018  1.0
  Cl  Cl15  1  0.76017529  0.57387169  0.47688982  1.0
  Cl  Cl16  1  1.07387169  0.73982471  0.47688982  1.0
  Cl  Cl17  1  0.57387169  0.23982471  0.52311018  1.0
  Cl  Cl18  1  0.73982471  -0.07387169  0.52311018  1.0
  Cl  Cl19  1  0.23982471  0.42612831  0.47688982  1.0
  O  O20  1  0.25827368  0.83949594  1.11999334  1.0
  O  O21  1  0.75827367  0.33949594  -0.11999334  1.0
  O  O22  1  0.83949594  0.74172633  -0.11999334  1.0
  O  O23  1  0.33949594  0.24172633  1.11999334  1.0
  O  O24  1  0.74172633  0.16050406  1.11999334  1.0
  O  O25  1  0.24172633  0.66050406  -0.11999334  1.0
  O  O26  1  0.16050406  0.25827368  -0.11999334  1.0
  O  O27  1  0.66050406  0.75827367  1.11999334  1.0
