# generated using pymatgen
data_H5PbC2SIN6
_symmetry_space_group_name_H-M   'P 1'
_cell_length_a   10.20339868
_cell_length_b   12.11072596
_cell_length_c   7.98368033
_cell_angle_alpha   90.00000000
_cell_angle_beta   105.38430324
_cell_angle_gamma   90.00000000
_symmetry_Int_Tables_number   1
_chemical_formula_structural   H5PbC2SIN6
_chemical_formula_sum   'H20 Pb4 C8 S4 I4 N24'
_cell_volume   951.19802618
_cell_formula_units_Z   4
loop_
 _symmetry_equiv_pos_site_id
 _symmetry_equiv_pos_as_xyz
  1  'x, y, z'
loop_
 _atom_site_type_symbol
 _atom_site_label
 _atom_site_symmetry_multiplicity
 _atom_site_fract_x
 _atom_site_fract_y
 _atom_site_fract_z
 _atom_site_occupancy
  H  H0  1  0.91618642  0.89181275  0.77640249  1.0
  H  H1  1  0.91618642  0.60818725  0.27640249  1.0
  H  H2  1  0.08381358  0.39181275  0.72359751  1.0
  H  H3  1  0.08381358  0.10818725  0.22359751  1.0
  H  H4  1  0.95230196  0.41371285  0.38858264  1.0
  H  H5  1  0.95230196  0.08628715  0.88858264  1.0
  H  H6  1  0.04769804  0.91371285  0.11141736  1.0
  H  H7  1  0.04769804  0.58628715  0.61141736  1.0
  H  H8  1  0.87905527  0.67926143  0.92437905  1.0
  H  H9  1  0.87905527  0.82073857  0.42437905  1.0
  H  H10  1  0.12094473  0.17926143  0.57562095  1.0
  H  H11  1  0.12094473  0.32073857  0.07562095  1.0
  H  H12  1  0.74165334  0.63564441  0.77817916  1.0
  H  H13  1  0.74165334  0.86435559  0.27817916  1.0
  H  H14  1  0.25834666  0.13564441  0.72182084  1.0
  H  H15  1  0.25834666  0.36435559  0.22182084  1.0
  H  H16  1  0.15229939  0.57061340  0.80950761  1.0
  H  H17  1  0.15229939  0.92938660  0.30950761  1.0
  H  H18  1  0.84770061  0.07061340  0.69049239  1.0
  H  H19  1  0.84770061  0.42938660  0.19049239  1.0
  Pb  Pb20  1  0.34300018  0.65454831  0.55781413  1.0
  Pb  Pb21  1  0.34300018  0.84545169  0.05781413  1.0
  Pb  Pb22  1  0.65699982  0.15454831  0.94218587  1.0
  Pb  Pb23  1  0.65699982  0.34545169  0.44218587  1.0
  C  C24  1  0.74976552  0.89366078  0.87436290  1.0
  C  C25  1  0.74976552  0.60633922  0.37436290  1.0
  C  C26  1  0.25023448  0.39366078  0.62563710  1.0
  C  C27  1  0.25023448  0.10633922  0.12563710  1.0
  C  C28  1  0.59972385  0.77081810  0.90900603  1.0
  C  C29  1  0.59972385  0.72918190  0.40900603  1.0
  C  C30  1  0.40027615  0.27081810  0.59099397  1.0
  C  C31  1  0.40027615  0.22918190  0.09099397  1.0
  S  S32  1  0.51874760  0.64683501  0.91350301  1.0
  S  S33  1  0.51874760  0.85316499  0.41350301  1.0
  S  S34  1  0.48125240  0.14683501  0.58649699  1.0
  S  S35  1  0.48125240  0.35316499  0.08649699  1.0
  I  I36  1  0.86079809  0.37155717  0.84981386  1.0
  I  I37  1  0.86079809  0.12844283  0.34981386  1.0
  I  I38  1  0.13920191  0.87155717  0.65018614  1.0
  I  I39  1  0.13920191  0.62844283  0.15018614  1.0
  N  N40  1  0.86630981  0.93787965  0.84901416  1.0
  N  N41  1  0.86630981  0.56212035  0.34901416  1.0
  N  N42  1  0.13369019  0.43787965  0.65098584  1.0
  N  N43  1  0.13369019  0.06212035  0.15098584  1.0
  N  N44  1  0.86128432  0.44652748  0.32051347  1.0
  N  N45  1  0.86128432  0.05347252  0.82051347  1.0
  N  N46  1  0.13871568  0.94652748  0.17948653  1.0
  N  N47  1  0.13871568  0.55347252  0.67948653  1.0
  N  N48  1  0.80310395  0.70319521  0.81722076  1.0
  N  N49  1  0.80310395  0.79680479  0.31722076  1.0
  N  N50  1  0.19689605  0.20319521  0.68277924  1.0
  N  N51  1  0.19689605  0.29680479  0.18277924  1.0
  N  N52  1  0.72295630  0.78343844  0.86747040  1.0
  N  N53  1  0.72295630  0.71656156  0.36747040  1.0
  N  N54  1  0.27704370  0.28343844  0.63252960  1.0
  N  N55  1  0.27704370  0.21656156  0.13252960  1.0
  N  N56  1  0.65218808  0.94770397  0.92131337  1.0
  N  N57  1  0.65218808  0.55229603  0.42131337  1.0
  N  N58  1  0.34781192  0.44770397  0.57868663  1.0
  N  N59  1  0.34781192  0.05229603  0.07868663  1.0
  N  N60  1  0.55747986  0.87043962  0.94091559  1.0
  N  N61  1  0.55747986  0.62956038  0.44091559  1.0
  N  N62  1  0.44252014  0.37043962  0.55908441  1.0
  N  N63  1  0.44252014  0.12956038  0.05908441  1.0
