# generated using pymatgen
data_VCuAgO4
_symmetry_space_group_name_H-M   'P 1'
_cell_length_a   9.23450228
_cell_length_b   6.91538979
_cell_length_c   5.45616101
_cell_angle_alpha   90.00000000
_cell_angle_beta   90.00000000
_cell_angle_gamma   90.00000000
_symmetry_Int_Tables_number   1
_chemical_formula_structural   VCuAgO4
_chemical_formula_sum   'V4 Cu4 Ag4 O16'
_cell_volume   348.43143940
_cell_formula_units_Z   4
loop_
 _symmetry_equiv_pos_site_id
 _symmetry_equiv_pos_as_xyz
  1  'x, y, z'
loop_
 _atom_site_type_symbol
 _atom_site_label
 _atom_site_symmetry_multiplicity
 _atom_site_fract_x
 _atom_site_fract_y
 _atom_site_fract_z
 _atom_site_occupancy
  V  V0  1  0.69202699  0.25000000  0.07759570  1.0
  V  V1  1  0.19202699  0.25000000  0.42240430  1.0
  V  V2  1  0.30797301  0.75000000  0.92240430  1.0
  V  V3  1  0.80797301  0.75000000  0.57759570  1.0
  Cu  Cu4  1  0.00000000  0.50000000  0.00000000  1.0
  Cu  Cu5  1  0.00000000  0.00000000  0.00000000  1.0
  Cu  Cu6  1  0.50000000  0.50000000  0.50000000  1.0
  Cu  Cu7  1  0.50000000  0.00000000  0.50000000  1.0
  Ag  Ag8  1  0.86205013  0.25000000  0.53524443  1.0
  Ag  Ag9  1  0.36205013  0.25000000  0.96475557  1.0
  Ag  Ag10  1  0.13794987  0.75000000  0.46475557  1.0
  Ag  Ag11  1  0.63794987  0.75000000  0.03524443  1.0
  O  O12  1  0.62937621  0.45231566  0.23099485  1.0
  O  O13  1  0.62937621  0.04768434  0.23099485  1.0
  O  O14  1  0.12937621  0.45231566  0.26900515  1.0
  O  O15  1  0.12937621  0.04768434  0.26900515  1.0
  O  O16  1  0.37062379  0.95231566  0.76900515  1.0
  O  O17  1  0.37062379  0.54768434  0.76900515  1.0
  O  O18  1  0.87062379  0.95231566  0.73099485  1.0
  O  O19  1  0.87062379  0.54768434  0.73099485  1.0
  O  O20  1  0.89080218  0.25000000  0.08574597  1.0
  O  O21  1  0.39080218  0.25000000  0.41425403  1.0
  O  O22  1  0.10919782  0.75000000  0.91425403  1.0
  O  O23  1  0.60919782  0.75000000  0.58574597  1.0
  O  O24  1  0.62925380  0.25000000  0.78776817  1.0
  O  O25  1  0.12925380  0.25000000  0.71223183  1.0
  O  O26  1  0.37074620  0.75000000  0.21223183  1.0
  O  O27  1  0.87074620  0.75000000  0.28776817  1.0
