# generated using pymatgen
data_Cs2Li3GaO4
_symmetry_space_group_name_H-M   'P 1'
_cell_length_a   8.23353143
_cell_length_b   8.23353143
_cell_length_c   8.23353143
_cell_angle_alpha   144.13701719
_cell_angle_beta   104.45011967
_cell_angle_gamma   86.56263397
_symmetry_Int_Tables_number   1
_chemical_formula_structural   Cs2Li3GaO4
_chemical_formula_sum   'Cs4 Li6 Ga2 O8'
_cell_volume   306.53365976
_cell_formula_units_Z   2
loop_
 _symmetry_equiv_pos_site_id
 _symmetry_equiv_pos_as_xyz
  1  'x, y, z'
loop_
 _atom_site_type_symbol
 _atom_site_label
 _atom_site_symmetry_multiplicity
 _atom_site_fract_x
 _atom_site_fract_y
 _atom_site_fract_z
 _atom_site_occupancy
  Cs  Cs0  1  1.37263377  1.26067044  1.63330421  1.0
  Cs  Cs1  1  1.12736623  0.76067044  0.88803667  1.0
  Cs  Cs2  1  0.87263377  1.23932956  1.11196333  1.0
  Cs  Cs3  1  0.62736623  0.73932956  0.36669579  1.0
  Li  Li4  1  1.00934113  1.25000000  0.75934113  1.0
  Li  Li5  1  0.50934113  0.75000000  0.75934113  1.0
  Li  Li6  1  0.99065887  0.75000000  1.24065887  1.0
  Li  Li7  1  1.49065887  1.25000000  1.24065887  1.0
  Li  Li8  1  1.25000000  1.25000000  1.00000000  1.0
  Li  Li9  1  0.75000000  0.75000000  1.00000000  1.0
  Ga  Ga10  1  1.25000000  0.75000000  0.50000000  1.0
  Ga  Ga11  1  0.75000000  0.25000000  0.50000000  1.0
  O  O12  1  1.05793623  0.90975857  0.61546543  1.0
  O  O13  1  0.70570686  0.55752920  0.61546543  1.0
  O  O14  1  0.79429314  0.40975857  0.85182234  1.0
  O  O15  1  1.44206377  1.05752920  0.85182234  1.0
  O  O16  1  0.55793623  0.94247080  1.14817766  1.0
  O  O17  1  1.20570686  1.59024143  1.14817766  1.0
  O  O18  1  1.29429314  1.44247080  1.38453457  1.0
  O  O19  1  0.94206377  1.09024143  1.38453457  1.0
