# generated using pymatgen
data_Nb12Al4NiO
_symmetry_space_group_name_H-M   'P 1'
_cell_length_a   10.24481855
_cell_length_b   10.24481855
_cell_length_c   10.24481855
_cell_angle_alpha   60.00000000
_cell_angle_beta   60.00000000
_cell_angle_gamma   60.00000000
_symmetry_Int_Tables_number   1
_chemical_formula_structural   Nb12Al4NiO
_chemical_formula_sum   'Nb24 Al8 Ni2 O2'
_cell_volume   760.32245013
_cell_formula_units_Z   2
loop_
 _symmetry_equiv_pos_site_id
 _symmetry_equiv_pos_as_xyz
  1  'x, y, z'
loop_
 _atom_site_type_symbol
 _atom_site_label
 _atom_site_symmetry_multiplicity
 _atom_site_fract_x
 _atom_site_fract_y
 _atom_site_fract_z
 _atom_site_occupancy
  Nb  Nb0  1  0.95169862  -0.59362783  0.69023060  1.0
  Nb  Nb1  1  -0.04830138  0.69023060  0.40637217  1.0
  Nb  Nb2  1  -0.15637217  0.29830138  0.29830138  1.0
  Nb  Nb3  1  0.55976940  0.29830138  0.29830138  1.0
  Nb  Nb4  1  -0.59362783  0.95169862  0.69023060  1.0
  Nb  Nb5  1  0.95169862  -0.04830138  0.69023060  1.0
  Nb  Nb6  1  0.95169862  -0.30976940  0.95169862  1.0
  Nb  Nb7  1  -0.59362783  0.69023060  0.95169862  1.0
  Nb  Nb8  1  0.29830138  -0.15637217  0.29830138  1.0
  Nb  Nb9  1  0.29830138  0.29830138  -0.15637217  1.0
  Nb  Nb10  1  0.55976940  0.29830138  -0.15637217  1.0
  Nb  Nb11  1  0.55976940  -0.15637217  0.29830138  1.0
  Nb  Nb12  1  0.69023060  -0.04830138  0.95169862  1.0
  Nb  Nb13  1  -0.59362783  0.95169862  0.95169862  1.0
  Nb  Nb14  1  0.29830138  0.55976940  -0.15637217  1.0
  Nb  Nb15  1  0.29830138  -0.15637217  0.55976940  1.0
  Nb  Nb16  1  -0.30976940  0.95169862  0.40637217  1.0
  Nb  Nb17  1  0.69023060  -0.59362783  0.95169862  1.0
  Nb  Nb18  1  0.95169862  -0.59362783  0.95169862  1.0
  Nb  Nb19  1  -0.04830138  0.95169862  0.40637217  1.0
  Nb  Nb20  1  0.29830138  0.55976940  0.29830138  1.0
  Nb  Nb21  1  -0.15637217  0.55976940  0.29830138  1.0
  Nb  Nb22  1  -0.15637217  0.29830138  0.55976940  1.0
  Nb  Nb23  1  0.29830138  0.29830138  0.55976940  1.0
  Al  Al24  1  0.66919652  -0.33080348  0.99241045  1.0
  Al  Al25  1  0.66919652  -0.00758955  0.66919652  1.0
  Al  Al26  1  0.58080348  -0.41919652  0.58080348  1.0
  Al  Al27  1  1.25758955  -0.41919652  0.58080348  1.0
  Al  Al28  1  0.99241045  -0.33080348  0.66919652  1.0
  Al  Al29  1  0.66919652  -0.33080348  0.66919652  1.0
  Al  Al30  1  0.58080348  0.25758955  0.58080348  1.0
  Al  Al31  1  0.58080348  -0.41919652  1.25758955  1.0
  Ni  Ni32  1  0.50000000  0.50000000  -0.50000000  1.0
  Ni  Ni33  1  0.75000000  -0.25000000  0.75000000  1.0
  O  O34  1  -0.00000000  1.00000000  0.00000000  1.0
  O  O35  1  0.25000000  0.25000000  0.25000000  1.0
