# generated using pymatgen
data_Li2CrO4
_symmetry_space_group_name_H-M   'P 1'
_cell_length_a   8.75387927
_cell_length_b   8.75387927
_cell_length_c   8.75387927
_cell_angle_alpha   107.82963776
_cell_angle_beta   107.82963776
_cell_angle_gamma   107.82963776
_symmetry_Int_Tables_number   1
_chemical_formula_structural   Li2CrO4
_chemical_formula_sum   'Li12 Cr6 O24'
_cell_volume   545.52273058
_cell_formula_units_Z   6
loop_
 _symmetry_equiv_pos_site_id
 _symmetry_equiv_pos_as_xyz
  1  'x, y, z'
loop_
 _atom_site_type_symbol
 _atom_site_label
 _atom_site_symmetry_multiplicity
 _atom_site_fract_x
 _atom_site_fract_y
 _atom_site_fract_z
 _atom_site_occupancy
  Li  Li0  1  0.70520507  1.11158078  -0.06475966  1.0
  Li  Li1  1  0.88841922  0.06475966  0.29479493  1.0
  Li  Li2  1  1.06475966  0.29479493  -0.11158078  1.0
  Li  Li3  1  1.29479493  -0.11158078  0.06475966  1.0
  Li  Li4  1  1.11158078  0.93524034  -0.29479493  1.0
  Li  Li5  1  0.93524034  0.70520507  0.11158078  1.0
  Li  Li6  1  1.37651683  0.77914174  -0.40095648  1.0
  Li  Li7  1  1.22085826  0.40095648  -0.37651683  1.0
  Li  Li8  1  1.40095648  -0.37651683  0.22085826  1.0
  Li  Li9  1  0.62348317  0.22085826  0.40095648  1.0
  Li  Li10  1  0.77914174  0.59904352  0.37651683  1.0
  Li  Li11  1  0.59904352  1.37651683  -0.22085826  1.0
  Cr  Cr12  1  1.55282806  0.73737098  -0.04205944  1.0
  Cr  Cr13  1  0.26262902  1.04205944  -0.55282806  1.0
  Cr  Cr14  1  1.04205944  0.44717194  -0.73737098  1.0
  Cr  Cr15  1  0.44717194  0.26262902  0.04205944  1.0
  Cr  Cr16  1  1.73737098  -0.04205944  0.55282806  1.0
  Cr  Cr17  1  0.95794056  0.55282806  0.73737098  1.0
  O  O18  1  0.76475186  0.81421602  0.09911659  1.0
  O  O19  1  1.18578398  -0.09911659  0.23524814  1.0
  O  O20  1  0.90088341  0.23524814  0.18578398  1.0
  O  O21  1  1.23524814  0.18578398  -0.09911659  1.0
  O  O22  1  0.81421602  1.09911659  -0.23524814  1.0
  O  O23  1  1.09911659  0.76475186  -0.18578398  1.0
  O  O24  1  1.47424956  0.52891046  -0.19144058  1.0
  O  O25  1  0.47108954  1.19144058  -0.47424956  1.0
  O  O26  1  1.19144058  0.52575044  -0.52891046  1.0
  O  O27  1  0.52575044  0.47108954  0.19144058  1.0
  O  O28  1  1.52891046  -0.19144058  0.47424956  1.0
  O  O29  1  0.80855942  0.47424956  0.52891046  1.0
  O  O30  1  1.53522535  0.86368491  -0.14739570  1.0
  O  O31  1  1.13631509  0.14739570  -0.53522535  1.0
  O  O32  1  1.14739570  -0.53522535  0.13631509  1.0
  O  O33  1  0.46477465  0.13631509  0.14739570  1.0
  O  O34  1  0.86368491  0.85260430  0.53522535  1.0
  O  O35  1  0.85260430  1.53522535  -0.13631509  1.0
  O  O36  1  1.56807965  0.25356339  -0.07055448  1.0
  O  O37  1  0.74643661  1.07055448  -0.56807965  1.0
  O  O38  1  1.07055448  0.43192035  -0.25356339  1.0
  O  O39  1  0.43192035  0.74643661  0.07055448  1.0
  O  O40  1  1.25356339  -0.07055448  0.56807965  1.0
  O  O41  1  0.92944552  0.56807965  0.25356339  1.0
