# generated using pymatgen
data_Ti4Ag2O9
_symmetry_space_group_name_H-M   'P 1'
_cell_length_a   9.10632867
_cell_length_b   9.10632867
_cell_length_c   12.33943936
_cell_angle_alpha   70.24232855
_cell_angle_beta   109.75767145
_cell_angle_gamma   156.34574073
_symmetry_Int_Tables_number   1
_chemical_formula_structural   Ti4Ag2O9
_chemical_formula_sum   'Ti8 Ag4 O18'
_cell_volume   385.28225638
_cell_formula_units_Z   2
loop_
 _symmetry_equiv_pos_site_id
 _symmetry_equiv_pos_as_xyz
  1  'x, y, z'
loop_
 _atom_site_type_symbol
 _atom_site_label
 _atom_site_symmetry_multiplicity
 _atom_site_fract_x
 _atom_site_fract_y
 _atom_site_fract_z
 _atom_site_occupancy
  Ti  Ti0  1  0.88225191  0.11774809  0.64263508  1.0
  Ti  Ti1  1  0.11774809  -0.11774809  0.35736492  1.0
  Ti  Ti2  1  0.84425548  0.15574452  0.88146897  1.0
  Ti  Ti3  1  0.15574452  -0.15574452  0.11853103  1.0
  Ti  Ti4  1  0.75876086  0.24123914  0.33573930  1.0
  Ti  Ti5  1  0.24123914  -0.24123914  0.66426070  1.0
  Ti  Ti6  1  0.19771675  -0.19771675  0.89212564  1.0
  Ti  Ti7  1  0.80228325  0.19771675  0.10787436  1.0
  Ag  Ag8  1  0.55740355  0.44259645  0.66593535  1.0
  Ag  Ag9  1  0.44259645  -0.44259645  0.33406465  1.0
  Ag  Ag10  1  0.51731909  0.48268091  0.88368987  1.0
  Ag  Ag11  1  0.48268091  -0.48268091  0.11631013  1.0
  O  O12  1  0.97848818  0.02151182  0.63910704  1.0
  O  O13  1  0.02151182  -0.02151182  0.36089296  1.0
  O  O14  1  0.92839109  0.07160891  0.83496604  1.0
  O  O15  1  0.07160891  -0.07160891  0.16503396  1.0
  O  O16  1  0.84457762  0.15542238  0.26433546  1.0
  O  O17  1  0.15542238  -0.15542238  0.73566454  1.0
  O  O18  1  0.82015862  0.17984138  0.47987414  1.0
  O  O19  1  0.17984138  -0.17984138  0.52012586  1.0
  O  O20  1  0.76897563  0.23102437  0.70591881  1.0
  O  O21  1  0.23102437  -0.23102437  0.29408119  1.0
  O  O22  1  0.72846973  0.27153027  0.92149605  1.0
  O  O23  1  0.27153027  -0.27153027  0.07850395  1.0
  O  O24  1  0.64746857  0.35253143  0.34564252  1.0
  O  O25  1  0.35253143  -0.35253143  0.65435748  1.0
  O  O26  1  0.31128081  -0.31128081  0.86638716  1.0
  O  O27  1  0.68871919  0.31128081  0.13361284  1.0
  O  O28  1  0.11281687  -0.11281687  0.95116372  1.0
  O  O29  1  0.88718313  0.11281687  0.04883628  1.0
