# generated using pymatgen
data_RbHg5Cl11
_symmetry_space_group_name_H-M   'P 1'
_cell_length_a   9.75653541
_cell_length_b   9.75653541
_cell_length_c   6.87503485
_cell_angle_alpha   72.82121207
_cell_angle_beta   107.17878793
_cell_angle_gamma   76.93464946
_symmetry_Int_Tables_number   1
_chemical_formula_structural   RbHg5Cl11
_chemical_formula_sum   'Rb1 Hg5 Cl11'
_cell_volume   561.05560375
_cell_formula_units_Z   1
loop_
 _symmetry_equiv_pos_site_id
 _symmetry_equiv_pos_as_xyz
  1  'x, y, z'
loop_
 _atom_site_type_symbol
 _atom_site_label
 _atom_site_symmetry_multiplicity
 _atom_site_fract_x
 _atom_site_fract_y
 _atom_site_fract_z
 _atom_site_occupancy
  Rb  Rb0  1  0.00000000  0.00000000  0.00000000  1.0
  Hg  Hg1  1  0.34133109  -0.02437450  0.67141958  1.0
  Hg  Hg2  1  1.02437450  0.65866891  0.67141958  1.0
  Hg  Hg3  1  0.97562550  -0.65866891  0.32858042  1.0
  Hg  Hg4  1  1.65866891  0.02437450  0.32858042  1.0
  Hg  Hg5  1  0.50000000  -0.50000000  0.00000000  1.0
  Cl  Cl6  1  0.63686412  -0.63686412  0.37688861  1.0
  Cl  Cl7  1  0.36313588  -0.36313588  0.62311139  1.0
  Cl  Cl8  1  0.70944069  -0.12414406  0.69312766  1.0
  Cl  Cl9  1  1.12414406  0.29055931  0.69312766  1.0
  Cl  Cl10  1  0.87585594  -0.29055931  0.30687234  1.0
  Cl  Cl11  1  1.29055931  0.12414406  0.30687234  1.0
  Cl  Cl12  1  1.58777091  0.16554999  0.95595795  1.0
  Cl  Cl13  1  0.83445001  -0.58777091  0.95595795  1.0
  Cl  Cl14  1  1.16554999  0.58777091  0.04404205  1.0
  Cl  Cl15  1  0.41222909  -0.16554999  0.04404205  1.0
  Cl  Cl16  1  -0.00000000  0.00000000  0.50000000  1.0
