# generated using pymatgen
data_Ca2CuB2(HO)12
_symmetry_space_group_name_H-M   'P 1'
_cell_length_a   5.76383443
_cell_length_b   5.73883847
_cell_length_c   8.17483911
_cell_angle_alpha   109.46647273
_cell_angle_beta   96.81291769
_cell_angle_gamma   89.61462078
_symmetry_Int_Tables_number   1
_chemical_formula_structural   Ca2CuB2(HO)12
_chemical_formula_sum   'Ca2 Cu1 B2 H12 O12'
_cell_volume   252.99201481
_cell_formula_units_Z   1
loop_
 _symmetry_equiv_pos_site_id
 _symmetry_equiv_pos_as_xyz
  1  'x, y, z'
loop_
 _atom_site_type_symbol
 _atom_site_label
 _atom_site_symmetry_multiplicity
 _atom_site_fract_x
 _atom_site_fract_y
 _atom_site_fract_z
 _atom_site_occupancy
  Ca  Ca0  1  0.50357883  0.77756870  -0.23716313  1.0
  Ca  Ca1  1  0.49642117  0.22243130  -0.76283687  1.0
  Cu  Cu2  1  0.00000000  0.00000000  0.00000000  1.0
  B  B3  1  0.71627326  0.75320802  -0.59029601  1.0
  B  B4  1  0.28372674  0.24679198  -0.40970399  1.0
  H  H5  1  0.94891975  0.95822485  -0.37060356  1.0
  H  H6  1  0.05108025  0.04177515  -0.62939644  1.0
  H  H7  1  0.77581653  0.79786579  -0.82184127  1.0
  H  H8  1  0.22418347  0.20213421  -0.17815873  1.0
  H  H9  1  0.36541914  0.80811824  -0.62037598  1.0
  H  H10  1  0.63458086  0.19188176  -0.37962402  1.0
  H  H11  1  0.28898377  0.69925422  -0.96065514  1.0
  H  H12  1  0.71101623  0.30074578  -0.03934486  1.0
  H  H13  1  0.93317792  0.56221801  -0.10150379  1.0
  H  H14  1  0.06682208  0.43778199  -0.89849621  1.0
  H  H15  1  1.00232624  0.52670883  -0.61092765  1.0
  H  H16  1  -0.00232624  0.47329117  -0.38907235  1.0
  O  O17  1  0.78166816  0.90332683  -0.40389135  1.0
  O  O18  1  0.21833184  0.09667317  -0.59610865  1.0
  O  O19  1  0.76073601  0.90672648  -0.70022417  1.0
  O  O20  1  0.23926399  0.09327352  -0.29977583  1.0
  O  O21  1  0.30630816  0.85484312  -0.98246830  1.0
  O  O22  1  0.69369184  0.14515688  -0.01753170  1.0
  O  O23  1  0.82214557  0.68611686  -0.05056251  1.0
  O  O24  1  0.17785443  0.31388314  -0.94943749  1.0
  O  O25  1  0.46822440  0.67429771  -0.60921000  1.0
  O  O26  1  0.53177560  0.32570229  -0.39079000  1.0
  O  O27  1  0.83488832  0.51577363  -0.64641947  1.0
  O  O28  1  0.16511168  0.48422637  -0.35358053  1.0
