# generated using pymatgen
data_Ce(MnCo2)4
_symmetry_space_group_name_H-M   'P 1'
_cell_length_a   6.38328867
_cell_length_b   6.38328867
_cell_length_c   6.38328867
_cell_angle_alpha   97.19339770
_cell_angle_beta   97.19339770
_cell_angle_gamma   138.55246688
_symmetry_Int_Tables_number   1
_chemical_formula_structural   Ce(MnCo2)4
_chemical_formula_sum   'Ce1 Mn4 Co8'
_cell_volume   161.02666426
_cell_formula_units_Z   1
loop_
 _symmetry_equiv_pos_site_id
 _symmetry_equiv_pos_as_xyz
  1  'x, y, z'
loop_
 _atom_site_type_symbol
 _atom_site_label
 _atom_site_symmetry_multiplicity
 _atom_site_fract_x
 _atom_site_fract_y
 _atom_site_fract_z
 _atom_site_occupancy
  Ce  Ce0  1  0.00000000  0.00000000  0.00000000  1.0
  Mn  Mn1  1  1.00000000  1.00000000  0.50000000  1.0
  Mn  Mn2  1  0.50000000  0.50000000  0.50000000  1.0
  Mn  Mn3  1  1.00000000  0.50000000  1.00000000  1.0
  Mn  Mn4  1  1.50000000  1.00000000  1.00000000  1.0
  Co  Co5  1  1.36015790  1.00000000  1.36015790  1.0
  Co  Co6  1  0.63984210  1.00000000  0.63984210  1.0
  Co  Co7  1  0.00000000  0.63984210  0.63984210  1.0
  Co  Co8  1  0.00000000  0.36015790  0.36015790  1.0
  Co  Co9  1  0.27126662  0.50000000  0.77126662  1.0
  Co  Co10  1  0.72873338  0.50000000  1.22873338  1.0
  Co  Co11  1  0.50000000  0.72873338  0.22873338  1.0
  Co  Co12  1  0.50000000  1.27126662  0.77126662  1.0
