# generated using pymatgen
data_MgMn(SiO3)2
_symmetry_space_group_name_H-M   'P 1'
_cell_length_a   6.72017897
_cell_length_b   6.72017897
_cell_length_c   5.39396517
_cell_angle_alpha   74.92516427
_cell_angle_beta   105.07483573
_cell_angle_gamma   95.32372003
_symmetry_Int_Tables_number   1
_chemical_formula_structural   MgMn(SiO3)2
_chemical_formula_sum   'Mg2 Mn2 Si4 O12'
_cell_volume   227.03595741
_cell_formula_units_Z   2
loop_
 _symmetry_equiv_pos_site_id
 _symmetry_equiv_pos_as_xyz
  1  'x, y, z'
loop_
 _atom_site_type_symbol
 _atom_site_label
 _atom_site_symmetry_multiplicity
 _atom_site_fract_x
 _atom_site_fract_y
 _atom_site_fract_z
 _atom_site_occupancy
  Mg  Mg0  1  0.40171982  0.40171982  0.75000000  1.0
  Mg  Mg1  1  0.59828018  0.59828018  0.25000000  1.0
  Mn  Mn2  1  0.76007230  0.76007230  0.75000000  1.0
  Mn  Mn3  1  0.23992770  0.23992770  0.25000000  1.0
  Si  Si4  1  1.29297061  -0.11584470  0.73118166  1.0
  Si  Si5  1  1.11584470  -0.29297061  0.23118166  1.0
  Si  Si6  1  0.88415530  0.29297061  0.76881834  1.0
  Si  Si7  1  0.70702939  0.11584470  0.26881834  1.0
  O  O8  1  1.46765416  -0.29368592  0.84965178  1.0
  O  O9  1  1.29368592  -0.46765416  0.34965178  1.0
  O  O10  1  0.70631408  0.46765416  0.65034822  1.0
  O  O11  1  0.53234584  0.29368592  0.15034822  1.0
  O  O12  1  0.84673583  0.13977654  1.05054007  1.0
  O  O13  1  0.86022346  0.15326417  0.55054007  1.0
  O  O14  1  1.13977654  -0.15326417  0.44945993  1.0
  O  O15  1  1.15326417  -0.13977654  -0.05054007  1.0
  O  O16  1  0.37287777  0.12170071  0.64919962  1.0
  O  O17  1  0.87829929  0.62712223  0.14919962  1.0
  O  O18  1  1.12170071  -0.62712223  0.85080038  1.0
  O  O19  1  1.62712223  -0.12170071  0.35080038  1.0
