# generated using pymatgen
data_Cu3(AsO4)2
_symmetry_space_group_name_H-M   'P 1'
_cell_length_a   5.13982945
_cell_length_b   6.47390913
_cell_length_c   6.03568790
_cell_angle_alpha   107.34479845
_cell_angle_beta   113.97811783
_cell_angle_gamma   86.50465679
_symmetry_Int_Tables_number   1
_chemical_formula_structural   Cu3(AsO4)2
_chemical_formula_sum   'Cu3 As2 O8'
_cell_volume   174.74235351
_cell_formula_units_Z   1
loop_
 _symmetry_equiv_pos_site_id
 _symmetry_equiv_pos_as_xyz
  1  'x, y, z'
loop_
 _atom_site_type_symbol
 _atom_site_label
 _atom_site_symmetry_multiplicity
 _atom_site_fract_x
 _atom_site_fract_y
 _atom_site_fract_z
 _atom_site_occupancy
  As  As0  1  0.64294927  0.21102125  -0.67995207  1.0
  As  As1  1  0.35705073  0.78897875  -0.32004793  1.0
  O  O2  1  0.85905696  0.35965521  -0.37664033  1.0
  O  O3  1  0.14094304  0.64034479  -0.62335967  1.0
  O  O4  1  0.68337866  0.85457828  -0.31213103  1.0
  O  O5  1  0.31662134  0.14542172  -0.68786897  1.0
  O  O6  1  0.61304008  0.36414165  -0.89183356  1.0
  O  O7  1  0.38695992  0.63585835  -0.10816644  1.0
  O  O8  1  0.80023787  0.97089333  -0.79737790  1.0
  O  O9  1  0.19976213  0.02910667  -0.20262210  1.0
  Cu  Cu10  1  0.74645698  0.67102196  -0.80514675  1.0
  Cu  Cu11  1  0.25354302  0.32897804  -0.19485325  1.0
  Cu  Cu12  1  0.00000000  0.00000000  0.00000000  1.0
