# generated using pymatgen
data_NiP(CO2)2
_symmetry_space_group_name_H-M   'P 1'
_cell_length_a   5.57995720
_cell_length_b   7.41396068
_cell_length_c   4.76182035
_cell_angle_alpha   90.00000000
_cell_angle_beta   90.00000000
_cell_angle_gamma   90.00000000
_symmetry_Int_Tables_number   1
_chemical_formula_structural   NiP(CO2)2
_chemical_formula_sum   'Ni2 P2 C4 O8'
_cell_volume   196.99452349
_cell_formula_units_Z   2
loop_
 _symmetry_equiv_pos_site_id
 _symmetry_equiv_pos_as_xyz
  1  'x, y, z'
loop_
 _atom_site_type_symbol
 _atom_site_label
 _atom_site_symmetry_multiplicity
 _atom_site_fract_x
 _atom_site_fract_y
 _atom_site_fract_z
 _atom_site_occupancy
  P  P0  1  0.50000000  0.78480826  0.73829916  1.0
  P  P1  1  0.00000000  0.21519174  0.23829916  1.0
  C  C2  1  0.50000000  0.39443023  0.86444437  1.0
  C  C3  1  0.00000000  0.60556977  0.36444437  1.0
  C  C4  1  0.50000000  0.56196737  0.81917778  1.0
  C  C5  1  0.00000000  0.43803263  0.31917778  1.0
  O  O6  1  0.50000000  0.23341121  0.89341382  1.0
  O  O7  1  0.00000000  0.76658879  0.39341382  1.0
  O  O8  1  0.50000000  0.80053556  0.41889284  1.0
  O  O9  1  0.00000000  0.19946444  0.91889284  1.0
  O  O10  1  0.28160751  0.88177268  0.88849723  1.0
  O  O11  1  0.71839249  0.88177268  0.88849723  1.0
  O  O12  1  0.78160751  0.11822732  0.38849723  1.0
  O  O13  1  0.21839249  0.11822732  0.38849723  1.0
  Ni  Ni14  1  0.50000000  0.01563247  0.17627758  1.0
  Ni  Ni15  1  0.00000000  0.98436753  0.67627758  1.0
