# generated using pymatgen
data_Co2Si(P2O7)2
_symmetry_space_group_name_H-M   'P 1'
_cell_length_a   8.90201784
_cell_length_b   8.90201784
_cell_length_c   12.46937778
_cell_angle_alpha   77.57951606
_cell_angle_beta   102.42048394
_cell_angle_gamma   147.31923419
_symmetry_Int_Tables_number   1
_chemical_formula_structural   Co2Si(P2O7)2
_chemical_formula_sum   'Co4 Si2 P8 O28'
_cell_volume   519.98275948
_cell_formula_units_Z   2
loop_
 _symmetry_equiv_pos_site_id
 _symmetry_equiv_pos_as_xyz
  1  'x, y, z'
loop_
 _atom_site_type_symbol
 _atom_site_label
 _atom_site_symmetry_multiplicity
 _atom_site_fract_x
 _atom_site_fract_y
 _atom_site_fract_z
 _atom_site_occupancy
  Co  Co0  1  0.59562989  0.10203399  0.62944669  1.0
  Co  Co1  1  0.89796601  0.40437011  0.12944669  1.0
  Co  Co2  1  1.10203399  0.59562989  0.87055331  1.0
  Co  Co3  1  0.40437011  -0.10203399  0.37055331  1.0
  Si  Si4  1  0.65069465  0.65069465  0.75000000  1.0
  Si  Si5  1  0.34930535  0.34930535  0.25000000  1.0
  P  P6  1  0.73336682  -0.01346076  0.86420233  1.0
  P  P7  1  1.01346076  0.26663318  0.36420233  1.0
  P  P8  1  0.98653924  0.73336682  0.63579767  1.0
  P  P9  1  0.26663318  0.01346076  0.13579767  1.0
  P  P10  1  0.46871090  0.19687331  0.91550668  1.0
  P  P11  1  0.80312669  0.53128910  0.41550668  1.0
  P  P12  1  1.19687331  0.46871090  0.58449332  1.0
  P  P13  1  0.53128910  -0.19687331  0.08449332  1.0
  O  O14  1  0.79822875  -0.10994004  0.82101167  1.0
  O  O15  1  1.10994004  0.20177125  0.32101167  1.0
  O  O16  1  0.89005996  0.79822875  0.67898833  1.0
  O  O17  1  0.20177125  0.10994004  0.17898833  1.0
  O  O18  1  0.62601765  -0.18635012  0.98266751  1.0
  O  O19  1  1.18635012  0.37398235  0.48266751  1.0
  O  O20  1  0.81364988  0.62601765  0.51733249  1.0
  O  O21  1  0.37398235  0.18635012  0.01733249  1.0
  O  O22  1  0.49299121  -0.12024980  0.79578192  1.0
  O  O23  1  1.12024980  0.50700879  0.29578192  1.0
  O  O24  1  0.87975020  0.49299121  0.70421808  1.0
  O  O25  1  0.50700879  0.12024980  0.20421808  1.0
  O  O26  1  0.66722628  0.26117430  0.45331495  1.0
  O  O27  1  0.73882570  0.33277372  0.95331495  1.0
  O  O28  1  1.26117430  0.66722628  0.04668505  1.0
  O  O29  1  0.33277372  -0.26117430  0.54668505  1.0
  O  O30  1  0.22626227  -0.08584834  0.86919133  1.0
  O  O31  1  1.08584834  0.77373773  0.36919133  1.0
  O  O32  1  0.91415166  0.22626227  0.63080867  1.0
  O  O33  1  0.77373773  0.08584834  0.13080867  1.0
  O  O34  1  0.29515515  0.00524331  0.62120046  1.0
  O  O35  1  0.99475669  0.70484485  0.12120046  1.0
  O  O36  1  1.00524331  0.29515515  0.87879954  1.0
  O  O37  1  0.70484485  -0.00524331  0.37879954  1.0
  O  O38  1  0.52196301  0.39667021  0.83155739  1.0
  O  O39  1  0.60332979  0.47803699  0.33155739  1.0
  O  O40  1  1.39667021  0.52196301  0.66844261  1.0
  O  O41  1  0.47803699  -0.39667021  0.16844261  1.0
