# generated using pymatgen
data_Zr3As
_symmetry_space_group_name_H-M   'P 1'
_cell_length_a   11.02537857
_cell_length_b   11.02537857
_cell_length_c   5.47463415
_cell_angle_alpha   90.00000000
_cell_angle_beta   90.00000000
_cell_angle_gamma   90.00000000
_symmetry_Int_Tables_number   1
_chemical_formula_structural   Zr3As
_chemical_formula_sum   'Zr24 As8'
_cell_volume   665.49090308
_cell_formula_units_Z   8
loop_
 _symmetry_equiv_pos_site_id
 _symmetry_equiv_pos_as_xyz
  1  'x, y, z'
loop_
 _atom_site_type_symbol
 _atom_site_label
 _atom_site_symmetry_multiplicity
 _atom_site_fract_x
 _atom_site_fract_y
 _atom_site_fract_z
 _atom_site_occupancy
  Zr  Zr0  1  0.47387375  0.36051250  1.21650409  1.0
  Zr  Zr1  1  0.97387375  0.86051250  0.28349591  1.0
  Zr  Zr2  1  0.36051250  0.52612625  -0.21650409  1.0
  Zr  Zr3  1  0.86051250  0.02612625  0.71650409  1.0
  Zr  Zr4  1  0.52612625  0.63948750  1.21650409  1.0
  Zr  Zr5  1  0.02612625  0.13948750  0.28349591  1.0
  Zr  Zr6  1  0.63948750  0.47387375  -0.21650409  1.0
  Zr  Zr7  1  0.13948750  0.97387375  0.71650409  1.0
  Zr  Zr8  1  0.31886505  0.78474921  0.48856117  1.0
  Zr  Zr9  1  0.81886505  0.28474921  0.01143883  1.0
  Zr  Zr10  1  0.78474921  0.68113495  0.51143883  1.0
  Zr  Zr11  1  0.28474921  0.18113495  0.98856117  1.0
  Zr  Zr12  1  0.68113495  0.21525079  0.48856117  1.0
  Zr  Zr13  1  0.18113495  0.71525079  0.01143883  1.0
  Zr  Zr14  1  0.21525079  0.31886505  0.51143883  1.0
  Zr  Zr15  1  0.71525079  0.81886505  0.98856117  1.0
  Zr  Zr16  1  1.10535717  0.41659960  0.03785336  1.0
  Zr  Zr17  1  0.60535717  0.91659960  0.46214664  1.0
  Zr  Zr18  1  0.41659960  -0.10535717  0.96214664  1.0
  Zr  Zr19  1  0.91659960  0.39464283  0.53785336  1.0
  Zr  Zr20  1  -0.10535717  0.58340040  0.03785336  1.0
  Zr  Zr21  1  0.39464283  0.08340040  0.46214664  1.0
  Zr  Zr22  1  0.58340040  1.10535717  0.96214664  1.0
  Zr  Zr23  1  0.08340040  0.60535717  0.53785336  1.0
  As  As24  1  0.45999318  0.29409134  0.71183267  1.0
  As  As25  1  0.95999318  0.79409134  -0.21183267  1.0
  As  As26  1  0.29409134  0.54000682  0.28816733  1.0
  As  As27  1  0.79409134  0.04000682  1.21183267  1.0
  As  As28  1  0.54000682  0.70590866  0.71183267  1.0
  As  As29  1  0.04000682  0.20590866  -0.21183267  1.0
  As  As30  1  0.70590866  0.45999318  0.28816733  1.0
  As  As31  1  0.20590866  0.95999318  1.21183267  1.0
