# generated using pymatgen
data_LiAuF4
_symmetry_space_group_name_H-M   'P 1'
_cell_length_a   4.94156824
_cell_length_b   6.93219291
_cell_length_c   9.94981767
_cell_angle_alpha   90.00000000
_cell_angle_beta   92.50715334
_cell_angle_gamma   90.00000000
_symmetry_Int_Tables_number   1
_chemical_formula_structural   LiAuF4
_chemical_formula_sum   'Li4 Au4 F16'
_cell_volume   340.51373861
_cell_formula_units_Z   4
loop_
 _symmetry_equiv_pos_site_id
 _symmetry_equiv_pos_as_xyz
  1  'x, y, z'
loop_
 _atom_site_type_symbol
 _atom_site_label
 _atom_site_symmetry_multiplicity
 _atom_site_fract_x
 _atom_site_fract_y
 _atom_site_fract_z
 _atom_site_occupancy
  Li  Li0  1  0.50000000  0.89704820  0.75000000  1.0
  Li  Li1  1  0.50000000  0.10295180  0.25000000  1.0
  Li  Li2  1  -0.00000000  0.60295492  0.75000000  1.0
  Li  Li3  1  -0.00000000  0.39704508  0.25000000  1.0
  Au  Au4  1  0.50000000  0.50000000  -0.00000000  1.0
  Au  Au5  1  0.50000000  0.50000000  0.50000000  1.0
  Au  Au6  1  -0.00000000  -0.00000000  -0.00000000  1.0
  Au  Au7  1  -0.00000000  0.00000000  0.50000000  1.0
  F  F8  1  0.82313292  0.84717265  0.63618669  1.0
  F  F9  1  0.82313292  0.15282735  0.13618669  1.0
  F  F10  1  0.17686708  0.84717265  0.86381331  1.0
  F  F11  1  0.17686708  0.15282735  0.36381331  1.0
  F  F12  1  0.79587334  0.42801845  0.62632311  1.0
  F  F13  1  0.79587334  0.57198155  0.12632311  1.0
  F  F14  1  0.20412666  0.42801845  0.87367689  1.0
  F  F15  1  0.20412666  0.57198155  0.37367689  1.0
  F  F16  1  0.70413424  0.92801754  0.37368145  1.0
  F  F17  1  0.70413424  0.07198246  0.87368145  1.0
  F  F18  1  0.29586576  0.92801754  0.12631855  1.0
  F  F19  1  0.29586576  0.07198246  0.62631855  1.0
  F  F20  1  0.67685434  0.65281856  0.86382428  1.0
  F  F21  1  0.67685434  0.34718144  0.36382428  1.0
  F  F22  1  0.32314566  0.65281856  0.63617572  1.0
  F  F23  1  0.32314566  0.34718144  0.13617572  1.0
