# generated using pymatgen
data_SmMnB4
_symmetry_space_group_name_H-M   'P 1'
_cell_length_a   5.97221485
_cell_length_b   11.55234940
_cell_length_c   3.42655410
_cell_angle_alpha   90.00000000
_cell_angle_beta   90.00000000
_cell_angle_gamma   90.00000000
_symmetry_Int_Tables_number   1
_chemical_formula_structural   SmMnB4
_chemical_formula_sum   'Sm4 Mn4 B16'
_cell_volume   236.40863289
_cell_formula_units_Z   4
loop_
 _symmetry_equiv_pos_site_id
 _symmetry_equiv_pos_as_xyz
  1  'x, y, z'
loop_
 _atom_site_type_symbol
 _atom_site_label
 _atom_site_symmetry_multiplicity
 _atom_site_fract_x
 _atom_site_fract_y
 _atom_site_fract_z
 _atom_site_occupancy
  Sm  Sm0  1  0.12451616  0.65069239  0.50000000  1.0
  Sm  Sm1  1  0.62451616  0.84930761  0.50000000  1.0
  Sm  Sm2  1  0.87548384  0.34930761  0.50000000  1.0
  Sm  Sm3  1  0.37548384  0.15069239  0.50000000  1.0
  Mn  Mn4  1  0.12339346  0.91858767  0.50000000  1.0
  Mn  Mn5  1  0.62339346  0.58141233  0.50000000  1.0
  Mn  Mn6  1  0.87660654  0.08141233  0.50000000  1.0
  Mn  Mn7  1  0.37660654  0.41858767  0.50000000  1.0
  B  B8  1  0.47511730  0.68919641  0.00000000  1.0
  B  B9  1  0.97511730  0.81080359  0.00000000  1.0
  B  B10  1  0.52488270  0.31080359  0.00000000  1.0
  B  B11  1  0.02488270  0.18919641  0.00000000  1.0
  B  B12  1  0.38808263  0.54577663  0.00000000  1.0
  B  B13  1  0.88808263  0.95422337  0.00000000  1.0
  B  B14  1  0.61191737  0.45422337  0.00000000  1.0
  B  B15  1  0.11191737  0.04577663  0.00000000  1.0
  B  B16  1  0.35938665  0.96706678  0.00000000  1.0
  B  B17  1  0.85938665  0.53293322  0.00000000  1.0
  B  B18  1  0.64061335  0.03293322  0.00000000  1.0
  B  B19  1  0.14061335  0.46706678  0.00000000  1.0
  B  B20  1  0.27666647  0.81769823  0.00000000  1.0
  B  B21  1  0.77666647  0.68230177  0.00000000  1.0
  B  B22  1  0.72333353  0.18230177  0.00000000  1.0
  B  B23  1  0.22333353  0.31769823  0.00000000  1.0
