# generated using pymatgen
data_PrAsO4
_symmetry_space_group_name_H-M   'P 1'
_cell_length_a   6.93062240
_cell_length_b   6.93062240
_cell_length_c   6.93062240
_cell_angle_alpha   135.86835511
_cell_angle_beta   135.86835511
_cell_angle_gamma   64.18392605
_symmetry_Int_Tables_number   1
_chemical_formula_structural   PrAsO4
_chemical_formula_sum   'Pr2 As2 O8'
_cell_volume   159.21257208
_cell_formula_units_Z   2
loop_
 _symmetry_equiv_pos_site_id
 _symmetry_equiv_pos_as_xyz
  1  'x, y, z'
loop_
 _atom_site_type_symbol
 _atom_site_label
 _atom_site_symmetry_multiplicity
 _atom_site_fract_x
 _atom_site_fract_y
 _atom_site_fract_z
 _atom_site_occupancy
  Pr  Pr0  1  0.25000000  0.75000000  0.50000000  1.0
  Pr  Pr1  1  0.50000000  0.50000000  -0.00000000  1.0
  As  As2  1  0.75000000  0.25000000  0.50000000  1.0
  As  As3  1  1.00000000  1.00000000  1.00000000  1.0
  O  O4  1  0.81119689  0.41985720  0.88813941  1.0
  O  O5  1  0.53171779  0.92305748  1.11186059  1.0
  O  O6  1  0.67305748  1.06119689  0.89133969  1.0
  O  O7  1  1.16985720  0.78171779  1.10866031  1.0
  O  O8  1  0.93880311  0.83014280  0.61186059  1.0
  O  O9  1  1.21828221  1.32694252  1.38813941  1.0
  O  O10  1  1.07694252  1.18880311  1.60866031  1.0
  O  O11  1  0.58014280  0.46828221  0.39133969  1.0
