# generated using pymatgen
data_Sr2TiMoO6
_symmetry_space_group_name_H-M   'P 1'
_cell_length_a   5.60951833
_cell_length_b   5.61105436
_cell_length_c   5.61117061
_cell_angle_alpha   59.97160753
_cell_angle_beta   60.01012347
_cell_angle_gamma   60.00685340
_symmetry_Int_Tables_number   1
_chemical_formula_structural   Sr2TiMoO6
_chemical_formula_sum   'Sr2 Ti1 Mo1 O6'
_cell_volume   124.87368652
_cell_formula_units_Z   1
loop_
 _symmetry_equiv_pos_site_id
 _symmetry_equiv_pos_as_xyz
  1  'x, y, z'
loop_
 _atom_site_type_symbol
 _atom_site_label
 _atom_site_symmetry_multiplicity
 _atom_site_fract_x
 _atom_site_fract_y
 _atom_site_fract_z
 _atom_site_occupancy
  Sr  Sr0  1  0.24996654  0.25001982  -0.74998458  1.0
  Sr  Sr1  1  0.75003346  -0.25001982  -0.25001542  1.0
  Ti  Ti2  1  0.50000000  0.50000000  -0.50000000  1.0
  Mo  Mo3  1  0.00000000  0.00000000  0.00000000  1.0
  O  O4  1  0.74117454  0.24173496  -0.24162323  1.0
  O  O5  1  0.25882546  -0.24173496  -0.75837677  1.0
  O  O6  1  0.75764411  -0.25807853  -0.74053188  1.0
  O  O7  1  0.24235589  0.25807853  -0.25946812  1.0
  O  O8  1  0.24951225  -0.25082659  -0.24962955  1.0
  O  O9  1  0.75048775  0.25082659  -0.75037045  1.0
