# generated using pymatgen
data_H6C2S(BrN)2
_symmetry_space_group_name_H-M   'P 1'
_cell_length_a   7.53698122
_cell_length_b   7.53698122
_cell_length_c   13.41137366
_cell_angle_alpha   90.00000000
_cell_angle_beta   90.00000000
_cell_angle_gamma   90.00000000
_symmetry_Int_Tables_number   1
_chemical_formula_structural   H6C2S(BrN)2
_chemical_formula_sum   'H24 C8 S4 Br8 N8'
_cell_volume   761.84764452
_cell_formula_units_Z   4
loop_
 _symmetry_equiv_pos_site_id
 _symmetry_equiv_pos_as_xyz
  1  'x, y, z'
loop_
 _atom_site_type_symbol
 _atom_site_label
 _atom_site_symmetry_multiplicity
 _atom_site_fract_x
 _atom_site_fract_y
 _atom_site_fract_z
 _atom_site_occupancy
  H  H0  1  0.19826433  0.85126738  0.64012194  1.0
  H  H1  1  0.80173567  0.14873262  0.14012194  1.0
  H  H2  1  0.35126738  0.30173567  0.39012194  1.0
  H  H3  1  0.64873262  0.69826433  0.89012194  1.0
  H  H4  1  0.14873262  0.80173567  0.85987806  1.0
  H  H5  1  0.85126738  0.19826433  0.35987806  1.0
  H  H6  1  0.30173567  0.35126738  0.60987806  1.0
  H  H7  1  0.69826433  0.64873262  0.10987806  1.0
  H  H8  1  0.98045374  0.88165203  0.58702721  1.0
  H  H9  1  0.01954626  0.11834797  0.08702721  1.0
  H  H10  1  0.38165203  0.51954626  0.33702721  1.0
  H  H11  1  0.61834797  0.48045374  0.83702721  1.0
  H  H12  1  0.11834797  0.01954626  0.91297279  1.0
  H  H13  1  0.88165203  0.98045374  0.41297279  1.0
  H  H14  1  0.51954626  0.38165203  0.66297279  1.0
  H  H15  1  0.48045374  0.61834797  0.16297279  1.0
  H  H16  1  0.01627891  0.70821663  0.67693427  1.0
  H  H17  1  0.98372109  0.29178337  0.17693427  1.0
  H  H18  1  0.20821663  0.48372109  0.42693427  1.0
  H  H19  1  0.79178337  0.51627891  0.92693427  1.0
  H  H20  1  0.29178337  0.98372109  0.82306573  1.0
  H  H21  1  0.70821663  0.01627891  0.32306573  1.0
  H  H22  1  0.48372109  0.20821663  0.57306573  1.0
  H  H23  1  0.51627891  0.79178337  0.07306573  1.0
  C  C24  1  0.05506563  0.84173587  0.65328847  1.0
  C  C25  1  0.94493437  0.15826413  0.15328847  1.0
  C  C26  1  0.34173587  0.44493437  0.40328847  1.0
  C  C27  1  0.65826413  0.55506563  0.90328847  1.0
  C  C28  1  0.15826413  0.94493437  0.84671153  1.0
  C  C29  1  0.84173587  0.05506563  0.34671153  1.0
  C  C30  1  0.44493437  0.34173587  0.59671153  1.0
  C  C31  1  0.55506563  0.65826413  0.09671153  1.0
  S  S32  1  0.00215106  0.99784894  0.75000000  1.0
  S  S33  1  0.99784894  0.00215106  0.25000000  1.0
  S  S34  1  0.49784894  0.49784894  0.50000000  1.0
  S  S35  1  0.50215106  0.50215106  0.00000000  1.0
  Br  Br36  1  0.91407089  0.29682171  0.62310980  1.0
  Br  Br37  1  0.08592911  0.70317829  0.12310980  1.0
  Br  Br38  1  0.79682171  0.58592911  0.37310980  1.0
  Br  Br39  1  0.20317829  0.41407089  0.87310980  1.0
  Br  Br40  1  0.70317829  0.08592911  0.87689020  1.0
  Br  Br41  1  0.29682171  0.91407089  0.37689020  1.0
  Br  Br42  1  0.58592911  0.79682171  0.62689020  1.0
  Br  Br43  1  0.41407089  0.20317829  0.12689020  1.0
  N  N44  1  0.06225920  0.19508113  0.72689060  1.0
  N  N45  1  0.93774080  0.80491887  0.22689060  1.0
  N  N46  1  0.69508113  0.43774080  0.47689060  1.0
  N  N47  1  0.30491887  0.56225920  0.97689060  1.0
  N  N48  1  0.80491887  0.93774080  0.77310940  1.0
  N  N49  1  0.19508113  0.06225920  0.27310940  1.0
  N  N50  1  0.43774080  0.69508113  0.52310940  1.0
  N  N51  1  0.56225920  0.30491887  0.02310940  1.0
