# generated using pymatgen
data_TiO2
_symmetry_space_group_name_H-M   'P 1'
_cell_length_a   18.66737161
_cell_length_b   5.51539861
_cell_length_c   5.11068331
_cell_angle_alpha   90.00000000
_cell_angle_beta   90.51805508
_cell_angle_gamma   90.00000000
_symmetry_Int_Tables_number   1
_chemical_formula_structural   TiO2
_chemical_formula_sum   'Ti16 O32'
_cell_volume   526.16419974
_cell_formula_units_Z   16
loop_
 _symmetry_equiv_pos_site_id
 _symmetry_equiv_pos_as_xyz
  1  'x, y, z'
loop_
 _atom_site_type_symbol
 _atom_site_label
 _atom_site_symmetry_multiplicity
 _atom_site_fract_x
 _atom_site_fract_y
 _atom_site_fract_z
 _atom_site_occupancy
  Ti  Ti0  1  0.87065406  0.15774417  0.50441620  1.0
  Ti  Ti1  1  0.12934594  0.15774417  0.99558380  1.0
  Ti  Ti2  1  0.12934594  0.84225583  0.49558380  1.0
  Ti  Ti3  1  0.87065406  0.84225583  0.00441620  1.0
  Ti  Ti4  1  0.74133444  0.66252921  0.26335869  1.0
  Ti  Ti5  1  0.25866556  0.66252921  0.23664131  1.0
  Ti  Ti6  1  0.25866556  0.33747079  0.73664131  1.0
  Ti  Ti7  1  0.74133444  0.33747079  0.76335869  1.0
  Ti  Ti8  1  0.62078376  0.16524115  0.26250902  1.0
  Ti  Ti9  1  0.37921624  0.16524115  0.23749098  1.0
  Ti  Ti10  1  0.37921624  0.83475885  0.73749098  1.0
  Ti  Ti11  1  0.62078376  0.83475885  0.76250902  1.0
  Ti  Ti12  1  0.50000000  0.66976371  0.25000000  1.0
  Ti  Ti13  1  0.50000000  0.33023629  0.75000000  1.0
  Ti  Ti14  1  -0.00000000  0.65442287  0.75000000  1.0
  Ti  Ti15  1  -0.00000000  0.34557713  0.25000000  1.0
  O  O16  1  0.81372863  0.10884326  0.82544969  1.0
  O  O17  1  0.18627137  0.10884326  0.67455031  1.0
  O  O18  1  0.18627137  0.89115674  0.17455031  1.0
  O  O19  1  0.81372863  0.89115674  0.32544969  1.0
  O  O20  1  0.68880829  0.63144851  0.59375473  1.0
  O  O21  1  0.31119171  0.63144851  0.90624527  1.0
  O  O22  1  0.31119171  0.36855149  0.40624527  1.0
  O  O23  1  0.68880829  0.36855149  0.09375473  1.0
  O  O24  1  0.56591050  0.87664753  0.41972334  1.0
  O  O25  1  0.43408950  0.87664753  0.08027666  1.0
  O  O26  1  0.43408950  0.12335247  0.58027666  1.0
  O  O27  1  0.56591050  0.12335247  0.91972334  1.0
  O  O28  1  0.44494097  0.62266657  0.57941319  1.0
  O  O29  1  0.55505903  0.62266657  0.92058681  1.0
  O  O30  1  0.55505903  0.37733343  0.42058681  1.0
  O  O31  1  0.44494097  0.37733343  0.07941319  1.0
  O  O32  1  0.32470607  0.12756269  0.91499807  1.0
  O  O33  1  0.67529393  0.12756269  0.58500193  1.0
  O  O34  1  0.67529393  0.87243731  0.08500193  1.0
  O  O35  1  0.32470607  0.87243731  0.41499807  1.0
  O  O36  1  0.20092684  0.60644805  0.55147605  1.0
  O  O37  1  0.79907316  0.60644805  0.94852395  1.0
  O  O38  1  0.79907316  0.39355195  0.44852395  1.0
  O  O39  1  0.20092684  0.39355195  0.05147605  1.0
  O  O40  1  0.92545225  0.88199157  0.68370257  1.0
  O  O41  1  0.07454775  0.88199157  0.81629743  1.0
  O  O42  1  0.07454775  0.11800843  0.31629743  1.0
  O  O43  1  0.92545225  0.11800843  0.18370257  1.0
  O  O44  1  0.94545194  0.61832981  0.07388784  1.0
  O  O45  1  0.05454806  0.61832981  0.42611216  1.0
  O  O46  1  0.05454806  0.38167019  0.92611216  1.0
  O  O47  1  0.94545194  0.38167019  0.57388784  1.0
