# generated using pymatgen
data_K4MnBr6
_symmetry_space_group_name_H-M   'P 1'
_cell_length_a   9.09864483
_cell_length_b   9.09864483
_cell_length_c   9.09864483
_cell_angle_alpha   89.74619534
_cell_angle_beta   89.74619534
_cell_angle_gamma   89.74619534
_symmetry_Int_Tables_number   1
_chemical_formula_structural   K4MnBr6
_chemical_formula_sum   'K8 Mn2 Br12'
_cell_volume   753.21228023
_cell_formula_units_Z   2
loop_
 _symmetry_equiv_pos_site_id
 _symmetry_equiv_pos_as_xyz
  1  'x, y, z'
loop_
 _atom_site_type_symbol
 _atom_site_label
 _atom_site_symmetry_multiplicity
 _atom_site_fract_x
 _atom_site_fract_y
 _atom_site_fract_z
 _atom_site_occupancy
  K  K0  1  0.86980526  0.25000000  -0.36980526  1.0
  K  K1  1  0.36980526  0.13019474  -0.25000000  1.0
  K  K2  1  0.75000000  0.36980526  -0.86980526  1.0
  K  K3  1  0.25000000  0.63019474  -0.13019474  1.0
  K  K4  1  0.13019474  0.75000000  -0.63019474  1.0
  K  K5  1  0.63019474  -0.13019474  0.25000000  1.0
  K  K6  1  1.25000000  1.25000000  0.25000000  1.0
  K  K7  1  0.75000000  0.75000000  -0.25000000  1.0
  Mn  Mn8  1  0.50000000  0.50000000  -0.50000000  1.0
  Mn  Mn9  1  0.00000000  0.00000000  0.00000000  1.0
  Br  Br10  1  0.21237620  0.43372888  -0.44464157  1.0
  Br  Br11  1  0.71237620  0.05535843  -0.06627112  1.0
  Br  Br12  1  0.94464157  0.06627112  -0.71237620  1.0
  Br  Br13  1  0.44464157  0.78762380  -0.43372888  1.0
  Br  Br14  1  0.56627112  0.44464157  -0.21237620  1.0
  Br  Br15  1  1.06627112  -0.71237620  -0.05535843  1.0
  Br  Br16  1  0.78762380  0.56627112  -0.55535843  1.0
  Br  Br17  1  0.28762380  -0.05535843  0.06627112  1.0
  Br  Br18  1  0.55535843  0.21237620  -0.56627112  1.0
  Br  Br19  1  1.05535843  -0.06627112  -0.28762380  1.0
  Br  Br20  1  0.93372888  -0.28762380  0.05535843  1.0
  Br  Br21  1  0.43372888  0.55535843  -0.78762380  1.0
