# generated using pymatgen
data_ZnHOF
_symmetry_space_group_name_H-M   'P 1'
_cell_length_a   3.19394046
_cell_length_b   3.19394046
_cell_length_c   4.69721387
_cell_angle_alpha   90.00000000
_cell_angle_beta   90.00000000
_cell_angle_gamma   120.00000000
_symmetry_Int_Tables_number   1
_chemical_formula_structural   ZnHOF
_chemical_formula_sum   'Zn1 H1 O1 F1'
_cell_volume   41.49775451
_cell_formula_units_Z   1
loop_
 _symmetry_equiv_pos_site_id
 _symmetry_equiv_pos_as_xyz
  1  'x, y, z'
loop_
 _atom_site_type_symbol
 _atom_site_label
 _atom_site_symmetry_multiplicity
 _atom_site_fract_x
 _atom_site_fract_y
 _atom_site_fract_z
 _atom_site_occupancy
  Zn  Zn0  1  -0.00000000  -0.00000000  0.56977059  1.0
  H  H1  1  0.66666667  0.33333333  0.17628586  1.0
  O  O2  1  0.66666667  0.33333333  0.38393078  1.0
  F  F3  1  0.33333333  0.66666667  -0.17598723  1.0
