# generated using pymatgen
data_KHC(NO)2
_symmetry_space_group_name_H-M   'P 1'
_cell_length_a   8.18187347
_cell_length_b   8.18187347
_cell_length_c   8.18187347
_cell_angle_alpha   109.76235565
_cell_angle_beta   109.76235565
_cell_angle_gamma   108.89050663
_symmetry_Int_Tables_number   1
_chemical_formula_structural   KHC(NO)2
_chemical_formula_sum   'K4 H4 C4 N8 O8'
_cell_volume   421.60229500
_cell_formula_units_Z   4
loop_
 _symmetry_equiv_pos_site_id
 _symmetry_equiv_pos_as_xyz
  1  'x, y, z'
loop_
 _atom_site_type_symbol
 _atom_site_label
 _atom_site_symmetry_multiplicity
 _atom_site_fract_x
 _atom_site_fract_y
 _atom_site_fract_z
 _atom_site_occupancy
  K  K0  1  0.87500000  1.54787540  1.17287540  1.0
  K  K1  1  0.37500000  0.70212460  0.82712460  1.0
  K  K2  1  1.29787540  1.12500000  0.67287540  1.0
  K  K3  1  0.45212460  0.62500000  0.32712460  1.0
  H  H4  1  0.87500000  1.04725548  0.67225548  1.0
  H  H5  1  1.37500000  1.20274452  1.32774452  1.0
  H  H6  1  1.79725548  1.12500000  1.17225548  1.0
  H  H7  1  0.95274452  1.62500000  0.82774452  1.0
  C  C8  1  0.87500000  1.16405528  0.78905528  1.0
  C  C9  1  1.37500000  1.08594472  1.21094472  1.0
  C  C10  1  0.91405528  1.12500000  0.28905528  1.0
  C  C11  1  1.83594472  1.62500000  1.71094472  1.0
  N  N12  1  1.03148159  1.35088500  0.91369653  1.0
  N  N13  1  1.31281153  0.89911500  1.18059659  1.0
  N  N14  1  0.43718847  1.11778506  1.08630347  1.0
  N  N15  1  0.71851841  0.13221494  0.81940341  1.0
  N  N16  1  0.88221494  0.96851841  0.31940341  1.0
  N  N17  1  1.10088500  1.28148159  0.41369653  1.0
  N  N18  1  0.64911500  0.56281153  0.68059659  1.0
  N  N19  1  0.86778506  0.68718847  0.58630347  1.0
  O  O20  1  1.18303964  1.38480339  0.88977739  1.0
  O  O21  1  1.25497400  1.86519661  1.29823626  1.0
  O  O22  1  0.49502600  1.29326226  1.11022261  1.0
  O  O23  1  1.56696036  0.95673774  0.70176374  1.0
  O  O24  1  0.70673774  0.81696036  0.20176374  1.0
  O  O25  1  1.13480339  1.43303964  1.38977739  1.0
  O  O26  1  0.61519661  0.50497400  0.79823626  1.0
  O  O27  1  1.04326226  0.74502600  0.61022261  1.0
