# generated using pymatgen
data_CaCrF5
_symmetry_space_group_name_H-M   'P 1'
_cell_length_a   5.58146093
_cell_length_b   5.58146093
_cell_length_c   7.61168128
_cell_angle_alpha   70.06674194
_cell_angle_beta   109.93325806
_cell_angle_gamma   108.14481503
_symmetry_Int_Tables_number   1
_chemical_formula_structural   CaCrF5
_chemical_formula_sum   'Ca2 Cr2 F10'
_cell_volume   204.38840157
_cell_formula_units_Z   2
loop_
 _symmetry_equiv_pos_site_id
 _symmetry_equiv_pos_as_xyz
  1  'x, y, z'
loop_
 _atom_site_type_symbol
 _atom_site_label
 _atom_site_symmetry_multiplicity
 _atom_site_fract_x
 _atom_site_fract_y
 _atom_site_fract_z
 _atom_site_occupancy
  Ca  Ca0  1  1.31152038  -0.22818982  0.13721964  1.0
  Ca  Ca1  1  1.22818982  -0.31152038  0.63721964  1.0
  Cr  Cr2  1  0.76990798  0.23022974  0.38713846  1.0
  Cr  Cr3  1  0.76977026  0.23009202  0.88713846  1.0
  F  F4  1  0.98016842  0.98070556  0.50496415  1.0
  F  F5  1  0.01929444  0.01983158  0.00496415  1.0
  F  F6  1  1.48810542  -0.07300403  0.85874034  1.0
  F  F7  1  1.07300403  -0.48810542  0.35874034  1.0
  F  F8  1  0.69498144  0.15522305  0.13717727  1.0
  F  F9  1  0.84477695  0.30501856  0.63717727  1.0
  F  F10  1  1.46690667  -0.05147604  0.41563248  1.0
  F  F11  1  1.05147604  -0.46690667  0.91563248  1.0
  F  F12  1  0.52016651  0.44026836  0.76922765  1.0
  F  F13  1  0.55973164  0.47983349  0.26922765  1.0
