# generated using pymatgen
data_Zr2Cu
_symmetry_space_group_name_H-M   'P 1'
_cell_length_a   5.39447972
_cell_length_b   5.39447972
_cell_length_c   5.39447972
_cell_angle_alpha   102.74668623
_cell_angle_beta   102.74668623
_cell_angle_gamma   123.96718180
_symmetry_Int_Tables_number   1
_chemical_formula_structural   Zr2Cu
_chemical_formula_sum   'Zr4 Cu2'
_cell_volume   114.93686927
_cell_formula_units_Z   2
loop_
 _symmetry_equiv_pos_site_id
 _symmetry_equiv_pos_as_xyz
  1  'x, y, z'
loop_
 _atom_site_type_symbol
 _atom_site_label
 _atom_site_symmetry_multiplicity
 _atom_site_fract_x
 _atom_site_fract_y
 _atom_site_fract_z
 _atom_site_occupancy
  Zr  Zr0  1  0.15763031  0.65763031  0.81526062  1.0
  Zr  Zr1  1  0.84236969  0.34236969  1.18473938  1.0
  Zr  Zr2  1  0.65763031  0.84236969  0.50000000  1.0
  Zr  Zr3  1  1.34236969  1.15763031  1.50000000  1.0
  Cu  Cu4  1  0.75000000  0.75000000  -0.00000000  1.0
  Cu  Cu5  1  0.25000000  0.25000000  -0.00000000  1.0
