# generated using pymatgen
data_NaSr2IO6
_symmetry_space_group_name_H-M   'P 1'
_cell_length_a   5.84793853
_cell_length_b   6.03565720
_cell_length_c   10.17795793
_cell_angle_alpha   90.00000000
_cell_angle_beta   125.35956461
_cell_angle_gamma   90.00000000
_symmetry_Int_Tables_number   1
_chemical_formula_structural   NaSr2IO6
_chemical_formula_sum   'Na2 Sr4 I2 O12'
_cell_volume   292.97554469
_cell_formula_units_Z   2
loop_
 _symmetry_equiv_pos_site_id
 _symmetry_equiv_pos_as_xyz
  1  'x, y, z'
loop_
 _atom_site_type_symbol
 _atom_site_label
 _atom_site_symmetry_multiplicity
 _atom_site_fract_x
 _atom_site_fract_y
 _atom_site_fract_z
 _atom_site_occupancy
  Na  Na0  1  0.50000000  0.00000000  0.50000000  1.0
  Na  Na1  1  0.50000000  0.50000000  -0.00000000  1.0
  Sr  Sr2  1  0.24065047  0.45004550  0.25260923  1.0
  Sr  Sr3  1  0.24065047  0.04995450  0.75260923  1.0
  Sr  Sr4  1  0.75934953  0.95004550  0.24739077  1.0
  Sr  Sr5  1  0.75934953  0.54995450  0.74739077  1.0
  I  I6  1  0.00000000  -0.00000000  0.00000000  1.0
  I  I7  1  -0.00000000  0.50000000  0.50000000  1.0
  O  O8  1  0.31558563  0.03727047  0.22553730  1.0
  O  O9  1  0.31558563  0.46272953  0.72553730  1.0
  O  O10  1  0.68441437  0.53727047  0.27446270  1.0
  O  O11  1  0.68441437  0.96272953  0.77446270  1.0
  O  O12  1  0.87835880  0.73427469  0.05477181  1.0
  O  O13  1  0.87835880  0.76572531  0.55477181  1.0
  O  O14  1  0.12164120  0.23427469  0.44522819  1.0
  O  O15  1  0.12164120  0.26572531  0.94522819  1.0
  O  O16  1  0.76901206  0.18213790  0.03986926  1.0
  O  O17  1  0.76901206  0.31786210  0.53986926  1.0
  O  O18  1  0.23098794  0.68213790  0.46013074  1.0
  O  O19  1  0.23098794  0.81786210  0.96013074  1.0
