# generated using pymatgen
data_V3P
_symmetry_space_group_name_H-M   'P 1'
_cell_length_a   9.31998152
_cell_length_b   9.31998152
_cell_length_c   4.73287042
_cell_angle_alpha   90.00000000
_cell_angle_beta   90.00000000
_cell_angle_gamma   90.00000000
_symmetry_Int_Tables_number   1
_chemical_formula_structural   V3P
_chemical_formula_sum   'V24 P8'
_cell_volume   411.10685338
_cell_formula_units_Z   8
loop_
 _symmetry_equiv_pos_site_id
 _symmetry_equiv_pos_as_xyz
  1  'x, y, z'
loop_
 _atom_site_type_symbol
 _atom_site_label
 _atom_site_symmetry_multiplicity
 _atom_site_fract_x
 _atom_site_fract_y
 _atom_site_fract_z
 _atom_site_occupancy
  V  V0  1  0.59187994  0.91719430  0.51871049  1.0
  V  V1  1  0.40812006  0.08280570  0.51871049  1.0
  V  V2  1  0.41719430  0.90812006  0.01871049  1.0
  V  V3  1  0.58280570  0.09187994  0.01871049  1.0
  V  V4  1  0.90812006  0.58280570  0.98128951  1.0
  V  V5  1  0.09187994  0.41719430  0.98128951  1.0
  V  V6  1  0.08280570  0.59187994  0.48128951  1.0
  V  V7  1  0.91719430  0.40812006  0.48128951  1.0
  V  V8  1  0.98936654  0.85236691  0.73657392  1.0
  V  V9  1  0.01063346  0.14763309  0.73657392  1.0
  V  V10  1  0.35236691  0.51063346  0.23657392  1.0
  V  V11  1  0.64763309  0.48936654  0.23657392  1.0
  V  V12  1  0.51063346  0.64763309  0.76342608  1.0
  V  V13  1  0.48936654  0.35236691  0.76342608  1.0
  V  V14  1  0.14763309  0.98936654  0.26342608  1.0
  V  V15  1  0.85236691  0.01063346  0.26342608  1.0
  V  V16  1  0.71569351  0.80460855  0.00892697  1.0
  V  V17  1  0.28430649  0.19539145  0.00892697  1.0
  V  V18  1  0.30460855  0.78430649  0.50892697  1.0
  V  V19  1  0.69539145  0.21569351  0.50892697  1.0
  V  V20  1  0.78430649  0.69539145  0.49107303  1.0
  V  V21  1  0.21569351  0.30460855  0.49107303  1.0
  V  V22  1  0.19539145  0.71569351  0.99107303  1.0
  V  V23  1  0.80460855  0.28430649  0.99107303  1.0
  P  P24  1  0.97912644  0.79175928  0.23392419  1.0
  P  P25  1  0.02087356  0.20824072  0.23392419  1.0
  P  P26  1  0.29175928  0.52087356  0.73392419  1.0
  P  P27  1  0.70824072  0.47912644  0.73392419  1.0
  P  P28  1  0.52087356  0.70824072  0.26607581  1.0
  P  P29  1  0.47912644  0.29175928  0.26607581  1.0
  P  P30  1  0.20824072  0.97912644  0.76607581  1.0
  P  P31  1  0.79175928  0.02087356  0.76607581  1.0
