# generated using pymatgen
data_SrCaSn
_symmetry_space_group_name_H-M   'P 1'
_cell_length_a   8.43148676
_cell_length_b   5.19592170
_cell_length_c   9.67116385
_cell_angle_alpha   90.00000000
_cell_angle_beta   90.00000000
_cell_angle_gamma   90.00000000
_symmetry_Int_Tables_number   1
_chemical_formula_structural   SrCaSn
_chemical_formula_sum   'Sr4 Ca4 Sn4'
_cell_volume   423.68735347
_cell_formula_units_Z   4
loop_
 _symmetry_equiv_pos_site_id
 _symmetry_equiv_pos_as_xyz
  1  'x, y, z'
loop_
 _atom_site_type_symbol
 _atom_site_label
 _atom_site_symmetry_multiplicity
 _atom_site_fract_x
 _atom_site_fract_y
 _atom_site_fract_z
 _atom_site_occupancy
  Sr  Sr0  1  0.97917548  0.75000000  0.68297850  1.0
  Sr  Sr1  1  0.47917548  0.75000000  0.81702150  1.0
  Sr  Sr2  1  0.02082452  0.25000000  0.31702150  1.0
  Sr  Sr3  1  0.52082452  0.25000000  0.18297850  1.0
  Ca  Ca4  1  0.84955759  0.75000000  0.07028087  1.0
  Ca  Ca5  1  0.34955759  0.75000000  0.42971913  1.0
  Ca  Ca6  1  0.15044241  0.25000000  0.92971913  1.0
  Ca  Ca7  1  0.65044241  0.25000000  0.57028087  1.0
  Sn  Sn8  1  0.73627995  0.75000000  0.39079489  1.0
  Sn  Sn9  1  0.23627995  0.75000000  0.10920511  1.0
  Sn  Sn10  1  0.26372005  0.25000000  0.60920511  1.0
  Sn  Sn11  1  0.76372005  0.25000000  0.89079489  1.0
