# generated using pymatgen
data_HfMnSi2
_symmetry_space_group_name_H-M   'P 1'
_cell_length_a   8.96691841
_cell_length_b   9.77007170
_cell_length_c   7.86033925
_cell_angle_alpha   90.00000000
_cell_angle_beta   90.00000000
_cell_angle_gamma   90.00000000
_symmetry_Int_Tables_number   1
_chemical_formula_structural   HfMnSi2
_chemical_formula_sum   'Hf12 Mn12 Si24'
_cell_volume   688.62416596
_cell_formula_units_Z   12
loop_
 _symmetry_equiv_pos_site_id
 _symmetry_equiv_pos_as_xyz
  1  'x, y, z'
loop_
 _atom_site_type_symbol
 _atom_site_label
 _atom_site_symmetry_multiplicity
 _atom_site_fract_x
 _atom_site_fract_y
 _atom_site_fract_z
 _atom_site_occupancy
  Hf  Hf0  1  0.17458354  0.54846512  0.75441931  1.0
  Hf  Hf1  1  0.17458354  0.54846512  0.24558069  1.0
  Hf  Hf2  1  0.67458354  0.95153488  0.75441931  1.0
  Hf  Hf3  1  0.67458354  0.95153488  0.24558069  1.0
  Hf  Hf4  1  0.82541646  0.45153488  0.75441931  1.0
  Hf  Hf5  1  0.82541646  0.45153488  0.24558069  1.0
  Hf  Hf6  1  0.32541646  0.04846512  0.75441931  1.0
  Hf  Hf7  1  0.32541646  0.04846512  0.24558069  1.0
  Hf  Hf8  1  0.16789534  0.82142802  0.00000000  1.0
  Hf  Hf9  1  0.66789534  0.67857198  0.00000000  1.0
  Hf  Hf10  1  0.83210466  0.17857198  0.00000000  1.0
  Hf  Hf11  1  0.33210466  0.32142802  0.00000000  1.0
  Mn  Mn12  1  0.50000000  0.50000000  0.75476149  1.0
  Mn  Mn13  1  0.50000000  0.50000000  0.24523851  1.0
  Mn  Mn14  1  0.00000000  0.00000000  0.75476149  1.0
  Mn  Mn15  1  0.00000000  0.00000000  0.24523851  1.0
  Mn  Mn16  1  0.41627123  0.75357453  0.75076505  1.0
  Mn  Mn17  1  0.41627123  0.75357453  0.24923495  1.0
  Mn  Mn18  1  0.91627123  0.74642547  0.75076505  1.0
  Mn  Mn19  1  0.91627123  0.74642547  0.24923495  1.0
  Mn  Mn20  1  0.58372877  0.24642547  0.75076505  1.0
  Mn  Mn21  1  0.58372877  0.24642547  0.24923495  1.0
  Mn  Mn22  1  0.08372877  0.25357453  0.75076505  1.0
  Mn  Mn23  1  0.08372877  0.25357453  0.24923495  1.0
  Si  Si24  1  0.16521427  0.81900474  0.65012762  1.0
  Si  Si25  1  0.16521427  0.81900474  0.34987238  1.0
  Si  Si26  1  0.66521427  0.68099526  0.65012762  1.0
  Si  Si27  1  0.66521427  0.68099526  0.34987238  1.0
  Si  Si28  1  0.83478573  0.18099526  0.65012762  1.0
  Si  Si29  1  0.83478573  0.18099526  0.34987238  1.0
  Si  Si30  1  0.33478573  0.31900474  0.65012762  1.0
  Si  Si31  1  0.33478573  0.31900474  0.34987238  1.0
  Si  Si32  1  0.45991150  0.87600526  0.50000000  1.0
  Si  Si33  1  0.95991150  0.62399474  0.50000000  1.0
  Si  Si34  1  0.54008850  0.12399474  0.50000000  1.0
  Si  Si35  1  0.04008850  0.37600526  0.50000000  1.0
  Si  Si36  1  0.38941139  0.60405504  0.50000000  1.0
  Si  Si37  1  0.88941139  0.89594496  0.50000000  1.0
  Si  Si38  1  0.61058861  0.39594496  0.50000000  1.0
  Si  Si39  1  0.11058861  0.10405504  0.50000000  1.0
  Si  Si40  1  0.46177723  0.88038467  0.00000000  1.0
  Si  Si41  1  0.96177723  0.61961533  0.00000000  1.0
  Si  Si42  1  0.53822277  0.11961533  0.00000000  1.0
  Si  Si43  1  0.03822277  0.38038467  0.00000000  1.0
  Si  Si44  1  0.37522795  0.60657215  0.00000000  1.0
  Si  Si45  1  0.87522795  0.89342785  0.00000000  1.0
  Si  Si46  1  0.62477205  0.39342785  0.00000000  1.0
  Si  Si47  1  0.12477205  0.10657215  0.00000000  1.0
