# generated using pymatgen
data_NaCuPO4
_symmetry_space_group_name_H-M   'P 1'
_cell_length_a   4.86206807
_cell_length_b   7.51924642
_cell_length_c   9.79919832
_cell_angle_alpha   90.00000000
_cell_angle_beta   90.00000000
_cell_angle_gamma   90.00000000
_symmetry_Int_Tables_number   1
_chemical_formula_structural   NaCuPO4
_chemical_formula_sum   'Na4 Cu4 P4 O16'
_cell_volume   358.24975308
_cell_formula_units_Z   4
loop_
 _symmetry_equiv_pos_site_id
 _symmetry_equiv_pos_as_xyz
  1  'x, y, z'
loop_
 _atom_site_type_symbol
 _atom_site_label
 _atom_site_symmetry_multiplicity
 _atom_site_fract_x
 _atom_site_fract_y
 _atom_site_fract_z
 _atom_site_occupancy
  Na  Na0  1  0.97016472  0.73936347  0.68127461  1.0
  Na  Na1  1  0.47016472  0.76063653  0.31872539  1.0
  Na  Na2  1  0.02983528  0.23936347  0.81872539  1.0
  Na  Na3  1  0.52983528  0.26063653  0.18127461  1.0
  Cu  Cu4  1  0.50782885  0.92419058  0.94656904  1.0
  Cu  Cu5  1  1.00782885  0.57580942  0.05343096  1.0
  Cu  Cu6  1  0.49217115  0.42419058  0.55343096  1.0
  Cu  Cu7  1  -0.00782885  0.07580942  0.44656904  1.0
  P  P8  1  0.07507274  0.97816022  0.12574680  1.0
  P  P9  1  0.57507274  0.52183978  0.87425320  1.0
  P  P10  1  0.92492726  0.47816022  0.37425320  1.0
  P  P11  1  0.42492726  0.02183978  0.62574680  1.0
  O  O12  1  0.33304288  0.94707775  0.76677153  1.0
  O  O13  1  0.83304288  0.55292225  0.23322847  1.0
  O  O14  1  0.66695712  0.44707775  0.73322847  1.0
  O  O15  1  0.16695712  0.05292225  0.26677153  1.0
  O  O16  1  0.27400496  0.90473913  0.51579680  1.0
  O  O17  1  0.77400496  0.59526087  0.48420320  1.0
  O  O18  1  0.72599504  0.40473913  0.98420320  1.0
  O  O19  1  0.22599504  0.09526087  0.01579680  1.0
  O  O20  1  0.25845652  0.51874344  0.89029369  1.0
  O  O21  1  0.75845652  0.98125656  0.10970631  1.0
  O  O22  1  0.74154348  0.01874344  0.60970631  1.0
  O  O23  1  0.24154348  0.48125656  0.39029369  1.0
  O  O24  1  0.20524995  0.78656637  0.11034364  1.0
  O  O25  1  0.70524995  0.71343363  0.88965636  1.0
  O  O26  1  0.79475005  0.28656637  0.38965636  1.0
  O  O27  1  0.29475005  0.21343363  0.61034364  1.0
