# generated using pymatgen
data_Hf8CoTe6
_symmetry_space_group_name_H-M   'P 1'
_cell_length_a   3.73763382
_cell_length_b   25.90037773
_cell_length_c   7.74181561
_cell_angle_alpha   90.00000000
_cell_angle_beta   90.00000000
_cell_angle_gamma   90.00000000
_symmetry_Int_Tables_number   1
_chemical_formula_structural   Hf8CoTe6
_chemical_formula_sum   'Hf16 Co2 Te12'
_cell_volume   749.45519211
_cell_formula_units_Z   2
loop_
 _symmetry_equiv_pos_site_id
 _symmetry_equiv_pos_as_xyz
  1  'x, y, z'
loop_
 _atom_site_type_symbol
 _atom_site_label
 _atom_site_symmetry_multiplicity
 _atom_site_fract_x
 _atom_site_fract_y
 _atom_site_fract_z
 _atom_site_occupancy
  Hf  Hf0  1  0.50000000  0.59889495  0.05490743  1.0
  Hf  Hf1  1  0.50000000  0.40110505  0.05490743  1.0
  Hf  Hf2  1  0.00000000  0.09889495  0.94509257  1.0
  Hf  Hf3  1  0.00000000  0.90110505  0.94509257  1.0
  Hf  Hf4  1  0.50000000  0.19748298  0.06155815  1.0
  Hf  Hf5  1  0.50000000  0.80251702  0.06155815  1.0
  Hf  Hf6  1  0.00000000  0.69748298  0.93844185  1.0
  Hf  Hf7  1  0.00000000  0.30251702  0.93844185  1.0
  Hf  Hf8  1  0.50000000  0.06331946  0.26549319  1.0
  Hf  Hf9  1  0.50000000  0.93668054  0.26549319  1.0
  Hf  Hf10  1  0.00000000  0.56331946  0.73450681  1.0
  Hf  Hf11  1  0.00000000  0.43668054  0.73450681  1.0
  Hf  Hf12  1  0.50000000  0.00000000  0.92033425  1.0
  Hf  Hf13  1  0.00000000  0.50000000  0.07966575  1.0
  Hf  Hf14  1  0.50000000  0.50000000  0.45288199  1.0
  Hf  Hf15  1  0.00000000  0.00000000  0.54711801  1.0
  Co  Co16  1  0.50000000  0.50000000  0.84800913  1.0
  Co  Co17  1  0.00000000  0.00000000  0.15199087  1.0
  Te  Te18  1  0.50000000  0.70235870  0.21909037  1.0
  Te  Te19  1  0.50000000  0.29764130  0.21909037  1.0
  Te  Te20  1  0.00000000  0.20235870  0.78090963  1.0
  Te  Te21  1  0.00000000  0.79764130  0.78090963  1.0
  Te  Te22  1  0.50000000  0.65396562  0.69901304  1.0
  Te  Te23  1  0.50000000  0.34603438  0.69901304  1.0
  Te  Te24  1  0.00000000  0.15396562  0.30098696  1.0
  Te  Te25  1  0.00000000  0.84603438  0.30098696  1.0
  Te  Te26  1  0.50000000  0.08231579  0.64766904  1.0
  Te  Te27  1  0.50000000  0.91768421  0.64766904  1.0
  Te  Te28  1  0.00000000  0.58231579  0.35233096  1.0
  Te  Te29  1  0.00000000  0.41768421  0.35233096  1.0
