# generated using pymatgen
data_Ta7(B4Ir3)2
_symmetry_space_group_name_H-M   'P 1'
_cell_length_a   9.28916553
_cell_length_b   9.28916553
_cell_length_c   3.38405137
_cell_angle_alpha   90.00000000
_cell_angle_beta   90.00000000
_cell_angle_gamma   120.00000000
_symmetry_Int_Tables_number   1
_chemical_formula_structural   Ta7(B4Ir3)2
_chemical_formula_sum   'Ta7 B8 Ir6'
_cell_volume   252.88378496
_cell_formula_units_Z   1
loop_
 _symmetry_equiv_pos_site_id
 _symmetry_equiv_pos_as_xyz
  1  'x, y, z'
loop_
 _atom_site_type_symbol
 _atom_site_label
 _atom_site_symmetry_multiplicity
 _atom_site_fract_x
 _atom_site_fract_y
 _atom_site_fract_z
 _atom_site_occupancy
  Ta  Ta0  1  0.72242248  0.64011692  0.00000000  1.0
  Ta  Ta1  1  0.64011692  0.91769443  0.00000000  1.0
  Ta  Ta2  1  0.91769443  0.27757752  0.00000000  1.0
  Ta  Ta3  1  0.35988308  0.08230557  0.00000000  1.0
  Ta  Ta4  1  0.27757752  0.35988308  0.00000000  1.0
  Ta  Ta5  1  0.08230557  0.72242248  0.00000000  1.0
  Ta  Ta6  1  0.00000000  0.00000000  0.00000000  1.0
  B  B7  1  0.33333333  0.66666667  0.00000000  1.0
  B  B8  1  0.66666667  0.33333333  0.00000000  1.0
  B  B9  1  0.15651702  0.93226488  0.50000000  1.0
  B  B10  1  0.93226488  0.77574786  0.50000000  1.0
  B  B11  1  0.77574786  0.84348298  0.50000000  1.0
  B  B12  1  0.06773511  0.22425214  0.50000000  1.0
  B  B13  1  0.84348298  0.06773512  0.50000000  1.0
  B  B14  1  0.22425214  0.15651702  0.50000000  1.0
  Ir  Ir15  1  0.35997441  0.84607404  0.50000000  1.0
  Ir  Ir16  1  0.84607404  0.48609962  0.50000000  1.0
  Ir  Ir17  1  0.48609962  0.64002559  0.50000000  1.0
  Ir  Ir18  1  0.15392596  0.51390038  0.50000000  1.0
  Ir  Ir19  1  0.64002559  0.15392596  0.50000000  1.0
  Ir  Ir20  1  0.51390038  0.35997441  0.50000000  1.0
