# generated using pymatgen
data_CsVOF4
_symmetry_space_group_name_H-M   'P 1'
_cell_length_a   5.68556586
_cell_length_b   6.45765992
_cell_length_c   14.56123513
_cell_angle_alpha   90.00000000
_cell_angle_beta   90.00000000
_cell_angle_gamma   90.00000000
_symmetry_Int_Tables_number   1
_chemical_formula_structural   CsVOF4
_chemical_formula_sum   'Cs4 V4 O4 F16'
_cell_volume   534.62231198
_cell_formula_units_Z   4
loop_
 _symmetry_equiv_pos_site_id
 _symmetry_equiv_pos_as_xyz
  1  'x, y, z'
loop_
 _atom_site_type_symbol
 _atom_site_label
 _atom_site_symmetry_multiplicity
 _atom_site_fract_x
 _atom_site_fract_y
 _atom_site_fract_z
 _atom_site_occupancy
  Cs  Cs0  1  0.02122466  0.75000000  0.37263664  1.0
  Cs  Cs1  1  0.52122466  0.75000000  0.12736336  1.0
  Cs  Cs2  1  0.97877534  0.25000000  0.62736336  1.0
  Cs  Cs3  1  0.47877534  0.25000000  0.87263664  1.0
  V  V4  1  0.50715619  0.75000000  0.63893032  1.0
  V  V5  1  1.00715619  0.75000000  0.86106968  1.0
  V  V6  1  0.49284381  0.25000000  0.36106968  1.0
  V  V7  1  -0.00715619  0.25000000  0.13893032  1.0
  O  O8  1  0.21581104  0.75000000  0.93375113  1.0
  O  O9  1  0.71581104  0.75000000  0.56624887  1.0
  O  O10  1  0.78418896  0.25000000  0.06624887  1.0
  O  O11  1  0.28418896  0.25000000  0.43375113  1.0
  F  F12  1  0.46097541  0.47426975  0.65959197  1.0
  F  F13  1  0.46097541  0.02573025  0.65959197  1.0
  F  F14  1  0.96097541  0.47426975  0.84040803  1.0
  F  F15  1  0.96097541  0.02573025  0.84040803  1.0
  F  F16  1  0.53902459  0.97426975  0.34040803  1.0
  F  F17  1  0.53902459  0.52573025  0.34040803  1.0
  F  F18  1  0.03902459  0.97426975  0.15959197  1.0
  F  F19  1  0.03902459  0.52573025  0.15959197  1.0
  F  F20  1  0.24977538  0.75000000  0.56479571  1.0
  F  F21  1  0.74977538  0.75000000  0.93520429  1.0
  F  F22  1  0.75022462  0.25000000  0.43520429  1.0
  F  F23  1  0.25022462  0.25000000  0.06479571  1.0
  F  F24  1  0.17213777  0.75000000  0.75232597  1.0
  F  F25  1  0.67213777  0.75000000  0.74767403  1.0
  F  F26  1  0.82786223  0.25000000  0.24767403  1.0
  F  F27  1  0.32786223  0.25000000  0.25232597  1.0
