# generated using pymatgen
data_Rb3B12H12Br
_symmetry_space_group_name_H-M   'P 1'
_cell_length_a   7.11465444
_cell_length_b   7.11465444
_cell_length_c   7.11465444
_cell_angle_alpha   92.90043845
_cell_angle_beta   92.90043845
_cell_angle_gamma   92.90043845
_symmetry_Int_Tables_number   1
_chemical_formula_structural   Rb3B12H12Br
_chemical_formula_sum   'Rb3 B12 H12 Br1'
_cell_volume   358.69912830
_cell_formula_units_Z   1
loop_
 _symmetry_equiv_pos_site_id
 _symmetry_equiv_pos_as_xyz
  1  'x, y, z'
loop_
 _atom_site_type_symbol
 _atom_site_label
 _atom_site_symmetry_multiplicity
 _atom_site_fract_x
 _atom_site_fract_y
 _atom_site_fract_z
 _atom_site_occupancy
  Rb  Rb0  1  1.00000000  -0.50000000  -0.00000000  1.0
  Rb  Rb1  1  1.00000000  -0.00000000  -0.50000000  1.0
  Rb  Rb2  1  0.50000000  -0.00000000  -0.00000000  1.0
  B  B3  1  1.55767525  0.55767525  -0.27032963  1.0
  B  B4  1  1.55767525  -0.27032963  0.55767525  1.0
  B  B5  1  1.27032963  0.44232475  -0.55767525  1.0
  B  B6  1  0.44232475  1.27032963  -0.55767525  1.0
  B  B7  1  0.44232475  0.44232475  0.27032963  1.0
  B  B8  1  0.72967037  0.55767525  0.55767525  1.0
  B  B9  1  1.37980631  0.37980631  -0.34137582  1.0
  B  B10  1  1.37980631  -0.34137582  0.37980631  1.0
  B  B11  1  1.34137582  0.62019369  -0.37980631  1.0
  B  B12  1  0.62019369  1.34137582  -0.37980631  1.0
  B  B13  1  0.62019369  0.62019369  0.34137582  1.0
  B  B14  1  0.65862418  0.37980631  0.37980631  1.0
  H  H15  1  1.29332216  0.29332216  -0.22939044  1.0
  H  H16  1  1.29332216  -0.22939044  0.29332216  1.0
  H  H17  1  1.22939044  0.70667784  -0.29332216  1.0
  H  H18  1  0.70667784  1.22939044  -0.29332216  1.0
  H  H19  1  0.70667784  0.70667784  0.22939044  1.0
  H  H20  1  0.77060956  0.29332216  0.29332216  1.0
  H  H21  1  0.40156735  0.40156735  0.10700374  1.0
  H  H22  1  0.40156735  1.10700374  -0.59843265  1.0
  H  H23  1  0.89299626  0.59843265  0.59843265  1.0
  H  H24  1  1.59843265  -0.10700374  0.59843265  1.0
  H  H25  1  1.59843265  0.59843265  -0.10700374  1.0
  H  H26  1  1.10700374  0.40156735  -0.59843265  1.0
  Br  Br27  1  0.00000000  0.00000000  0.00000000  1.0
