# generated using pymatgen
data_Lu6Zn23
_symmetry_space_group_name_H-M   'P 1'
_cell_length_a   8.85237217
_cell_length_b   8.85237217
_cell_length_c   8.85237217
_cell_angle_alpha   60.00000000
_cell_angle_beta   60.00000000
_cell_angle_gamma   60.00000000
_symmetry_Int_Tables_number   1
_chemical_formula_structural   Lu6Zn23
_chemical_formula_sum   'Lu6 Zn23'
_cell_volume   490.52821624
_cell_formula_units_Z   1
loop_
 _symmetry_equiv_pos_site_id
 _symmetry_equiv_pos_as_xyz
  1  'x, y, z'
loop_
 _atom_site_type_symbol
 _atom_site_label
 _atom_site_symmetry_multiplicity
 _atom_site_fract_x
 _atom_site_fract_y
 _atom_site_fract_z
 _atom_site_occupancy
  Lu  Lu0  1  -0.70215927  0.70215927  0.70215927  1.0
  Lu  Lu1  1  -0.29784073  0.29784073  0.70215927  1.0
  Lu  Lu2  1  0.70215927  0.70215927  -0.70215927  1.0
  Lu  Lu3  1  0.29784073  1.29784073  -0.29784073  1.0
  Lu  Lu4  1  0.29784073  -0.29784073  1.29784073  1.0
  Lu  Lu5  1  -0.29784073  0.29784073  0.29784073  1.0
  Zn  Zn6  1  0.87783165  0.87783165  -0.12216835  1.0
  Zn  Zn7  1  1.12216835  0.12216835  0.63349494  1.0
  Zn  Zn8  1  1.12216835  0.63349494  0.12216835  1.0
  Zn  Zn9  1  0.36650506  0.87783165  -0.12216835  1.0
  Zn  Zn10  1  1.63349494  0.12216835  0.12216835  1.0
  Zn  Zn11  1  0.87783165  0.36650506  -0.12216835  1.0
  Zn  Zn12  1  0.87783165  0.87783165  -0.63349494  1.0
  Zn  Zn13  1  1.12216835  0.12216835  0.12216835  1.0
  Zn  Zn14  1  0.66966244  0.66966244  -0.33033756  1.0
  Zn  Zn15  1  1.33033756  0.33033756  0.00898733  1.0
  Zn  Zn16  1  1.33033756  0.00898733  0.33033756  1.0
  Zn  Zn17  1  0.99101267  0.66966244  -0.33033756  1.0
  Zn  Zn18  1  1.00898733  0.33033756  0.33033756  1.0
  Zn  Zn19  1  0.66966244  0.99101267  -0.33033756  1.0
  Zn  Zn20  1  0.66966244  0.66966244  -0.00898733  1.0
  Zn  Zn21  1  1.33033756  0.33033756  0.33033756  1.0
  Zn  Zn22  1  1.50000000  0.00000000  -0.00000000  1.0
  Zn  Zn23  1  1.00000000  0.50000000  -0.50000000  1.0
  Zn  Zn24  1  0.00000000  1.50000000  -0.00000000  1.0
  Zn  Zn25  1  0.50000000  1.00000000  -0.50000000  1.0
  Zn  Zn26  1  0.00000000  0.00000000  0.50000000  1.0
  Zn  Zn27  1  0.50000000  -0.50000000  1.00000000  1.0
  Zn  Zn28  1  0.00000000  0.00000000  -0.00000000  1.0
