# generated using pymatgen
data_SrIrO3
_symmetry_space_group_name_H-M   'P 1'
_cell_length_a   5.60822104
_cell_length_b   5.60822104
_cell_length_c   14.32397529
_cell_angle_alpha   88.23589052
_cell_angle_beta   91.76410948
_cell_angle_gamma   59.95116444
_symmetry_Int_Tables_number   1
_chemical_formula_structural   SrIrO3
_chemical_formula_sum   'Sr6 Ir6 O18'
_cell_volume   389.22844357
_cell_formula_units_Z   6
loop_
 _symmetry_equiv_pos_site_id
 _symmetry_equiv_pos_as_xyz
  1  'x, y, z'
loop_
 _atom_site_type_symbol
 _atom_site_label
 _atom_site_symmetry_multiplicity
 _atom_site_fract_x
 _atom_site_fract_y
 _atom_site_fract_z
 _atom_site_occupancy
  O  O0  1  0.78694574  -0.07329817  0.40124642  1.0
  O  O1  1  1.07329817  0.21305426  0.90124642  1.0
  O  O2  1  0.92670183  -0.21305426  0.09875358  1.0
  O  O3  1  1.21305426  0.07329817  0.59875358  1.0
  O  O4  1  1.50724382  -0.03348491  0.23548325  1.0
  O  O5  1  1.03348491  -0.50724382  0.73548325  1.0
  O  O6  1  0.96651509  0.50724382  0.26451675  1.0
  O  O7  1  0.49275618  0.03348491  0.76451675  1.0
  O  O8  1  1.59511439  0.21389493  0.95864319  1.0
  O  O9  1  0.78610507  -0.59511439  0.45864319  1.0
  O  O10  1  1.21389493  0.59511439  0.54135681  1.0
  O  O11  1  0.40488561  -0.21389493  0.04135681  1.0
  O  O12  1  0.50881518  -0.49118482  0.25000000  1.0
  O  O13  1  1.49118482  0.49118482  0.75000000  1.0
  O  O14  1  0.26991480  -0.06658149  0.40054419  1.0
  O  O15  1  1.06658149  0.73008520  0.90054419  1.0
  O  O16  1  0.93341851  -0.73008520  0.09945581  1.0
  O  O17  1  1.73008520  0.06658149  0.59945581  1.0
  Ir  Ir18  1  0.64618242  -0.31282175  0.34803008  1.0
  Ir  Ir19  1  1.31282175  0.35381758  0.84803008  1.0
  Ir  Ir20  1  0.68717825  -0.35381758  0.15196992  1.0
  Ir  Ir21  1  1.35381758  0.31282175  0.65196992  1.0
  Ir  Ir22  1  0.00000000  -0.00000000  0.50000000  1.0
  Ir  Ir23  1  0.00000000  0.00000000  0.00000000  1.0
  Sr  Sr24  1  1.32690130  0.34816071  0.39655078  1.0
  Sr  Sr25  1  0.65183929  -0.32690130  0.89655078  1.0
  Sr  Sr26  1  1.34816071  0.32690130  0.10344922  1.0
  Sr  Sr27  1  0.67309870  -0.34816071  0.60344922  1.0
  Sr  Sr28  1  0.99834971  -0.00165029  0.25000000  1.0
  Sr  Sr29  1  1.00165029  0.00165029  0.75000000  1.0
