# generated using pymatgen
data_Hg2Te2O7
_symmetry_space_group_name_H-M   'P 1'
_cell_length_a   7.67693818
_cell_length_b   7.67693818
_cell_length_c   13.77849297
_cell_angle_alpha   70.29316637
_cell_angle_beta   109.70683363
_cell_angle_gamma   120.52315497
_symmetry_Int_Tables_number   1
_chemical_formula_structural   Hg2Te2O7
_chemical_formula_sum   'Hg8 Te8 O28'
_cell_volume   644.60684109
_cell_formula_units_Z   4
loop_
 _symmetry_equiv_pos_site_id
 _symmetry_equiv_pos_as_xyz
  1  'x, y, z'
loop_
 _atom_site_type_symbol
 _atom_site_label
 _atom_site_symmetry_multiplicity
 _atom_site_fract_x
 _atom_site_fract_y
 _atom_site_fract_z
 _atom_site_occupancy
  Hg  Hg0  1  0.70409690  0.70409690  0.25000000  1.0
  Hg  Hg1  1  0.29590310  0.29590310  0.75000000  1.0
  Hg  Hg2  1  0.22846591  0.22846591  0.25000000  1.0
  Hg  Hg3  1  0.77153409  0.77153409  0.75000000  1.0
  Hg  Hg4  1  1.50000000  0.00000000  -0.00000000  1.0
  Hg  Hg5  1  1.00000000  0.50000000  0.50000000  1.0
  Hg  Hg6  1  0.50000000  0.00000000  0.50000000  1.0
  Hg  Hg7  1  1.00000000  -0.50000000  -0.00000000  1.0
  Te  Te8  1  0.76896451  0.21993930  0.24285063  1.0
  Te  Te9  1  0.78006070  -0.76896451  0.74285063  1.0
  Te  Te10  1  1.21993930  0.76896451  0.25714937  1.0
  Te  Te11  1  1.23103549  -0.21993930  0.75714937  1.0
  Te  Te12  1  0.50000000  0.50000000  0.50000000  1.0
  Te  Te13  1  0.50000000  0.50000000  0.00000000  1.0
  Te  Te14  1  -0.00000000  0.00000000  0.50000000  1.0
  Te  Te15  1  0.00000000  0.00000000  0.00000000  1.0
  O  O16  1  1.88176438  -0.00523897  0.34458214  1.0
  O  O17  1  1.00523897  -0.88176438  0.84458214  1.0
  O  O18  1  0.99476103  0.88176438  0.15541786  1.0
  O  O19  1  0.11823562  0.00523897  0.65541786  1.0
  O  O20  1  1.45748962  -0.41310497  0.10717197  1.0
  O  O21  1  1.41310497  -0.45748962  0.60717197  1.0
  O  O22  1  0.58689503  0.45748962  0.39282803  1.0
  O  O23  1  0.54251038  0.41310497  0.89282803  1.0
  O  O24  1  0.42979429  -0.27406956  0.39960427  1.0
  O  O25  1  1.27406956  -0.42979429  0.89960427  1.0
  O  O26  1  0.72593044  0.42979429  0.10039573  1.0
  O  O27  1  1.57020571  0.27406956  0.60039573  1.0
  O  O28  1  0.82657174  0.13058223  0.49445221  1.0
  O  O29  1  0.86941777  -0.82657174  0.99445221  1.0
  O  O30  1  1.13058223  0.82657174  0.00554779  1.0
  O  O31  1  1.17342826  -0.13058223  0.50554779  1.0
  O  O32  1  0.60411591  -0.01385636  0.16888818  1.0
  O  O33  1  1.01385636  -0.60411591  0.66888818  1.0
  O  O34  1  0.98614364  0.60411591  0.33111182  1.0
  O  O35  1  1.39588409  0.01385636  0.83111182  1.0
  O  O36  1  0.37872582  0.04528721  0.29896260  1.0
  O  O37  1  0.95471279  -0.37872582  0.79896260  1.0
  O  O38  1  1.04528721  0.37872582  0.20103740  1.0
  O  O39  1  1.62127418  -0.04528721  0.70103740  1.0
  O  O40  1  1.20594680  0.29178034  0.44744459  1.0
  O  O41  1  1.70821966  -0.20594680  0.94744459  1.0
  O  O42  1  0.29178034  0.20594680  0.05255541  1.0
  O  O43  1  0.79405320  -0.29178034  0.55255541  1.0
