# generated using pymatgen
data_AsS
_symmetry_space_group_name_H-M   'P 1'
_cell_length_a   7.15594174
_cell_length_b   7.15594174
_cell_length_c   10.25784548
_cell_angle_alpha   80.24752257
_cell_angle_beta   99.75247743
_cell_angle_gamma   101.93240249
_symmetry_Int_Tables_number   1
_chemical_formula_structural   AsS
_chemical_formula_sum   'As8 S8'
_cell_volume   501.55975385
_cell_formula_units_Z   8
loop_
 _symmetry_equiv_pos_site_id
 _symmetry_equiv_pos_as_xyz
  1  'x, y, z'
loop_
 _atom_site_type_symbol
 _atom_site_label
 _atom_site_symmetry_multiplicity
 _atom_site_fract_x
 _atom_site_fract_y
 _atom_site_fract_z
 _atom_site_occupancy
  As  As0  1  1.75988542  -0.19560463  0.57523727  1.0
  As  As1  1  1.19560463  -0.75988542  0.07523727  1.0
  As  As2  1  0.80439537  0.75988542  0.92476273  1.0
  As  As3  1  0.24011458  0.19560463  0.42476273  1.0
  As  As4  1  1.42047615  -0.27117852  0.66117603  1.0
  As  As5  1  1.27117852  -0.42047615  0.16117603  1.0
  As  As6  1  0.72882148  0.42047615  0.83882397  1.0
  As  As7  1  0.57952385  0.27117852  0.33882397  1.0
  S  S8  1  1.51160931  -0.15575887  0.85861076  1.0
  S  S9  1  1.15575887  -0.51160931  0.35861076  1.0
  S  S10  1  0.84424113  0.51160931  0.64138924  1.0
  S  S11  1  0.48839069  0.15575887  0.14138924  1.0
  S  S12  1  0.93978390  0.93978390  0.75000000  1.0
  S  S13  1  0.06021610  0.06021610  0.25000000  1.0
  S  S14  1  0.41671417  0.41671417  0.75000000  1.0
  S  S15  1  0.58328583  0.58328583  0.25000000  1.0
