# generated using pymatgen
data_Sr2CoGe2O7
_symmetry_space_group_name_H-M   'P 1'
_cell_length_a   8.24344900
_cell_length_b   8.24344900
_cell_length_c   5.38939342
_cell_angle_alpha   90.00000000
_cell_angle_beta   90.00000000
_cell_angle_gamma   90.00000000
_symmetry_Int_Tables_number   1
_chemical_formula_structural   Sr2CoGe2O7
_chemical_formula_sum   'Sr4 Co2 Ge4 O14'
_cell_volume   366.23327336
_cell_formula_units_Z   2
loop_
 _symmetry_equiv_pos_site_id
 _symmetry_equiv_pos_as_xyz
  1  'x, y, z'
loop_
 _atom_site_type_symbol
 _atom_site_label
 _atom_site_symmetry_multiplicity
 _atom_site_fract_x
 _atom_site_fract_y
 _atom_site_fract_z
 _atom_site_occupancy
  Sr  Sr0  1  0.83422713  0.33422713  0.49220157  1.0
  Sr  Sr1  1  0.66577287  0.83422713  0.50779843  1.0
  Sr  Sr2  1  0.16577287  0.66577287  0.49220157  1.0
  Sr  Sr3  1  0.33422713  0.16577287  0.50779843  1.0
  Co  Co4  1  0.50000000  0.50000000  0.00000000  1.0
  Co  Co5  1  0.00000000  0.00000000  0.00000000  1.0
  Ge  Ge6  1  0.35700523  0.85700523  0.04594347  1.0
  Ge  Ge7  1  0.14299477  0.35700523  0.95405653  1.0
  Ge  Ge8  1  0.64299477  0.14299477  0.04594347  1.0
  Ge  Ge9  1  0.85700523  0.64299477  0.95405653  1.0
  O  O10  1  0.32226998  0.41716920  0.79376459  1.0
  O  O11  1  0.17773002  0.91716920  0.20623541  1.0
  O  O12  1  0.58283080  0.32226998  0.20623541  1.0
  O  O13  1  0.91716920  0.82226998  0.79376459  1.0
  O  O14  1  0.67773002  0.58283080  0.79376459  1.0
  O  O15  1  0.82226998  0.08283080  0.20623541  1.0
  O  O16  1  0.41716920  0.67773002  0.20623541  1.0
  O  O17  1  0.08283080  0.17773002  0.79376459  1.0
  O  O18  1  0.36191875  0.86191875  0.72273289  1.0
  O  O19  1  0.13808125  0.36191875  0.27726711  1.0
  O  O20  1  0.63808125  0.13808125  0.72273289  1.0
  O  O21  1  0.86191875  0.63808125  0.27726711  1.0
  O  O22  1  0.00000000  0.50000000  0.81641190  1.0
  O  O23  1  0.50000000  0.00000000  0.18358810  1.0
