# generated using pymatgen
data_KAsF6
_symmetry_space_group_name_H-M   'P 1'
_cell_length_a   5.07835761
_cell_length_b   5.07835761
_cell_length_c   5.07835761
_cell_angle_alpha   98.13374307
_cell_angle_beta   98.13374307
_cell_angle_gamma   98.13374307
_symmetry_Int_Tables_number   1
_chemical_formula_structural   KAsF6
_chemical_formula_sum   'K1 As1 F6'
_cell_volume   126.59276299
_cell_formula_units_Z   1
loop_
 _symmetry_equiv_pos_site_id
 _symmetry_equiv_pos_as_xyz
  1  'x, y, z'
loop_
 _atom_site_type_symbol
 _atom_site_label
 _atom_site_symmetry_multiplicity
 _atom_site_fract_x
 _atom_site_fract_y
 _atom_site_fract_z
 _atom_site_occupancy
  K  K0  1  0.50000000  0.50000000  0.50000000  1.0
  As  As1  1  0.00000000  0.00000000  0.00000000  1.0
  F  F2  1  0.77026942  0.72887306  0.07610390  1.0
  F  F3  1  1.27112694  -0.07610390  0.22973058  1.0
  F  F4  1  0.92389610  0.22973058  0.27112694  1.0
  F  F5  1  1.22973058  0.27112694  -0.07610390  1.0
  F  F6  1  0.72887306  1.07610390  -0.22973058  1.0
  F  F7  1  1.07610390  0.77026942  -0.27112694  1.0
