# generated using pymatgen
data_CsAl(SO4)2
_symmetry_space_group_name_H-M   'P 1'
_cell_length_a   5.05549374
_cell_length_b   5.05549374
_cell_length_c   8.77009435
_cell_angle_alpha   90.00000000
_cell_angle_beta   90.00000000
_cell_angle_gamma   120.00000000
_symmetry_Int_Tables_number   1
_chemical_formula_structural   CsAl(SO4)2
_chemical_formula_sum   'Cs1 Al1 S2 O8'
_cell_volume   194.11632087
_cell_formula_units_Z   1
loop_
 _symmetry_equiv_pos_site_id
 _symmetry_equiv_pos_as_xyz
  1  'x, y, z'
loop_
 _atom_site_type_symbol
 _atom_site_label
 _atom_site_symmetry_multiplicity
 _atom_site_fract_x
 _atom_site_fract_y
 _atom_site_fract_z
 _atom_site_occupancy
  Cs  Cs0  1  -0.00000000  -0.00000000  0.50000000  1.0
  Al  Al1  1  0.00000000  0.00000000  -0.00000000  1.0
  S  S2  1  0.33333333  0.66666667  0.18603262  1.0
  S  S3  1  0.66666667  0.33333333  0.81396738  1.0
  O  O4  1  0.17281721  0.82729959  0.12980970  1.0
  O  O5  1  0.82729959  0.17281721  0.87019030  1.0
  O  O6  1  0.65448238  0.82718279  0.12980970  1.0
  O  O7  1  0.17270041  0.34551762  0.12980970  1.0
  O  O8  1  0.82718279  0.65448238  0.87019030  1.0
  O  O9  1  0.34551762  0.17270041  0.87019030  1.0
  O  O10  1  0.33333333  0.66666667  0.35328669  1.0
  O  O11  1  0.66666667  0.33333333  0.64671331  1.0
