# generated using pymatgen
data_Nb2B2Os
_symmetry_space_group_name_H-M   'P 1'
_cell_length_a   5.91725691
_cell_length_b   5.91725691
_cell_length_c   6.86871445
_cell_angle_alpha   90.00000000
_cell_angle_beta   90.00000000
_cell_angle_gamma   90.00000000
_symmetry_Int_Tables_number   1
_chemical_formula_structural   Nb2B2Os
_chemical_formula_sum   'Nb8 B8 Os4'
_cell_volume   240.50068225
_cell_formula_units_Z   4
loop_
 _symmetry_equiv_pos_site_id
 _symmetry_equiv_pos_as_xyz
  1  'x, y, z'
loop_
 _atom_site_type_symbol
 _atom_site_label
 _atom_site_symmetry_multiplicity
 _atom_site_fract_x
 _atom_site_fract_y
 _atom_site_fract_z
 _atom_site_occupancy
  Nb  Nb0  1  0.31365084  0.83577135  0.50000000  1.0
  Nb  Nb1  1  0.81365084  0.66422865  0.00000000  1.0
  Nb  Nb2  1  0.16422865  0.31365084  0.50000000  1.0
  Nb  Nb3  1  0.66422865  0.18634916  0.00000000  1.0
  Nb  Nb4  1  0.68634916  0.16422865  0.50000000  1.0
  Nb  Nb5  1  0.18634916  0.33577135  0.00000000  1.0
  Nb  Nb6  1  0.83577135  0.68634916  0.50000000  1.0
  Nb  Nb7  1  0.33577135  0.81365084  0.00000000  1.0
  B  B8  1  0.38637491  0.11362509  0.25000000  1.0
  B  B9  1  0.38637491  0.11362509  0.75000000  1.0
  B  B10  1  0.88637491  0.38637491  0.75000000  1.0
  B  B11  1  0.88637491  0.38637491  0.25000000  1.0
  B  B12  1  0.61362509  0.88637491  0.25000000  1.0
  B  B13  1  0.61362509  0.88637491  0.75000000  1.0
  B  B14  1  0.11362509  0.61362509  0.75000000  1.0
  B  B15  1  0.11362509  0.61362509  0.25000000  1.0
  Os  Os16  1  0.50000000  0.50000000  0.27970831  1.0
  Os  Os17  1  0.50000000  0.50000000  0.72029169  1.0
  Os  Os18  1  0.00000000  0.00000000  0.77970831  1.0
  Os  Os19  1  0.00000000  0.00000000  0.22029169  1.0
