# generated using pymatgen
data_SrP3
_symmetry_space_group_name_H-M   'P 1'
_cell_length_a   5.90137789
_cell_length_b   5.90137789
_cell_length_c   5.73866564
_cell_angle_alpha   71.91089710
_cell_angle_beta   108.08910290
_cell_angle_gamma   102.96331444
_symmetry_Int_Tables_number   1
_chemical_formula_structural   SrP3
_chemical_formula_sum   'Sr2 P6'
_cell_volume   178.76982819
_cell_formula_units_Z   2
loop_
 _symmetry_equiv_pos_site_id
 _symmetry_equiv_pos_as_xyz
  1  'x, y, z'
loop_
 _atom_site_type_symbol
 _atom_site_label
 _atom_site_symmetry_multiplicity
 _atom_site_fract_x
 _atom_site_fract_y
 _atom_site_fract_z
 _atom_site_occupancy
  Sr  Sr0  1  0.83696348  0.16303652  0.64809664  1.0
  Sr  Sr1  1  1.16303652  -0.16303652  0.35190336  1.0
  P  P2  1  0.38470972  0.10458835  0.82024317  1.0
  P  P3  1  0.89541165  0.61529028  0.82024317  1.0
  P  P4  1  1.10458835  -0.61529028  0.17975683  1.0
  P  P5  1  1.61529028  -0.10458835  0.17975683  1.0
  P  P6  1  0.51073792  0.48926208  0.80816938  1.0
  P  P7  1  1.48926208  -0.48926208  0.19183062  1.0
