# generated using pymatgen
data_Mn3(CuBi)4
_symmetry_space_group_name_H-M   'P 1'
_cell_length_a   8.53691454
_cell_length_b   8.53691454
_cell_length_c   8.53691454
_cell_angle_alpha   60.00000000
_cell_angle_beta   60.00000000
_cell_angle_gamma   60.00000000
_symmetry_Int_Tables_number   1
_chemical_formula_structural   Mn3(CuBi)4
_chemical_formula_sum   'Mn6 Cu8 Bi8'
_cell_volume   439.93428060
_cell_formula_units_Z   2
loop_
 _symmetry_equiv_pos_site_id
 _symmetry_equiv_pos_as_xyz
  1  'x, y, z'
loop_
 _atom_site_type_symbol
 _atom_site_label
 _atom_site_symmetry_multiplicity
 _atom_site_fract_x
 _atom_site_fract_y
 _atom_site_fract_z
 _atom_site_occupancy
  Mn  Mn0  1  1.50000000  0.00000000  -0.00000000  1.0
  Mn  Mn1  1  1.00000000  0.50000000  -0.50000000  1.0
  Mn  Mn2  1  0.00000000  1.50000000  -0.00000000  1.0
  Mn  Mn3  1  0.50000000  1.00000000  -0.50000000  1.0
  Mn  Mn4  1  -0.00000000  -0.00000000  0.50000000  1.0
  Mn  Mn5  1  0.50000000  -0.50000000  1.00000000  1.0
  Cu  Cu6  1  0.88982682  0.88982682  -0.11017318  1.0
  Cu  Cu7  1  1.11017318  0.11017318  0.66948047  1.0
  Cu  Cu8  1  1.11017318  0.66948047  0.11017318  1.0
  Cu  Cu9  1  0.33051953  0.88982682  -0.11017318  1.0
  Cu  Cu10  1  1.66948047  0.11017318  0.11017318  1.0
  Cu  Cu11  1  0.88982682  0.33051953  -0.11017318  1.0
  Cu  Cu12  1  0.88982682  0.88982682  -0.66948047  1.0
  Cu  Cu13  1  1.11017318  0.11017318  0.11017318  1.0
  Bi  Bi14  1  -0.71588112  0.71588112  0.71588112  1.0
  Bi  Bi15  1  -0.28411888  0.28411888  0.71588112  1.0
  Bi  Bi16  1  0.71588112  0.71588112  -0.71588112  1.0
  Bi  Bi17  1  0.28411888  1.28411888  -0.28411888  1.0
  Bi  Bi18  1  0.28411888  -0.28411888  1.28411888  1.0
  Bi  Bi19  1  -0.28411888  0.28411888  0.28411888  1.0
  Bi  Bi20  1  0.75000000  0.75000000  -0.25000000  1.0
  Bi  Bi21  1  1.25000000  0.25000000  0.25000000  1.0
