# generated using pymatgen
data_Sc2O3
_symmetry_space_group_name_H-M   'P 1'
_cell_length_a   8.57932559
_cell_length_b   8.57932559
_cell_length_c   8.57932559
_cell_angle_alpha   109.47122063
_cell_angle_beta   109.47122063
_cell_angle_gamma   109.47122063
_symmetry_Int_Tables_number   1
_chemical_formula_structural   Sc2O3
_chemical_formula_sum   'Sc16 O24'
_cell_volume   486.11336204
_cell_formula_units_Z   8
loop_
 _symmetry_equiv_pos_site_id
 _symmetry_equiv_pos_as_xyz
  1  'x, y, z'
loop_
 _atom_site_type_symbol
 _atom_site_label
 _atom_site_symmetry_multiplicity
 _atom_site_fract_x
 _atom_site_fract_y
 _atom_site_fract_z
 _atom_site_occupancy
  Sc  Sc0  1  0.49994144  0.49994144  0.49994144  1.0
  Sc  Sc1  1  1.50000000  1.00000000  1.00005856  1.0
  Sc  Sc2  1  1.00000000  1.00005856  1.50000000  1.0
  Sc  Sc3  1  1.00005856  0.50000000  1.00000000  1.0
  Sc  Sc4  1  1.21396962  0.96396962  1.25000000  1.0
  Sc  Sc5  1  1.25000000  1.21396962  0.96396962  1.0
  Sc  Sc6  1  0.75000000  1.28603038  0.53603038  1.0
  Sc  Sc7  1  0.96396962  1.25000000  1.21396962  1.0
  Sc  Sc8  1  1.53603038  0.75000000  1.28603038  1.0
  Sc  Sc9  1  1.28603038  0.53603038  0.75000000  1.0
  Sc  Sc10  1  0.71400032  0.46400032  0.25000000  1.0
  Sc  Sc11  1  0.25000000  0.71400032  0.46400032  1.0
  Sc  Sc12  1  0.75000000  0.78599968  1.03599968  1.0
  Sc  Sc13  1  0.46400032  1.25000000  0.71400032  1.0
  Sc  Sc14  1  1.03599968  0.75000000  0.78599968  1.0
  Sc  Sc15  1  0.78599968  1.03599968  0.75000000  1.0
  O  O16  1  0.98959370  0.95403657  1.72667637  1.0
  O  O17  1  0.72736020  1.26291733  0.77332363  1.0
  O  O18  1  1.72667637  0.98959370  0.95403657  1.0
  O  O19  1  0.53555713  0.77263980  0.54596343  1.0
  O  O20  1  0.95403657  0.72667637  0.98959370  1.0
  O  O21  1  1.23708267  0.96444287  1.51040630  1.0
  O  O22  1  0.77263980  0.54596343  0.53555713  1.0
  O  O23  1  1.51040630  1.23708267  0.96444287  1.0
  O  O24  1  0.96444287  0.51040630  1.23708267  1.0
  O  O25  1  0.77332363  0.72736020  0.26291733  1.0
  O  O26  1  0.26291733  0.77332363  0.72736020  1.0
  O  O27  1  0.54596343  0.53555713  0.77263980  1.0
  O  O28  1  1.04596836  1.27332703  1.01040252  1.0
  O  O29  1  0.76292451  1.03556584  0.48959748  1.0
  O  O30  1  1.01040252  1.04596836  1.27332703  1.0
  O  O31  1  1.27264133  0.73707549  1.22667297  1.0
  O  O32  1  1.27332703  1.01040252  1.04596836  1.0
  O  O33  1  1.46443416  1.22735867  1.45403164  1.0
  O  O34  1  1.73707549  1.22667297  1.27264133  1.0
  O  O35  1  0.45403164  0.46443416  0.22735867  1.0
  O  O36  1  0.22735867  0.45403164  0.46443416  1.0
  O  O37  1  1.48959748  0.76292451  1.03556584  1.0
  O  O38  1  1.03556584  1.48959748  0.76292451  1.0
  O  O39  1  1.22667297  1.27264133  1.73707549  1.0
