# generated using pymatgen
data_Mn(SbO2)2
_symmetry_space_group_name_H-M   'P 1'
_cell_length_a   8.81524976
_cell_length_b   8.81524976
_cell_length_c   6.15324209
_cell_angle_alpha   90.00000000
_cell_angle_beta   90.00000000
_cell_angle_gamma   90.00000000
_symmetry_Int_Tables_number   1
_chemical_formula_structural   Mn(SbO2)2
_chemical_formula_sum   'Mn4 Sb8 O16'
_cell_volume   478.16000323
_cell_formula_units_Z   4
loop_
 _symmetry_equiv_pos_site_id
 _symmetry_equiv_pos_as_xyz
  1  'x, y, z'
loop_
 _atom_site_type_symbol
 _atom_site_label
 _atom_site_symmetry_multiplicity
 _atom_site_fract_x
 _atom_site_fract_y
 _atom_site_fract_z
 _atom_site_occupancy
  Mn  Mn0  1  0.50000000  0.00000000  0.75000000  1.0
  Mn  Mn1  1  0.50000000  0.00000000  0.25000000  1.0
  Mn  Mn2  1  0.00000000  0.50000000  0.75000000  1.0
  Mn  Mn3  1  0.00000000  0.50000000  0.25000000  1.0
  Sb  Sb4  1  0.33233974  0.67965736  0.00000000  1.0
  Sb  Sb5  1  0.83233974  0.82034264  0.00000000  1.0
  Sb  Sb6  1  0.32034264  0.33233974  0.50000000  1.0
  Sb  Sb7  1  0.82034264  0.16766026  0.50000000  1.0
  Sb  Sb8  1  0.66766026  0.32034264  0.00000000  1.0
  Sb  Sb9  1  0.16766026  0.17965736  0.00000000  1.0
  Sb  Sb10  1  0.67965736  0.66766026  0.50000000  1.0
  Sb  Sb11  1  0.17965736  0.83233974  0.50000000  1.0
  O  O12  1  0.36283663  0.90105469  0.00000000  1.0
  O  O13  1  0.86283663  0.59894531  0.00000000  1.0
  O  O14  1  0.09894531  0.36283663  0.50000000  1.0
  O  O15  1  0.59894531  0.13716337  0.50000000  1.0
  O  O16  1  0.63716337  0.09894531  0.00000000  1.0
  O  O17  1  0.13716337  0.40105469  0.00000000  1.0
  O  O18  1  0.90105469  0.63716337  0.50000000  1.0
  O  O19  1  0.40105469  0.86283663  0.50000000  1.0
  O  O20  1  0.32053251  0.17946749  0.75000000  1.0
  O  O21  1  0.32053251  0.17946749  0.25000000  1.0
  O  O22  1  0.82053251  0.32053251  0.75000000  1.0
  O  O23  1  0.82053251  0.32053251  0.25000000  1.0
  O  O24  1  0.67946749  0.82053251  0.75000000  1.0
  O  O25  1  0.67946749  0.82053251  0.25000000  1.0
  O  O26  1  0.17946749  0.67946749  0.75000000  1.0
  O  O27  1  0.17946749  0.67946749  0.25000000  1.0
