# generated using pymatgen
data_PbS
_symmetry_space_group_name_H-M   'P 1'
_cell_length_a   4.24399195
_cell_length_b   4.24399195
_cell_length_c   6.00018868
_cell_angle_alpha   89.92070103
_cell_angle_beta   90.07929897
_cell_angle_gamma   90.00068949
_symmetry_Int_Tables_number   1
_chemical_formula_structural   PbS
_chemical_formula_sum   'Pb2 S2'
_cell_volume   108.07199752
_cell_formula_units_Z   2
loop_
 _symmetry_equiv_pos_site_id
 _symmetry_equiv_pos_as_xyz
  1  'x, y, z'
loop_
 _atom_site_type_symbol
 _atom_site_label
 _atom_site_symmetry_multiplicity
 _atom_site_fract_x
 _atom_site_fract_y
 _atom_site_fract_z
 _atom_site_occupancy
  Pb  Pb0  1  1.25005011  -0.25005011  0.25010568  1.0
  Pb  Pb1  1  0.74994989  0.25005011  0.74989432  1.0
  S  S2  1  0.74967405  0.25032595  0.25028925  1.0
  S  S3  1  1.25032595  -0.25032595  0.74971075  1.0
