# generated using pymatgen
data_HfMn2
_symmetry_space_group_name_H-M   'P 1'
_cell_length_a   4.91010967
_cell_length_b   4.91010967
_cell_length_c   16.23856199
_cell_angle_alpha   90.00000000
_cell_angle_beta   90.00000000
_cell_angle_gamma   120.00000000
_symmetry_Int_Tables_number   1
_chemical_formula_structural   HfMn2
_chemical_formula_sum   'Hf8 Mn16'
_cell_volume   339.04752946
_cell_formula_units_Z   8
loop_
 _symmetry_equiv_pos_site_id
 _symmetry_equiv_pos_as_xyz
  1  'x, y, z'
loop_
 _atom_site_type_symbol
 _atom_site_label
 _atom_site_symmetry_multiplicity
 _atom_site_fract_x
 _atom_site_fract_y
 _atom_site_fract_z
 _atom_site_occupancy
  Mn  Mn0  1  0.50000000  0.50000000  0.50000000  1.0
  Mn  Mn1  1  0.50000000  0.50000000  -0.00000000  1.0
  Mn  Mn2  1  0.50000000  -0.00000000  0.50000000  1.0
  Mn  Mn3  1  0.50000000  -0.00000000  0.00000000  1.0
  Mn  Mn4  1  0.00000000  0.50000000  0.50000000  1.0
  Mn  Mn5  1  0.00000000  0.50000000  0.00000000  1.0
  Mn  Mn6  1  0.33333333  0.66666667  0.37451484  1.0
  Mn  Mn7  1  0.33333333  0.66666667  0.12548516  1.0
  Mn  Mn8  1  0.66666667  0.33333333  0.87451484  1.0
  Mn  Mn9  1  0.66666667  0.33333333  0.62548516  1.0
  Mn  Mn10  1  0.16292498  0.83707502  0.25000000  1.0
  Mn  Mn11  1  0.16292498  0.32584997  0.25000000  1.0
  Mn  Mn12  1  0.83707502  0.16292498  0.75000000  1.0
  Mn  Mn13  1  0.83707502  0.67415003  0.75000000  1.0
  Mn  Mn14  1  0.67415003  0.83707502  0.25000000  1.0
  Mn  Mn15  1  0.32584997  0.16292498  0.75000000  1.0
  Hf  Hf16  1  0.33333333  0.66666667  0.84352761  1.0
  Hf  Hf17  1  0.33333333  0.66666667  0.65647239  1.0
  Hf  Hf18  1  0.66666667  0.33333333  0.34352761  1.0
  Hf  Hf19  1  0.66666667  0.33333333  0.15647239  1.0
  Hf  Hf20  1  -0.00000000  -0.00000000  0.40694707  1.0
  Hf  Hf21  1  0.00000000  0.00000000  0.09305293  1.0
  Hf  Hf22  1  0.00000000  -0.00000000  0.90694707  1.0
  Hf  Hf23  1  0.00000000  0.00000000  0.59305293  1.0
