# generated using pymatgen
data_RbIn(WO4)2
_symmetry_space_group_name_H-M   'P 1'
_cell_length_a   5.94629875
_cell_length_b   5.94629875
_cell_length_c   7.86583015
_cell_angle_alpha   90.00000000
_cell_angle_beta   90.00000000
_cell_angle_gamma   120.00000000
_symmetry_Int_Tables_number   1
_chemical_formula_structural   RbIn(WO4)2
_chemical_formula_sum   'Rb1 In1 W2 O8'
_cell_volume   240.86219825
_cell_formula_units_Z   1
loop_
 _symmetry_equiv_pos_site_id
 _symmetry_equiv_pos_as_xyz
  1  'x, y, z'
loop_
 _atom_site_type_symbol
 _atom_site_label
 _atom_site_symmetry_multiplicity
 _atom_site_fract_x
 _atom_site_fract_y
 _atom_site_fract_z
 _atom_site_occupancy
  Rb  Rb0  1  0.00000000  0.00000000  -0.00000000  1.0
  In  In1  1  -0.00000000  -0.00000000  0.50000000  1.0
  W  W2  1  0.33333333  0.66666667  0.26366756  1.0
  W  W3  1  0.66666667  0.33333333  0.73633244  1.0
  O  O4  1  0.66714594  0.83357297  0.33392293  1.0
  O  O5  1  0.83357297  0.66714594  0.66607707  1.0
  O  O6  1  0.83357297  0.16642703  0.66607707  1.0
  O  O7  1  0.16642703  0.83357297  0.33392293  1.0
  O  O8  1  0.16642703  0.33285406  0.33392293  1.0
  O  O9  1  0.33285406  0.16642703  0.66607707  1.0
  O  O10  1  0.33333333  0.66666667  0.04050729  1.0
  O  O11  1  0.66666667  0.33333333  0.95949271  1.0
