# generated using pymatgen
data_Tb2AlCo2
_symmetry_space_group_name_H-M   'P 1'
_cell_length_a   5.34261582
_cell_length_b   5.34261582
_cell_length_c   5.34261582
_cell_angle_alpha   135.35836138
_cell_angle_beta   118.81856399
_cell_angle_gamma   78.83978461
_symmetry_Int_Tables_number   1
_chemical_formula_structural   Tb2AlCo2
_chemical_formula_sum   'Tb2 Al1 Co2'
_cell_volume   91.07685503
_cell_formula_units_Z   1
loop_
 _symmetry_equiv_pos_site_id
 _symmetry_equiv_pos_as_xyz
  1  'x, y, z'
loop_
 _atom_site_type_symbol
 _atom_site_label
 _atom_site_symmetry_multiplicity
 _atom_site_fract_x
 _atom_site_fract_y
 _atom_site_fract_z
 _atom_site_occupancy
  Tb  Tb0  1  0.70402594  0.20402594  0.50000000  1.0
  Tb  Tb1  1  1.29597406  0.79597406  0.50000000  1.0
  Al  Al2  1  0.00000000  0.00000000  0.00000000  1.0
  Co  Co3  1  0.27374871  0.50000000  0.77374871  1.0
  Co  Co4  1  0.72625129  0.50000000  1.22625129  1.0
