# generated using pymatgen
data_KCr3H6(SO7)2
_symmetry_space_group_name_H-M   'P 1'
_cell_length_a   7.20998162
_cell_length_b   7.20998162
_cell_length_c   7.20998162
_cell_angle_alpha   60.76814078
_cell_angle_beta   60.76814078
_cell_angle_gamma   60.76814078
_symmetry_Int_Tables_number   1
_chemical_formula_structural   KCr3H6(SO7)2
_chemical_formula_sum   'K1 Cr3 H6 S2 O14'
_cell_volume   269.61807069
_cell_formula_units_Z   1
loop_
 _symmetry_equiv_pos_site_id
 _symmetry_equiv_pos_as_xyz
  1  'x, y, z'
loop_
 _atom_site_type_symbol
 _atom_site_label
 _atom_site_symmetry_multiplicity
 _atom_site_fract_x
 _atom_site_fract_y
 _atom_site_fract_z
 _atom_site_occupancy
  K  K0  1  0.50000000  0.50000000  -0.50000000  1.0
  Cr  Cr1  1  0.50000000  1.00000000  -0.50000000  1.0
  Cr  Cr2  1  0.50000000  -0.50000000  -0.00000000  1.0
  Cr  Cr3  1  -0.00000000  0.50000000  -0.50000000  1.0
  H  H4  1  0.19192931  0.19192931  -0.21605293  1.0
  H  H5  1  0.19192931  0.78394707  -0.80807069  1.0
  H  H6  1  1.21605293  -0.19192931  -0.19192931  1.0
  H  H7  1  0.80807069  0.21605293  -0.19192931  1.0
  H  H8  1  0.80807069  -0.19192931  0.21605293  1.0
  H  H9  1  0.78394707  0.19192931  -0.80807069  1.0
  S  S10  1  0.80323552  0.80323552  -0.19676448  1.0
  S  S11  1  1.19676448  1.19676448  0.19676448  1.0
  O  O12  1  0.23684135  0.23684135  -0.38011941  1.0
  O  O13  1  0.23684135  0.61988059  -0.76315865  1.0
  O  O14  1  0.38011941  0.76315865  -0.23684135  1.0
  O  O15  1  0.76315865  0.38011941  -0.23684135  1.0
  O  O16  1  0.76315865  0.76315865  -0.61988059  1.0
  O  O17  1  0.61988059  0.23684135  -0.76315865  1.0
  O  O18  1  1.33753633  1.33753633  0.00020688  1.0
  O  O19  1  1.33753633  1.00020688  0.33753633  1.0
  O  O20  1  0.99979312  0.66246367  -0.33753633  1.0
  O  O21  1  0.66246367  0.99979312  -0.33753633  1.0
  O  O22  1  0.66246367  0.66246367  -0.00020688  1.0
  O  O23  1  1.00020688  1.33753633  0.33753633  1.0
  O  O24  1  0.88718621  0.88718621  -0.11281379  1.0
  O  O25  1  1.11281379  1.11281379  0.11281379  1.0
