# generated using pymatgen
data_NaFeF3
_symmetry_space_group_name_H-M   'P 1'
_cell_length_a   5.46285826
_cell_length_b   5.46285826
_cell_length_c   7.47172486
_cell_angle_alpha   90.00000000
_cell_angle_beta   90.00000000
_cell_angle_gamma   146.40371144
_symmetry_Int_Tables_number   1
_chemical_formula_structural   NaFeF3
_chemical_formula_sum   'Na2 Fe2 F6'
_cell_volume   123.38174643
_cell_formula_units_Z   2
loop_
 _symmetry_equiv_pos_site_id
 _symmetry_equiv_pos_as_xyz
  1  'x, y, z'
loop_
 _atom_site_type_symbol
 _atom_site_label
 _atom_site_symmetry_multiplicity
 _atom_site_fract_x
 _atom_site_fract_y
 _atom_site_fract_z
 _atom_site_occupancy
  Na  Na0  1  -0.25007403  0.25007403  0.75000000  1.0
  Na  Na1  1  0.25007403  0.74992597  0.25000000  1.0
  Fe  Fe2  1  0.00000000  0.00000000  0.00000000  1.0
  Fe  Fe3  1  0.00000000  0.00000000  0.50000000  1.0
  F  F4  1  0.37084661  0.62915339  0.94361854  1.0
  F  F5  1  0.37084661  0.62915339  0.55638146  1.0
  F  F6  1  -0.37084661  0.37084661  0.44361854  1.0
  F  F7  1  -0.37084661  0.37084661  0.05638146  1.0
  F  F8  1  0.08356020  0.91643980  0.75000000  1.0
  F  F9  1  -0.08356020  0.08356020  0.25000000  1.0
