# generated using pymatgen
data_Tl2CrO4
_symmetry_space_group_name_H-M   'P 1'
_cell_length_a   7.18011222
_cell_length_b   7.18011222
_cell_length_c   15.72620022
_cell_angle_alpha   70.49692957
_cell_angle_beta   109.50307043
_cell_angle_gamma   131.13866820
_symmetry_Int_Tables_number   1
_chemical_formula_structural   Tl2CrO4
_chemical_formula_sum   'Tl8 Cr4 O16'
_cell_volume   568.05893611
_cell_formula_units_Z   4
loop_
 _symmetry_equiv_pos_site_id
 _symmetry_equiv_pos_as_xyz
  1  'x, y, z'
loop_
 _atom_site_type_symbol
 _atom_site_label
 _atom_site_symmetry_multiplicity
 _atom_site_fract_x
 _atom_site_fract_y
 _atom_site_fract_z
 _atom_site_occupancy
  Tl  Tl0  1  0.97371451  -0.97371451  0.83535157  1.0
  Tl  Tl1  1  0.02628549  -0.02628549  0.16464843  1.0
  Tl  Tl2  1  0.84580314  -0.84580314  0.36058882  1.0
  Tl  Tl3  1  0.15419686  -0.15419686  0.63941118  1.0
  Tl  Tl4  1  1.45234775  -0.45234775  0.61747678  1.0
  Tl  Tl5  1  0.54765225  0.45234775  0.38252322  1.0
  Tl  Tl6  1  0.31062094  -0.31062094  0.91458197  1.0
  Tl  Tl7  1  0.68937906  -0.68937906  0.08541803  1.0
  Cr  Cr8  1  0.78941778  0.21058222  0.61720250  1.0
  Cr  Cr9  1  1.21058222  -0.21058222  0.38279750  1.0
  Cr  Cr10  1  0.63515921  0.36484079  0.85834914  1.0
  Cr  Cr11  1  1.36484079  -0.36484079  0.14165086  1.0
  O  O12  1  0.60397132  -0.06008619  0.68372640  1.0
  O  O13  1  1.06008619  0.39602868  0.68372640  1.0
  O  O14  1  0.93991381  -0.39602868  0.31627360  1.0
  O  O15  1  1.39602868  0.06008619  0.31627360  1.0
  O  O16  1  0.38542231  0.15324499  0.79438800  1.0
  O  O17  1  0.84675501  0.61457769  0.79438800  1.0
  O  O18  1  1.15324499  -0.61457769  0.20561200  1.0
  O  O19  1  1.61457769  -0.15324499  0.20561200  1.0
  O  O20  1  0.84487210  -0.84487210  0.53892736  1.0
  O  O21  1  0.15512790  -0.15512790  0.46107264  1.0
  O  O22  1  0.76101531  0.23898469  0.93819759  1.0
  O  O23  1  1.23898469  -0.23898469  0.06180241  1.0
  O  O24  1  0.65383582  0.34616418  0.57069896  1.0
  O  O25  1  1.34616418  -0.34616418  0.42930104  1.0
  O  O26  1  0.54534430  0.45465570  0.91046479  1.0
  O  O27  1  1.45465570  -0.45465570  0.08953521  1.0
