# generated using pymatgen
data_GdZnSn2
_symmetry_space_group_name_H-M   'P 1'
_cell_length_a   4.40620057
_cell_length_b   4.40620057
_cell_length_c   9.87683781
_cell_angle_alpha   90.00000000
_cell_angle_beta   90.00000000
_cell_angle_gamma   90.00000000
_symmetry_Int_Tables_number   1
_chemical_formula_structural   GdZnSn2
_chemical_formula_sum   'Gd2 Zn2 Sn4'
_cell_volume   191.75488908
_cell_formula_units_Z   2
loop_
 _symmetry_equiv_pos_site_id
 _symmetry_equiv_pos_as_xyz
  1  'x, y, z'
loop_
 _atom_site_type_symbol
 _atom_site_label
 _atom_site_symmetry_multiplicity
 _atom_site_fract_x
 _atom_site_fract_y
 _atom_site_fract_z
 _atom_site_occupancy
  Gd  Gd0  1  0.50000000  0.00000000  0.25357835  1.0
  Gd  Gd1  1  0.00000000  0.50000000  0.74642165  1.0
  Zn  Zn2  1  0.00000000  0.00000000  0.50000000  1.0
  Zn  Zn3  1  0.50000000  0.50000000  0.50000000  1.0
  Sn  Sn4  1  0.50000000  0.00000000  0.68222495  1.0
  Sn  Sn5  1  0.00000000  0.50000000  0.31777505  1.0
  Sn  Sn6  1  0.00000000  0.00000000  0.00000000  1.0
  Sn  Sn7  1  0.50000000  0.50000000  0.00000000  1.0
