# generated using pymatgen
data_H4N2O3
_symmetry_space_group_name_H-M   'P 1'
_cell_length_a   5.80640584
_cell_length_b   5.71214900
_cell_length_c   4.92549637
_cell_angle_alpha   90.00000000
_cell_angle_beta   90.00000000
_cell_angle_gamma   90.00000000
_symmetry_Int_Tables_number   1
_chemical_formula_structural   H4N2O3
_chemical_formula_sum   'H8 N4 O6'
_cell_volume   163.36421021
_cell_formula_units_Z   2
loop_
 _symmetry_equiv_pos_site_id
 _symmetry_equiv_pos_as_xyz
  1  'x, y, z'
loop_
 _atom_site_type_symbol
 _atom_site_label
 _atom_site_symmetry_multiplicity
 _atom_site_fract_x
 _atom_site_fract_y
 _atom_site_fract_z
 _atom_site_occupancy
  H  H0  1  0.85723795  0.50000000  0.68154329  1.0
  H  H1  1  0.14276205  0.50000000  0.68154329  1.0
  H  H2  1  0.35723795  0.00000000  0.31845671  1.0
  H  H3  1  0.64276205  0.00000000  0.31845671  1.0
  H  H4  1  0.50000000  0.14898235  0.56108620  1.0
  H  H5  1  -0.00000000  0.64898235  0.43891380  1.0
  H  H6  1  0.00000000  0.35101765  0.43891380  1.0
  H  H7  1  0.50000000  0.85101765  0.56108620  1.0
  N  N8  1  0.00000000  0.50000000  0.55884783  1.0
  N  N9  1  0.50000000  0.00000000  0.44115217  1.0
  N  N10  1  0.50000000  0.50000000  0.02939522  1.0
  N  N11  1  0.00000000  0.00000000  0.97060478  1.0
  O  O12  1  0.50000000  0.50000000  0.28464850  1.0
  O  O13  1  0.00000000  0.00000000  0.71535150  1.0
  O  O14  1  0.50000000  0.30757861  0.90135162  1.0
  O  O15  1  0.00000000  0.80757861  0.09864838  1.0
  O  O16  1  -0.00000000  0.19242139  0.09864838  1.0
  O  O17  1  0.50000000  0.69242139  0.90135162  1.0
