# generated using pymatgen
data_Te
_symmetry_space_group_name_H-M   'P 1'
_cell_length_a   3.21687954
_cell_length_b   9.00543258
_cell_length_c   4.50324551
_cell_angle_alpha   90.00000000
_cell_angle_beta   90.00023189
_cell_angle_gamma   90.00000000
_symmetry_Int_Tables_number   1
_chemical_formula_structural   Te
_chemical_formula_sum   Te4
_cell_volume   130.45628359
_cell_formula_units_Z   4
loop_
 _symmetry_equiv_pos_site_id
 _symmetry_equiv_pos_as_xyz
  1  'x, y, z'
loop_
 _atom_site_type_symbol
 _atom_site_label
 _atom_site_symmetry_multiplicity
 _atom_site_fract_x
 _atom_site_fract_y
 _atom_site_fract_z
 _atom_site_occupancy
  Te  Te0  1  1.00001077  -0.00999987  1.00023341  1.0
  Te  Te1  1  -0.00001077  0.49000013  -0.00023341  1.0
  Te  Te2  1  0.99997085  0.23999987  0.49987563  1.0
  Te  Te3  1  0.00002915  0.73999987  0.50012437  1.0
