# generated using pymatgen
data_Ca3(Si4P7)2
_symmetry_space_group_name_H-M   'P 1'
_cell_length_a   12.21219636
_cell_length_b   13.56794647
_cell_length_c   6.26346832
_cell_angle_alpha   90.00000000
_cell_angle_beta   90.90679016
_cell_angle_gamma   90.00000000
_symmetry_Int_Tables_number   1
_chemical_formula_structural   Ca3(Si4P7)2
_chemical_formula_sum   'Ca6 Si16 P28'
_cell_volume   1037.69181739
_cell_formula_units_Z   2
loop_
 _symmetry_equiv_pos_site_id
 _symmetry_equiv_pos_as_xyz
  1  'x, y, z'
loop_
 _atom_site_type_symbol
 _atom_site_label
 _atom_site_symmetry_multiplicity
 _atom_site_fract_x
 _atom_site_fract_y
 _atom_site_fract_z
 _atom_site_occupancy
  Ca  Ca0  1  0.50000000  0.50000000  0.50000000  1.0
  Ca  Ca1  1  0.50000000  0.00000000  -0.00000000  1.0
  Ca  Ca2  1  0.16658756  0.65541669  0.67596038  1.0
  Ca  Ca3  1  0.83341244  0.15541669  0.82403962  1.0
  Ca  Ca4  1  0.83341244  0.34458331  0.32403962  1.0
  Ca  Ca5  1  0.16658756  0.84458331  0.17596038  1.0
  Si  Si6  1  0.58429816  0.31263187  0.96369997  1.0
  Si  Si7  1  0.41570184  0.81263187  0.53630003  1.0
  Si  Si8  1  0.41570184  0.68736813  0.03630003  1.0
  Si  Si9  1  0.58429816  0.18736813  0.46369997  1.0
  Si  Si10  1  0.38959289  0.31414500  0.95774132  1.0
  Si  Si11  1  0.61040711  0.81414500  0.54225868  1.0
  Si  Si12  1  0.61040711  0.68585500  0.04225868  1.0
  Si  Si13  1  0.38959289  0.18585500  0.45774132  1.0
  Si  Si14  1  0.15037622  0.31232490  0.61756978  1.0
  Si  Si15  1  0.84962378  0.81232490  0.88243022  1.0
  Si  Si16  1  0.84962378  0.68767510  0.38243022  1.0
  Si  Si17  1  0.15037622  0.18767510  0.11756978  1.0
  Si  Si18  1  0.15301494  0.04610986  0.61719175  1.0
  Si  Si19  1  0.84698506  0.54610986  0.88280825  1.0
  Si  Si20  1  0.84698506  0.95389014  0.38280825  1.0
  Si  Si21  1  0.15301494  0.45389014  0.11719175  1.0
  P  P22  1  0.33845609  0.04642566  0.62868670  1.0
  P  P23  1  0.66154391  0.54642566  0.87131330  1.0
  P  P24  1  0.66154391  0.95357434  0.37131330  1.0
  P  P25  1  0.33845609  0.45357434  0.12868670  1.0
  P  P26  1  0.08218904  0.44777781  0.77591503  1.0
  P  P27  1  0.91781096  0.94777781  0.72408497  1.0
  P  P28  1  0.91781096  0.55222219  0.22408497  1.0
  P  P29  1  0.08218904  0.05222219  0.27591503  1.0
  P  P30  1  0.64204859  0.05351749  0.64517572  1.0
  P  P31  1  0.35795141  0.55351749  0.85482428  1.0
  P  P32  1  0.35795141  0.94648251  0.35482428  1.0
  P  P33  1  0.64204859  0.44648251  0.14517572  1.0
  P  P34  1  0.09136266  0.89495419  0.71187355  1.0
  P  P35  1  0.90863734  0.39495419  0.78812645  1.0
  P  P36  1  0.90863734  0.10504581  0.28812645  1.0
  P  P37  1  0.09136266  0.60504581  0.21187355  1.0
  P  P38  1  0.07470190  0.17928050  0.78369202  1.0
  P  P39  1  0.92529810  0.67928050  0.71630798  1.0
  P  P40  1  0.92529810  0.82071950  0.21630798  1.0
  P  P41  1  0.07470190  0.32071950  0.28369202  1.0
  P  P42  1  0.33384103  0.32791658  0.61086330  1.0
  P  P43  1  0.66615897  0.82791658  0.88913670  1.0
  P  P44  1  0.66615897  0.67208342  0.38913670  1.0
  P  P45  1  0.33384103  0.17208342  0.11086330  1.0
  P  P46  1  0.64704294  0.32305101  0.62822376  1.0
  P  P47  1  0.35295706  0.82305101  0.87177624  1.0
  P  P48  1  0.35295706  0.67694899  0.37177624  1.0
  P  P49  1  0.64704294  0.17694899  0.12822376  1.0
