# generated using pymatgen
data_BrN3
_symmetry_space_group_name_H-M   'P 1'
_cell_length_a   10.50084940
_cell_length_b   10.50084940
_cell_length_c   10.50084940
_cell_angle_alpha   107.58969025
_cell_angle_beta   107.58969025
_cell_angle_gamma   113.30360320
_symmetry_Int_Tables_number   1
_chemical_formula_structural   BrN3
_chemical_formula_sum   'Br8 N24'
_cell_volume   888.34430828
_cell_formula_units_Z   8
loop_
 _symmetry_equiv_pos_site_id
 _symmetry_equiv_pos_as_xyz
  1  'x, y, z'
loop_
 _atom_site_type_symbol
 _atom_site_label
 _atom_site_symmetry_multiplicity
 _atom_site_fract_x
 _atom_site_fract_y
 _atom_site_fract_z
 _atom_site_occupancy
  Br  Br0  1  0.80869661  0.90493856  1.65615998  1.0
  Br  Br1  1  1.30869661  0.65253663  0.90375805  1.0
  Br  Br2  1  1.15493856  1.55869661  1.15615998  1.0
  Br  Br3  1  0.65493856  0.49877858  0.59624195  1.0
  Br  Br4  1  0.74877858  1.40493856  1.09624195  1.0
  Br  Br5  1  0.24877858  0.15253663  0.34384002  1.0
  Br  Br6  1  0.90253663  1.05869661  1.40375805  1.0
  Br  Br7  1  1.40253663  0.99877858  0.84384002  1.0
  N  N8  1  0.80357773  0.74866347  0.75096244  1.0
  N  N9  1  1.30357773  1.55261530  1.05491427  1.0
  N  N10  1  0.99866347  1.55357773  1.25096244  1.0
  N  N11  1  0.49866347  0.24770103  0.44508573  1.0
  N  N12  1  1.49770103  1.24866347  0.94508573  1.0
  N  N13  1  0.99770103  1.05261530  1.24903756  1.0
  N  N14  1  0.80261530  1.05357773  1.55491427  1.0
  N  N15  1  1.30261530  0.74770103  0.74903756  1.0
  N  N16  1  1.34797861  1.69875570  1.66039664  1.0
  N  N17  1  0.84797861  0.18758197  0.64922292  1.0
  N  N18  1  0.94875570  1.09797861  1.16039664  1.0
  N  N19  1  1.44875570  1.28835906  0.85077708  1.0
  N  N20  1  0.53835906  1.19875570  1.35077708  1.0
  N  N21  1  1.03835906  0.68758197  0.33960336  1.0
  N  N22  1  1.43758197  1.59797861  1.14922292  1.0
  N  N23  1  0.93758197  0.78835906  0.83960336  1.0
  N  N24  1  1.38293868  1.65020325  1.57283355  1.0
  N  N25  1  0.88293868  0.31010513  0.73273543  1.0
  N  N26  1  0.90020325  1.13293868  1.07283355  1.0
  N  N27  1  0.40020325  0.32736970  0.76726457  1.0
  N  N28  1  0.57736970  1.15020325  1.26726457  1.0
  N  N29  1  1.07736970  0.81010513  0.42716645  1.0
  N  N30  1  0.56010513  0.63293868  1.23273543  1.0
  N  N31  1  1.06010513  0.82736970  0.92716645  1.0
