# generated using pymatgen
data_Be3As2(H2O5)2
_symmetry_space_group_name_H-M   'P 1'
_cell_length_a   8.67534321
_cell_length_b   8.67534321
_cell_length_c   10.07243348
_cell_angle_alpha   85.89557772
_cell_angle_beta   94.10442228
_cell_angle_gamma   148.28114259
_symmetry_Int_Tables_number   1
_chemical_formula_structural   Be3As2(H2O5)2
_chemical_formula_sum   'Be6 As4 H8 O20'
_cell_volume   397.45030405
_cell_formula_units_Z   2
loop_
 _symmetry_equiv_pos_site_id
 _symmetry_equiv_pos_as_xyz
  1  'x, y, z'
loop_
 _atom_site_type_symbol
 _atom_site_label
 _atom_site_symmetry_multiplicity
 _atom_site_fract_x
 _atom_site_fract_y
 _atom_site_fract_z
 _atom_site_occupancy
  Be  Be0  1  0.30045082  -0.20521757  0.83840797  1.0
  Be  Be1  1  1.20521757  0.69954918  0.33840797  1.0
  Be  Be2  1  0.79478243  0.30045082  0.66159203  1.0
  Be  Be3  1  0.69954918  0.20521757  0.16159203  1.0
  Be  Be4  1  0.67847329  0.67847329  0.75000000  1.0
  Be  Be5  1  0.32152671  0.32152671  0.25000000  1.0
  As  As6  1  0.38991578  -0.30031897  0.60008082  1.0
  As  As7  1  1.30031897  0.61008422  0.10008082  1.0
  As  As8  1  0.69968103  0.38991578  0.89991918  1.0
  As  As9  1  0.61008422  0.30031897  0.39991918  1.0
  H  H10  1  0.85598435  -0.01409956  0.30890801  1.0
  H  H11  1  1.01409956  0.14401565  0.80890801  1.0
  H  H12  1  0.98590044  0.85598435  0.19109199  1.0
  H  H13  1  0.14401565  0.01409956  0.69109199  1.0
  H  H14  1  0.71691539  -0.09751782  0.89285160  1.0
  H  H15  1  1.09751782  0.28308461  0.39285160  1.0
  H  H16  1  0.90248218  0.71691539  0.60714840  1.0
  H  H17  1  0.28308461  0.09751782  0.10714840  1.0
  O  O18  1  0.85056487  -0.05452052  0.84764073  1.0
  O  O19  1  1.05452052  0.14943513  0.34764073  1.0
  O  O20  1  0.94547948  0.85056487  0.65235927  1.0
  O  O21  1  0.14943513  0.05452052  0.15235927  1.0
  O  O22  1  0.41724635  -0.25168354  0.93936066  1.0
  O  O23  1  1.25168354  0.58275365  0.43936066  1.0
  O  O24  1  0.74831646  0.41724635  0.56063934  1.0
  O  O25  1  0.58275365  0.25168354  0.06063934  1.0
  O  O26  1  0.72075435  0.07505602  0.60281263  1.0
  O  O27  1  0.92494398  0.27924565  0.10281263  1.0
  O  O28  1  1.07505602  0.72075435  0.89718737  1.0
  O  O29  1  0.27924565  -0.07505602  0.39718737  1.0
  O  O30  1  0.60145218  0.15377779  0.79835192  1.0
  O  O31  1  0.84622221  0.39854782  0.29835192  1.0
  O  O32  1  1.15377779  0.60145218  0.70164808  1.0
  O  O33  1  0.39854782  -0.15377779  0.20164808  1.0
  O  O34  1  0.52508324  0.40491104  0.83315232  1.0
  O  O35  1  0.59508896  0.47491676  0.33315232  1.0
  O  O36  1  1.40491104  0.52508324  0.66684768  1.0
  O  O37  1  0.47491676  -0.40491104  0.16684768  1.0
