# generated using pymatgen
data_Mn3V2Si3
_symmetry_space_group_name_H-M   'P 1'
_cell_length_a   7.06662839
_cell_length_b   7.06662839
_cell_length_c   4.80158725
_cell_angle_alpha   90.00000000
_cell_angle_beta   90.00000000
_cell_angle_gamma   120.00000000
_symmetry_Int_Tables_number   1
_chemical_formula_structural   Mn3V2Si3
_chemical_formula_sum   'Mn6 V4 Si6'
_cell_volume   207.65383912
_cell_formula_units_Z   2
loop_
 _symmetry_equiv_pos_site_id
 _symmetry_equiv_pos_as_xyz
  1  'x, y, z'
loop_
 _atom_site_type_symbol
 _atom_site_label
 _atom_site_symmetry_multiplicity
 _atom_site_fract_x
 _atom_site_fract_y
 _atom_site_fract_z
 _atom_site_occupancy
  Mn  Mn0  1  0.73679814  0.73679814  0.25000000  1.0
  Mn  Mn1  1  0.26320186  0.00000000  0.25000000  1.0
  Mn  Mn2  1  0.00000000  0.26320186  0.25000000  1.0
  Mn  Mn3  1  0.26320186  0.26320186  0.75000000  1.0
  Mn  Mn4  1  0.73679814  0.00000000  0.75000000  1.0
  Mn  Mn5  1  0.00000000  0.73679814  0.75000000  1.0
  V  V6  1  0.66666667  0.33333333  0.50000000  1.0
  V  V7  1  0.33333333  0.66666667  0.50000000  1.0
  V  V8  1  0.33333333  0.66666667  0.00000000  1.0
  V  V9  1  0.66666667  0.33333333  0.00000000  1.0
  Si  Si10  1  0.38089556  0.38089556  0.25000000  1.0
  Si  Si11  1  0.61910444  0.00000000  0.25000000  1.0
  Si  Si12  1  0.00000000  0.61910444  0.25000000  1.0
  Si  Si13  1  0.61910444  0.61910444  0.75000000  1.0
  Si  Si14  1  0.38089556  0.00000000  0.75000000  1.0
  Si  Si15  1  -0.00000000  0.38089556  0.75000000  1.0
