# generated using pymatgen
data_Cs2AgF4
_symmetry_space_group_name_H-M   'P 1'
_cell_length_a   7.94844771
_cell_length_b   7.94844771
_cell_length_c   6.59387569
_cell_angle_alpha   90.00000000
_cell_angle_beta   90.00000000
_cell_angle_gamma   49.01642106
_symmetry_Int_Tables_number   1
_chemical_formula_structural   Cs2AgF4
_chemical_formula_sum   'Cs4 Ag2 F8'
_cell_volume   314.48028861
_cell_formula_units_Z   2
loop_
 _symmetry_equiv_pos_site_id
 _symmetry_equiv_pos_as_xyz
  1  'x, y, z'
loop_
 _atom_site_type_symbol
 _atom_site_label
 _atom_site_symmetry_multiplicity
 _atom_site_fract_x
 _atom_site_fract_y
 _atom_site_fract_z
 _atom_site_occupancy
  Cs  Cs0  1  0.14220925  1.14220925  0.50000000  1.0
  Cs  Cs1  1  0.64220925  0.64220925  0.00000000  1.0
  Cs  Cs2  1  0.85779075  0.85779075  0.50000000  1.0
  Cs  Cs3  1  0.35779075  1.35779075  0.00000000  1.0
  Ag  Ag4  1  -0.50000000  0.50000000  0.50000000  1.0
  Ag  Ag5  1  0.00000000  0.00000000  0.00000000  1.0
  F  F6  1  -0.27137372  0.27137372  0.27076948  1.0
  F  F7  1  -0.77137372  0.77137372  0.22923052  1.0
  F  F8  1  -0.72862628  0.72862628  0.72923052  1.0
  F  F9  1  -0.22862628  0.22862628  0.77076948  1.0
  F  F10  1  0.34984772  1.34984772  0.50000000  1.0
  F  F11  1  0.84984772  0.84984772  0.00000000  1.0
  F  F12  1  0.65015228  0.65015228  0.50000000  1.0
  F  F13  1  0.15015228  1.15015228  0.00000000  1.0
