# generated using pymatgen
data_Ag3AsS4
_symmetry_space_group_name_H-M   'P 1'
_cell_length_a   7.93210379
_cell_length_b   7.01853269
_cell_length_c   6.68369766
_cell_angle_alpha   90.00000000
_cell_angle_beta   90.00000000
_cell_angle_gamma   90.00000000
_symmetry_Int_Tables_number   1
_chemical_formula_structural   Ag3AsS4
_chemical_formula_sum   'Ag6 As2 S8'
_cell_volume   372.09300980
_cell_formula_units_Z   2
loop_
 _symmetry_equiv_pos_site_id
 _symmetry_equiv_pos_as_xyz
  1  'x, y, z'
loop_
 _atom_site_type_symbol
 _atom_site_label
 _atom_site_symmetry_multiplicity
 _atom_site_fract_x
 _atom_site_fract_y
 _atom_site_fract_z
 _atom_site_occupancy
  Ag  Ag0  1  0.24146615  0.18190578  0.01226668  1.0
  Ag  Ag1  1  0.74146615  0.81809422  0.51226668  1.0
  Ag  Ag2  1  0.75853385  0.18190578  0.01226668  1.0
  Ag  Ag3  1  0.25853385  0.81809422  0.51226668  1.0
  Ag  Ag4  1  0.50000000  0.64843627  0.99089808  1.0
  Ag  Ag5  1  0.00000000  0.35156373  0.49089808  1.0
  As  As6  1  0.50000000  0.31990160  0.49756961  1.0
  As  As7  1  0.00000000  0.68009840  -0.00243039  1.0
  S  S8  1  0.26903741  0.16563425  0.38948696  1.0
  S  S9  1  0.76903741  0.83436575  0.88948696  1.0
  S  S10  1  0.73096259  0.16563425  0.38948696  1.0
  S  S11  1  0.23096259  0.83436575  0.88948696  1.0
  S  S12  1  0.50000000  0.31655611  0.83095403  1.0
  S  S13  1  0.00000000  0.68344389  0.33095403  1.0
  S  S14  1  0.50000000  0.61606526  0.37497101  1.0
  S  S15  1  0.00000000  0.38393474  0.87497101  1.0
