# generated using pymatgen
data_RbSc(WO4)2
_symmetry_space_group_name_H-M   'P 1'
_cell_length_a   5.89775066
_cell_length_b   5.89775066
_cell_length_c   7.81584905
_cell_angle_alpha   90.00000000
_cell_angle_beta   90.00000000
_cell_angle_gamma   120.00000000
_symmetry_Int_Tables_number   1
_chemical_formula_structural   RbSc(WO4)2
_chemical_formula_sum   'Rb1 Sc1 W2 O8'
_cell_volume   235.43965359
_cell_formula_units_Z   1
loop_
 _symmetry_equiv_pos_site_id
 _symmetry_equiv_pos_as_xyz
  1  'x, y, z'
loop_
 _atom_site_type_symbol
 _atom_site_label
 _atom_site_symmetry_multiplicity
 _atom_site_fract_x
 _atom_site_fract_y
 _atom_site_fract_z
 _atom_site_occupancy
  Rb  Rb0  1  -0.00000000  0.00000000  -0.00000000  1.0
  Sc  Sc1  1  0.00000000  0.00000000  0.50000000  1.0
  W  W2  1  0.33333333  0.66666667  0.26721048  1.0
  W  W3  1  0.66666667  0.33333333  0.73278952  1.0
  O  O4  1  0.66939984  0.83469992  0.33939710  1.0
  O  O5  1  0.83469992  0.66939984  0.66060290  1.0
  O  O6  1  0.83469992  0.16530008  0.66060290  1.0
  O  O7  1  0.16530008  0.83469992  0.33939710  1.0
  O  O8  1  0.16530008  0.33060016  0.33939710  1.0
  O  O9  1  0.33060016  0.16530008  0.66060290  1.0
  O  O10  1  0.33333333  0.66666667  0.04246021  1.0
  O  O11  1  0.66666667  0.33333333  0.95753979  1.0
