# generated using pymatgen
data_BaHfF6
_symmetry_space_group_name_H-M   'P 1'
_cell_length_a   6.89346143
_cell_length_b   6.89346143
_cell_length_c   5.59116624
_cell_angle_alpha   90.00000000
_cell_angle_beta   90.00000000
_cell_angle_gamma   67.86049936
_symmetry_Int_Tables_number   1
_chemical_formula_structural   BaHfF6
_chemical_formula_sum   'Ba2 Hf2 F12'
_cell_volume   246.10149500
_cell_formula_units_Z   2
loop_
 _symmetry_equiv_pos_site_id
 _symmetry_equiv_pos_as_xyz
  1  'x, y, z'
loop_
 _atom_site_type_symbol
 _atom_site_label
 _atom_site_symmetry_multiplicity
 _atom_site_fract_x
 _atom_site_fract_y
 _atom_site_fract_z
 _atom_site_occupancy
  Ba  Ba0  1  -0.75000000  0.75000000  0.44435195  1.0
  Ba  Ba1  1  -0.25000000  1.25000000  0.55564805  1.0
  Hf  Hf2  1  -0.25000000  0.75000000  0.00000000  1.0
  Hf  Hf3  1  0.25000000  0.25000000  0.00000000  1.0
  F  F4  1  -0.18297878  0.93079490  0.24934991  1.0
  F  F5  1  0.31702122  0.43079490  0.75065009  1.0
  F  F6  1  -0.43079490  0.68297878  0.75065009  1.0
  F  F7  1  0.06920510  0.18297878  0.24934991  1.0
  F  F8  1  -0.56920510  1.31702122  0.24934991  1.0
  F  F9  1  -0.06920510  0.81702122  0.75065009  1.0
  F  F10  1  -0.81702122  1.06920510  0.75065009  1.0
  F  F11  1  -0.31702122  0.56920510  0.24934991  1.0
  F  F12  1  0.07114771  1.57114771  0.14726775  1.0
  F  F13  1  -0.42885229  1.07114771  0.85273225  1.0
  F  F14  1  -0.07114771  1.42885229  0.85273225  1.0
  F  F15  1  -0.57114771  0.92885229  0.14726775  1.0
