# generated using pymatgen
data_CsTa(PO4)2
_symmetry_space_group_name_H-M   'P 1'
_cell_length_a   9.09683313
_cell_length_b   5.18655976
_cell_length_c   5.18650179
_cell_angle_alpha   61.32530066
_cell_angle_beta   87.83216085
_cell_angle_gamma   87.83254497
_symmetry_Int_Tables_number   1
_chemical_formula_structural   CsTa(PO4)2
_chemical_formula_sum   'Cs1 Ta1 P2 O8'
_cell_volume   214.48691178
_cell_formula_units_Z   1
loop_
 _symmetry_equiv_pos_site_id
 _symmetry_equiv_pos_as_xyz
  1  'x, y, z'
loop_
 _atom_site_type_symbol
 _atom_site_label
 _atom_site_symmetry_multiplicity
 _atom_site_fract_x
 _atom_site_fract_y
 _atom_site_fract_z
 _atom_site_occupancy
  Cs  Cs0  1  0.00000000  0.00000000  0.00000000  1.0
  Ta  Ta1  1  -0.50000000  -0.00000000  -0.00000000  1.0
  P  P2  1  -0.69101587  -0.64916112  -0.64916057  1.0
  P  P3  1  -0.30898413  -0.35083888  -0.35083943  1.0
  O  O4  1  -0.58963069  -0.79685083  -0.79682228  1.0
  O  O5  1  -0.41036931  -0.20314917  -0.20317772  1.0
  O  O6  1  -0.64253806  -0.32012852  -0.79423252  1.0
  O  O7  1  -0.35746194  -0.67987148  -0.20576748  1.0
  O  O8  1  -0.85201777  -0.67688235  -0.67686441  1.0
  O  O9  1  -0.14798223  -0.32311765  -0.32313559  1.0
  O  O10  1  -0.64253178  -0.79419268  -0.32013073  1.0
  O  O11  1  -0.35746822  -0.20580732  -0.67986927  1.0
