# generated using pymatgen
data_TaSe2
_symmetry_space_group_name_H-M   'P 1'
_cell_length_a   7.11994553
_cell_length_b   7.11994553
_cell_length_c   7.11994553
_cell_angle_alpha   28.36304816
_cell_angle_beta   28.36304816
_cell_angle_gamma   28.36304816
_symmetry_Int_Tables_number   1
_chemical_formula_structural   TaSe2
_chemical_formula_sum   'Ta1 Se2'
_cell_volume   71.98153156
_cell_formula_units_Z   1
loop_
 _symmetry_equiv_pos_site_id
 _symmetry_equiv_pos_as_xyz
  1  'x, y, z'
loop_
 _atom_site_type_symbol
 _atom_site_label
 _atom_site_symmetry_multiplicity
 _atom_site_fract_x
 _atom_site_fract_y
 _atom_site_fract_z
 _atom_site_occupancy
  Ta  Ta0  1  0.00000000  0.00000000  0.00000000  1.0
  Se  Se1  1  0.74763882  0.74763882  0.74763882  1.0
  Se  Se2  1  1.25236118  1.25236118  0.25236118  1.0
