# generated using pymatgen
data_KIn(WO4)2
_symmetry_space_group_name_H-M   'P 1'
_cell_length_a   15.47205836
_cell_length_b   5.94681996
_cell_length_c   9.17375529
_cell_angle_alpha   90.00000000
_cell_angle_beta   90.00000000
_cell_angle_gamma   90.00000000
_symmetry_Int_Tables_number   1
_chemical_formula_structural   KIn(WO4)2
_chemical_formula_sum   'K4 In4 W8 O32'
_cell_volume   844.07305441
_cell_formula_units_Z   4
loop_
 _symmetry_equiv_pos_site_id
 _symmetry_equiv_pos_as_xyz
  1  'x, y, z'
loop_
 _atom_site_type_symbol
 _atom_site_label
 _atom_site_symmetry_multiplicity
 _atom_site_fract_x
 _atom_site_fract_y
 _atom_site_fract_z
 _atom_site_occupancy
  K  K0  1  0.12469988  0.75000000  0.92007649  1.0
  K  K1  1  0.62469988  0.75000000  0.57992351  1.0
  K  K2  1  0.87530012  0.25000000  0.07992351  1.0
  K  K3  1  0.37530012  0.25000000  0.42007649  1.0
  In  In4  1  0.38276335  0.75000000  0.81467340  1.0
  In  In5  1  0.88276335  0.75000000  0.68532660  1.0
  In  In6  1  0.61723665  0.25000000  0.18532660  1.0
  In  In7  1  0.11723665  0.25000000  0.31467340  1.0
  W  W8  1  0.46840777  0.75000000  0.21236545  1.0
  W  W9  1  0.96840777  0.75000000  0.28763455  1.0
  W  W10  1  0.53159223  0.25000000  0.78763455  1.0
  W  W11  1  0.03159223  0.25000000  0.71236545  1.0
  W  W12  1  0.22156629  0.75000000  0.50246151  1.0
  W  W13  1  0.72156629  0.75000000  0.99753849  1.0
  W  W14  1  0.77843371  0.25000000  0.49753849  1.0
  W  W15  1  0.27843371  0.25000000  0.00246151  1.0
  O  O16  1  0.47056490  0.49478459  0.72936537  1.0
  O  O17  1  0.47056490  0.00521541  0.72936537  1.0
  O  O18  1  0.97056490  0.49478459  0.77063463  1.0
  O  O19  1  0.97056490  0.00521541  0.77063463  1.0
  O  O20  1  0.52943510  0.99478459  0.27063463  1.0
  O  O21  1  0.52943510  0.50521541  0.27063463  1.0
  O  O22  1  0.02943510  0.99478459  0.22936537  1.0
  O  O23  1  0.02943510  0.50521541  0.22936537  1.0
  O  O24  1  0.29076465  0.99588261  0.89502190  1.0
  O  O25  1  0.29076465  0.50411739  0.89502190  1.0
  O  O26  1  0.79076465  0.99588261  0.60497810  1.0
  O  O27  1  0.79076465  0.50411739  0.60497810  1.0
  O  O28  1  0.70923535  0.49588261  0.10497810  1.0
  O  O29  1  0.70923535  0.00411739  0.10497810  1.0
  O  O30  1  0.20923535  0.49588261  0.39502190  1.0
  O  O31  1  0.20923535  0.00411739  0.39502190  1.0
  O  O32  1  0.45005442  0.75000000  0.01964041  1.0
  O  O33  1  0.95005442  0.75000000  0.48035959  1.0
  O  O34  1  0.54994558  0.25000000  0.98035959  1.0
  O  O35  1  0.04994558  0.25000000  0.51964041  1.0
  O  O36  1  0.37040649  0.75000000  0.30987487  1.0
  O  O37  1  0.87040649  0.75000000  0.19012513  1.0
  O  O38  1  0.62959351  0.25000000  0.69012513  1.0
  O  O39  1  0.12959351  0.25000000  0.80987487  1.0
  O  O40  1  0.32146848  0.75000000  0.60524995  1.0
  O  O41  1  0.82146848  0.75000000  0.89475005  1.0
  O  O42  1  0.67853152  0.25000000  0.39475005  1.0
  O  O43  1  0.17853152  0.25000000  0.10524995  1.0
  O  O44  1  0.13741163  0.75000000  0.62971835  1.0
  O  O45  1  0.63741163  0.75000000  0.87028165  1.0
  O  O46  1  0.86258837  0.25000000  0.37028165  1.0
  O  O47  1  0.36258837  0.25000000  0.12971835  1.0
