# generated using pymatgen
data_LiMo2AsO9
_symmetry_space_group_name_H-M   'P 1'
_cell_length_a   5.54670607
_cell_length_b   7.69122306
_cell_length_c   9.07602434
_cell_angle_alpha   90.00000000
_cell_angle_beta   90.00000000
_cell_angle_gamma   90.00000000
_symmetry_Int_Tables_number   1
_chemical_formula_structural   LiMo2AsO9
_chemical_formula_sum   'Li2 Mo4 As2 O18'
_cell_volume   387.19185341
_cell_formula_units_Z   2
loop_
 _symmetry_equiv_pos_site_id
 _symmetry_equiv_pos_as_xyz
  1  'x, y, z'
loop_
 _atom_site_type_symbol
 _atom_site_label
 _atom_site_symmetry_multiplicity
 _atom_site_fract_x
 _atom_site_fract_y
 _atom_site_fract_z
 _atom_site_occupancy
  Li  Li0  1  0.50000000  0.00000000  0.60645143  1.0
  Li  Li1  1  0.00000000  0.50000000  0.39354857  1.0
  Mo  Mo2  1  0.50000000  0.78947830  0.26057068  1.0
  Mo  Mo3  1  0.50000000  0.21052170  0.26057068  1.0
  Mo  Mo4  1  0.00000000  0.71052170  0.73942932  1.0
  Mo  Mo5  1  0.00000000  0.28947830  0.73942932  1.0
  As  As6  1  0.50000000  0.50000000  0.95807588  1.0
  As  As7  1  0.00000000  0.00000000  0.04192412  1.0
  O  O8  1  0.50000000  0.69200441  0.06051474  1.0
  O  O9  1  0.50000000  0.30799559  0.06051474  1.0
  O  O10  1  0.00000000  0.80799559  0.93948526  1.0
  O  O11  1  0.00000000  0.19200441  0.93948526  1.0
  O  O12  1  0.50000000  0.00000000  0.37896642  1.0
  O  O13  1  0.00000000  0.50000000  0.62103358  1.0
  O  O14  1  0.24074931  0.50000000  0.85411262  1.0
  O  O15  1  0.75925069  0.50000000  0.85411262  1.0
  O  O16  1  0.25925069  0.00000000  0.14588738  1.0
  O  O17  1  0.74074931  0.00000000  0.14588738  1.0
  O  O18  1  0.25759755  0.68198470  0.33359246  1.0
  O  O19  1  0.74240245  0.68198470  0.33359246  1.0
  O  O20  1  0.25759755  0.31801530  0.33359246  1.0
  O  O21  1  0.74240245  0.31801530  0.33359246  1.0
  O  O22  1  0.24240245  0.81801530  0.66640754  1.0
  O  O23  1  0.75759755  0.81801530  0.66640754  1.0
  O  O24  1  0.24240245  0.18198470  0.66640754  1.0
  O  O25  1  0.75759755  0.18198470  0.66640754  1.0
