# generated using pymatgen
data_CsLi3F4
_symmetry_space_group_name_H-M   'P 1'
_cell_length_a   5.90653419
_cell_length_b   5.90653419
_cell_length_c   7.98024045
_cell_angle_alpha   70.61413695
_cell_angle_beta   109.38586305
_cell_angle_gamma   123.20500392
_symmetry_Int_Tables_number   1
_chemical_formula_structural   CsLi3F4
_chemical_formula_sum   'Cs2 Li6 F8'
_cell_volume   215.72830114
_cell_formula_units_Z   2
loop_
 _symmetry_equiv_pos_site_id
 _symmetry_equiv_pos_as_xyz
  1  'x, y, z'
loop_
 _atom_site_type_symbol
 _atom_site_label
 _atom_site_symmetry_multiplicity
 _atom_site_fract_x
 _atom_site_fract_y
 _atom_site_fract_z
 _atom_site_occupancy
  Cs  Cs0  1  0.33763032  -0.33763032  0.73723798  1.0
  Cs  Cs1  1  0.66236968  -0.66236968  0.26276202  1.0
  Li  Li2  1  0.00300171  -0.00300171  0.68899370  1.0
  Li  Li3  1  0.99699829  -0.99699829  0.31100630  1.0
  Li  Li4  1  0.38956830  -0.38956830  0.33015987  1.0
  Li  Li5  1  0.61043170  -0.61043170  0.66984013  1.0
  Li  Li6  1  0.20452278  -0.20452278  0.03515937  1.0
  Li  Li7  1  0.79547722  -0.79547722  0.96484063  1.0
  F  F8  1  0.87364706  -0.37088734  0.86331957  1.0
  F  F9  1  1.37088734  0.12635294  0.86331957  1.0
  F  F10  1  1.12635294  0.37088734  0.13668043  1.0
  F  F11  1  0.62911266  -0.12635294  0.13668043  1.0
  F  F12  1  0.74897015  -0.25102985  0.50000000  1.0
  F  F13  1  1.25102985  0.25102985  0.50000000  1.0
  F  F14  1  0.18842263  -0.18842263  0.27533455  1.0
  F  F15  1  0.81157737  -0.81157737  0.72466545  1.0
