# generated using pymatgen
data_BaZrSe3
_symmetry_space_group_name_H-M   'P 1'
_cell_length_a   7.22071841
_cell_length_b   7.22071841
_cell_length_c   6.42611043
_cell_angle_alpha   90.00000000
_cell_angle_beta   90.00000000
_cell_angle_gamma   120.00000000
_symmetry_Int_Tables_number   1
_chemical_formula_structural   BaZrSe3
_chemical_formula_sum   'Ba2 Zr2 Se6'
_cell_volume   290.16139751
_cell_formula_units_Z   2
loop_
 _symmetry_equiv_pos_site_id
 _symmetry_equiv_pos_as_xyz
  1  'x, y, z'
loop_
 _atom_site_type_symbol
 _atom_site_label
 _atom_site_symmetry_multiplicity
 _atom_site_fract_x
 _atom_site_fract_y
 _atom_site_fract_z
 _atom_site_occupancy
  Ba  Ba0  1  0.33333333  0.66666667  0.75000000  1.0
  Ba  Ba1  1  0.66666667  0.33333333  0.25000000  1.0
  Zr  Zr2  1  0.00000000  0.00000000  0.50000000  1.0
  Zr  Zr3  1  0.00000000  0.00000000  0.00000000  1.0
  Se  Se4  1  0.17306664  0.82693336  0.25000000  1.0
  Se  Se5  1  0.17306664  0.34613328  0.25000000  1.0
  Se  Se6  1  0.82693336  0.17306664  0.75000000  1.0
  Se  Se7  1  0.82693336  0.65386672  0.75000000  1.0
  Se  Se8  1  0.65386672  0.82693336  0.25000000  1.0
  Se  Se9  1  0.34613328  0.17306664  0.75000000  1.0
