# generated using pymatgen
data_Li3AuS2
_symmetry_space_group_name_H-M   'P 1'
_cell_length_a   7.08839763
_cell_length_b   7.08839763
_cell_length_c   7.08839763
_cell_angle_alpha   131.82664110
_cell_angle_beta   74.48712566
_cell_angle_gamma   126.91115250
_symmetry_Int_Tables_number   1
_chemical_formula_structural   Li3AuS2
_chemical_formula_sum   'Li6 Au2 S4'
_cell_volume   206.84432367
_cell_formula_units_Z   2
loop_
 _symmetry_equiv_pos_site_id
 _symmetry_equiv_pos_as_xyz
  1  'x, y, z'
loop_
 _atom_site_type_symbol
 _atom_site_label
 _atom_site_symmetry_multiplicity
 _atom_site_fract_x
 _atom_site_fract_y
 _atom_site_fract_z
 _atom_site_occupancy
  Li  Li0  1  1.02333520  0.25000000  0.77333520  1.0
  Li  Li1  1  1.52333520  0.75000000  0.77333520  1.0
  Li  Li2  1  0.97666480  0.75000000  1.22666480  1.0
  Li  Li3  1  1.47666480  1.25000000  1.22666480  1.0
  Li  Li4  1  0.25000000  0.75000000  0.50000000  1.0
  Li  Li5  1  0.75000000  1.25000000  0.50000000  1.0
  Au  Au6  1  0.50000000  0.50000000  0.00000000  1.0
  Au  Au7  1  0.00000000  0.00000000  0.00000000  1.0
  S  S8  1  1.35848275  1.20543671  1.56391946  1.0
  S  S9  1  1.14151725  0.70543671  0.84695396  1.0
  S  S10  1  0.85848275  0.29456329  1.15304604  1.0
  S  S11  1  0.64151725  0.79456329  1.43608054  1.0
