# generated using pymatgen
data_Ge3N4
_symmetry_space_group_name_H-M   'P 1'
_cell_length_a   8.12053450
_cell_length_b   8.12053450
_cell_length_c   3.10970323
_cell_angle_alpha   90.00000000
_cell_angle_beta   90.00000000
_cell_angle_gamma   120.00000000
_symmetry_Int_Tables_number   1
_chemical_formula_structural   Ge3N4
_chemical_formula_sum   'Ge6 N8'
_cell_volume   177.59012340
_cell_formula_units_Z   2
loop_
 _symmetry_equiv_pos_site_id
 _symmetry_equiv_pos_as_xyz
  1  'x, y, z'
loop_
 _atom_site_type_symbol
 _atom_site_label
 _atom_site_symmetry_multiplicity
 _atom_site_fract_x
 _atom_site_fract_y
 _atom_site_fract_z
 _atom_site_occupancy
  Ge  Ge0  1  0.17081518  0.76460235  0.25000000  1.0
  Ge  Ge1  1  0.76460235  0.59378716  0.75000000  1.0
  Ge  Ge2  1  0.59378716  0.82918482  0.25000000  1.0
  Ge  Ge3  1  0.23539765  0.40621284  0.25000000  1.0
  Ge  Ge4  1  0.82918482  0.23539765  0.75000000  1.0
  Ge  Ge5  1  0.40621284  0.17081518  0.75000000  1.0
  N  N6  1  0.69697793  0.66959051  0.25000000  1.0
  N  N7  1  0.66959051  0.97261258  0.75000000  1.0
  N  N8  1  0.97261258  0.30302207  0.25000000  1.0
  N  N9  1  0.33040949  0.02738742  0.25000000  1.0
  N  N10  1  0.30302207  0.33040949  0.75000000  1.0
  N  N11  1  0.02738742  0.69697793  0.75000000  1.0
  N  N12  1  0.33333333  0.66666667  0.25000000  1.0
  N  N13  1  0.66666667  0.33333333  0.75000000  1.0
