# generated using pymatgen
data_TlCr2FeO10
_symmetry_space_group_name_H-M   'P 1'
_cell_length_a   6.21558225
_cell_length_b   6.21558225
_cell_length_c   7.36868448
_cell_angle_alpha   67.71393350
_cell_angle_beta   112.28606650
_cell_angle_gamma   127.25716028
_symmetry_Int_Tables_number   1
_chemical_formula_structural   TlCr2FeO10
_chemical_formula_sum   'Tl1 Cr2 Fe1 O10'
_cell_volume   205.28350224
_cell_formula_units_Z   1
loop_
 _symmetry_equiv_pos_site_id
 _symmetry_equiv_pos_as_xyz
  1  'x, y, z'
loop_
 _atom_site_type_symbol
 _atom_site_label
 _atom_site_symmetry_multiplicity
 _atom_site_fract_x
 _atom_site_fract_y
 _atom_site_fract_z
 _atom_site_occupancy
  Fe  Fe0  1  0.00000000  0.00000000  0.00000000  1.0
  O  O1  1  0.73855830  -0.22434171  0.79601688  1.0
  O  O2  1  1.22434171  0.26144170  0.79601688  1.0
  O  O3  1  0.77565829  0.73855830  0.20398312  1.0
  O  O4  1  0.26144170  0.22434171  0.20398312  1.0
  O  O5  1  0.65185077  0.34814923  0.53175855  1.0
  O  O6  1  0.34814923  -0.34814923  0.46824145  1.0
  O  O7  1  0.25448060  -0.25448060  0.74083813  1.0
  O  O8  1  0.74551940  0.25448060  0.25916187  1.0
  O  O9  1  0.84140716  0.15859284  0.93522849  1.0
  O  O10  1  0.15859284  -0.15859284  0.06477151  1.0
  Cr  Cr11  1  0.38687874  -0.38687874  0.70331973  1.0
  Cr  Cr12  1  0.61312126  0.38687874  0.29668027  1.0
  Tl  Tl13  1  0.00000000  -0.00000000  0.50000000  1.0
