# generated using pymatgen
data_KC(NO2)3
_symmetry_space_group_name_H-M   'P 1'
_cell_length_a   7.80827410
_cell_length_b   8.42519627
_cell_length_c   11.39917541
_cell_angle_alpha   90.00000000
_cell_angle_beta   125.00240243
_cell_angle_gamma   90.00000000
_symmetry_Int_Tables_number   1
_chemical_formula_structural   KC(NO2)3
_chemical_formula_sum   'K4 C4 N12 O24'
_cell_volume   614.27138045
_cell_formula_units_Z   4
loop_
 _symmetry_equiv_pos_site_id
 _symmetry_equiv_pos_as_xyz
  1  'x, y, z'
loop_
 _atom_site_type_symbol
 _atom_site_label
 _atom_site_symmetry_multiplicity
 _atom_site_fract_x
 _atom_site_fract_y
 _atom_site_fract_z
 _atom_site_occupancy
  K  K0  1  0.38637250  0.09511980  0.13877841  1.0
  K  K1  1  0.38637250  0.40488020  0.63877841  1.0
  K  K2  1  0.61362750  0.59511980  0.36122159  1.0
  K  K3  1  0.61362750  0.90488020  0.86122159  1.0
  C  C4  1  0.91519206  0.36869041  0.12541780  1.0
  C  C5  1  0.91519206  0.13130959  0.62541780  1.0
  C  C6  1  0.08480794  0.86869041  0.37458220  1.0
  C  C7  1  0.08480794  0.63130959  0.87458220  1.0
  N  N8  1  0.87496864  0.91931421  0.29197665  1.0
  N  N9  1  0.87496864  0.58068579  0.79197665  1.0
  N  N10  1  0.12503136  0.41931421  0.20802335  1.0
  N  N11  1  0.12503136  0.08068579  0.70802335  1.0
  N  N12  1  0.83697527  0.26469427  0.00904527  1.0
  N  N13  1  0.83697527  0.23530573  0.50904527  1.0
  N  N14  1  0.16302473  0.76469427  0.49095473  1.0
  N  N15  1  0.16302473  0.73530573  0.99095473  1.0
  N  N16  1  0.77806304  0.42908614  0.16011287  1.0
  N  N17  1  0.77806304  0.07091386  0.66011287  1.0
  N  N18  1  0.22193696  0.92908614  0.33988713  1.0
  N  N19  1  0.22193696  0.57091386  0.83988713  1.0
  O  O20  1  0.63740942  0.34276646  0.14369463  1.0
  O  O21  1  0.63740942  0.15723354  0.64369463  1.0
  O  O22  1  0.36259058  0.84276646  0.35630537  1.0
  O  O23  1  0.36259058  0.65723354  0.85630537  1.0
  O  O24  1  0.95983898  0.31086577  0.49340753  1.0
  O  O25  1  0.95983898  0.18913423  0.99340753  1.0
  O  O26  1  0.04016102  0.81086577  0.00659247  1.0
  O  O27  1  0.04016102  0.68913423  0.50659247  1.0
  O  O28  1  0.79768791  0.96777846  0.16772480  1.0
  O  O29  1  0.79768791  0.53222154  0.66772480  1.0
  O  O30  1  0.20231209  0.46777846  0.33227520  1.0
  O  O31  1  0.20231209  0.03222154  0.83227520  1.0
  O  O32  1  0.77266857  0.91455111  0.34515144  1.0
  O  O33  1  0.77266857  0.58544889  0.84515144  1.0
  O  O34  1  0.22733143  0.41455111  0.15484856  1.0
  O  O35  1  0.22733143  0.08544889  0.65484856  1.0
  O  O36  1  0.64271652  0.24959209  0.42417132  1.0
  O  O37  1  0.64271652  0.25040791  0.92417132  1.0
  O  O38  1  0.35728348  0.74959209  0.07582868  1.0
  O  O39  1  0.35728348  0.75040791  0.57582868  1.0
  O  O40  1  0.19281660  0.06728754  0.29460682  1.0
  O  O41  1  0.19281660  0.43271246  0.79460682  1.0
  O  O42  1  0.80718340  0.56728754  0.20539318  1.0
  O  O43  1  0.80718340  0.93271246  0.70539318  1.0
