# generated using pymatgen
data_K2HI2ClO6
_symmetry_space_group_name_H-M   'P 1'
_cell_length_a   15.18748049
_cell_length_b   6.62996271
_cell_length_c   8.88477830
_cell_angle_alpha   90.00000000
_cell_angle_beta   90.00000000
_cell_angle_gamma   90.00000000
_symmetry_Int_Tables_number   1
_chemical_formula_structural   K2HI2ClO6
_chemical_formula_sum   'K8 H4 I8 Cl4 O24'
_cell_volume   894.62991067
_cell_formula_units_Z   4
loop_
 _symmetry_equiv_pos_site_id
 _symmetry_equiv_pos_as_xyz
  1  'x, y, z'
loop_
 _atom_site_type_symbol
 _atom_site_label
 _atom_site_symmetry_multiplicity
 _atom_site_fract_x
 _atom_site_fract_y
 _atom_site_fract_z
 _atom_site_occupancy
  K  K0  1  0.48581047  0.02469332  0.49983026  1.0
  K  K1  1  0.98581047  0.97530668  0.49983026  1.0
  K  K2  1  0.51418953  0.97530668  -0.00016974  1.0
  K  K3  1  0.01418953  0.02469332  -0.00016974  1.0
  K  K4  1  0.26632245  0.55709674  0.50872364  1.0
  K  K5  1  0.76632245  0.44290326  0.50872364  1.0
  K  K6  1  0.73367755  0.44290326  0.00872364  1.0
  K  K7  1  0.23367755  0.55709674  0.00872364  1.0
  H  H8  1  0.10327936  0.28011130  0.73577266  1.0
  H  H9  1  0.60327936  0.71988870  0.73577266  1.0
  H  H10  1  0.89672064  0.71988870  0.23577266  1.0
  H  H11  1  0.39672064  0.28011130  0.23577266  1.0
  I  I12  1  0.46397887  0.49643367  0.76110845  1.0
  I  I13  1  0.96397887  0.50356633  0.76110845  1.0
  I  I14  1  0.53602113  0.50356633  0.26110845  1.0
  I  I15  1  0.03602113  0.49643367  0.26110845  1.0
  I  I16  1  0.28176790  0.05812357  0.76303608  1.0
  I  I17  1  0.78176790  0.94187643  0.76303608  1.0
  I  I18  1  0.71823210  0.94187643  0.26303608  1.0
  I  I19  1  0.21823210  0.05812357  0.26303608  1.0
  Cl  Cl20  1  0.12632162  0.77806728  0.73367524  1.0
  Cl  Cl21  1  0.62632162  0.22193272  0.73367524  1.0
  Cl  Cl22  1  0.87367838  0.22193272  0.23367524  1.0
  Cl  Cl23  1  0.37367838  0.77806728  0.23367524  1.0
  O  O24  1  0.44555431  0.44460540  0.55707477  1.0
  O  O25  1  0.94555431  0.55539460  0.55707477  1.0
  O  O26  1  0.55444569  0.55539460  0.05707477  1.0
  O  O27  1  0.05444569  0.44460540  0.05707477  1.0
  O  O28  1  0.39014618  0.18619677  0.82442033  1.0
  O  O29  1  0.89014618  0.81380323  0.82442033  1.0
  O  O30  1  0.60985382  0.81380323  0.32442033  1.0
  O  O31  1  0.10985382  0.18619677  0.32442033  1.0
  O  O32  1  0.36733875  0.65728344  0.81071661  1.0
  O  O33  1  0.86733875  0.34271656  0.81071661  1.0
  O  O34  1  0.63266125  0.34271656  0.31071661  1.0
  O  O35  1  0.13266125  0.65728344  0.31071661  1.0
  O  O36  1  0.30471384  0.00082666  0.56092926  1.0
  O  O37  1  0.80471384  0.99917334  0.56092926  1.0
  O  O38  1  0.69528616  0.99917334  0.06092926  1.0
  O  O39  1  0.19528616  0.00082666  0.06092926  1.0
  O  O40  1  0.21129163  0.29046725  0.74908294  1.0
  O  O41  1  0.71129163  0.70953275  0.74908294  1.0
  O  O42  1  0.78870837  0.70953275  0.24908294  1.0
  O  O43  1  0.28870837  0.29046725  0.24908294  1.0
  O  O44  1  0.03760516  0.25336364  0.72862976  1.0
  O  O45  1  0.53760516  0.74663636  0.72862976  1.0
  O  O46  1  0.96239484  0.74663636  0.22862976  1.0
  O  O47  1  0.46239484  0.25336364  0.22862976  1.0
