# generated using pymatgen
data_Ba2ZrTiO6
_symmetry_space_group_name_H-M   'P 1'
_cell_length_a   5.83024581
_cell_length_b   5.83024581
_cell_length_c   5.83024581
_cell_angle_alpha   59.99375061
_cell_angle_beta   59.99375061
_cell_angle_gamma   59.99375061
_symmetry_Int_Tables_number   1
_chemical_formula_structural   Ba2ZrTiO6
_chemical_formula_sum   'Ba2 Zr1 Ti1 O6'
_cell_volume   140.11481499
_cell_formula_units_Z   1
loop_
 _symmetry_equiv_pos_site_id
 _symmetry_equiv_pos_as_xyz
  1  'x, y, z'
loop_
 _atom_site_type_symbol
 _atom_site_label
 _atom_site_symmetry_multiplicity
 _atom_site_fract_x
 _atom_site_fract_y
 _atom_site_fract_z
 _atom_site_occupancy
  Ba  Ba0  1  1.24999491  1.24999491  0.24999491  1.0
  Ba  Ba1  1  0.75000509  0.75000509  0.75000509  1.0
  Zr  Zr2  1  1.50000000  0.50000000  0.50000000  1.0
  Ti  Ti3  1  0.00000000  0.00000000  0.00000000  1.0
  O  O4  1  0.75701580  1.24300332  0.24300332  1.0
  O  O5  1  1.24300332  0.75701580  0.24300332  1.0
  O  O6  1  1.24300332  1.24300332  -0.24298420  1.0
  O  O7  1  1.24298420  0.75699668  0.75699668  1.0
  O  O8  1  1.75699668  0.24298420  0.75699668  1.0
  O  O9  1  1.75699668  0.75699668  0.24298420  1.0
