# generated using pymatgen
data_Ba7Ir6O19
_symmetry_space_group_name_H-M   'P 1'
_cell_length_a   8.03541739
_cell_length_b   8.03541739
_cell_length_c   11.12971327
_cell_angle_alpha   81.63997876
_cell_angle_beta   98.36002124
_cell_angle_gamma   137.67417630
_symmetry_Int_Tables_number   1
_chemical_formula_structural   Ba7Ir6O19
_chemical_formula_sum   'Ba7 Ir6 O19'
_cell_volume   477.96442977
_cell_formula_units_Z   1
loop_
 _symmetry_equiv_pos_site_id
 _symmetry_equiv_pos_as_xyz
  1  'x, y, z'
loop_
 _atom_site_type_symbol
 _atom_site_label
 _atom_site_symmetry_multiplicity
 _atom_site_fract_x
 _atom_site_fract_y
 _atom_site_fract_z
 _atom_site_occupancy
  Ba  Ba0  1  0.92664656  0.07335344  0.33840583  1.0
  Ba  Ba1  1  0.07335344  -0.07335344  0.66159417  1.0
  Ba  Ba2  1  0.64504922  0.35495078  0.44512322  1.0
  Ba  Ba3  1  0.35495078  -0.35495078  0.55487678  1.0
  Ba  Ba4  1  0.30376665  -0.30376665  0.91052112  1.0
  Ba  Ba5  1  0.69623335  0.30376665  0.08947888  1.0
  Ba  Ba6  1  0.00000000  0.00000000  0.00000000  1.0
  Ir  Ir7  1  0.68198992  0.31801008  0.76513239  1.0
  Ir  Ir8  1  0.31801008  -0.31801008  0.23486761  1.0
  Ir  Ir9  1  0.84416150  0.15583850  0.71892929  1.0
  Ir  Ir10  1  0.15583850  -0.15583850  0.28107071  1.0
  Ir  Ir11  1  0.52227224  0.47772776  0.82271724  1.0
  Ir  Ir12  1  0.47772776  -0.47772776  0.17728276  1.0
  O  O13  1  0.51328628  0.02746600  0.66282926  1.0
  O  O14  1  0.97253400  0.48671372  0.66282926  1.0
  O  O15  1  1.02746600  0.51328628  0.33717074  1.0
  O  O16  1  0.48671372  -0.02746600  0.33717074  1.0
  O  O17  1  0.39065520  0.14291462  0.86691112  1.0
  O  O18  1  0.85708538  0.60934480  0.86691112  1.0
  O  O19  1  1.14291462  0.39065520  0.13308888  1.0
  O  O20  1  0.60934480  -0.14291462  0.13308888  1.0
  O  O21  1  0.89709224  0.10290776  0.56477736  1.0
  O  O22  1  0.10290776  -0.10290776  0.43522264  1.0
  O  O23  1  0.79615119  0.20384881  0.88720060  1.0
  O  O24  1  0.20384881  -0.20384881  0.11279940  1.0
  O  O25  1  0.55638045  0.44361955  0.64999693  1.0
  O  O26  1  0.44361955  -0.44361955  0.35000307  1.0
  O  O27  1  0.50000000  0.50000000  0.00000000  1.0
  O  O28  1  0.67654117  -0.17868841  0.79438381  1.0
  O  O29  1  1.17868841  0.32345883  0.79438381  1.0
  O  O30  1  0.82131159  0.67654117  0.20561619  1.0
  O  O31  1  0.32345883  0.17868841  0.20561619  1.0
