# generated using pymatgen
data_Nb21S8
_symmetry_space_group_name_H-M   'P 1'
_cell_length_a   12.03888062
_cell_length_b   12.03888062
_cell_length_c   12.03888062
_cell_angle_alpha   91.12042971
_cell_angle_beta   91.12042971
_cell_angle_gamma   163.92335582
_symmetry_Int_Tables_number   1
_chemical_formula_structural   Nb21S8
_chemical_formula_sum   'Nb21 S8'
_cell_volume   478.44186660
_cell_formula_units_Z   1
loop_
 _symmetry_equiv_pos_site_id
 _symmetry_equiv_pos_as_xyz
  1  'x, y, z'
loop_
 _atom_site_type_symbol
 _atom_site_label
 _atom_site_symmetry_multiplicity
 _atom_site_fract_x
 _atom_site_fract_y
 _atom_site_fract_z
 _atom_site_occupancy
  Nb  Nb0  1  0.54991643  0.91878353  1.46869997  1.0
  Nb  Nb1  1  0.91878353  1.45008357  1.36886710  1.0
  Nb  Nb2  1  0.45008357  0.08121647  0.53130003  1.0
  Nb  Nb3  1  1.08121647  0.54991643  0.63113290  1.0
  Nb  Nb4  1  0.97951859  0.72208609  0.70160468  1.0
  Nb  Nb5  1  0.72208609  0.02048141  0.74256751  1.0
  Nb  Nb6  1  1.02048141  1.27791391  1.29839532  1.0
  Nb  Nb7  1  0.27791391  0.97951859  1.25743249  1.0
  Nb  Nb8  1  0.81467641  0.61618376  0.43086017  1.0
  Nb  Nb9  1  0.61618376  0.18532359  0.80150736  1.0
  Nb  Nb10  1  1.18532359  1.38381624  1.56913983  1.0
  Nb  Nb11  1  0.38381624  0.81467641  1.19849264  1.0
  Nb  Nb12  1  0.80212995  0.80803553  1.61016548  1.0
  Nb  Nb13  1  0.80803553  1.19787005  1.00590558  1.0
  Nb  Nb14  1  0.19787005  0.19196447  0.38983452  1.0
  Nb  Nb15  1  1.19196447  0.80212995  0.99409442  1.0
  Nb  Nb16  1  0.63472322  0.54866280  0.18338602  1.0
  Nb  Nb17  1  0.54866280  0.36527678  0.91393959  1.0
  Nb  Nb18  1  1.36527678  1.45133720  1.81661398  1.0
  Nb  Nb19  1  0.45133720  0.63472322  1.08606041  1.0
  Nb  Nb20  1  0.00000000  0.00000000  0.00000000  1.0
  S  S21  1  0.93594911  0.86266525  0.79861437  1.0
  S  S22  1  0.86266525  0.06405089  0.92671614  1.0
  S  S23  1  1.06405089  1.13733475  1.20138563  1.0
  S  S24  1  0.13733475  0.93594911  1.07328386  1.0
  S  S25  1  0.63564186  0.78713723  1.42277909  1.0
  S  S26  1  0.78713723  1.36435814  1.15149537  1.0
  S  S27  1  0.36435814  0.21286277  0.57722091  1.0
  S  S28  1  1.21286277  0.63564186  0.84850463  1.0
