# generated using pymatgen
data_KCl
_symmetry_space_group_name_H-M   'P 1'
_cell_length_a   8.19251736
_cell_length_b   8.19251736
_cell_length_c   8.19251736
_cell_angle_alpha   149.22180729
_cell_angle_beta   149.22180729
_cell_angle_gamma   44.08491905
_symmetry_Int_Tables_number   1
_chemical_formula_structural   KCl
_chemical_formula_sum   'K2 Cl2'
_cell_volume   143.56880505
_cell_formula_units_Z   2
loop_
 _symmetry_equiv_pos_site_id
 _symmetry_equiv_pos_as_xyz
  1  'x, y, z'
loop_
 _atom_site_type_symbol
 _atom_site_label
 _atom_site_symmetry_multiplicity
 _atom_site_fract_x
 _atom_site_fract_y
 _atom_site_fract_z
 _atom_site_occupancy
  K  K0  1  1.25000000  0.75000000  0.50000000  1.0
  K  K1  1  0.50000000  0.50000000  1.00000000  1.0
  Cl  Cl2  1  -0.00000000  -0.00000000  0.00000000  1.0
  Cl  Cl3  1  0.75000000  1.25000000  0.50000000  1.0
