# generated using pymatgen
data_RbY3F10
_symmetry_space_group_name_H-M   'P 1'
_cell_length_a   8.28486181
_cell_length_b   8.28486181
_cell_length_c   8.28486181
_cell_angle_alpha   60.00000000
_cell_angle_beta   60.00000000
_cell_angle_gamma   60.00000000
_symmetry_Int_Tables_number   1
_chemical_formula_structural   RbY3F10
_chemical_formula_sum   'Rb2 Y6 F20'
_cell_volume   402.10623586
_cell_formula_units_Z   2
loop_
 _symmetry_equiv_pos_site_id
 _symmetry_equiv_pos_as_xyz
  1  'x, y, z'
loop_
 _atom_site_type_symbol
 _atom_site_label
 _atom_site_symmetry_multiplicity
 _atom_site_fract_x
 _atom_site_fract_y
 _atom_site_fract_z
 _atom_site_occupancy
  Rb  Rb0  1  0.75000000  0.75000000  -0.25000000  1.0
  Rb  Rb1  1  1.25000000  0.25000000  0.25000000  1.0
  Y  Y2  1  -0.75931323  0.75931323  0.75931323  1.0
  Y  Y3  1  -0.24068677  0.24068677  0.75931323  1.0
  Y  Y4  1  0.75931323  0.75931323  -0.75931323  1.0
  Y  Y5  1  0.24068677  1.24068677  -0.24068677  1.0
  Y  Y6  1  0.24068677  -0.24068677  1.24068677  1.0
  Y  Y7  1  -0.24068677  0.24068677  0.24068677  1.0
  F  F8  1  1.17104155  0.50000000  0.50000000  1.0
  F  F9  1  1.50000000  -0.17104155  0.17104155  1.0
  F  F10  1  0.50000000  1.17104155  -0.17104155  1.0
  F  F11  1  0.82895845  0.50000000  -0.50000000  1.0
  F  F12  1  0.50000000  1.17104155  -0.50000000  1.0
  F  F13  1  -0.17104155  1.50000000  0.17104155  1.0
  F  F14  1  0.50000000  -0.50000000  1.17104155  1.0
  F  F15  1  -0.17104155  0.17104155  0.50000000  1.0
  F  F16  1  0.17104155  1.50000000  -0.17104155  1.0
  F  F17  1  0.50000000  0.82895845  -0.50000000  1.0
  F  F18  1  0.17104155  -0.17104155  1.50000000  1.0
  F  F19  1  -0.50000000  0.50000000  0.82895845  1.0
  F  F20  1  0.88947910  0.88947910  -0.11052090  1.0
  F  F21  1  1.11052090  0.11052090  0.66843730  1.0
  F  F22  1  1.11052090  0.66843730  0.11052090  1.0
  F  F23  1  0.33156270  0.88947910  -0.11052090  1.0
  F  F24  1  1.66843730  0.11052090  0.11052090  1.0
  F  F25  1  0.88947910  0.33156270  -0.11052090  1.0
  F  F26  1  0.88947910  0.88947910  -0.66843730  1.0
  F  F27  1  1.11052090  0.11052090  0.11052090  1.0
