# generated using pymatgen
data_Li2TiF6
_symmetry_space_group_name_H-M   'P 1'
_cell_length_a   4.71379937
_cell_length_b   4.71379937
_cell_length_c   9.05652708
_cell_angle_alpha   90.00000000
_cell_angle_beta   90.00000000
_cell_angle_gamma   90.00000000
_symmetry_Int_Tables_number   1
_chemical_formula_structural   Li2TiF6
_chemical_formula_sum   'Li4 Ti2 F12'
_cell_volume   201.23516726
_cell_formula_units_Z   2
loop_
 _symmetry_equiv_pos_site_id
 _symmetry_equiv_pos_as_xyz
  1  'x, y, z'
loop_
 _atom_site_type_symbol
 _atom_site_label
 _atom_site_symmetry_multiplicity
 _atom_site_fract_x
 _atom_site_fract_y
 _atom_site_fract_z
 _atom_site_occupancy
  Li  Li0  1  0.50000000  0.50000000  0.16093382  1.0
  Li  Li1  1  0.50000000  0.50000000  0.83906618  1.0
  Li  Li2  1  0.00000000  0.00000000  0.66093382  1.0
  Li  Li3  1  0.00000000  0.00000000  0.33906618  1.0
  Ti  Ti4  1  0.50000000  0.50000000  0.50000000  1.0
  Ti  Ti5  1  0.00000000  0.00000000  0.00000000  1.0
  F  F6  1  0.19262984  0.80737016  0.15275473  1.0
  F  F7  1  0.19262984  0.80737016  0.84724527  1.0
  F  F8  1  0.69262984  0.69262984  0.65275473  1.0
  F  F9  1  0.69262984  0.69262984  0.34724527  1.0
  F  F10  1  0.80737016  0.19262984  0.15275473  1.0
  F  F11  1  0.80737016  0.19262984  0.84724527  1.0
  F  F12  1  0.30737016  0.30737016  0.65275473  1.0
  F  F13  1  0.30737016  0.30737016  0.34724527  1.0
  F  F14  1  0.21518320  0.78481680  0.50000000  1.0
  F  F15  1  0.71518320  0.71518320  0.00000000  1.0
  F  F16  1  0.78481680  0.21518320  0.50000000  1.0
  F  F17  1  0.28481680  0.28481680  0.00000000  1.0
