# generated using pymatgen
data_InH5NOF4
_symmetry_space_group_name_H-M   'P 1'
_cell_length_a   5.89579709
_cell_length_b   6.88609410
_cell_length_c   6.33770915
_cell_angle_alpha   110.93235275
_cell_angle_beta   100.45766490
_cell_angle_gamma   87.62844234
_symmetry_Int_Tables_number   1
_chemical_formula_structural   InH5NOF4
_chemical_formula_sum   'In2 H10 N2 O2 F8'
_cell_volume   236.25427828
_cell_formula_units_Z   2
loop_
 _symmetry_equiv_pos_site_id
 _symmetry_equiv_pos_as_xyz
  1  'x, y, z'
loop_
 _atom_site_type_symbol
 _atom_site_label
 _atom_site_symmetry_multiplicity
 _atom_site_fract_x
 _atom_site_fract_y
 _atom_site_fract_z
 _atom_site_occupancy
  In  In0  1  0.43958930  0.72235978  -0.58684282  1.0
  In  In1  1  0.56041070  0.27764022  -0.41315718  1.0
  H  H2  1  0.89861825  0.70962160  -0.61647385  1.0
  H  H3  1  0.10138175  0.29037840  -0.38352615  1.0
  H  H4  1  0.88842139  0.02600572  -0.80568283  1.0
  H  H5  1  0.11157861  0.97399428  -0.19431717  1.0
  H  H6  1  0.79410345  0.86940633  -0.08902983  1.0
  H  H7  1  0.20589655  0.13059367  -0.91097017  1.0
  H  H8  1  0.76731492  0.55081329  -0.86545999  1.0
  H  H9  1  0.23268508  0.44918671  -0.13454001  1.0
  H  H10  1  0.04911094  0.81288376  -0.94049754  1.0
  H  H11  1  0.95088906  0.18711624  -0.05950246  1.0
  N  N12  1  0.93790300  0.93359786  -0.96287126  1.0
  N  N13  1  0.06209700  0.06640214  -0.03712874  1.0
  O  O14  1  0.75249882  0.68272332  -0.73190192  1.0
  O  O15  1  0.24750118  0.31727668  -0.26809808  1.0
  F  F16  1  0.85920884  0.21246634  -0.56443873  1.0
  F  F17  1  0.14079116  0.78753366  -0.43556127  1.0
  F  F18  1  0.62030970  0.99079608  -0.31946528  1.0
  F  F19  1  0.37969030  0.00920392  -0.68053472  1.0
  F  F20  1  0.61402832  0.61541038  -0.30898788  1.0
  F  F21  1  0.38597168  0.38458962  -0.69101212  1.0
  F  F22  1  0.21600706  0.63841361  -0.91831534  1.0
  F  F23  1  0.78399294  0.36158639  -0.08168466  1.0
