# generated using pymatgen
data_Na7Al2Sb5
_symmetry_space_group_name_H-M   'P 1'
_cell_length_a   7.78571618
_cell_length_b   13.65974967
_cell_length_c   8.24739268
_cell_angle_alpha   90.00000000
_cell_angle_beta   118.06146960
_cell_angle_gamma   90.00000000
_symmetry_Int_Tables_number   1
_chemical_formula_structural   Na7Al2Sb5
_chemical_formula_sum   'Na14 Al4 Sb10'
_cell_volume   774.00692626
_cell_formula_units_Z   2
loop_
 _symmetry_equiv_pos_site_id
 _symmetry_equiv_pos_as_xyz
  1  'x, y, z'
loop_
 _atom_site_type_symbol
 _atom_site_label
 _atom_site_symmetry_multiplicity
 _atom_site_fract_x
 _atom_site_fract_y
 _atom_site_fract_z
 _atom_site_occupancy
  Na  Na0  1  0.38903153  0.42468175  0.58323608  1.0
  Na  Na1  1  0.38903153  0.07531825  0.58323608  1.0
  Na  Na2  1  0.61096847  0.92468175  0.41676392  1.0
  Na  Na3  1  0.61096847  0.57531825  0.41676392  1.0
  Na  Na4  1  0.30873279  0.92315232  0.88314404  1.0
  Na  Na5  1  0.30873279  0.57684768  0.88314404  1.0
  Na  Na6  1  0.69126721  0.42315232  0.11685596  1.0
  Na  Na7  1  0.69126721  0.07684768  0.11685596  1.0
  Na  Na8  1  0.59910126  0.25000000  0.40606452  1.0
  Na  Na9  1  0.40089874  0.75000000  0.59393548  1.0
  Na  Na10  1  0.26999032  0.25000000  0.85577247  1.0
  Na  Na11  1  0.73000968  0.75000000  0.14422753  1.0
  Na  Na12  1  0.06129981  0.25000000  0.25865277  1.0
  Na  Na13  1  0.93870019  0.75000000  0.74134723  1.0
  Al  Al14  1  0.91294975  0.41144588  0.83920804  1.0
  Al  Al15  1  0.91294975  0.08855412  0.83920804  1.0
  Al  Al16  1  0.08705025  0.91144588  0.16079196  1.0
  Al  Al17  1  0.08705025  0.58855412  0.16079196  1.0
  Sb  Sb18  1  0.96996956  0.39750558  0.53654597  1.0
  Sb  Sb19  1  0.96996956  0.10249442  0.53654597  1.0
  Sb  Sb20  1  0.03003044  0.89750558  0.46345403  1.0
  Sb  Sb21  1  0.03003044  0.60249442  0.46345403  1.0
  Sb  Sb22  1  0.72368174  0.92099301  0.84990094  1.0
  Sb  Sb23  1  0.72368174  0.57900699  0.84990094  1.0
  Sb  Sb24  1  0.27631826  0.42099301  0.15009906  1.0
  Sb  Sb25  1  0.27631826  0.07900699  0.15009906  1.0
  Sb  Sb26  1  0.69826316  0.25000000  0.83776120  1.0
  Sb  Sb27  1  0.30173684  0.75000000  0.16223880  1.0
