# generated using pymatgen
data_Ba6Na2P2Ru2O17
_symmetry_space_group_name_H-M   'P 1'
_cell_length_a   5.86522945
_cell_length_b   5.86522945
_cell_length_c   29.59368218
_cell_angle_alpha   90.00000000
_cell_angle_beta   90.00000000
_cell_angle_gamma   120.00000000
_symmetry_Int_Tables_number   1
_chemical_formula_structural   Ba6Na2P2Ru2O17
_chemical_formula_sum   'Ba12 Na4 P4 Ru4 O34'
_cell_volume   881.65698014
_cell_formula_units_Z   2
loop_
 _symmetry_equiv_pos_site_id
 _symmetry_equiv_pos_as_xyz
  1  'x, y, z'
loop_
 _atom_site_type_symbol
 _atom_site_label
 _atom_site_symmetry_multiplicity
 _atom_site_fract_x
 _atom_site_fract_y
 _atom_site_fract_z
 _atom_site_occupancy
  Ru  Ru0  1  0.33333333  0.66666667  0.79695723  1.0
  Ru  Ru1  1  0.33333333  0.66666667  0.70304277  1.0
  Ru  Ru2  1  0.66666667  0.33333333  0.29695723  1.0
  Ru  Ru3  1  0.66666667  0.33333333  0.20304277  1.0
  Na  Na4  1  0.00000000  0.00000000  0.37835033  1.0
  Na  Na5  1  0.00000000  0.00000000  0.12164967  1.0
  Na  Na6  1  0.00000000  0.00000000  0.87835033  1.0
  Na  Na7  1  0.00000000  0.00000000  0.62164967  1.0
  P  P8  1  0.33333333  0.66666667  0.44774584  1.0
  P  P9  1  0.33333333  0.66666667  0.05225416  1.0
  P  P10  1  0.66666667  0.33333333  0.94774584  1.0
  P  P11  1  0.66666667  0.33333333  0.55225416  1.0
  O  O12  1  0.18826327  0.81173673  0.42891569  1.0
  O  O13  1  0.18826327  0.81173673  0.07108431  1.0
  O  O14  1  0.18826327  0.37652653  0.42891569  1.0
  O  O15  1  0.18826327  0.37652653  0.07108431  1.0
  O  O16  1  0.81173673  0.18826327  0.92891569  1.0
  O  O17  1  0.81173673  0.18826327  0.57108431  1.0
  O  O18  1  0.81173673  0.62347347  0.92891569  1.0
  O  O19  1  0.81173673  0.62347347  0.57108431  1.0
  O  O20  1  0.62347347  0.81173673  0.42891569  1.0
  O  O21  1  0.62347347  0.81173673  0.07108431  1.0
  O  O22  1  0.37652653  0.18826327  0.92891569  1.0
  O  O23  1  0.37652653  0.18826327  0.57108431  1.0
  O  O24  1  0.33333333  0.66666667  -0.00001053  1.0
  O  O25  1  0.33333333  0.66666667  0.50001053  1.0
  O  O26  1  0.66666667  0.33333333  0.49998947  1.0
  O  O27  1  0.66666667  0.33333333  1.00001053  1.0
  O  O28  1  0.17657845  0.82342155  0.83136874  1.0
  O  O29  1  0.17657845  0.82342155  0.66863126  1.0
  O  O30  1  0.17657845  0.35315690  0.83136874  1.0
  O  O31  1  0.17657845  0.35315690  0.66863126  1.0
  O  O32  1  0.82342155  0.17657845  0.33136874  1.0
  O  O33  1  0.82342155  0.17657845  0.16863126  1.0
  O  O34  1  0.82342155  0.64684310  0.33136874  1.0
  O  O35  1  0.82342155  0.64684310  0.16863126  1.0
  O  O36  1  0.64684310  0.82342155  0.83136874  1.0
  O  O37  1  0.64684310  0.82342155  0.66863126  1.0
  O  O38  1  0.35315690  0.17657845  0.33136874  1.0
  O  O39  1  0.35315690  0.17657845  0.16863126  1.0
  O  O40  1  0.51361394  0.48638606  0.25000000  1.0
  O  O41  1  0.51361394  1.02722789  0.25000000  1.0
  O  O42  1  0.48638606  0.51361394  0.75000000  1.0
  O  O43  1  0.48638606  -0.02722789  0.75000000  1.0
  O  O44  1  -0.02722789  0.48638606  0.25000000  1.0
  O  O45  1  1.02722789  0.51361394  0.75000000  1.0
  Ba  Ba46  1  0.33333333  0.66666667  0.32146918  1.0
  Ba  Ba47  1  0.33333333  0.66666667  0.17853082  1.0
  Ba  Ba48  1  0.66666667  0.33333333  0.82146918  1.0
  Ba  Ba49  1  0.66666667  0.33333333  0.67853082  1.0
  Ba  Ba50  1  0.33333333  0.66666667  0.91030166  1.0
  Ba  Ba51  1  0.33333333  0.66666667  0.58969834  1.0
  Ba  Ba52  1  0.66666667  0.33333333  0.41030166  1.0
  Ba  Ba53  1  0.66666667  0.33333333  0.08969834  1.0
  Ba  Ba54  1  0.00000000  0.00000000  0.25000000  1.0
  Ba  Ba55  1  0.00000000  0.00000000  0.75000000  1.0
  Ba  Ba56  1  0.00000000  0.00000000  0.50000000  1.0
  Ba  Ba57  1  0.00000000  0.00000000  0.00000000  1.0
