# generated using pymatgen
data_Li2In(PO4)2
_symmetry_space_group_name_H-M   'P 1'
_cell_length_a   5.01735329
_cell_length_b   8.47050659
_cell_length_c   8.57035716
_cell_angle_alpha   90.00000000
_cell_angle_beta   116.93250812
_cell_angle_gamma   90.00000000
_symmetry_Int_Tables_number   1
_chemical_formula_structural   Li2In(PO4)2
_chemical_formula_sum   'Li4 In2 P4 O16'
_cell_volume   324.73130299
_cell_formula_units_Z   2
loop_
 _symmetry_equiv_pos_site_id
 _symmetry_equiv_pos_as_xyz
  1  'x, y, z'
loop_
 _atom_site_type_symbol
 _atom_site_label
 _atom_site_symmetry_multiplicity
 _atom_site_fract_x
 _atom_site_fract_y
 _atom_site_fract_z
 _atom_site_occupancy
  P  P0  1  0.66102504  0.16394827  0.25931424  1.0
  P  P1  1  0.66102504  0.33605173  0.75931424  1.0
  P  P2  1  0.33897496  0.66394827  0.24068576  1.0
  P  P3  1  0.33897496  0.83605173  0.74068576  1.0
  O  O4  1  0.81771045  0.32706026  0.29145910  1.0
  O  O5  1  0.81771045  0.17293974  0.79145910  1.0
  O  O6  1  0.18228955  0.82706026  0.20854090  1.0
  O  O7  1  0.18228955  0.67293974  0.70854090  1.0
  O  O8  1  0.76093562  0.05518808  0.14982805  1.0
  O  O9  1  0.76093562  0.44481192  0.64982805  1.0
  O  O10  1  0.23906438  0.55518808  0.35017195  1.0
  O  O11  1  0.23906438  0.94481192  0.85017195  1.0
  O  O12  1  0.31390980  0.18580781  0.16229890  1.0
  O  O13  1  0.31390980  0.31419219  0.66229890  1.0
  O  O14  1  0.68609020  0.68580781  0.33770110  1.0
  O  O15  1  0.68609020  0.81419219  0.83770110  1.0
  O  O16  1  0.74330714  0.07354447  0.43315097  1.0
  O  O17  1  0.74330714  0.42645553  0.93315097  1.0
  O  O18  1  0.25669286  0.57354447  0.06684903  1.0
  O  O19  1  0.25669286  0.92645553  0.56684903  1.0
  In  In20  1  -0.00000000  0.50000000  0.50000000  1.0
  In  In21  1  -0.00000000  0.00000000  -0.00000000  1.0
  Li  Li22  1  0.93618045  0.87693196  0.33823545  1.0
  Li  Li23  1  0.93618045  0.62306804  0.83823545  1.0
  Li  Li24  1  0.06381955  0.37693196  0.16176455  1.0
  Li  Li25  1  0.06381955  0.12306804  0.66176455  1.0
