# generated using pymatgen
data_BaSb2Xe5F22
_symmetry_space_group_name_H-M   'P 1'
_cell_length_a   9.51163159
_cell_length_b   9.51163159
_cell_length_c   10.10634427
_cell_angle_alpha   57.91646076
_cell_angle_beta   122.08353924
_cell_angle_gamma   97.40024195
_symmetry_Int_Tables_number   1
_chemical_formula_structural   BaSb2Xe5F22
_chemical_formula_sum   'Ba1 Sb2 Xe5 F22'
_cell_volume   641.22965848
_cell_formula_units_Z   1
loop_
 _symmetry_equiv_pos_site_id
 _symmetry_equiv_pos_as_xyz
  1  'x, y, z'
loop_
 _atom_site_type_symbol
 _atom_site_label
 _atom_site_symmetry_multiplicity
 _atom_site_fract_x
 _atom_site_fract_y
 _atom_site_fract_z
 _atom_site_occupancy
  Ba  Ba0  1  0.50000000  -0.50000000  0.50000000  1.0
  Sb  Sb1  1  1.50000000  0.00000000  -0.00000000  1.0
  Sb  Sb2  1  1.00000000  0.50000000  -0.00000000  1.0
  Xe  Xe3  1  0.50000000  -0.00000000  0.50000000  1.0
  Xe  Xe4  1  1.00000000  0.50000000  0.50000000  1.0
  Xe  Xe5  1  0.00000000  -0.00000000  0.50000000  1.0
  Xe  Xe6  1  0.50000000  0.50000000  -0.00000000  1.0
  Xe  Xe7  1  0.00000000  0.00000000  0.00000000  1.0
  F  F8  1  1.55856956  -0.20031766  0.50002127  1.0
  F  F9  1  1.20031766  0.44143044  0.50002127  1.0
  F  F10  1  0.79968234  0.55856956  0.49997873  1.0
  F  F11  1  1.44143044  0.20031766  0.49997873  1.0
  F  F12  1  0.45271499  -0.08941418  0.85207899  1.0
  F  F13  1  1.08941418  0.54728501  0.85207899  1.0
  F  F14  1  0.91058582  0.45271499  0.14792101  1.0
  F  F15  1  0.54728501  0.08941418  0.14792101  1.0
  F  F16  1  1.53752189  0.20565465  0.83180419  1.0
  F  F17  1  0.79434535  -0.53752189  0.83180419  1.0
  F  F18  1  1.20565465  -0.46247811  0.16819581  1.0
  F  F19  1  1.46247811  -0.20565465  0.16819581  1.0
  F  F20  1  1.26296776  0.10125080  0.85282560  1.0
  F  F21  1  0.89874920  0.73703224  0.85282560  1.0
  F  F22  1  1.10125080  0.26296776  0.14717440  1.0
  F  F23  1  1.73703224  -0.10125080  0.14717440  1.0
  F  F24  1  0.85699871  0.14300129  0.50037559  1.0
  F  F25  1  0.14300129  -0.14300129  0.49962441  1.0
  F  F26  1  0.80400101  0.19599899  0.75091297  1.0
  F  F27  1  0.19599899  -0.19599899  0.24908703  1.0
  F  F28  1  0.44685829  -0.44685829  0.75086435  1.0
  F  F29  1  0.55314171  0.44685829  0.24913565  1.0
