# generated using pymatgen
data_BH6N
_symmetry_space_group_name_H-M   'P 1'
_cell_length_a   5.58993652
_cell_length_b   5.58993652
_cell_length_c   5.83204607
_cell_angle_alpha   90.00000000
_cell_angle_beta   90.00000000
_cell_angle_gamma   119.78301947
_symmetry_Int_Tables_number   1
_chemical_formula_structural   BH6N
_chemical_formula_sum   'B2 H12 N2'
_cell_volume   158.16512950
_cell_formula_units_Z   2
loop_
 _symmetry_equiv_pos_site_id
 _symmetry_equiv_pos_as_xyz
  1  'x, y, z'
loop_
 _atom_site_type_symbol
 _atom_site_label
 _atom_site_symmetry_multiplicity
 _atom_site_fract_x
 _atom_site_fract_y
 _atom_site_fract_z
 _atom_site_occupancy
  B  B0  1  0.16672549  0.83327451  0.67531428  1.0
  B  B1  1  -0.16672549  1.16672549  0.17531428  1.0
  H  H2  1  0.36492412  0.93085957  1.01398971  1.0
  H  H3  1  0.06914043  0.63507588  1.01398971  1.0
  H  H4  1  -0.36492412  1.06914043  0.51398971  1.0
  H  H5  1  -0.06914043  1.36492412  0.51398971  1.0
  H  H6  1  0.06847426  0.93152574  0.01490766  1.0
  H  H7  1  -0.06847426  1.06847426  0.51490766  1.0
  H  H8  1  0.28668205  0.71331795  0.60876611  1.0
  H  H9  1  -0.28668205  1.28668205  0.10876611  1.0
  H  H10  1  -0.71407876  1.07295312  0.61003891  1.0
  H  H11  1  -0.07295312  1.71407876  0.61003891  1.0
  H  H12  1  0.71407876  0.92704688  0.11003891  1.0
  H  H13  1  0.07295312  0.28592124  0.11003891  1.0
  N  N14  1  0.16736338  0.83263662  0.94895470  1.0
  N  N15  1  -0.16736338  1.16736338  0.44895470  1.0
