# generated using pymatgen
data_Ca3V2O8
_symmetry_space_group_name_H-M   'P 1'
_cell_length_a   5.79035092
_cell_length_b   5.79035092
_cell_length_c   6.77483971
_cell_angle_alpha   69.49988297
_cell_angle_beta   110.50011703
_cell_angle_gamma   122.57899643
_symmetry_Int_Tables_number   1
_chemical_formula_structural   Ca3V2O8
_chemical_formula_sum   'Ca3 V2 O8'
_cell_volume   175.48507060
_cell_formula_units_Z   1
loop_
 _symmetry_equiv_pos_site_id
 _symmetry_equiv_pos_as_xyz
  1  'x, y, z'
loop_
 _atom_site_type_symbol
 _atom_site_label
 _atom_site_symmetry_multiplicity
 _atom_site_fract_x
 _atom_site_fract_y
 _atom_site_fract_z
 _atom_site_occupancy
  Ca  Ca0  1  0.83124898  -0.83124898  0.41907939  1.0
  Ca  Ca1  1  0.16875102  -0.16875102  0.58092061  1.0
  Ca  Ca2  1  0.00000000  0.00000000  0.00000000  1.0
  V  V3  1  0.61132267  0.38867733  0.79605540  1.0
  V  V4  1  1.38867733  -0.38867733  0.20394460  1.0
  O  O5  1  1.77000359  -0.25096079  0.71167855  1.0
  O  O6  1  1.25096079  -0.77000359  0.71167855  1.0
  O  O7  1  0.74903921  0.77000359  0.28832145  1.0
  O  O8  1  0.22999641  0.25096079  0.28832145  1.0
  O  O9  1  0.74426929  0.25573071  0.69371791  1.0
  O  O10  1  1.25573071  -0.25573071  0.30628209  1.0
  O  O11  1  0.31635631  -0.31635631  0.93295060  1.0
  O  O12  1  0.68364369  -0.68364369  0.06704940  1.0
