# generated using pymatgen
data_Ba3Ti2MnO9
_symmetry_space_group_name_H-M   'P 1'
_cell_length_a   5.73434834
_cell_length_b   5.73434834
_cell_length_c   14.05954359
_cell_angle_alpha   90.00000000
_cell_angle_beta   90.00000000
_cell_angle_gamma   120.00000000
_symmetry_Int_Tables_number   1
_chemical_formula_structural   Ba3Ti2MnO9
_chemical_formula_sum   'Ba6 Ti4 Mn2 O18'
_cell_volume   400.37780640
_cell_formula_units_Z   2
loop_
 _symmetry_equiv_pos_site_id
 _symmetry_equiv_pos_as_xyz
  1  'x, y, z'
loop_
 _atom_site_type_symbol
 _atom_site_label
 _atom_site_symmetry_multiplicity
 _atom_site_fract_x
 _atom_site_fract_y
 _atom_site_fract_z
 _atom_site_occupancy
  Ba  Ba0  1  0.33333333  0.66666667  0.16756903  1.0
  Ba  Ba1  1  0.66666667  0.33333333  0.66756903  1.0
  Ba  Ba2  1  0.33333333  0.66666667  0.85306085  1.0
  Ba  Ba3  1  0.66666667  0.33333333  0.35306085  1.0
  Ba  Ba4  1  -0.00000000  -0.00000000  0.00732341  1.0
  Ba  Ba5  1  0.00000000  0.00000000  0.50732341  1.0
  Ti  Ti6  1  0.33333333  0.66666667  0.60623214  1.0
  Ti  Ti7  1  0.66666667  0.33333333  0.10623214  1.0
  Ti  Ti8  1  0.00000000  0.00000000  0.26429386  1.0
  Ti  Ti9  1  0.00000000  0.00000000  0.76429386  1.0
  Mn  Mn10  1  0.33333333  0.66666667  0.41593672  1.0
  Mn  Mn11  1  0.66666667  0.33333333  0.91593672  1.0
  O  O12  1  0.66855126  0.83427563  0.33310827  1.0
  O  O13  1  0.83427563  0.66855126  0.83310827  1.0
  O  O14  1  0.83427563  0.16572437  0.83310827  1.0
  O  O15  1  0.16572437  0.83427563  0.33310827  1.0
  O  O16  1  0.16572437  0.33144874  0.33310827  1.0
  O  O17  1  0.33144874  0.16572437  0.83310827  1.0
  O  O18  1  0.96050543  0.48025271  -0.00175797  1.0
  O  O19  1  0.48025271  0.96050543  0.49824203  1.0
  O  O20  1  0.48025271  0.51974729  0.49824203  1.0
  O  O21  1  0.51974729  0.48025271  -0.00175797  1.0
  O  O22  1  0.51974729  0.03949457  -0.00175797  1.0
  O  O23  1  0.03949457  0.51974729  0.49824203  1.0
  O  O24  1  0.33358451  0.16679226  0.17071103  1.0
  O  O25  1  0.16679226  0.33358451  0.67071103  1.0
  O  O26  1  0.16679226  0.83320774  0.67071103  1.0
  O  O27  1  0.83320774  0.16679226  0.17071103  1.0
  O  O28  1  0.83320774  0.66641549  0.17071103  1.0
  O  O29  1  0.66641549  0.83320774  0.67071103  1.0
