# generated using pymatgen
data_MnSbS2Br
_symmetry_space_group_name_H-M   'P 1'
_cell_length_a   6.68332542
_cell_length_b   6.68332542
_cell_length_c   9.62351548
_cell_angle_alpha   88.13659263
_cell_angle_beta   91.86340737
_cell_angle_gamma   146.37776719
_symmetry_Int_Tables_number   1
_chemical_formula_structural   MnSbS2Br
_chemical_formula_sum   'Mn2 Sb2 S4 Br2'
_cell_volume   237.87802464
_cell_formula_units_Z   2
loop_
 _symmetry_equiv_pos_site_id
 _symmetry_equiv_pos_as_xyz
  1  'x, y, z'
loop_
 _atom_site_type_symbol
 _atom_site_label
 _atom_site_symmetry_multiplicity
 _atom_site_fract_x
 _atom_site_fract_y
 _atom_site_fract_z
 _atom_site_occupancy
  Mn  Mn0  1  -0.00000000  0.00000000  0.50000000  1.0
  Mn  Mn1  1  0.00000000  0.00000000  0.00000000  1.0
  Sb  Sb2  1  0.70756269  0.29243731  0.31133210  1.0
  Sb  Sb3  1  0.29243731  -0.29243731  0.68866790  1.0
  S  S4  1  0.92749364  0.07250636  0.74040470  1.0
  S  S5  1  0.07250636  -0.07250636  0.25959530  1.0
  S  S6  1  0.63786425  0.36213575  0.55190142  1.0
  S  S7  1  0.36213575  -0.36213575  0.44809858  1.0
  Br  Br8  1  0.63200647  0.36799353  0.93510920  1.0
  Br  Br9  1  0.36799353  -0.36799353  0.06489080  1.0
