# generated using pymatgen
data_Sr5P3ClO12
_symmetry_space_group_name_H-M   'P 1'
_cell_length_a   10.04567122
_cell_length_b   10.04567122
_cell_length_c   7.23110100
_cell_angle_alpha   90.00000000
_cell_angle_beta   90.00000000
_cell_angle_gamma   120.00000000
_symmetry_Int_Tables_number   1
_chemical_formula_structural   Sr5P3ClO12
_chemical_formula_sum   'Sr10 P6 Cl2 O24'
_cell_volume   631.96493193
_cell_formula_units_Z   2
loop_
 _symmetry_equiv_pos_site_id
 _symmetry_equiv_pos_as_xyz
  1  'x, y, z'
loop_
 _atom_site_type_symbol
 _atom_site_label
 _atom_site_symmetry_multiplicity
 _atom_site_fract_x
 _atom_site_fract_y
 _atom_site_fract_z
 _atom_site_occupancy
  Sr  Sr0  1  -0.00231487  0.74472722  0.25000000  1.0
  Sr  Sr1  1  0.74472722  0.74704209  0.75000000  1.0
  Sr  Sr2  1  0.74704209  1.00231487  0.25000000  1.0
  Sr  Sr3  1  0.25527278  0.25295791  0.25000000  1.0
  Sr  Sr4  1  1.00231487  0.25527278  0.75000000  1.0
  Sr  Sr5  1  0.25295791  -0.00231487  0.75000000  1.0
  Sr  Sr6  1  0.33333333  0.66666667  0.50126004  1.0
  Sr  Sr7  1  0.33333333  0.66666667  -0.00126004  1.0
  Sr  Sr8  1  0.66666667  0.33333333  0.00126004  1.0
  Sr  Sr9  1  0.66666667  0.33333333  0.49873996  1.0
  P  P10  1  0.37293079  0.96600404  0.25000000  1.0
  P  P11  1  0.96600404  0.59307324  0.75000000  1.0
  P  P12  1  0.59307324  0.62706921  0.25000000  1.0
  P  P13  1  0.03399596  0.40692676  0.25000000  1.0
  P  P14  1  0.62706921  0.03399596  0.75000000  1.0
  P  P15  1  0.40692676  0.37293079  0.75000000  1.0
  Cl  Cl16  1  0.00000000  -0.00000000  0.50000000  1.0
  Cl  Cl17  1  0.00000000  0.00000000  0.00000000  1.0
  O  O18  1  0.26738659  0.91199065  0.42453993  1.0
  O  O19  1  0.26738659  0.91199065  0.07546007  1.0
  O  O20  1  0.91199065  0.64460407  0.92453993  1.0
  O  O21  1  0.91199065  0.64460407  0.57546007  1.0
  O  O22  1  0.64460407  0.73261341  0.42453993  1.0
  O  O23  1  0.64460407  0.73261341  0.07546007  1.0
  O  O24  1  0.08800935  0.35539593  0.42453993  1.0
  O  O25  1  0.08800935  0.35539593  0.07546007  1.0
  O  O26  1  0.73261341  0.08800935  0.92453993  1.0
  O  O27  1  0.73261341  0.08800935  0.57546007  1.0
  O  O28  1  0.35539593  0.26738659  0.92453993  1.0
  O  O29  1  0.35539593  0.26738659  0.57546007  1.0
  O  O30  1  0.46599813  0.87860278  0.25000000  1.0
  O  O31  1  0.87860278  0.41260464  0.75000000  1.0
  O  O32  1  0.41260464  0.53400187  0.25000000  1.0
  O  O33  1  0.12139722  0.58739536  0.25000000  1.0
  O  O34  1  0.53400187  0.12139722  0.75000000  1.0
  O  O35  1  0.58739536  0.46599813  0.75000000  1.0
  O  O36  1  0.66074732  0.51694864  0.25000000  1.0
  O  O37  1  0.51694864  0.85620131  0.75000000  1.0
  O  O38  1  0.85620131  0.33925268  0.25000000  1.0
  O  O39  1  0.48305136  0.14379869  0.25000000  1.0
  O  O40  1  0.33925268  0.48305136  0.75000000  1.0
  O  O41  1  0.14379869  0.66074732  0.75000000  1.0
