# generated using pymatgen
data_V12SiNi4
_symmetry_space_group_name_H-M   'P 1'
_cell_length_a   9.47671490
_cell_length_b   9.47671490
_cell_length_c   9.47671490
_cell_angle_alpha   60.00000000
_cell_angle_beta   60.00000000
_cell_angle_gamma   60.00000000
_symmetry_Int_Tables_number   1
_chemical_formula_structural   V12SiNi4
_chemical_formula_sum   'V24 Si2 Ni8'
_cell_volume   601.80868047
_cell_formula_units_Z   2
loop_
 _symmetry_equiv_pos_site_id
 _symmetry_equiv_pos_as_xyz
  1  'x, y, z'
loop_
 _atom_site_type_symbol
 _atom_site_label
 _atom_site_symmetry_multiplicity
 _atom_site_fract_x
 _atom_site_fract_y
 _atom_site_fract_z
 _atom_site_occupancy
  V  V0  1  0.94864569  -0.59891921  0.70162782  1.0
  V  V1  1  -0.05135431  0.70162782  0.40108079  1.0
  V  V2  1  -0.15108079  0.30135431  0.30135431  1.0
  V  V3  1  0.54837218  0.30135431  0.30135431  1.0
  V  V4  1  -0.59891921  0.94864569  0.70162782  1.0
  V  V5  1  0.94864569  -0.05135431  0.70162782  1.0
  V  V6  1  0.94864569  -0.29837218  0.94864569  1.0
  V  V7  1  -0.59891921  0.70162782  0.94864569  1.0
  V  V8  1  0.30135431  -0.15108079  0.30135431  1.0
  V  V9  1  0.30135431  0.30135431  -0.15108079  1.0
  V  V10  1  0.54837218  0.30135431  -0.15108079  1.0
  V  V11  1  0.54837218  -0.15108079  0.30135431  1.0
  V  V12  1  0.70162782  -0.05135431  0.94864569  1.0
  V  V13  1  -0.59891921  0.94864569  0.94864569  1.0
  V  V14  1  0.30135431  0.54837218  -0.15108079  1.0
  V  V15  1  0.30135431  -0.15108079  0.54837218  1.0
  V  V16  1  -0.29837218  0.94864569  0.40108079  1.0
  V  V17  1  0.70162782  -0.59891921  0.94864569  1.0
  V  V18  1  0.94864569  -0.59891921  0.94864569  1.0
  V  V19  1  -0.05135431  0.94864569  0.40108079  1.0
  V  V20  1  0.30135431  0.54837218  0.30135431  1.0
  V  V21  1  -0.15108079  0.54837218  0.30135431  1.0
  V  V22  1  -0.15108079  0.30135431  0.54837218  1.0
  V  V23  1  0.30135431  0.30135431  0.54837218  1.0
  Si  Si24  1  0.50000000  0.50000000  -0.50000000  1.0
  Si  Si25  1  0.75000000  -0.25000000  0.75000000  1.0
  Ni  Ni26  1  0.66616199  -0.33383801  1.00151404  1.0
  Ni  Ni27  1  0.66616199  0.00151404  0.66616199  1.0
  Ni  Ni28  1  0.58383801  -0.41616199  0.58383801  1.0
  Ni  Ni29  1  1.24848596  -0.41616199  0.58383801  1.0
  Ni  Ni30  1  1.00151404  -0.33383801  0.66616199  1.0
  Ni  Ni31  1  0.66616199  -0.33383801  0.66616199  1.0
  Ni  Ni32  1  0.58383801  0.24848596  0.58383801  1.0
  Ni  Ni33  1  0.58383801  -0.41616199  1.24848596  1.0
