# generated using pymatgen
data_Sr2MnWO6
_symmetry_space_group_name_H-M   'P 1'
_cell_length_a   5.70084475
_cell_length_b   5.73698395
_cell_length_c   9.86339538
_cell_angle_alpha   90.00000000
_cell_angle_beta   125.39457568
_cell_angle_gamma   90.00000000
_symmetry_Int_Tables_number   1
_chemical_formula_structural   Sr2MnWO6
_chemical_formula_sum   'Sr4 Mn2 W2 O12'
_cell_volume   262.96879182
_cell_formula_units_Z   2
loop_
 _symmetry_equiv_pos_site_id
 _symmetry_equiv_pos_as_xyz
  1  'x, y, z'
loop_
 _atom_site_type_symbol
 _atom_site_label
 _atom_site_symmetry_multiplicity
 _atom_site_fract_x
 _atom_site_fract_y
 _atom_site_fract_z
 _atom_site_occupancy
  Sr  Sr0  1  0.74411861  0.03086180  0.24928741  1.0
  Sr  Sr1  1  0.74411861  0.46913820  0.74928741  1.0
  Sr  Sr2  1  0.25588139  0.53086180  0.25071259  1.0
  Sr  Sr3  1  0.25588139  0.96913820  0.75071259  1.0
  Mn  Mn4  1  0.50000000  0.50000000  0.00000000  1.0
  Mn  Mn5  1  0.50000000  0.00000000  0.50000000  1.0
  W  W6  1  -0.00000000  0.50000000  0.50000000  1.0
  W  W7  1  0.00000000  0.00000000  0.00000000  1.0
  O  O8  1  0.82838692  0.48503184  0.26288768  1.0
  O  O9  1  0.82838692  0.01496816  0.76288768  1.0
  O  O10  1  0.17161308  0.98503184  0.23711232  1.0
  O  O11  1  0.17161308  0.51496816  0.73711232  1.0
  O  O12  1  0.76376493  0.77030468  0.46438170  1.0
  O  O13  1  0.76376493  0.72969532  0.96438170  1.0
  O  O14  1  0.23623507  0.27030468  0.03561830  1.0
  O  O15  1  0.23623507  0.22969532  0.53561830  1.0
  O  O16  1  0.69776497  0.29686506  0.46704992  1.0
  O  O17  1  0.69776497  0.20313494  0.96704992  1.0
  O  O18  1  0.30223503  0.79686506  0.03295008  1.0
  O  O19  1  0.30223503  0.70313494  0.53295008  1.0
