# generated using pymatgen
data_Ca3SiBr2
_symmetry_space_group_name_H-M   'P 1'
_cell_length_a   13.00978853
_cell_length_b   13.00978853
_cell_length_c   13.00978853
_cell_angle_alpha   19.95134484
_cell_angle_beta   19.95134484
_cell_angle_gamma   19.95134484
_symmetry_Int_Tables_number   1
_chemical_formula_structural   Ca3SiBr2
_chemical_formula_sum   'Ca3 Si1 Br2'
_cell_volume   224.27488250
_cell_formula_units_Z   1
loop_
 _symmetry_equiv_pos_site_id
 _symmetry_equiv_pos_as_xyz
  1  'x, y, z'
loop_
 _atom_site_type_symbol
 _atom_site_label
 _atom_site_symmetry_multiplicity
 _atom_site_fract_x
 _atom_site_fract_y
 _atom_site_fract_z
 _atom_site_occupancy
  Ca  Ca0  1  0.00000000  0.00000000  0.00000000  1.0
  Ca  Ca1  1  1.13308051  1.13308051  0.13308051  1.0
  Ca  Ca2  1  0.86691949  0.86691949  0.86691949  1.0
  Si  Si3  1  1.50000000  0.50000000  0.50000000  1.0
  Br  Br4  1  1.29457410  1.29457410  0.29457410  1.0
  Br  Br5  1  0.70542590  0.70542590  0.70542590  1.0
