# generated using pymatgen
data_KNaH6PtC4N4O3
_symmetry_space_group_name_H-M   'P 1'
_cell_length_a   9.57079631
_cell_length_b   9.57079631
_cell_length_c   6.51203269
_cell_angle_alpha   72.82138507
_cell_angle_beta   107.17861493
_cell_angle_gamma   85.95822787
_symmetry_Int_Tables_number   1
_chemical_formula_structural   KNaH6PtC4N4O3
_chemical_formula_sum   'K2 Na2 H12 Pt2 C8 N8 O6'
_cell_volume   536.27922855
_cell_formula_units_Z   2
loop_
 _symmetry_equiv_pos_site_id
 _symmetry_equiv_pos_as_xyz
  1  'x, y, z'
loop_
 _atom_site_type_symbol
 _atom_site_label
 _atom_site_symmetry_multiplicity
 _atom_site_fract_x
 _atom_site_fract_y
 _atom_site_fract_z
 _atom_site_occupancy
  K  K0  1  1.43622998  0.04155518  0.42058616  1.0
  K  K1  1  0.95844482  -0.43622998  0.92058616  1.0
  Na  Na2  1  0.56392009  -0.37629417  0.46147488  1.0
  Na  Na3  1  1.37629417  0.43607991  0.96147488  1.0
  H  H4  1  1.27364101  0.58701762  0.25065747  1.0
  H  H5  1  0.41298238  -0.27364101  0.75065747  1.0
  H  H6  1  0.51536659  -0.10925418  0.06082573  1.0
  H  H7  1  1.10925418  0.48463341  0.56082573  1.0
  H  H8  1  0.35636892  -0.14010380  0.04042158  1.0
  H  H9  1  1.14010380  0.64363108  0.54042158  1.0
  H  H10  1  1.49643426  0.21813012  0.77348751  1.0
  H  H11  1  0.78186988  -0.49643426  0.27348751  1.0
  H  H12  1  1.32822832  0.23185446  0.74039300  1.0
  H  H13  1  0.76814554  -0.32822832  0.24039300  1.0
  H  H14  1  1.36022650  0.42605087  0.41096770  1.0
  H  H15  1  0.57394913  -0.36022650  0.91096770  1.0
  Pt  Pt16  1  1.92338545  0.06324901  0.42998761  1.0
  Pt  Pt17  1  0.93675099  -0.92338545  0.92998761  1.0
  C  C18  1  0.83643139  -0.12133929  0.46353797  1.0
  C  C19  1  1.12133929  0.16356861  0.96353797  1.0
  C  C20  1  0.74832493  -0.00281969  0.89709613  1.0
  C  C21  1  1.00281969  0.25167507  0.39709613  1.0
  C  C22  1  1.71907332  0.18079045  0.27903915  1.0
  C  C23  1  0.81920955  -0.71907332  0.77903915  1.0
  C  C24  1  1.05337442  0.87165673  0.07481632  1.0
  C  C25  1  0.12834327  -0.05337442  0.57481632  1.0
  N  N26  1  0.78094177  -0.22779381  0.47992666  1.0
  N  N27  1  1.22779381  0.21905823  -0.02007334  1.0
  N  N28  1  0.63479014  -0.04505300  0.88057935  1.0
  N  N29  1  1.04505300  0.36520986  0.38057935  1.0
  N  N30  1  1.12127389  0.75046145  0.15689524  1.0
  N  N31  1  0.24953855  -0.12127389  0.65689524  1.0
  N  N32  1  1.59840920  0.24910287  0.18808381  1.0
  N  N33  1  0.75089713  -0.59840920  0.68808381  1.0
  O  O34  1  1.36008781  0.51162913  0.28105932  1.0
  O  O35  1  0.48837087  -0.36008781  0.78105932  1.0
  O  O36  1  0.45112176  -0.14374721  0.15364230  1.0
  O  O37  1  1.14374721  0.54887824  0.65364230  1.0
  O  O38  1  1.39869541  0.25543242  0.65692210  1.0
  O  O39  1  0.74456758  -0.39869541  0.15692210  1.0
