# generated using pymatgen
data_CsNiC2N2Cl
_symmetry_space_group_name_H-M   'P 1'
_cell_length_a   7.64392022
_cell_length_b   7.64392022
_cell_length_c   7.64392022
_cell_angle_alpha   124.48508081
_cell_angle_beta   124.48508081
_cell_angle_gamma   82.39266707
_symmetry_Int_Tables_number   1
_chemical_formula_structural   CsNiC2N2Cl
_chemical_formula_sum   'Cs2 Ni2 C4 N4 Cl2'
_cell_volume   291.58023784
_cell_formula_units_Z   2
loop_
 _symmetry_equiv_pos_site_id
 _symmetry_equiv_pos_as_xyz
  1  'x, y, z'
loop_
 _atom_site_type_symbol
 _atom_site_label
 _atom_site_symmetry_multiplicity
 _atom_site_fract_x
 _atom_site_fract_y
 _atom_site_fract_z
 _atom_site_occupancy
  Ni  Ni0  1  0.50000000  0.50000000  1.00000000  1.0
  Ni  Ni1  1  0.00000000  0.00000000  0.00000000  1.0
  C  C2  1  0.68291142  0.68291142  1.36582285  1.0
  C  C3  1  0.31708858  0.68291142  1.00000000  1.0
  C  C4  1  0.68291142  0.31708858  1.00000000  1.0
  C  C5  1  0.31708858  0.31708858  0.63417715  1.0
  N  N6  1  0.79920063  0.79920063  1.59840126  1.0
  N  N7  1  0.20079937  0.79920063  1.00000000  1.0
  N  N8  1  0.79920063  0.20079937  1.00000000  1.0
  N  N9  1  0.20079937  0.20079937  0.40159874  1.0
  Cs  Cs10  1  0.25000000  0.75000000  0.50000000  1.0
  Cs  Cs11  1  0.75000000  0.25000000  0.50000000  1.0
  Cl  Cl12  1  0.78200924  0.78200924  1.00000000  1.0
  Cl  Cl13  1  0.21799076  0.21799076  0.00000000  1.0
