# generated using pymatgen
data_PH6NO2
_symmetry_space_group_name_H-M   'P 1'
_cell_length_a   6.96050729
_cell_length_b   6.96050729
_cell_length_c   4.27630252
_cell_angle_alpha   90.00000000
_cell_angle_beta   90.00000000
_cell_angle_gamma   68.00306747
_symmetry_Int_Tables_number   1
_chemical_formula_structural   PH6NO2
_chemical_formula_sum   'P2 H12 N2 O4'
_cell_volume   192.09915766
_cell_formula_units_Z   2
loop_
 _symmetry_equiv_pos_site_id
 _symmetry_equiv_pos_as_xyz
  1  'x, y, z'
loop_
 _atom_site_type_symbol
 _atom_site_label
 _atom_site_symmetry_multiplicity
 _atom_site_fract_x
 _atom_site_fract_y
 _atom_site_fract_z
 _atom_site_occupancy
  P  P0  1  -0.75000000  0.75000000  0.48929514  1.0
  P  P1  1  -0.25000000  1.25000000  0.51070486  1.0
  H  H2  1  -0.11811568  0.72286950  0.13789787  1.0
  H  H3  1  -0.61811568  1.22286950  0.86210213  1.0
  H  H4  1  -0.22286950  0.61811568  0.86210213  1.0
  H  H5  1  -0.72286950  1.11811568  0.13789787  1.0
  H  H6  1  0.22286950  0.38188432  0.13789787  1.0
  H  H7  1  -0.27713050  0.88188432  0.86210213  1.0
  H  H8  1  0.11811568  0.27713050  0.86210213  1.0
  H  H9  1  -0.38188432  0.77713050  0.13789787  1.0
  H  H10  1  -0.10789250  1.10789250  0.30109072  1.0
  H  H11  1  -0.60789250  0.60789250  0.69890928  1.0
  H  H12  1  -0.39210750  1.39210750  0.30109072  1.0
  H  H13  1  -0.89210750  0.89210750  0.69890928  1.0
  N  N14  1  -0.25000000  0.75000000  0.00000000  1.0
  N  N15  1  0.25000000  0.25000000  0.00000000  1.0
  O  O16  1  0.13573871  1.63573871  0.30866776  1.0
  O  O17  1  -0.36426129  1.13573871  0.69133224  1.0
  O  O18  1  -0.13573871  1.36426129  0.69133224  1.0
  O  O19  1  -0.63573871  0.86426129  0.30866776  1.0
