# generated using pymatgen
data_Sr(CuSn)2
_symmetry_space_group_name_H-M   'P 1'
_cell_length_a   6.06129152
_cell_length_b   6.06129152
_cell_length_c   4.91510563
_cell_angle_alpha   73.05873879
_cell_angle_beta   106.94126121
_cell_angle_gamma   137.92056015
_symmetry_Int_Tables_number   1
_chemical_formula_structural   Sr(CuSn)2
_chemical_formula_sum   'Sr1 Cu2 Sn2'
_cell_volume   114.96673864
_cell_formula_units_Z   1
loop_
 _symmetry_equiv_pos_site_id
 _symmetry_equiv_pos_as_xyz
  1  'x, y, z'
loop_
 _atom_site_type_symbol
 _atom_site_label
 _atom_site_symmetry_multiplicity
 _atom_site_fract_x
 _atom_site_fract_y
 _atom_site_fract_z
 _atom_site_occupancy
  Sr  Sr0  1  0.00000000  0.00000000  0.00000000  1.0
  Cu  Cu1  1  1.25955180  -0.25955180  0.86294456  1.0
  Cu  Cu2  1  0.74044820  -0.74044820  0.13705544  1.0
  Sn  Sn3  1  0.64633647  -0.64633647  0.57196626  1.0
  Sn  Sn4  1  1.35366353  -0.35366353  0.42803374  1.0
