# generated using pymatgen
data_CdI2
_symmetry_space_group_name_H-M   'P 1'
_cell_length_a   4.32817933
_cell_length_b   4.32817933
_cell_length_c   75.88880742
_cell_angle_alpha   90.00000000
_cell_angle_beta   90.00000000
_cell_angle_gamma   120.00000000
_symmetry_Int_Tables_number   1
_chemical_formula_structural   CdI2
_chemical_formula_sum   'Cd10 I20'
_cell_volume   1231.17234898
_cell_formula_units_Z   10
loop_
 _symmetry_equiv_pos_site_id
 _symmetry_equiv_pos_as_xyz
  1  'x, y, z'
loop_
 _atom_site_type_symbol
 _atom_site_label
 _atom_site_symmetry_multiplicity
 _atom_site_fract_x
 _atom_site_fract_y
 _atom_site_fract_z
 _atom_site_occupancy
  Cd  Cd0  1  0.00000000  0.00000000  0.02501125  1.0
  Cd  Cd1  1  0.00000000  0.00000000  0.12499402  1.0
  Cd  Cd2  1  0.00000000  0.00000000  0.22498280  1.0
  Cd  Cd3  1  0.00000000  0.00000000  0.42499627  1.0
  Cd  Cd4  1  0.00000000  0.00000000  0.62499709  1.0
  Cd  Cd5  1  0.00000000  0.00000000  0.82499816  1.0
  Cd  Cd6  1  0.66666667  0.33333333  0.32499792  1.0
  Cd  Cd7  1  0.66666667  0.33333333  0.52499850  1.0
  Cd  Cd8  1  0.66666667  0.33333333  0.72499793  1.0
  Cd  Cd9  1  0.66666667  0.33333333  0.92499880  1.0
  I  I10  1  0.00000000  0.00000000  0.34765379  1.0
  I  I11  1  0.00000000  0.00000000  0.54765445  1.0
  I  I12  1  0.00000000  0.00000000  0.74765382  1.0
  I  I13  1  0.00000000  0.00000000  0.94765481  1.0
  I  I14  1  0.66666667  0.33333333  0.04766639  1.0
  I  I15  1  0.66666667  0.33333333  0.14764999  1.0
  I  I16  1  0.66666667  0.33333333  0.24763995  1.0
  I  I17  1  0.66666667  0.33333333  0.44765104  1.0
  I  I18  1  0.66666667  0.33333333  0.64765214  1.0
  I  I19  1  0.66666667  0.33333333  0.84765447  1.0
  I  I20  1  0.33333333  0.66666667  0.00236479  1.0
  I  I21  1  0.33333333  0.66666667  0.10234368  1.0
  I  I22  1  0.33333333  0.66666667  0.20233182  1.0
  I  I23  1  0.33333333  0.66666667  0.30235054  1.0
  I  I24  1  0.33333333  0.66666667  0.40234846  1.0
  I  I25  1  0.33333333  0.66666667  0.50235198  1.0
  I  I26  1  0.33333333  0.66666667  0.60234983  1.0
  I  I27  1  0.33333333  0.66666667  0.70235137  1.0
  I  I28  1  0.33333333  0.66666667  0.80235189  1.0
  I  I29  1  0.33333333  0.66666667  0.90235204  1.0
