# generated using pymatgen
data_BaFe2(P2O7)2
_symmetry_space_group_name_H-M   'P 1'
_cell_length_a   7.58006090
_cell_length_b   7.58006090
_cell_length_c   9.94251539
_cell_angle_alpha   80.71183501
_cell_angle_beta   99.28816499
_cell_angle_gamma   90.50607772
_symmetry_Int_Tables_number   1
_chemical_formula_structural   BaFe2(P2O7)2
_chemical_formula_sum   'Ba2 Fe4 P8 O28'
_cell_volume   556.30181180
_cell_formula_units_Z   2
loop_
 _symmetry_equiv_pos_site_id
 _symmetry_equiv_pos_as_xyz
  1  'x, y, z'
loop_
 _atom_site_type_symbol
 _atom_site_label
 _atom_site_symmetry_multiplicity
 _atom_site_fract_x
 _atom_site_fract_y
 _atom_site_fract_z
 _atom_site_occupancy
  Fe  Fe0  1  0.00000000  0.00000000  0.00000000  1.0
  Fe  Fe1  1  0.00000000  -0.00000000  0.50000000  1.0
  Fe  Fe2  1  0.54739273  0.54739273  0.75000000  1.0
  Fe  Fe3  1  0.45260727  0.45260727  0.25000000  1.0
  Ba  Ba4  1  1.50000000  -0.00000000  0.00000000  1.0
  Ba  Ba5  1  1.00000000  0.50000000  0.50000000  1.0
  O  O6  1  0.53134387  0.12485753  0.65309381  1.0
  O  O7  1  0.87514247  0.46865613  0.15309381  1.0
  O  O8  1  1.12485753  -0.46865613  0.84690619  1.0
  O  O9  1  1.46865613  -0.12485753  0.34690619  1.0
  O  O10  1  0.42949109  0.36413555  0.89277088  1.0
  O  O11  1  0.63586445  0.57050891  0.39277088  1.0
  O  O12  1  1.36413555  -0.57050891  0.60722912  1.0
  O  O13  1  1.57050891  -0.36413555  0.10722912  1.0
  O  O14  1  1.59666851  -0.27083719  0.59586224  1.0
  O  O15  1  1.27083719  -0.59666851  0.09586224  1.0
  O  O16  1  0.72916281  0.59666851  0.90413776  1.0
  O  O17  1  0.40333149  0.27083719  0.40413776  1.0
  O  O18  1  1.79808362  -0.14577154  0.42368802  1.0
  O  O19  1  1.14577154  -0.79808362  0.92368802  1.0
  O  O20  1  0.85422846  0.79808362  0.07631198  1.0
  O  O21  1  0.20191638  0.14577154  0.57631198  1.0
  O  O22  1  1.37814998  -0.26323809  0.78848881  1.0
  O  O23  1  1.26323809  -0.37814998  0.28848881  1.0
  O  O24  1  0.73676191  0.37814998  0.71151119  1.0
  O  O25  1  0.62185002  0.26323809  0.21151119  1.0
  O  O26  1  0.78574674  0.05164791  0.84110357  1.0
  O  O27  1  0.94835209  0.21425326  0.34110357  1.0
  O  O28  1  1.05164791  -0.21425326  0.65889643  1.0
  O  O29  1  1.21425326  -0.05164791  0.15889643  1.0
  O  O30  1  0.85111493  0.14635689  0.59369557  1.0
  O  O31  1  0.85364311  0.14888507  0.09369557  1.0
  O  O32  1  1.14635689  -0.14888507  0.90630443  1.0
  O  O33  1  1.14888507  -0.14635689  0.40630443  1.0
  P  P34  1  0.73879709  0.17749591  0.70262454  1.0
  P  P35  1  0.82250409  0.26120291  0.20262454  1.0
  P  P36  1  1.17749591  -0.26120291  0.79737546  1.0
  P  P37  1  1.26120291  -0.17749591  0.29737546  1.0
  P  P38  1  1.24927252  -0.62684965  0.94577958  1.0
  P  P39  1  1.62684965  -0.24927252  0.44577958  1.0
  P  P40  1  0.37315035  0.24927252  0.55422042  1.0
  P  P41  1  0.75072748  0.62684965  0.05422042  1.0
