# generated using pymatgen
data_YB4Mo
_symmetry_space_group_name_H-M   'P 1'
_cell_length_a   6.02646399
_cell_length_b   11.64260948
_cell_length_c   3.61663853
_cell_angle_alpha   90.00000000
_cell_angle_beta   90.00000000
_cell_angle_gamma   90.00000000
_symmetry_Int_Tables_number   1
_chemical_formula_structural   YB4Mo
_chemical_formula_sum   'Y4 B16 Mo4'
_cell_volume   253.75698236
_cell_formula_units_Z   4
loop_
 _symmetry_equiv_pos_site_id
 _symmetry_equiv_pos_as_xyz
  1  'x, y, z'
loop_
 _atom_site_type_symbol
 _atom_site_label
 _atom_site_symmetry_multiplicity
 _atom_site_fract_x
 _atom_site_fract_y
 _atom_site_fract_z
 _atom_site_occupancy
  Y  Y0  1  0.12684223  0.64979671  0.50000000  1.0
  Y  Y1  1  0.62684223  0.85020329  0.50000000  1.0
  Y  Y2  1  0.87315777  0.35020329  0.50000000  1.0
  Y  Y3  1  0.37315777  0.14979671  0.50000000  1.0
  B  B4  1  0.47623436  0.69347899  0.00000000  1.0
  B  B5  1  0.97623436  0.80652101  0.00000000  1.0
  B  B6  1  0.52376564  0.30652101  0.00000000  1.0
  B  B7  1  0.02376564  0.19347899  0.00000000  1.0
  B  B8  1  0.38610472  0.54742710  0.00000000  1.0
  B  B9  1  0.88610472  0.95257290  0.00000000  1.0
  B  B10  1  0.61389528  0.45257290  0.00000000  1.0
  B  B11  1  0.11389528  0.04742710  0.00000000  1.0
  B  B12  1  0.36644976  0.96806122  0.00000000  1.0
  B  B13  1  0.86644976  0.53193878  0.00000000  1.0
  B  B14  1  0.63355024  0.03193878  0.00000000  1.0
  B  B15  1  0.13355024  0.46806122  0.00000000  1.0
  B  B16  1  0.28645634  0.81392202  0.00000000  1.0
  B  B17  1  0.78645634  0.68607798  0.00000000  1.0
  B  B18  1  0.71354366  0.18607798  0.00000000  1.0
  B  B19  1  0.21354366  0.31392202  0.00000000  1.0
  Mo  Mo20  1  0.12921556  0.91662749  0.50000000  1.0
  Mo  Mo21  1  0.62921556  0.58337251  0.50000000  1.0
  Mo  Mo22  1  0.87078444  0.08337251  0.50000000  1.0
  Mo  Mo23  1  0.37078444  0.41662749  0.50000000  1.0
