# generated using pymatgen
data_PdRhO2
_symmetry_space_group_name_H-M   'P 1'
_cell_length_a   6.31961924
_cell_length_b   6.31961924
_cell_length_c   6.31961924
_cell_angle_alpha   28.09688084
_cell_angle_beta   28.09688084
_cell_angle_gamma   28.09688084
_symmetry_Int_Tables_number   1
_chemical_formula_structural   PdRhO2
_chemical_formula_sum   'Pd1 Rh1 O2'
_cell_volume   49.45225134
_cell_formula_units_Z   1
loop_
 _symmetry_equiv_pos_site_id
 _symmetry_equiv_pos_as_xyz
  1  'x, y, z'
loop_
 _atom_site_type_symbol
 _atom_site_label
 _atom_site_symmetry_multiplicity
 _atom_site_fract_x
 _atom_site_fract_y
 _atom_site_fract_z
 _atom_site_occupancy
  Pd  Pd0  1  -0.00000000  0.00000000  -0.00000000  1.0
  Rh  Rh1  1  1.50000000  0.50000000  0.50000000  1.0
  O  O2  1  0.88943942  0.88943942  0.88943942  1.0
  O  O3  1  1.11056058  1.11056058  0.11056058  1.0
