# generated using pymatgen
data_In(Co11B3)2
_symmetry_space_group_name_H-M   'P 1'
_cell_length_a   7.42851957
_cell_length_b   7.42851957
_cell_length_c   7.42851957
_cell_angle_alpha   60.00000000
_cell_angle_beta   60.00000000
_cell_angle_gamma   60.00000000
_symmetry_Int_Tables_number   1
_chemical_formula_structural   In(Co11B3)2
_chemical_formula_sum   'In1 Co22 B6'
_cell_volume   289.86235624
_cell_formula_units_Z   1
loop_
 _symmetry_equiv_pos_site_id
 _symmetry_equiv_pos_as_xyz
  1  'x, y, z'
loop_
 _atom_site_type_symbol
 _atom_site_label
 _atom_site_symmetry_multiplicity
 _atom_site_fract_x
 _atom_site_fract_y
 _atom_site_fract_z
 _atom_site_occupancy
  In  In0  1  0.00000000  0.00000000  0.00000000  1.0
  Co  Co1  1  0.75000000  0.75000000  -0.25000000  1.0
  Co  Co2  1  1.25000000  0.25000000  0.25000000  1.0
  Co  Co3  1  0.61915821  0.61915821  1.14252536  1.0
  Co  Co4  1  0.61915821  1.14252536  -0.38084179  1.0
  Co  Co5  1  1.14252536  0.61915821  0.61915821  1.0
  Co  Co6  1  0.61915821  0.61915821  -0.38084179  1.0
  Co  Co7  1  0.38084179  1.38084179  -0.14252536  1.0
  Co  Co8  1  1.38084179  -0.14252536  0.38084179  1.0
  Co  Co9  1  -0.14252536  1.38084179  0.38084179  1.0
  Co  Co10  1  1.38084179  0.38084179  0.38084179  1.0
  Co  Co11  1  0.00000000  -0.00000000  0.34654147  1.0
  Co  Co12  1  0.65345853  1.00000000  -0.65345853  1.0
  Co  Co13  1  1.00000000  0.65345853  -0.65345853  1.0
  Co  Co14  1  0.65345853  -0.65345853  1.00000000  1.0
  Co  Co15  1  -0.00000000  1.34654147  0.00000000  1.0
  Co  Co16  1  1.00000000  0.34654147  -0.34654147  1.0
  Co  Co17  1  0.34654147  -0.34654147  1.00000000  1.0
  Co  Co18  1  0.34654147  1.00000000  -0.34654147  1.0
  Co  Co19  1  1.34654147  -0.00000000  0.00000000  1.0
  Co  Co20  1  -0.00000000  -0.00000000  0.65345853  1.0
  Co  Co21  1  -0.00000000  1.65345853  0.00000000  1.0
  Co  Co22  1  1.65345853  -0.00000000  0.00000000  1.0
  B  B23  1  0.72279684  0.72279684  -0.72279684  1.0
  B  B24  1  0.27720316  -0.27720316  1.27720316  1.0
  B  B25  1  -0.27720316  0.27720316  0.27720316  1.0
  B  B26  1  0.27720316  1.27720316  -0.27720316  1.0
  B  B27  1  -0.27720316  0.27720316  0.72279684  1.0
  B  B28  1  -0.72279684  0.72279684  0.72279684  1.0
