# generated using pymatgen
data_Ca3H2Pb
_symmetry_space_group_name_H-M   'P 1'
_cell_length_a   7.25337229
_cell_length_b   7.25337229
_cell_length_c   5.31359424
_cell_angle_alpha   90.00000000
_cell_angle_beta   90.00000000
_cell_angle_gamma   104.32820213
_symmetry_Int_Tables_number   1
_chemical_formula_structural   Ca3H2Pb
_chemical_formula_sum   'Ca6 H4 Pb2'
_cell_volume   270.85983433
_cell_formula_units_Z   2
loop_
 _symmetry_equiv_pos_site_id
 _symmetry_equiv_pos_as_xyz
  1  'x, y, z'
loop_
 _atom_site_type_symbol
 _atom_site_label
 _atom_site_symmetry_multiplicity
 _atom_site_fract_x
 _atom_site_fract_y
 _atom_site_fract_z
 _atom_site_occupancy
  Ca  Ca0  1  0.18514239  0.40626769  0.25000000  1.0
  Ca  Ca1  1  -0.59373231  1.18514239  0.75000000  1.0
  Ca  Ca2  1  0.59373231  0.81485761  0.25000000  1.0
  Ca  Ca3  1  -0.18514239  1.59373231  0.75000000  1.0
  Ca  Ca4  1  0.10810909  0.89189091  0.25000000  1.0
  Ca  Ca5  1  -0.10810909  1.10810909  0.75000000  1.0
  H  H6  1  0.84850289  0.84850289  0.50000000  1.0
  H  H7  1  0.84850289  0.84850289  0.00000000  1.0
  H  H8  1  0.15149711  0.15149711  0.50000000  1.0
  H  H9  1  0.15149711  0.15149711  0.00000000  1.0
  Pb  Pb10  1  -0.30801426  1.30801426  0.25000000  1.0
  Pb  Pb11  1  0.30801426  0.69198574  0.75000000  1.0
