# generated using pymatgen
data_Eu2SiCl2O3
_symmetry_space_group_name_H-M   'P 1'
_cell_length_a   9.27130306
_cell_length_b   9.27130306
_cell_length_c   9.27130306
_cell_angle_alpha   105.64204358
_cell_angle_beta   105.64204358
_cell_angle_gamma   117.43531853
_symmetry_Int_Tables_number   1
_chemical_formula_structural   Eu2SiCl2O3
_chemical_formula_sum   'Eu8 Si4 Cl8 O12'
_cell_volume   604.47539250
_cell_formula_units_Z   4
loop_
 _symmetry_equiv_pos_site_id
 _symmetry_equiv_pos_as_xyz
  1  'x, y, z'
loop_
 _atom_site_type_symbol
 _atom_site_label
 _atom_site_symmetry_multiplicity
 _atom_site_fract_x
 _atom_site_fract_y
 _atom_site_fract_z
 _atom_site_occupancy
  Eu  Eu0  1  1.02403014  1.35476249  0.83052734  1.0
  Eu  Eu1  1  0.47576485  0.80649719  0.83052734  1.0
  Eu  Eu2  1  1.35476249  1.52423515  1.33073235  1.0
  Eu  Eu3  1  0.80649719  0.97596986  1.33073235  1.0
  Eu  Eu4  1  0.52423515  1.19350281  1.16947266  1.0
  Eu  Eu5  1  0.97596986  1.64523751  1.16947266  1.0
  Eu  Eu6  1  1.19350281  1.02403014  1.66926765  1.0
  Eu  Eu7  1  1.64523751  1.47576485  1.66926765  1.0
  Si  Si8  1  0.90224467  1.18280678  1.08505145  1.0
  Si  Si9  1  1.18280678  1.09775533  1.28056211  1.0
  Si  Si10  1  0.09775533  0.81719322  0.91494855  1.0
  Si  Si11  1  0.81719322  0.90224467  1.71943789  1.0
  Cl  Cl12  1  0.59615575  1.24992926  0.84608500  1.0
  Cl  Cl13  1  0.24992926  0.40384425  0.65377351  1.0
  Cl  Cl14  1  0.40384425  0.75007074  1.15391500  1.0
  Cl  Cl15  1  0.75007074  0.59615575  0.34622649  1.0
  Cl  Cl16  1  0.29538298  0.29538298  0.00000000  1.0
  Cl  Cl17  1  0.70461702  0.70461702  0.00000000  1.0
  Cl  Cl18  1  0.75000000  0.25000000  0.50000000  1.0
  Cl  Cl19  1  0.25000000  0.75000000  0.50000000  1.0
  O  O20  1  1.01621187  0.39238256  1.11499844  1.0
  O  O21  1  0.72261587  1.09878657  1.11499844  1.0
  O  O22  1  0.39238256  0.27738413  0.37617069  1.0
  O  O23  1  1.09878657  0.98378813  1.37617069  1.0
  O  O24  1  0.27738413  0.90121343  0.88500156  1.0
  O  O25  1  0.98378813  0.60761744  0.88500156  1.0
  O  O26  1  0.90121343  1.01621187  1.62382931  1.0
  O  O27  1  0.60761744  0.72261587  0.62382931  1.0
  O  O28  1  0.83396259  1.05030758  0.88427017  1.0
  O  O29  1  0.05030758  0.16603741  0.21634499  1.0
  O  O30  1  0.16603741  0.94969242  1.11572983  1.0
  O  O31  1  0.94969242  0.83396259  0.78365501  1.0
