# generated using pymatgen
data_SrH2I2O
_symmetry_space_group_name_H-M   'P 1'
_cell_length_a   13.77948133
_cell_length_b   4.48522363
_cell_length_c   9.63213810
_cell_angle_alpha   90.00000000
_cell_angle_beta   90.00000000
_cell_angle_gamma   90.00000000
_symmetry_Int_Tables_number   1
_chemical_formula_structural   SrH2I2O
_chemical_formula_sum   'Sr4 H8 I8 O4'
_cell_volume   595.30519530
_cell_formula_units_Z   4
loop_
 _symmetry_equiv_pos_site_id
 _symmetry_equiv_pos_as_xyz
  1  'x, y, z'
loop_
 _atom_site_type_symbol
 _atom_site_label
 _atom_site_symmetry_multiplicity
 _atom_site_fract_x
 _atom_site_fract_y
 _atom_site_fract_z
 _atom_site_occupancy
  Sr  Sr0  1  0.22477979  0.75000000  0.12267080  1.0
  Sr  Sr1  1  0.72477979  0.75000000  0.37732920  1.0
  Sr  Sr2  1  0.77522021  0.25000000  0.87732920  1.0
  Sr  Sr3  1  0.27522021  0.25000000  0.62267080  1.0
  H  H4  1  0.12743876  0.75000000  0.53397777  1.0
  H  H5  1  0.62743876  0.75000000  0.96602223  1.0
  H  H6  1  0.87256124  0.25000000  0.46602223  1.0
  H  H7  1  0.37256124  0.25000000  0.03397777  1.0
  H  H8  1  0.11803696  0.75000000  0.69555095  1.0
  H  H9  1  0.61803696  0.75000000  0.80444905  1.0
  H  H10  1  0.88196304  0.25000000  0.30444905  1.0
  H  H11  1  0.38196304  0.25000000  0.19555095  1.0
  I  I12  1  0.38858747  0.75000000  0.83949019  1.0
  I  I13  1  0.88858747  0.75000000  0.66050981  1.0
  I  I14  1  0.61141253  0.25000000  0.16050981  1.0
  I  I15  1  0.11141253  0.25000000  0.33949019  1.0
  I  I16  1  0.87892072  0.75000000  0.09641682  1.0
  I  I17  1  0.37892072  0.75000000  0.40358318  1.0
  I  I18  1  0.12107928  0.25000000  0.90358318  1.0
  I  I19  1  0.62107928  0.25000000  0.59641682  1.0
  O  O20  1  0.16593162  0.75000000  0.61992545  1.0
  O  O21  1  0.66593162  0.75000000  0.88007455  1.0
  O  O22  1  0.83406838  0.25000000  0.38007455  1.0
  O  O23  1  0.33406838  0.25000000  0.11992545  1.0
