# generated using pymatgen
data_LiB11
_symmetry_space_group_name_H-M   'P 1'
_cell_length_a   5.26973289
_cell_length_b   5.26973289
_cell_length_c   5.26973289
_cell_angle_alpha   128.92210899
_cell_angle_beta   128.92210899
_cell_angle_gamma   75.13593598
_symmetry_Int_Tables_number   1
_chemical_formula_structural   LiB11
_chemical_formula_sum   'Li1 B11'
_cell_volume   86.23867519
_cell_formula_units_Z   1
loop_
 _symmetry_equiv_pos_site_id
 _symmetry_equiv_pos_as_xyz
  1  'x, y, z'
loop_
 _atom_site_type_symbol
 _atom_site_label
 _atom_site_symmetry_multiplicity
 _atom_site_fract_x
 _atom_site_fract_y
 _atom_site_fract_z
 _atom_site_occupancy
  Li  Li0  1  0.25000000  0.75000000  0.50000000  1.0
  B  B1  1  0.69751294  0.30248706  1.00000000  1.0
  B  B2  1  0.30248706  0.69751294  1.00000000  1.0
  B  B3  1  0.69751294  0.69751294  1.39502589  1.0
  B  B4  1  0.30248706  0.30248706  0.60497411  1.0
  B  B5  1  0.83394387  1.04403813  1.21009427  1.0
  B  B6  1  0.83394387  0.62384960  0.78990573  1.0
  B  B7  1  0.95596187  0.16605613  0.78990573  1.0
  B  B8  1  0.37615040  0.16605613  0.21009427  1.0
  B  B9  1  0.00000000  0.00000000  0.00000000  1.0
  B  B10  1  0.65423697  0.65423697  1.00000000  1.0
  B  B11  1  0.34576303  0.34576303  0.00000000  1.0
