# generated using pymatgen
data_InSe
_symmetry_space_group_name_H-M   'P 1'
_cell_length_a   6.51278128
_cell_length_b   6.51278128
_cell_length_c   6.51278128
_cell_angle_alpha   142.22715524
_cell_angle_beta   142.22715524
_cell_angle_gamma   54.48677742
_symmetry_Int_Tables_number   1
_chemical_formula_structural   InSe
_chemical_formula_sum   'In2 Se2'
_cell_volume   102.93488751
_cell_formula_units_Z   2
loop_
 _symmetry_equiv_pos_site_id
 _symmetry_equiv_pos_as_xyz
  1  'x, y, z'
loop_
 _atom_site_type_symbol
 _atom_site_label
 _atom_site_symmetry_multiplicity
 _atom_site_fract_x
 _atom_site_fract_y
 _atom_site_fract_z
 _atom_site_occupancy
  In  In0  1  0.87581877  0.87581877  1.00000000  1.0
  In  In1  1  0.12418123  0.12418123  0.00000000  1.0
  Se  Se2  1  0.64382075  0.64382075  1.00000000  1.0
  Se  Se3  1  0.35617925  0.35617925  0.00000000  1.0
