# generated using pymatgen
data_Ba2Co(HO)6
_symmetry_space_group_name_H-M   'P 1'
_cell_length_a   5.95273964
_cell_length_b   6.53068005
_cell_length_c   10.26083871
_cell_angle_alpha   90.00000000
_cell_angle_beta   124.11505447
_cell_angle_gamma   90.00000000
_symmetry_Int_Tables_number   1
_chemical_formula_structural   Ba2Co(HO)6
_chemical_formula_sum   'Ba4 Co2 H12 O12'
_cell_volume   330.25002343
_cell_formula_units_Z   2
loop_
 _symmetry_equiv_pos_site_id
 _symmetry_equiv_pos_as_xyz
  1  'x, y, z'
loop_
 _atom_site_type_symbol
 _atom_site_label
 _atom_site_symmetry_multiplicity
 _atom_site_fract_x
 _atom_site_fract_y
 _atom_site_fract_z
 _atom_site_occupancy
  Ba  Ba0  1  0.72323751  0.06401521  0.25516345  1.0
  Ba  Ba1  1  0.72323751  0.43598479  0.75516345  1.0
  Ba  Ba2  1  0.27676249  0.56401521  0.24483655  1.0
  Ba  Ba3  1  0.27676249  0.93598479  0.74483655  1.0
  Co  Co4  1  -0.00000000  0.50000000  0.50000000  1.0
  Co  Co5  1  0.00000000  0.00000000  0.00000000  1.0
  H  H6  1  0.69914489  0.32874446  0.03405472  1.0
  H  H7  1  0.69914489  0.17125554  0.53405472  1.0
  H  H8  1  0.30085511  0.82874445  0.46594528  1.0
  H  H9  1  0.30085511  0.67125555  0.96594528  1.0
  H  H10  1  0.30536737  0.23748311  0.48729653  1.0
  H  H11  1  0.30536737  0.26251689  0.98729653  1.0
  H  H12  1  0.69463263  0.73748311  0.01270347  1.0
  H  H13  1  0.69463263  0.76251689  0.51270347  1.0
  H  H14  1  0.29732897  0.07698609  0.30767818  1.0
  H  H15  1  0.29732897  0.42301391  0.80767818  1.0
  H  H16  1  0.70267103  0.57698609  0.19232182  1.0
  H  H17  1  0.70267103  0.92301391  0.69232182  1.0
  O  O18  1  0.80059298  0.76449429  0.46594416  1.0
  O  O19  1  0.80059298  0.73550571  0.96594416  1.0
  O  O20  1  0.19940702  0.26449429  0.03405584  1.0
  O  O21  1  0.19940702  0.23550571  0.53405584  1.0
  O  O22  1  0.60583575  0.27567774  0.45194327  1.0
  O  O23  1  0.60583575  0.22432226  0.95194327  1.0
  O  O24  1  0.39416425  0.77567774  0.04805673  1.0
  O  O25  1  0.39416425  0.72432226  0.54805673  1.0
  O  O26  1  0.84190157  0.47385502  0.25726040  1.0
  O  O27  1  0.84190157  0.02614498  0.75726040  1.0
  O  O28  1  0.15809843  0.97385502  0.24273960  1.0
  O  O29  1  0.15809843  0.52614498  0.74273960  1.0
