# generated using pymatgen
data_VCo2Ni
_symmetry_space_group_name_H-M   'P 1'
_cell_length_a   6.72394589
_cell_length_b   6.72394589
_cell_length_c   6.72394589
_cell_angle_alpha   43.79662675
_cell_angle_beta   43.79662675
_cell_angle_gamma   43.79662675
_symmetry_Int_Tables_number   1
_chemical_formula_structural   VCo2Ni
_chemical_formula_sum   'V3 Co6 Ni3'
_cell_volume   132.20365510
_cell_formula_units_Z   3
loop_
 _symmetry_equiv_pos_site_id
 _symmetry_equiv_pos_as_xyz
  1  'x, y, z'
loop_
 _atom_site_type_symbol
 _atom_site_label
 _atom_site_symmetry_multiplicity
 _atom_site_fract_x
 _atom_site_fract_y
 _atom_site_fract_z
 _atom_site_occupancy
  V  V0  1  0.00000000  0.00000000  0.00000000  1.0
  V  V1  1  0.78491737  -0.21508263  -0.21508263  1.0
  V  V2  1  0.21508263  0.21508263  0.21508263  1.0
  Co  Co3  1  0.22936700  0.71907373  -0.28092627  1.0
  Co  Co4  1  0.71907373  0.71907373  -0.77063300  1.0
  Co  Co5  1  0.71907373  0.22936700  -0.28092627  1.0
  Co  Co6  1  0.77063300  0.28092627  -0.71907373  1.0
  Co  Co7  1  0.28092627  0.28092627  -0.22936700  1.0
  Co  Co8  1  0.28092627  0.77063300  -0.71907373  1.0
  Ni  Ni9  1  0.50000000  -0.50000000  -0.00000000  1.0
  Ni  Ni10  1  0.50000000  -0.00000000  -0.50000000  1.0
  Ni  Ni11  1  -0.00000000  0.50000000  -0.50000000  1.0
