# generated using pymatgen
data_Cd2AsO4F
_symmetry_space_group_name_H-M   'P 1'
_cell_length_a   8.06059541
_cell_length_b   8.06059541
_cell_length_c   10.98992045
_cell_angle_alpha   62.79267588
_cell_angle_beta   117.20732412
_cell_angle_gamma   128.59118728
_symmetry_Int_Tables_number   1
_chemical_formula_structural   Cd2AsO4F
_chemical_formula_sum   'Cd8 As4 O16 F4'
_cell_volume   480.92423588
_cell_formula_units_Z   4
loop_
 _symmetry_equiv_pos_site_id
 _symmetry_equiv_pos_as_xyz
  1  'x, y, z'
loop_
 _atom_site_type_symbol
 _atom_site_label
 _atom_site_symmetry_multiplicity
 _atom_site_fract_x
 _atom_site_fract_y
 _atom_site_fract_z
 _atom_site_occupancy
  Cd  Cd0  1  1.70695416  -0.18750151  0.00762718  1.0
  Cd  Cd1  1  1.18750151  -0.70695416  0.50762718  1.0
  Cd  Cd2  1  0.81249849  0.70695416  0.49237282  1.0
  Cd  Cd3  1  0.29304584  0.18750151  0.99237282  1.0
  Cd  Cd4  1  0.54992023  0.24229961  0.34909021  1.0
  Cd  Cd5  1  0.75770039  0.45007977  0.84909021  1.0
  Cd  Cd6  1  1.24229961  -0.45007977  0.15090979  1.0
  Cd  Cd7  1  1.45007977  -0.24229961  0.65090979  1.0
  As  As8  1  0.72869668  0.08244791  0.19318285  1.0
  As  As9  1  0.91755209  -0.72869668  0.69318285  1.0
  As  As10  1  1.08244791  0.72869668  0.30681715  1.0
  As  As11  1  1.27130332  -0.08244791  0.80681715  1.0
  O  O12  1  0.88097628  0.04309810  0.36562432  1.0
  O  O13  1  0.95690190  -0.88097628  0.86562432  1.0
  O  O14  1  1.04309810  0.88097628  0.13437568  1.0
  O  O15  1  1.11902372  -0.04309810  0.63437568  1.0
  O  O16  1  1.57999075  -0.15781752  0.13948198  1.0
  O  O17  1  1.15781752  -0.57999075  0.63948198  1.0
  O  O18  1  0.84218248  0.57999075  0.36051802  1.0
  O  O19  1  0.42000925  0.15781752  0.86051802  1.0
  O  O20  1  0.55128006  0.14268666  0.18635537  1.0
  O  O21  1  0.85731334  -0.55128006  0.68635537  1.0
  O  O22  1  1.14268666  0.55128006  0.31364463  1.0
  O  O23  1  1.44871994  -0.14268666  0.81364463  1.0
  O  O24  1  0.28410388  -0.10320101  0.42176299  1.0
  O  O25  1  1.10320101  0.71589612  0.92176299  1.0
  O  O26  1  0.89679899  -0.71589612  0.07823701  1.0
  O  O27  1  1.71589612  0.10320101  0.57823701  1.0
  F  F28  1  0.42439216  0.40167351  0.38880293  1.0
  F  F29  1  0.59832649  0.57560784  0.88880293  1.0
  F  F30  1  1.40167351  -0.57560784  0.11119707  1.0
  F  F31  1  1.57560784  -0.40167351  0.61119707  1.0
