# generated using pymatgen
data_KMnO2
_symmetry_space_group_name_H-M   'P 1'
_cell_length_a   6.24945021
_cell_length_b   11.36112594
_cell_length_c   10.42647232
_cell_angle_alpha   90.00000000
_cell_angle_beta   95.47997992
_cell_angle_gamma   90.00000000
_symmetry_Int_Tables_number   1
_chemical_formula_structural   KMnO2
_chemical_formula_sum   'K12 Mn12 O24'
_cell_volume   736.90439074
_cell_formula_units_Z   12
loop_
 _symmetry_equiv_pos_site_id
 _symmetry_equiv_pos_as_xyz
  1  'x, y, z'
loop_
 _atom_site_type_symbol
 _atom_site_label
 _atom_site_symmetry_multiplicity
 _atom_site_fract_x
 _atom_site_fract_y
 _atom_site_fract_z
 _atom_site_occupancy
  Mn  Mn0  1  0.51762926  0.37491480  0.98630939  1.0
  Mn  Mn1  1  0.51762926  0.12508520  0.98630939  1.0
  Mn  Mn2  1  0.48237074  0.87491480  0.01369061  1.0
  Mn  Mn3  1  0.48237074  0.62508520  0.01369061  1.0
  Mn  Mn4  1  0.64400310  0.25000000  0.28509221  1.0
  Mn  Mn5  1  0.35599690  0.75000000  0.71490779  1.0
  Mn  Mn6  1  0.37910655  0.25000000  0.72690052  1.0
  Mn  Mn7  1  0.62089345  0.75000000  0.27309948  1.0
  Mn  Mn8  1  0.63843646  0.49870400  0.27084247  1.0
  Mn  Mn9  1  0.63843646  0.00129600  0.27084247  1.0
  Mn  Mn10  1  0.36156354  0.99870400  0.72915753  1.0
  Mn  Mn11  1  0.36156354  0.50129600  0.72915753  1.0
  K  K12  1  0.93019259  0.89749076  0.87979457  1.0
  K  K13  1  0.93019259  0.60250924  0.87979457  1.0
  K  K14  1  0.06980741  0.39749076  0.12020543  1.0
  K  K15  1  0.06980741  0.10250924  0.12020543  1.0
  K  K16  1  0.80453167  0.45772105  0.58244687  1.0
  K  K17  1  0.80453167  0.04227895  0.58244687  1.0
  K  K18  1  0.19546833  0.95772105  0.41755313  1.0
  K  K19  1  0.19546833  0.54227895  0.41755313  1.0
  K  K20  1  0.92550594  0.25000000  0.82475296  1.0
  K  K21  1  0.07449406  0.75000000  0.17524704  1.0
  K  K22  1  0.17378537  0.25000000  0.42725200  1.0
  K  K23  1  0.82621463  0.75000000  0.57274800  1.0
  O  O24  1  0.84097572  0.37861978  0.32874038  1.0
  O  O25  1  0.84097572  0.12138022  0.32874038  1.0
  O  O26  1  0.15902428  0.87861978  0.67125962  1.0
  O  O27  1  0.15902428  0.62138022  0.67125962  1.0
  O  O28  1  0.18958223  0.37196823  0.66032819  1.0
  O  O29  1  0.18958223  0.12803177  0.66032819  1.0
  O  O30  1  0.81041777  0.87196823  0.33967181  1.0
  O  O31  1  0.81041777  0.62803177  0.33967181  1.0
  O  O32  1  0.57609210  0.37833152  0.77009298  1.0
  O  O33  1  0.57609210  0.12166848  0.77009298  1.0
  O  O34  1  0.42390790  0.87833152  0.22990702  1.0
  O  O35  1  0.42390790  0.62166848  0.22990702  1.0
  O  O36  1  0.31635342  0.25000000  0.94325224  1.0
  O  O37  1  0.68364658  0.75000000  0.05674776  1.0
  O  O38  1  0.70817951  0.25000000  0.04996012  1.0
  O  O39  1  0.29182049  0.75000000  0.95003988  1.0
  O  O40  1  0.30987746  0.49831216  0.93907168  1.0
  O  O41  1  0.30987746  0.00168784  0.93907168  1.0
  O  O42  1  0.69012254  0.99831216  0.06092832  1.0
  O  O43  1  0.69012254  0.50168784  0.06092832  1.0
  O  O44  1  0.56504595  0.87354747  0.72463782  1.0
  O  O45  1  0.56504595  0.62645253  0.72463782  1.0
  O  O46  1  0.43495405  0.37354747  0.27536218  1.0
  O  O47  1  0.43495405  0.12645253  0.27536218  1.0
