# generated using pymatgen
data_NaSc(GeO3)2
_symmetry_space_group_name_H-M   'P 1'
_cell_length_a   6.95424191
_cell_length_b   6.95424191
_cell_length_c   5.67173579
_cell_angle_alpha   76.80721140
_cell_angle_beta   103.19278860
_cell_angle_gamma   96.52983025
_symmetry_Int_Tables_number   1
_chemical_formula_structural   NaSc(GeO3)2
_chemical_formula_sum   'Na2 Sc2 Ge4 O12'
_cell_volume   259.45592461
_cell_formula_units_Z   2
loop_
 _symmetry_equiv_pos_site_id
 _symmetry_equiv_pos_as_xyz
  1  'x, y, z'
loop_
 _atom_site_type_symbol
 _atom_site_label
 _atom_site_symmetry_multiplicity
 _atom_site_fract_x
 _atom_site_fract_y
 _atom_site_fract_z
 _atom_site_occupancy
  Na  Na0  1  0.80062499  0.80062499  0.75000000  1.0
  Na  Na1  1  0.19937501  0.19937501  0.25000000  1.0
  Sc  Sc2  1  0.39955700  0.39955700  0.75000000  1.0
  Sc  Sc3  1  0.60044300  0.60044300  0.25000000  1.0
  Ge  Ge4  1  1.30290006  -0.12087583  0.76171743  1.0
  Ge  Ge5  1  1.12087583  -0.30290006  0.26171743  1.0
  Ge  Ge6  1  0.87912417  0.30290006  0.73828257  1.0
  Ge  Ge7  1  0.69709994  0.12087583  0.23828257  1.0
  O  O8  1  1.47082442  -0.31034268  0.86361386  1.0
  O  O9  1  1.31034268  -0.47082442  0.36361386  1.0
  O  O10  1  0.68965732  0.47082442  0.63638614  1.0
  O  O11  1  0.52917558  0.31034268  0.13638614  1.0
  O  O12  1  0.85643873  0.13725408  1.02637612  1.0
  O  O13  1  0.86274592  0.14356127  0.52637612  1.0
  O  O14  1  1.13725408  -0.14356127  0.47362388  1.0
  O  O15  1  1.14356127  -0.13725408  -0.02637612  1.0
  O  O16  1  0.40271828  0.12180628  0.69688851  1.0
  O  O17  1  0.87819372  0.59728172  0.19688851  1.0
  O  O18  1  1.12180628  -0.59728172  0.80311149  1.0
  O  O19  1  1.59728172  -0.12180628  0.30311149  1.0
