# generated using pymatgen
data_Mn2Nb2Zn2O9
_symmetry_space_group_name_H-M   'P 1'
_cell_length_a   5.28058853
_cell_length_b   5.28058853
_cell_length_c   14.42979318
_cell_angle_alpha   90.00000000
_cell_angle_beta   90.00000000
_cell_angle_gamma   120.00000000
_symmetry_Int_Tables_number   1
_chemical_formula_structural   Mn2Nb2Zn2O9
_chemical_formula_sum   'Mn4 Nb4 Zn4 O18'
_cell_volume   348.46197569
_cell_formula_units_Z   2
loop_
 _symmetry_equiv_pos_site_id
 _symmetry_equiv_pos_as_xyz
  1  'x, y, z'
loop_
 _atom_site_type_symbol
 _atom_site_label
 _atom_site_symmetry_multiplicity
 _atom_site_fract_x
 _atom_site_fract_y
 _atom_site_fract_z
 _atom_site_occupancy
  Mn  Mn0  1  0.00000000  0.00000000  0.36975473  1.0
  Mn  Mn1  1  0.00000000  0.00000000  0.86975473  1.0
  Mn  Mn2  1  0.66666667  0.33333333  0.34242244  1.0
  Mn  Mn3  1  0.66666667  0.33333333  0.84242244  1.0
  Nb  Nb4  1  0.33333333  0.66666667  -0.00378036  1.0
  Nb  Nb5  1  0.33333333  0.66666667  0.49621964  1.0
  Nb  Nb6  1  0.33333333  0.66666667  0.21595309  1.0
  Nb  Nb7  1  0.33333333  0.66666667  0.71595309  1.0
  Zn  Zn8  1  0.00000000  0.00000000  0.14699579  1.0
  Zn  Zn9  1  0.00000000  0.00000000  0.64699579  1.0
  Zn  Zn10  1  0.66666667  0.33333333  0.06514474  1.0
  Zn  Zn11  1  0.66666667  0.33333333  0.56514474  1.0
  O  O12  1  0.61861509  0.66666791  0.10607979  1.0
  O  O13  1  0.61861509  0.95194718  0.60607979  1.0
  O  O14  1  0.04805282  0.66666791  0.60607979  1.0
  O  O15  1  0.04805282  0.38138491  0.10607979  1.0
  O  O16  1  0.33333209  0.38138491  0.60607979  1.0
  O  O17  1  0.33333209  0.95194718  0.10607979  1.0
  O  O18  1  0.64811855  0.64571873  0.44045133  1.0
  O  O19  1  0.64811855  0.00239983  0.94045133  1.0
  O  O20  1  0.99760017  0.64571873  0.94045133  1.0
  O  O21  1  0.99760017  0.35188145  0.44045133  1.0
  O  O22  1  0.35428127  0.35188145  0.94045133  1.0
  O  O23  1  0.35428127  0.00239983  0.44045133  1.0
  O  O24  1  0.31241986  0.33097365  0.27173874  1.0
  O  O25  1  0.31241986  0.98144621  0.77173874  1.0
  O  O26  1  0.01855379  0.33097365  0.77173874  1.0
  O  O27  1  0.01855379  0.68758014  0.27173874  1.0
  O  O28  1  0.66902635  0.68758014  0.77173874  1.0
  O  O29  1  0.66902635  0.98144621  0.27173874  1.0
