# generated using pymatgen
data_Ta3As
_symmetry_space_group_name_H-M   'P 1'
_cell_length_a   10.37575496
_cell_length_b   10.37575496
_cell_length_c   5.15413483
_cell_angle_alpha   90.00000000
_cell_angle_beta   90.00000000
_cell_angle_gamma   90.00000000
_symmetry_Int_Tables_number   1
_chemical_formula_structural   Ta3As
_chemical_formula_sum   'Ta24 As8'
_cell_volume   554.87503898
_cell_formula_units_Z   8
loop_
 _symmetry_equiv_pos_site_id
 _symmetry_equiv_pos_as_xyz
  1  'x, y, z'
loop_
 _atom_site_type_symbol
 _atom_site_label
 _atom_site_symmetry_multiplicity
 _atom_site_fract_x
 _atom_site_fract_y
 _atom_site_fract_z
 _atom_site_occupancy
  Ta  Ta0  1  0.59076876  0.90874873  0.00101380  1.0
  Ta  Ta1  1  0.40923124  0.09125127  0.00101380  1.0
  Ta  Ta2  1  0.40874873  0.90923124  0.50101380  1.0
  Ta  Ta3  1  0.59125127  0.09076876  0.50101380  1.0
  Ta  Ta4  1  0.90923124  0.59125127  0.49898620  1.0
  Ta  Ta5  1  0.09076876  0.40874873  0.49898620  1.0
  Ta  Ta6  1  0.09125127  0.59076876  0.99898620  1.0
  Ta  Ta7  1  0.90874873  0.40923124  0.99898620  1.0
  Ta  Ta8  1  0.00053161  0.85025682  0.74912171  1.0
  Ta  Ta9  1  0.99946839  0.14974318  0.74912171  1.0
  Ta  Ta10  1  0.35025682  0.49946839  0.24912171  1.0
  Ta  Ta11  1  0.64974318  0.50053161  0.24912171  1.0
  Ta  Ta12  1  0.49946839  0.64974318  0.75087829  1.0
  Ta  Ta13  1  0.50053161  0.35025682  0.75087829  1.0
  Ta  Ta14  1  0.14974318  0.00053161  0.25087829  1.0
  Ta  Ta15  1  0.85025682  0.99946839  0.25087829  1.0
  Ta  Ta16  1  0.20166136  0.29731951  0.99960717  1.0
  Ta  Ta17  1  0.79833864  0.70268049  0.99960717  1.0
  Ta  Ta18  1  0.79731951  0.29833864  0.49960717  1.0
  Ta  Ta19  1  0.20268049  0.70166136  0.49960717  1.0
  Ta  Ta20  1  0.29833864  0.20268049  0.50039283  1.0
  Ta  Ta21  1  0.70166136  0.79731951  0.50039283  1.0
  Ta  Ta22  1  0.70268049  0.20166136  0.00039283  1.0
  Ta  Ta23  1  0.29731951  0.79833864  0.00039283  1.0
  As  As24  1  0.00109217  0.79344779  0.24906076  1.0
  As  As25  1  0.99890783  0.20655221  0.24906076  1.0
  As  As26  1  0.29344779  0.49890783  0.74906076  1.0
  As  As27  1  0.70655221  0.50109217  0.74906076  1.0
  As  As28  1  0.49890783  0.70655221  0.25093924  1.0
  As  As29  1  0.50109217  0.29344779  0.25093924  1.0
  As  As30  1  0.20655221  0.00109217  0.75093924  1.0
  As  As31  1  0.79344779  0.99890783  0.75093924  1.0
