# generated using pymatgen
data_LiBPt3
_symmetry_space_group_name_H-M   'P 1'
_cell_length_a   9.31476712
_cell_length_b   9.31476712
_cell_length_c   2.78983754
_cell_angle_alpha   90.00000000
_cell_angle_beta   90.00000000
_cell_angle_gamma   120.00000000
_symmetry_Int_Tables_number   1
_chemical_formula_structural   LiBPt3
_chemical_formula_sum   'Li3 B3 Pt9'
_cell_volume   209.63005498
_cell_formula_units_Z   3
loop_
 _symmetry_equiv_pos_site_id
 _symmetry_equiv_pos_as_xyz
  1  'x, y, z'
loop_
 _atom_site_type_symbol
 _atom_site_label
 _atom_site_symmetry_multiplicity
 _atom_site_fract_x
 _atom_site_fract_y
 _atom_site_fract_z
 _atom_site_occupancy
  Li  Li0  1  0.36234145  0.36234145  0.50000000  1.0
  Li  Li1  1  0.00000000  0.63765855  0.50000000  1.0
  Li  Li2  1  0.63765855  0.00000000  0.50000000  1.0
  B  B3  1  0.33333333  0.66666667  0.50000000  1.0
  B  B4  1  0.66666667  0.33333333  0.50000000  1.0
  B  B5  1  0.00000000  0.00000000  0.00000000  1.0
  Pt  Pt6  1  0.31887628  0.83503027  0.00000000  1.0
  Pt  Pt7  1  0.83503027  0.31887628  0.00000000  1.0
  Pt  Pt8  1  0.51615400  0.68112372  0.00000000  1.0
  Pt  Pt9  1  0.16496973  0.48384600  0.00000000  1.0
  Pt  Pt10  1  0.68112372  0.51615400  0.00000000  1.0
  Pt  Pt11  1  0.48384600  0.16496973  0.00000000  1.0
  Pt  Pt12  1  0.82270572  0.82270572  0.50000000  1.0
  Pt  Pt13  1  0.00000000  0.17729428  0.50000000  1.0
  Pt  Pt14  1  0.17729428  0.00000000  0.50000000  1.0
