# generated using pymatgen
data_KSb2P(SO6)2
_symmetry_space_group_name_H-M   'P 1'
_cell_length_a   5.22637749
_cell_length_b   12.81526562
_cell_length_c   8.24529100
_cell_angle_alpha   82.86514707
_cell_angle_beta   87.65285815
_cell_angle_gamma   88.53310185
_symmetry_Int_Tables_number   1
_chemical_formula_structural   KSb2P(SO6)2
_chemical_formula_sum   'K2 Sb4 P2 S4 O24'
_cell_volume   547.39505522
_cell_formula_units_Z   2
loop_
 _symmetry_equiv_pos_site_id
 _symmetry_equiv_pos_as_xyz
  1  'x, y, z'
loop_
 _atom_site_type_symbol
 _atom_site_label
 _atom_site_symmetry_multiplicity
 _atom_site_fract_x
 _atom_site_fract_y
 _atom_site_fract_z
 _atom_site_occupancy
  K  K0  1  -0.73146529  -0.64973678  -0.33630831  1.0
  K  K1  1  -0.26853471  -0.35026322  -0.66369169  1.0
  Sb  Sb2  1  -0.77173241  -0.95994994  -0.24111150  1.0
  Sb  Sb3  1  -0.22826759  -0.04005006  -0.75888850  1.0
  Sb  Sb4  1  -0.17935658  -0.67240087  -0.80211199  1.0
  Sb  Sb5  1  -0.82064342  -0.32759913  -0.19788801  1.0
  P  P6  1  -0.26063069  -0.85653119  -0.46771614  1.0
  P  P7  1  -0.73936931  -0.14346881  -0.53228386  1.0
  S  S8  1  -0.73237773  -0.52311110  -0.77918117  1.0
  S  S9  1  -0.26762227  -0.47688890  -0.22081883  1.0
  S  S10  1  -0.70313405  -0.84594134  -0.89706397  1.0
  S  S11  1  -0.29686595  -0.15405866  -0.10293603  1.0
  O  O12  1  -0.94403965  -0.58129620  -0.66449619  1.0
  O  O13  1  -0.05596035  -0.41870380  -0.33550381  1.0
  O  O14  1  -0.98578941  -0.14773113  -0.63134041  1.0
  O  O15  1  -0.01421059  -0.85226887  -0.36865959  1.0
  O  O16  1  -0.86035899  -0.78984922  -0.77351947  1.0
  O  O17  1  -0.13964101  -0.21015078  -0.22648053  1.0
  O  O18  1  -0.80466507  -0.81484656  -0.06363339  1.0
  O  O19  1  -0.19533493  -0.18515344  -0.93636661  1.0
  O  O20  1  -0.77407355  -0.40948906  -0.77954950  1.0
  O  O21  1  -0.22592645  -0.59051094  -0.22045050  1.0
  O  O22  1  -0.74811134  -0.56209998  -0.93947108  1.0
  O  O23  1  -0.25188866  -0.43790002  -0.06052892  1.0
  O  O24  1  -0.72705102  -0.96175828  -0.84953334  1.0
  O  O25  1  -0.27294898  -0.03824172  -0.15046666  1.0
  O  O26  1  -0.50233017  -0.85658618  -0.35037808  1.0
  O  O27  1  -0.49766983  -0.14341382  -0.64962192  1.0
  O  O28  1  -0.48118943  -0.55519407  -0.69971322  1.0
  O  O29  1  -0.51881057  -0.44480593  -0.30028678  1.0
  O  O30  1  -0.42947228  -0.81773565  -0.89127492  1.0
  O  O31  1  -0.57052772  -0.18226435  -0.10872508  1.0
  O  O32  1  -0.28449019  -0.74875067  -0.57724560  1.0
  O  O33  1  -0.71550981  -0.25124933  -0.42275440  1.0
  O  O34  1  -0.25344377  -0.95392596  -0.55888114  1.0
  O  O35  1  -0.74655623  -0.04607404  -0.44111886  1.0
