# generated using pymatgen
data_Ca2VClO4
_symmetry_space_group_name_H-M   'P 1'
_cell_length_a   6.39403839
_cell_length_b   7.17255056
_cell_length_c   11.15395359
_cell_angle_alpha   90.00000000
_cell_angle_beta   90.00000000
_cell_angle_gamma   90.00000000
_symmetry_Int_Tables_number   1
_chemical_formula_structural   Ca2VClO4
_chemical_formula_sum   'Ca8 V4 Cl4 O16'
_cell_volume   511.53775282
_cell_formula_units_Z   4
loop_
 _symmetry_equiv_pos_site_id
 _symmetry_equiv_pos_as_xyz
  1  'x, y, z'
loop_
 _atom_site_type_symbol
 _atom_site_label
 _atom_site_symmetry_multiplicity
 _atom_site_fract_x
 _atom_site_fract_y
 _atom_site_fract_z
 _atom_site_occupancy
  Ca  Ca0  1  0.85971553  0.97198425  0.75000000  1.0
  Ca  Ca1  1  0.85971553  0.52801575  0.25000000  1.0
  Ca  Ca2  1  0.14028447  0.47198425  0.75000000  1.0
  Ca  Ca3  1  0.14028447  0.02801575  0.25000000  1.0
  Ca  Ca4  1  0.37709244  0.75000000  0.00000000  1.0
  Ca  Ca5  1  0.37709244  0.75000000  0.50000000  1.0
  Ca  Ca6  1  0.62290756  0.25000000  0.00000000  1.0
  Ca  Ca7  1  0.62290756  0.25000000  0.50000000  1.0
  V  V8  1  0.87011512  0.75000000  0.00000000  1.0
  V  V9  1  0.87011512  0.75000000  0.50000000  1.0
  V  V10  1  0.12988488  0.25000000  0.00000000  1.0
  V  V11  1  0.12988488  0.25000000  0.50000000  1.0
  Cl  Cl12  1  0.49933580  0.70521771  0.75000000  1.0
  Cl  Cl13  1  0.49933580  0.79478229  0.25000000  1.0
  Cl  Cl14  1  0.50066420  0.20521771  0.75000000  1.0
  Cl  Cl15  1  0.50066420  0.29478229  0.25000000  1.0
  O  O16  1  0.97059820  0.22854571  0.87613808  1.0
  O  O17  1  0.97059820  0.22854571  0.62386192  1.0
  O  O18  1  0.97059820  0.27145429  0.37613808  1.0
  O  O19  1  0.97059820  0.27145429  0.12386192  1.0
  O  O20  1  0.02940180  0.72854571  0.87613808  1.0
  O  O21  1  0.02940180  0.72854571  0.62386192  1.0
  O  O22  1  0.02940180  0.77145429  0.37613808  1.0
  O  O23  1  0.02940180  0.77145429  0.12386192  1.0
  O  O24  1  0.70823769  0.93512242  0.97129948  1.0
  O  O25  1  0.70823769  0.93512242  0.52870052  1.0
  O  O26  1  0.70823769  0.56487758  0.47129948  1.0
  O  O27  1  0.70823769  0.56487758  0.02870052  1.0
  O  O28  1  0.29176231  0.43512242  0.97129948  1.0
  O  O29  1  0.29176231  0.43512242  0.52870052  1.0
  O  O30  1  0.29176231  0.06487758  0.47129948  1.0
  O  O31  1  0.29176231  0.06487758  0.02870052  1.0
