# generated using pymatgen
data_SiH8(CBr)4
_symmetry_space_group_name_H-M   'P 1'
_cell_length_a   9.27951038
_cell_length_b   9.27951038
_cell_length_c   7.15142799
_cell_angle_alpha   90.00000000
_cell_angle_beta   90.00000000
_cell_angle_gamma   90.00000000
_symmetry_Int_Tables_number   1
_chemical_formula_structural   SiH8(CBr)4
_chemical_formula_sum   'Si2 H16 C8 Br8'
_cell_volume   615.80455070
_cell_formula_units_Z   2
loop_
 _symmetry_equiv_pos_site_id
 _symmetry_equiv_pos_as_xyz
  1  'x, y, z'
loop_
 _atom_site_type_symbol
 _atom_site_label
 _atom_site_symmetry_multiplicity
 _atom_site_fract_x
 _atom_site_fract_y
 _atom_site_fract_z
 _atom_site_occupancy
  Si  Si0  1  0.00000000  0.00000000  0.00000000  1.0
  Si  Si1  1  0.50000000  0.50000000  0.50000000  1.0
  H  H2  1  0.98932473  0.80839081  0.74988531  1.0
  H  H3  1  0.51067527  0.30839081  0.75011469  1.0
  H  H4  1  0.01067527  0.19160919  0.74988531  1.0
  H  H5  1  0.48932473  0.69160919  0.75011469  1.0
  H  H6  1  0.80839081  0.01067527  0.25011469  1.0
  H  H7  1  0.30839081  0.48932473  0.24988531  1.0
  H  H8  1  0.19160919  0.98932473  0.25011469  1.0
  H  H9  1  0.69160919  0.51067527  0.24988531  1.0
  H  H10  1  0.86409576  0.77043435  0.93381973  1.0
  H  H11  1  0.63590424  0.27043435  0.56618027  1.0
  H  H12  1  0.13590424  0.22956565  0.93381973  1.0
  H  H13  1  0.36409576  0.72956565  0.56618027  1.0
  H  H14  1  0.77043435  0.13590424  0.06618027  1.0
  H  H15  1  0.27043435  0.36409576  0.43381973  1.0
  H  H16  1  0.22956565  0.86409576  0.06618027  1.0
  H  H17  1  0.72956565  0.63590424  0.43381973  1.0
  C  C18  1  0.91360821  0.85594005  0.85008858  1.0
  C  C19  1  0.58639179  0.35594005  0.64991142  1.0
  C  C20  1  0.08639179  0.14405995  0.85008858  1.0
  C  C21  1  0.41360821  0.64405995  0.64991142  1.0
  C  C22  1  0.85594005  0.08639179  0.14991142  1.0
  C  C23  1  0.35594005  0.41360821  0.35008858  1.0
  C  C24  1  0.14405995  0.91360821  0.14991142  1.0
  C  C25  1  0.64405995  0.58639179  0.35008858  1.0
  Br  Br26  1  0.75539493  0.93823647  0.69875540  1.0
  Br  Br27  1  0.74460507  0.43823647  0.80124460  1.0
  Br  Br28  1  0.24460507  0.06176353  0.69875540  1.0
  Br  Br29  1  0.25539493  0.56176353  0.80124460  1.0
  Br  Br30  1  0.93823647  0.24460507  0.30124460  1.0
  Br  Br31  1  0.43823647  0.25539493  0.19875540  1.0
  Br  Br32  1  0.06176353  0.75539493  0.30124460  1.0
  Br  Br33  1  0.56176353  0.74460507  0.19875540  1.0
