# generated using pymatgen
data_Pr2In8Pd
_symmetry_space_group_name_H-M   'P 1'
_cell_length_a   4.74248881
_cell_length_b   4.74248881
_cell_length_c   12.36051970
_cell_angle_alpha   90.00000000
_cell_angle_beta   90.00000000
_cell_angle_gamma   90.00000000
_symmetry_Int_Tables_number   1
_chemical_formula_structural   Pr2In8Pd
_chemical_formula_sum   'Pr2 In8 Pd1'
_cell_volume   278.00292243
_cell_formula_units_Z   1
loop_
 _symmetry_equiv_pos_site_id
 _symmetry_equiv_pos_as_xyz
  1  'x, y, z'
loop_
 _atom_site_type_symbol
 _atom_site_label
 _atom_site_symmetry_multiplicity
 _atom_site_fract_x
 _atom_site_fract_y
 _atom_site_fract_z
 _atom_site_occupancy
  Pr  Pr0  1  0.00000000  0.00000000  0.69142853  1.0
  Pr  Pr1  1  0.00000000  0.00000000  0.30857147  1.0
  In  In2  1  0.00000000  0.50000000  0.87602625  1.0
  In  In3  1  0.00000000  0.50000000  0.12397375  1.0
  In  In4  1  0.50000000  0.00000000  0.87602625  1.0
  In  In5  1  0.50000000  0.00000000  0.12397375  1.0
  In  In6  1  0.50000000  0.50000000  0.69049015  1.0
  In  In7  1  0.50000000  0.50000000  0.30950985  1.0
  In  In8  1  0.00000000  0.50000000  0.50000000  1.0
  In  In9  1  0.50000000  0.00000000  0.50000000  1.0
  Pd  Pd10  1  0.00000000  0.00000000  0.00000000  1.0
