# generated using pymatgen
data_Zr2P2O9
_symmetry_space_group_name_H-M   'P 1'
_cell_length_a   5.52261768
_cell_length_b   5.52261768
_cell_length_c   12.00655357
_cell_angle_alpha   90.00000000
_cell_angle_beta   90.00000000
_cell_angle_gamma   104.92683750
_symmetry_Int_Tables_number   1
_chemical_formula_structural   Zr2P2O9
_chemical_formula_sum   'Zr4 P4 O18'
_cell_volume   353.83461209
_cell_formula_units_Z   2
loop_
 _symmetry_equiv_pos_site_id
 _symmetry_equiv_pos_as_xyz
  1  'x, y, z'
loop_
 _atom_site_type_symbol
 _atom_site_label
 _atom_site_symmetry_multiplicity
 _atom_site_fract_x
 _atom_site_fract_y
 _atom_site_fract_z
 _atom_site_occupancy
  Zr  Zr0  1  0.20520972  0.79479028  0.43723293  1.0
  Zr  Zr1  1  -0.20520972  1.20520972  0.56276707  1.0
  Zr  Zr2  1  0.29479028  0.70520972  0.93723293  1.0
  Zr  Zr3  1  -0.29479028  1.29479028  0.06276707  1.0
  P  P4  1  0.10653692  0.89346308  0.14668430  1.0
  P  P5  1  -0.10653692  1.10653692  0.85331570  1.0
  P  P6  1  0.39346308  0.60653692  0.64668430  1.0
  P  P7  1  -0.39346308  1.39346308  0.35331570  1.0
  O  O8  1  0.01525510  0.63381281  0.08456672  1.0
  O  O9  1  -0.36618719  1.01525510  0.91543328  1.0
  O  O10  1  0.13381281  0.51525510  0.58456672  1.0
  O  O11  1  -0.48474490  1.13381281  0.41543328  1.0
  O  O12  1  -0.01525510  1.36618719  0.91543328  1.0
  O  O13  1  0.36618719  0.98474490  0.08456672  1.0
  O  O14  1  -0.13381281  1.48474490  0.41543328  1.0
  O  O15  1  0.48474490  0.86618719  0.58456672  1.0
  O  O16  1  -0.36146159  1.36146159  0.22836142  1.0
  O  O17  1  0.36146159  0.63853841  0.77163858  1.0
  O  O18  1  -0.13853841  1.13853841  0.72836142  1.0
  O  O19  1  0.13853841  0.86146159  0.27163858  1.0
  O  O20  1  -0.50000000  0.50000000  -0.00000000  1.0
  O  O21  1  0.00000000  1.00000000  0.50000000  1.0
  O  O22  1  -0.06441229  1.06441229  0.12348337  1.0
  O  O23  1  0.06441229  0.93558771  0.87651663  1.0
  O  O24  1  -0.43558771  1.43558771  0.62348337  1.0
  O  O25  1  0.43558771  0.56441229  0.37651663  1.0
