# generated using pymatgen
data_Be(B6C)2
_symmetry_space_group_name_H-M   'P 1'
_cell_length_a   5.23615717
_cell_length_b   5.23615717
_cell_length_c   5.23615717
_cell_angle_alpha   64.64727821
_cell_angle_beta   64.64727821
_cell_angle_gamma   64.64727821
_symmetry_Int_Tables_number   1
_chemical_formula_structural   Be(B6C)2
_chemical_formula_sum   'Be1 B12 C2'
_cell_volume   111.84676423
_cell_formula_units_Z   1
loop_
 _symmetry_equiv_pos_site_id
 _symmetry_equiv_pos_as_xyz
  1  'x, y, z'
loop_
 _atom_site_type_symbol
 _atom_site_label
 _atom_site_symmetry_multiplicity
 _atom_site_fract_x
 _atom_site_fract_y
 _atom_site_fract_z
 _atom_site_occupancy
  Be  Be0  1  0.50000000  0.50000000  -0.50000000  1.0
  B  B1  1  0.67912639  0.19664120  -0.80335880  1.0
  B  B2  1  0.19664120  0.19664120  -0.32087361  1.0
  B  B3  1  0.19664120  0.67912639  -0.80335880  1.0
  B  B4  1  0.32087361  0.80335880  -0.19664120  1.0
  B  B5  1  0.80335880  0.80335880  -0.67912639  1.0
  B  B6  1  0.80335880  0.32087361  -0.19664120  1.0
  B  B7  1  1.33191155  1.00338180  0.00338180  1.0
  B  B8  1  1.00338180  1.00338180  0.33191155  1.0
  B  B9  1  1.00338180  1.33191155  0.00338180  1.0
  B  B10  1  0.66808845  0.99661820  -0.00338180  1.0
  B  B11  1  0.99661820  0.99661820  -0.33191155  1.0
  B  B12  1  0.99661820  0.66808845  -0.00338180  1.0
  C  C13  1  0.63537456  0.63537456  -0.36462544  1.0
  C  C14  1  0.36462544  0.36462544  -0.63537456  1.0
