# generated using pymatgen
data_K3SbSe3
_symmetry_space_group_name_H-M   'P 1'
_cell_length_a   9.96337729
_cell_length_b   9.96337729
_cell_length_c   9.96337729
_cell_angle_alpha   90.00000000
_cell_angle_beta   90.00000000
_cell_angle_gamma   90.00000000
_symmetry_Int_Tables_number   1
_chemical_formula_structural   K3SbSe3
_chemical_formula_sum   'K12 Sb4 Se12'
_cell_volume   989.05337400
_cell_formula_units_Z   4
loop_
 _symmetry_equiv_pos_site_id
 _symmetry_equiv_pos_as_xyz
  1  'x, y, z'
loop_
 _atom_site_type_symbol
 _atom_site_label
 _atom_site_symmetry_multiplicity
 _atom_site_fract_x
 _atom_site_fract_y
 _atom_site_fract_z
 _atom_site_occupancy
  K  K0  1  0.43781000  0.93781000  0.56219000  1.0
  K  K1  1  0.93781000  0.56219000  0.43781000  1.0
  K  K2  1  0.56219000  0.43781000  0.93781000  1.0
  K  K3  1  0.06219000  0.06219000  0.06219000  1.0
  K  K4  1  0.93204086  0.43204086  0.06795914  1.0
  K  K5  1  0.43204086  0.06795914  0.93204086  1.0
  K  K6  1  0.06795914  0.93204086  0.43204086  1.0
  K  K7  1  0.56795914  0.56795914  0.56795914  1.0
  K  K8  1  0.67201929  0.17201929  0.32798071  1.0
  K  K9  1  0.17201929  0.32798071  0.67201929  1.0
  K  K10  1  0.32798071  0.67201929  0.17201929  1.0
  K  K11  1  0.82798071  0.82798071  0.82798071  1.0
  Sb  Sb12  1  0.22197579  0.72197579  0.77802421  1.0
  Sb  Sb13  1  0.72197579  0.77802421  0.22197579  1.0
  Sb  Sb14  1  0.77802421  0.22197579  0.72197579  1.0
  Sb  Sb15  1  0.27802421  0.27802421  0.27802421  1.0
  Se  Se16  1  0.47069426  0.74744653  0.85331688  1.0
  Se  Se17  1  0.97069426  0.75255347  0.14668312  1.0
  Se  Se18  1  0.24744653  0.64668312  0.52930574  1.0
  Se  Se19  1  0.74744653  0.85331688  0.47069426  1.0
  Se  Se20  1  0.14668312  0.97069426  0.75255347  1.0
  Se  Se21  1  0.64668312  0.52930574  0.24744653  1.0
  Se  Se22  1  0.52930574  0.24744653  0.64668312  1.0
  Se  Se23  1  0.02930574  0.25255347  0.35331688  1.0
  Se  Se24  1  0.75255347  0.14668312  0.97069426  1.0
  Se  Se25  1  0.25255347  0.35331688  0.02930574  1.0
  Se  Se26  1  0.85331688  0.47069426  0.74744653  1.0
  Se  Se27  1  0.35331688  0.02930574  0.25255347  1.0
