# generated using pymatgen
data_Pb(ClO3)2
_symmetry_space_group_name_H-M   'P 1'
_cell_length_a   7.47044682
_cell_length_b   7.12041656
_cell_length_c   8.72584752
_cell_angle_alpha   55.13573928
_cell_angle_beta   51.44988857
_cell_angle_gamma   73.41437216
_symmetry_Int_Tables_number   1
_chemical_formula_structural   Pb(ClO3)2
_chemical_formula_sum   'Pb2 Cl4 O12'
_cell_volume   296.02303027
_cell_formula_units_Z   2
loop_
 _symmetry_equiv_pos_site_id
 _symmetry_equiv_pos_as_xyz
  1  'x, y, z'
loop_
 _atom_site_type_symbol
 _atom_site_label
 _atom_site_symmetry_multiplicity
 _atom_site_fract_x
 _atom_site_fract_y
 _atom_site_fract_z
 _atom_site_occupancy
  Pb  Pb0  1  0.99556297  -0.00443703  0.00443703  1.0
  Pb  Pb1  1  0.24556297  0.24556297  1.25443703  1.0
  Cl  Cl2  1  0.66005819  1.21885980  0.38399662  1.0
  Cl  Cl3  1  0.86600338  -0.48708540  0.58994181  1.0
  Cl  Cl4  1  1.21885980  -0.33994181  0.73708540  1.0
  Cl  Cl5  1  0.51291460  0.86600338  1.03114020  1.0
  O  O6  1  -0.12860528  0.59371345  1.38358576  1.0
  O  O7  1  0.86641424  1.09869393  0.37860528  1.0
  O  O8  1  1.59371345  -0.12860528  0.15130607  1.0
  O  O9  1  1.09869393  -0.13358576  0.65628655  1.0
  O  O10  1  0.45587211  1.11221818  0.62912516  1.0
  O  O11  1  0.62087484  -0.55278455  0.79412789  1.0
  O  O12  1  1.11221818  -0.54412789  0.80278455  1.0
  O  O13  1  0.44721545  0.62087484  1.13778182  1.0
  O  O14  1  1.14522031  0.62430028  -0.03793809  1.0
  O  O15  1  1.28793809  -0.01841750  0.10477969  1.0
  O  O16  1  0.62430028  0.14522031  1.26841750  1.0
  O  O17  1  -0.01841750  0.28793809  1.62569972  1.0
