# generated using pymatgen
data_KN3O4
_symmetry_space_group_name_H-M   'P 1'
_cell_length_a   6.66584466
_cell_length_b   9.62180900
_cell_length_c   9.34918302
_cell_angle_alpha   90.00000000
_cell_angle_beta   128.57164197
_cell_angle_gamma   90.00000000
_symmetry_Int_Tables_number   1
_chemical_formula_structural   KN3O4
_chemical_formula_sum   'K4 N12 O16'
_cell_volume   468.81062594
_cell_formula_units_Z   4
loop_
 _symmetry_equiv_pos_site_id
 _symmetry_equiv_pos_as_xyz
  1  'x, y, z'
loop_
 _atom_site_type_symbol
 _atom_site_label
 _atom_site_symmetry_multiplicity
 _atom_site_fract_x
 _atom_site_fract_y
 _atom_site_fract_z
 _atom_site_occupancy
  K  K0  1  0.96858570  0.15995884  0.32368036  1.0
  K  K1  1  0.96858569  0.34004116  0.82368036  1.0
  K  K2  1  0.03141430  0.65995884  0.17631964  1.0
  K  K3  1  0.03141430  0.84004116  0.67631964  1.0
  N  N4  1  0.64504070  0.37513809  0.39696055  1.0
  N  N5  1  0.64504070  0.12486191  0.89696055  1.0
  N  N6  1  0.35495930  0.87513809  0.10303945  1.0
  N  N7  1  0.35495930  0.62486191  0.60303945  1.0
  N  N8  1  0.62230405  0.46131744  0.26877921  1.0
  N  N9  1  0.62230405  0.03868256  0.76877921  1.0
  N  N10  1  0.37769595  0.96131744  0.23122079  1.0
  N  N11  1  0.37769595  0.53868256  0.73122079  1.0
  N  N12  1  0.41990091  0.34063466  0.36139320  1.0
  N  N13  1  0.41990091  0.15936534  0.86139320  1.0
  N  N14  1  0.58009909  0.84063466  0.13860680  1.0
  N  N15  1  0.58009909  0.65936534  0.63860680  1.0
  O  O16  1  0.81591690  0.45820396  0.27690201  1.0
  O  O17  1  0.81591690  0.04179604  0.77690201  1.0
  O  O18  1  0.18408310  0.95820396  0.22309799  1.0
  O  O19  1  0.18408310  0.54179604  0.72309799  1.0
  O  O20  1  0.79440366  0.84319296  0.29334264  1.0
  O  O21  1  0.79440366  0.65680704  0.79334264  1.0
  O  O22  1  0.20559634  0.34319296  0.20665736  1.0
  O  O23  1  0.20559634  0.15680704  0.70665736  1.0
  O  O24  1  0.56188376  0.04014547  0.33259954  1.0
  O  O25  1  0.56188376  0.45985453  0.83259954  1.0
  O  O26  1  0.43811624  0.54014547  0.16740046  1.0
  O  O27  1  0.43811624  0.95985453  0.66740046  1.0
  O  O28  1  0.44849647  0.20376097  -0.00096870  1.0
  O  O29  1  0.44849647  0.29623903  0.49903130  1.0
  O  O30  1  0.55150353  0.70376097  0.50096870  1.0
  O  O31  1  0.55150353  0.79623903  1.00096870  1.0
