# generated using pymatgen
data_Ca2B4Rh5
_symmetry_space_group_name_H-M   'P 1'
_cell_length_a   7.46414340
_cell_length_b   6.25429275
_cell_length_c   5.63374478
_cell_angle_alpha   77.59218750
_cell_angle_beta   54.91901919
_cell_angle_gamma   47.48879330
_symmetry_Int_Tables_number   1
_chemical_formula_structural   Ca2B4Rh5
_chemical_formula_sum   'Ca2 B4 Rh5'
_cell_volume   151.94731867
_cell_formula_units_Z   1
loop_
 _symmetry_equiv_pos_site_id
 _symmetry_equiv_pos_as_xyz
  1  'x, y, z'
loop_
 _atom_site_type_symbol
 _atom_site_label
 _atom_site_symmetry_multiplicity
 _atom_site_fract_x
 _atom_site_fract_y
 _atom_site_fract_z
 _atom_site_occupancy
  Ca  Ca0  1  0.64296501  0.64296501  -0.64296501  1.0
  Ca  Ca1  1  0.35703499  1.35703499  -0.35703499  1.0
  B  B2  1  1.70845792  0.03121023  -0.03121023  1.0
  B  B3  1  0.96878977  0.29154208  0.70845792  1.0
  B  B4  1  1.03121023  0.70845792  0.29154208  1.0
  B  B5  1  1.29154208  -0.03121023  0.03121023  1.0
  Rh  Rh6  1  0.75000000  0.75000000  0.75000000  1.0
  Rh  Rh7  1  1.25000000  0.25000000  0.25000000  1.0
  Rh  Rh8  1  0.00000000  -0.00000000  1.50000000  1.0
  Rh  Rh9  1  0.50000000  -0.50000000  1.00000000  1.0
  Rh  Rh10  1  0.00000000  0.00000000  0.00000000  1.0
