# generated using pymatgen
data_SmGa3Pd
_symmetry_space_group_name_H-M   'P 1'
_cell_length_a   6.11669210
_cell_length_b   6.11669210
_cell_length_c   5.91981134
_cell_angle_alpha   90.00000000
_cell_angle_beta   90.00000000
_cell_angle_gamma   116.61437312
_symmetry_Int_Tables_number   1
_chemical_formula_structural   SmGa3Pd
_chemical_formula_sum   'Sm2 Ga6 Pd2'
_cell_volume   198.01540142
_cell_formula_units_Z   2
loop_
 _symmetry_equiv_pos_site_id
 _symmetry_equiv_pos_as_xyz
  1  'x, y, z'
loop_
 _atom_site_type_symbol
 _atom_site_label
 _atom_site_symmetry_multiplicity
 _atom_site_fract_x
 _atom_site_fract_y
 _atom_site_fract_z
 _atom_site_occupancy
  Sm  Sm0  1  -0.26708216  1.26708216  0.25000000  1.0
  Sm  Sm1  1  0.26708216  0.73291784  0.75000000  1.0
  Ga  Ga2  1  0.78395034  0.78395034  0.50000000  1.0
  Ga  Ga3  1  0.78395034  0.78395034  0.00000000  1.0
  Ga  Ga4  1  0.21604966  0.21604966  0.50000000  1.0
  Ga  Ga5  1  0.21604966  0.21604966  0.00000000  1.0
  Ga  Ga6  1  0.16521495  0.83478505  0.25000000  1.0
  Ga  Ga7  1  -0.16521495  1.16521495  0.75000000  1.0
  Pd  Pd8  1  0.40399290  0.59600710  0.25000000  1.0
  Pd  Pd9  1  -0.40399290  1.40399290  0.75000000  1.0
