# generated using pymatgen
data_MnGeN2
_symmetry_space_group_name_H-M   'P 1'
_cell_length_a   5.55406905
_cell_length_b   6.67975476
_cell_length_c   5.31218564
_cell_angle_alpha   90.00000000
_cell_angle_beta   90.00000000
_cell_angle_gamma   90.00000000
_symmetry_Int_Tables_number   1
_chemical_formula_structural   MnGeN2
_chemical_formula_sum   'Mn4 Ge4 N8'
_cell_volume   197.08112648
_cell_formula_units_Z   4
loop_
 _symmetry_equiv_pos_site_id
 _symmetry_equiv_pos_as_xyz
  1  'x, y, z'
loop_
 _atom_site_type_symbol
 _atom_site_label
 _atom_site_symmetry_multiplicity
 _atom_site_fract_x
 _atom_site_fract_y
 _atom_site_fract_z
 _atom_site_occupancy
  Mn  Mn0  1  0.41793592  0.12426037  0.62028171  1.0
  Mn  Mn1  1  0.91793592  0.37573963  0.62028171  1.0
  Mn  Mn2  1  0.58206408  0.87573963  0.12028171  1.0
  Mn  Mn3  1  0.08206408  0.62426037  0.12028171  1.0
  Ge  Ge4  1  0.42775121  0.62551605  0.62278080  1.0
  Ge  Ge5  1  0.92775121  0.87448395  0.62278080  1.0
  Ge  Ge6  1  0.57224879  0.37448395  0.12278080  1.0
  Ge  Ge7  1  0.07224879  0.12551605  0.12278080  1.0
  N  N8  1  0.43904486  0.60607477  0.97786451  1.0
  N  N9  1  0.93904486  0.89392523  0.97786451  1.0
  N  N10  1  0.56095514  0.39392523  0.47786451  1.0
  N  N11  1  0.06095514  0.10607477  0.47786451  1.0
  N  N12  1  0.10228538  0.64482147  0.52007298  1.0
  N  N13  1  0.60228538  0.85517853  0.52007298  1.0
  N  N14  1  0.89771462  0.35517853  0.02007298  1.0
  N  N15  1  0.39771462  0.14482147  0.02007298  1.0
