# generated using pymatgen
data_Ba4Zr3S10
_symmetry_space_group_name_H-M   'P 1'
_cell_length_a   18.25311191
_cell_length_b   18.25297202
_cell_length_c   5.03267515
_cell_angle_alpha   82.07762982
_cell_angle_beta   82.07447491
_cell_angle_gamma   15.84789527
_symmetry_Int_Tables_number   1
_chemical_formula_structural   Ba4Zr3S10
_chemical_formula_sum   'Ba4 Zr3 S10'
_cell_volume   453.43843641
_cell_formula_units_Z   1
loop_
 _symmetry_equiv_pos_site_id
 _symmetry_equiv_pos_as_xyz
  1  'x, y, z'
loop_
 _atom_site_type_symbol
 _atom_site_label
 _atom_site_symmetry_multiplicity
 _atom_site_fract_x
 _atom_site_fract_y
 _atom_site_fract_z
 _atom_site_occupancy
  Ba  Ba0  1  0.43270857  0.43270857  -0.43270857  1.0
  Ba  Ba1  1  -0.43270857  0.56729143  0.43270857  1.0
  Ba  Ba2  1  0.30027047  0.30027047  -0.30027047  1.0
  Ba  Ba3  1  -0.30027047  0.69972953  0.30027047  1.0
  Zr  Zr4  1  0.00000000  0.00000000  0.00000000  1.0
  Zr  Zr5  1  -0.14310430  0.85689570  0.14310430  1.0
  Zr  Zr6  1  0.14310430  0.14310430  -0.14310430  1.0
  S  S7  1  -0.07047297  0.92952703  0.07047297  1.0
  S  S8  1  0.07047297  0.07047297  -0.07047297  1.0
  S  S9  1  -0.21304615  0.78695385  0.21304615  1.0
  S  S10  1  0.21304615  0.21304615  -0.21304615  1.0
  S  S11  1  0.00000000  -0.00000000  1.50000000  1.0
  S  S12  1  -0.50000000  0.50000000  1.00000000  1.0
  S  S13  1  -0.13940229  0.86059771  0.63940229  1.0
  S  S14  1  -0.36059771  0.63940229  0.86059771  1.0
  S  S15  1  0.13940229  0.13940229  1.36059771  1.0
  S  S16  1  0.36059771  0.36059771  1.13940229  1.0
