# generated using pymatgen
data_MnTl2As2S5
_symmetry_space_group_name_H-M   'P 1'
_cell_length_a   8.78048557
_cell_length_b   8.78048557
_cell_length_c   17.17354280
_cell_angle_alpha   90.00000000
_cell_angle_beta   90.00000000
_cell_angle_gamma   52.26763719
_symmetry_Int_Tables_number   1
_chemical_formula_structural   MnTl2As2S5
_chemical_formula_sum   'Mn4 Tl8 As8 S20'
_cell_volume   1047.14411075
_cell_formula_units_Z   4
loop_
 _symmetry_equiv_pos_site_id
 _symmetry_equiv_pos_as_xyz
  1  'x, y, z'
loop_
 _atom_site_type_symbol
 _atom_site_label
 _atom_site_symmetry_multiplicity
 _atom_site_fract_x
 _atom_site_fract_y
 _atom_site_fract_z
 _atom_site_occupancy
  Mn  Mn0  1  -0.09839009  0.59839009  0.75000000  1.0
  Mn  Mn1  1  -0.59839009  1.09839009  0.75000000  1.0
  Mn  Mn2  1  -0.40160991  0.90160991  0.25000000  1.0
  Mn  Mn3  1  0.09839009  0.40160991  0.25000000  1.0
  Tl  Tl4  1  -0.90251771  0.90251771  0.81547665  1.0
  Tl  Tl5  1  -0.40251771  0.40251771  0.68452335  1.0
  Tl  Tl6  1  -0.09748229  0.09748229  0.18452335  1.0
  Tl  Tl7  1  -0.59748229  0.59748229  0.31547665  1.0
  Tl  Tl8  1  -0.15212069  0.84787931  0.00000000  1.0
  Tl  Tl9  1  0.34787931  0.34787931  0.50000000  1.0
  Tl  Tl10  1  0.15212069  0.15212069  0.00000000  1.0
  Tl  Tl11  1  -0.34787931  0.65212069  0.50000000  1.0
  As  As12  1  0.35593802  0.41171611  0.89091475  1.0
  As  As13  1  -0.14406198  0.91171611  0.60908525  1.0
  As  As14  1  -0.58828389  1.35593802  0.10908525  1.0
  As  As15  1  -0.08828389  0.85593802  0.39091475  1.0
  As  As16  1  -0.41171611  0.64406198  0.89091475  1.0
  As  As17  1  0.08828389  0.14406198  0.60908525  1.0
  As  As18  1  -0.35593802  0.58828389  0.10908525  1.0
  As  As19  1  -0.85593802  1.08828389  0.39091475  1.0
  S  S20  1  0.25765194  0.46507696  0.76380035  1.0
  S  S21  1  -0.24234806  0.96507696  0.73619965  1.0
  S  S22  1  -0.53492304  1.25765194  0.23619965  1.0
  S  S23  1  -0.03492304  0.75765194  0.26380035  1.0
  S  S24  1  -0.46507696  0.74234806  0.76380035  1.0
  S  S25  1  0.03492304  0.24234806  0.73619965  1.0
  S  S26  1  -0.25765194  0.53492304  0.23619965  1.0
  S  S27  1  -0.75765194  1.03492304  0.26380035  1.0
  S  S28  1  -0.10718484  0.54547530  0.89550084  1.0
  S  S29  1  -0.60718484  1.04547530  0.60449916  1.0
  S  S30  1  -0.45452470  0.89281516  0.10449916  1.0
  S  S31  1  0.04547530  0.39281516  0.39550084  1.0
  S  S32  1  -0.54547530  1.10718484  0.89550084  1.0
  S  S33  1  -0.04547530  0.60718484  0.60449916  1.0
  S  S34  1  0.10718484  0.45452470  0.10449916  1.0
  S  S35  1  -0.39281516  0.95452470  0.39550084  1.0
  S  S36  1  -0.84065409  0.84065409  0.62404246  1.0
  S  S37  1  -0.34065409  0.34065409  0.87595754  1.0
  S  S38  1  -0.15934591  0.15934591  0.37595754  1.0
  S  S39  1  -0.65934591  0.65934591  0.12404246  1.0
