# generated using pymatgen
data_Ge
_symmetry_space_group_name_H-M   'P 1'
_cell_length_a   13.73433055
_cell_length_b   13.73433055
_cell_length_c   13.73433055
_cell_angle_alpha   60.00000115
_cell_angle_beta   60.00000115
_cell_angle_gamma   60.00000115
_symmetry_Int_Tables_number   1
_chemical_formula_structural   Ge
_chemical_formula_sum   Ge36
_cell_volume   1831.92420252
_cell_formula_units_Z   36
loop_
 _symmetry_equiv_pos_site_id
 _symmetry_equiv_pos_as_xyz
  1  'x, y, z'
loop_
 _atom_site_type_symbol
 _atom_site_label
 _atom_site_symmetry_multiplicity
 _atom_site_fract_x
 _atom_site_fract_y
 _atom_site_fract_z
 _atom_site_occupancy
  Ge  Ge0  1  0.74777510  -0.25222490  1.05122657  1.0
  Ge  Ge1  1  -0.54677678  0.74777510  1.05122657  1.0
  Ge  Ge2  1  -0.54677678  1.05122657  0.74777510  1.0
  Ge  Ge3  1  0.74777510  0.05122657  0.74777510  1.0
  Ge  Ge4  1  0.50222490  0.50222490  -0.20322322  1.0
  Ge  Ge5  1  0.50222490  -0.20322322  0.50222490  1.0
  Ge  Ge6  1  0.19877343  -0.20322322  0.50222490  1.0
  Ge  Ge7  1  0.19877343  0.50222490  -0.20322322  1.0
  Ge  Ge8  1  0.74777510  -0.54677678  1.05122657  1.0
  Ge  Ge9  1  -0.25222490  1.05122657  0.45322322  1.0
  Ge  Ge10  1  -0.20322322  0.50222490  0.50222490  1.0
  Ge  Ge11  1  0.19877343  0.50222490  0.50222490  1.0
  Ge  Ge12  1  1.05122657  -0.54677678  0.74777510  1.0
  Ge  Ge13  1  0.05122657  0.74777510  0.45322322  1.0
  Ge  Ge14  1  -0.25222490  0.74777510  0.45322322  1.0
  Ge  Ge15  1  0.74777510  -0.54677678  0.74777510  1.0
  Ge  Ge16  1  -0.20322322  0.19877343  0.50222490  1.0
  Ge  Ge17  1  0.50222490  0.19877343  0.50222490  1.0
  Ge  Ge18  1  0.50222490  0.50222490  0.19877343  1.0
  Ge  Ge19  1  -0.20322322  0.50222490  0.19877343  1.0
  Ge  Ge20  1  1.05122657  -0.25222490  0.74777510  1.0
  Ge  Ge21  1  -0.54677678  0.74777510  0.74777510  1.0
  Ge  Ge22  1  0.50222490  0.19877343  -0.20322322  1.0
  Ge  Ge23  1  0.50222490  -0.20322322  0.19877343  1.0
  Ge  Ge24  1  0.70063486  -0.29936514  0.89809541  1.0
  Ge  Ge25  1  0.70063486  -0.10190459  0.70063486  1.0
  Ge  Ge26  1  0.54936514  -0.45063486  0.54936514  1.0
  Ge  Ge27  1  1.35190459  -0.45063486  0.54936514  1.0
  Ge  Ge28  1  0.89809541  -0.29936514  0.70063486  1.0
  Ge  Ge29  1  0.70063486  -0.29936514  0.70063486  1.0
  Ge  Ge30  1  0.54936514  0.35190459  0.54936514  1.0
  Ge  Ge31  1  0.54936514  -0.45063486  1.35190459  1.0
  Ge  Ge32  1  0.62500000  -0.37500000  1.12500000  1.0
  Ge  Ge33  1  0.62500000  0.12500000  0.62500000  1.0
  Ge  Ge34  1  0.62500000  -0.37500000  0.62500000  1.0
  Ge  Ge35  1  1.12500000  -0.37500000  0.62500000  1.0
