# generated using pymatgen
data_SiNi
_symmetry_space_group_name_H-M   'P 1'
_cell_length_a   5.18583937
_cell_length_b   3.35639818
_cell_length_c   5.62034301
_cell_angle_alpha   90.00000000
_cell_angle_beta   90.00000000
_cell_angle_gamma   90.00000000
_symmetry_Int_Tables_number   1
_chemical_formula_structural   SiNi
_chemical_formula_sum   'Si4 Ni4'
_cell_volume   97.82623942
_cell_formula_units_Z   4
loop_
 _symmetry_equiv_pos_site_id
 _symmetry_equiv_pos_as_xyz
  1  'x, y, z'
loop_
 _atom_site_type_symbol
 _atom_site_label
 _atom_site_symmetry_multiplicity
 _atom_site_fract_x
 _atom_site_fract_y
 _atom_site_fract_z
 _atom_site_occupancy
  Si  Si0  1  0.82095193  0.75000000  0.58320667  1.0
  Si  Si1  1  0.32095193  0.75000000  0.91679333  1.0
  Si  Si2  1  0.17904807  0.25000000  0.41679333  1.0
  Si  Si3  1  0.67904807  0.25000000  0.08320667  1.0
  Ni  Ni4  1  0.99191146  0.75000000  0.18798427  1.0
  Ni  Ni5  1  0.49191146  0.75000000  0.31201573  1.0
  Ni  Ni6  1  0.00808854  0.25000000  0.81201573  1.0
  Ni  Ni7  1  0.50808854  0.25000000  0.68798427  1.0
