# generated using pymatgen
data_In4O4F
_symmetry_space_group_name_H-M   'P 1'
_cell_length_a   7.38359552
_cell_length_b   7.34908534
_cell_length_c   7.37958609
_cell_angle_alpha   60.17267695
_cell_angle_beta   59.70886702
_cell_angle_gamma   60.11845602
_symmetry_Int_Tables_number   1
_chemical_formula_structural   In4O4F
_chemical_formula_sum   'In8 O8 F2'
_cell_volume   283.13999965
_cell_formula_units_Z   2
loop_
 _symmetry_equiv_pos_site_id
 _symmetry_equiv_pos_as_xyz
  1  'x, y, z'
loop_
 _atom_site_type_symbol
 _atom_site_label
 _atom_site_symmetry_multiplicity
 _atom_site_fract_x
 _atom_site_fract_y
 _atom_site_fract_z
 _atom_site_occupancy
  In  In0  1  -0.14005538  0.45139719  0.23702036  1.0
  In  In1  1  0.45163783  0.23702036  1.45139719  1.0
  In  In2  1  -0.20139719  0.39005538  0.79836217  1.0
  In  In3  1  0.01297964  0.79836217  0.39005538  1.0
  In  In4  1  0.23702036  0.45163783  -0.14005538  1.0
  In  In5  1  0.45139719  -0.14005538  1.45163783  1.0
  In  In6  1  -0.20163783  1.01297964  0.79860281  1.0
  In  In7  1  -0.60994462  0.79860281  1.01297964  1.0
  O  O8  1  0.62505624  0.44506533  1.12500591  1.0
  O  O9  1  -0.19512749  0.12500591  0.44506533  1.0
  O  O10  1  -0.19506533  0.62494376  0.44512749  1.0
  O  O11  1  0.12499409  0.44512749  0.62494376  1.0
  O  O12  1  0.12500591  -0.19512749  1.62505624  1.0
  O  O13  1  0.44506533  0.62505624  -0.19512749  1.0
  O  O14  1  -0.55487251  1.12499409  0.80493467  1.0
  O  O15  1  -0.37505624  0.80493467  1.12499409  1.0
  F  F16  1  -0.00000000  -0.00000000  0.00000000  1.0
  F  F17  1  0.25000000  0.25000000  1.25000000  1.0
