# generated using pymatgen
data_K3AsS3
_symmetry_space_group_name_H-M   'P 1'
_cell_length_a   9.51591133
_cell_length_b   9.51591133
_cell_length_c   9.51591133
_cell_angle_alpha   90.00000000
_cell_angle_beta   90.00000000
_cell_angle_gamma   90.00000000
_symmetry_Int_Tables_number   1
_chemical_formula_structural   K3AsS3
_chemical_formula_sum   'K12 As4 S12'
_cell_volume   861.69021212
_cell_formula_units_Z   4
loop_
 _symmetry_equiv_pos_site_id
 _symmetry_equiv_pos_as_xyz
  1  'x, y, z'
loop_
 _atom_site_type_symbol
 _atom_site_label
 _atom_site_symmetry_multiplicity
 _atom_site_fract_x
 _atom_site_fract_y
 _atom_site_fract_z
 _atom_site_occupancy
  K  K0  1  0.43990470  0.93990470  0.56009530  1.0
  K  K1  1  0.93990470  0.56009530  0.43990470  1.0
  K  K2  1  0.56009530  0.43990470  0.93990470  1.0
  K  K3  1  0.06009530  0.06009530  0.06009530  1.0
  K  K4  1  0.93642088  0.43642088  0.06357912  1.0
  K  K5  1  0.43642088  0.06357912  0.93642088  1.0
  K  K6  1  0.06357912  0.93642088  0.43642088  1.0
  K  K7  1  0.56357912  0.56357912  0.56357912  1.0
  K  K8  1  0.67277019  0.17277019  0.32722981  1.0
  K  K9  1  0.17277019  0.32722981  0.67277019  1.0
  K  K10  1  0.32722981  0.67277019  0.17277019  1.0
  K  K11  1  0.82722981  0.82722981  0.82722981  1.0
  As  As12  1  0.22773988  0.72773988  0.77226012  1.0
  As  As13  1  0.72773988  0.77226012  0.22773988  1.0
  As  As14  1  0.77226012  0.22773988  0.72773988  1.0
  As  As15  1  0.27226012  0.27226012  0.27226012  1.0
  S  S16  1  0.45687621  0.74442130  0.84468238  1.0
  S  S17  1  0.95687621  0.75557870  0.15531762  1.0
  S  S18  1  0.24442130  0.65531762  0.54312379  1.0
  S  S19  1  0.74442130  0.84468238  0.45687621  1.0
  S  S20  1  0.15531762  0.95687621  0.75557870  1.0
  S  S21  1  0.65531762  0.54312379  0.24442130  1.0
  S  S22  1  0.54312379  0.24442130  0.65531762  1.0
  S  S23  1  0.04312379  0.25557870  0.34468238  1.0
  S  S24  1  0.75557870  0.15531762  0.95687621  1.0
  S  S25  1  0.25557870  0.34468238  0.04312379  1.0
  S  S26  1  0.84468238  0.45687621  0.74442130  1.0
  S  S27  1  0.34468238  0.04312379  0.25557870  1.0
