# generated using pymatgen
data_SrWO2
_symmetry_space_group_name_H-M   'P 1'
_cell_length_a   7.50541461
_cell_length_b   7.50541461
_cell_length_c   7.50541461
_cell_angle_alpha   130.57593716
_cell_angle_beta   130.57593716
_cell_angle_gamma   72.48769781
_symmetry_Int_Tables_number   1
_chemical_formula_structural   SrWO2
_chemical_formula_sum   'Sr4 W4 O8'
_cell_volume   238.37764525
_cell_formula_units_Z   4
loop_
 _symmetry_equiv_pos_site_id
 _symmetry_equiv_pos_as_xyz
  1  'x, y, z'
loop_
 _atom_site_type_symbol
 _atom_site_label
 _atom_site_symmetry_multiplicity
 _atom_site_fract_x
 _atom_site_fract_y
 _atom_site_fract_z
 _atom_site_occupancy
  Sr  Sr0  1  0.37500000  0.62500000  0.75000000  1.0
  Sr  Sr1  1  0.87500000  0.62500000  1.25000000  1.0
  Sr  Sr2  1  0.37500000  1.12500000  0.75000000  1.0
  Sr  Sr3  1  0.37500000  0.62500000  0.25000000  1.0
  W  W4  1  0.87500000  0.12500000  0.75000000  1.0
  W  W5  1  0.37500000  0.12500000  0.25000000  1.0
  W  W6  1  0.87500000  0.62500000  0.75000000  1.0
  W  W7  1  0.87500000  1.12500000  1.25000000  1.0
  O  O8  1  1.17353533  0.97518987  1.80165485  1.0
  O  O9  1  0.57646498  0.87811953  1.30165485  1.0
  O  O10  1  1.02481013  0.82646498  1.19834545  1.0
  O  O11  1  1.12188047  1.42353533  1.69834545  1.0
  O  O12  1  0.17353502  0.37188047  0.19834515  1.0
  O  O13  1  0.57646467  0.27481013  0.69834515  1.0
  O  O14  1  0.62811953  0.82646467  0.80165455  1.0
  O  O15  1  0.72518987  0.42353502  0.30165455  1.0
