# generated using pymatgen
data_La(SnPt)2
_symmetry_space_group_name_H-M   'P 1'
_cell_length_a   4.75347488
_cell_length_b   4.68281377
_cell_length_c   10.46175480
_cell_angle_alpha   90.00000000
_cell_angle_beta   92.22976210
_cell_angle_gamma   90.00000000
_symmetry_Int_Tables_number   1
_chemical_formula_structural   La(SnPt)2
_chemical_formula_sum   'La2 Sn4 Pt4'
_cell_volume   232.69854781
_cell_formula_units_Z   2
loop_
 _symmetry_equiv_pos_site_id
 _symmetry_equiv_pos_as_xyz
  1  'x, y, z'
loop_
 _atom_site_type_symbol
 _atom_site_label
 _atom_site_symmetry_multiplicity
 _atom_site_fract_x
 _atom_site_fract_y
 _atom_site_fract_z
 _atom_site_occupancy
  La  La0  1  0.73211882  0.01946386  0.24352476  1.0
  La  La1  1  0.26788118  0.51946386  0.75647524  1.0
  Sn  Sn2  1  0.80262150  0.01944072  0.87942049  1.0
  Sn  Sn3  1  0.19737850  0.51944072  0.12057951  1.0
  Sn  Sn4  1  0.74864722  0.51938028  0.49904627  1.0
  Sn  Sn5  1  0.25135278  0.01938028  0.50095373  1.0
  Pt  Pt6  1  0.76174891  0.01936916  0.62704739  1.0
  Pt  Pt7  1  0.23825109  0.51936916  0.37295261  1.0
  Pt  Pt8  1  0.68660684  0.51944598  0.99680550  1.0
  Pt  Pt9  1  0.31339316  1.01944598  0.00319450  1.0
