# generated using pymatgen
data_Li3TeHO4
_symmetry_space_group_name_H-M   'P 1'
_cell_length_a   5.54571526
_cell_length_b   6.45237867
_cell_length_c   6.75695658
_cell_angle_alpha   90.00000000
_cell_angle_beta   112.83174032
_cell_angle_gamma   90.00000000
_symmetry_Int_Tables_number   1
_chemical_formula_structural   Li3TeHO4
_chemical_formula_sum   'Li6 Te2 H2 O8'
_cell_volume   222.84032641
_cell_formula_units_Z   2
loop_
 _symmetry_equiv_pos_site_id
 _symmetry_equiv_pos_as_xyz
  1  'x, y, z'
loop_
 _atom_site_type_symbol
 _atom_site_label
 _atom_site_symmetry_multiplicity
 _atom_site_fract_x
 _atom_site_fract_y
 _atom_site_fract_z
 _atom_site_occupancy
  Li  Li0  1  0.74955676  0.98398990  0.34672972  1.0
  Li  Li1  1  0.74955676  0.51601010  0.34672972  1.0
  Li  Li2  1  0.25044324  0.48398990  0.65327028  1.0
  Li  Li3  1  0.25044324  0.01601010  0.65327028  1.0
  Li  Li4  1  0.28560929  0.75000000  0.35143078  1.0
  Li  Li5  1  0.71439071  0.25000000  0.64856922  1.0
  Te  Te6  1  0.82028578  0.75000000  0.81786531  1.0
  Te  Te7  1  0.17971422  0.25000000  0.18213469  1.0
  H  H8  1  0.47006241  0.75000000  0.06198774  1.0
  H  H9  1  0.52993759  0.25000000  0.93801226  1.0
  O  O10  1  0.90441168  0.98058091  0.67239200  1.0
  O  O11  1  0.90441168  0.51941909  0.67239200  1.0
  O  O12  1  0.09558832  0.48058091  0.32760800  1.0
  O  O13  1  0.09558832  0.01941909  0.32760800  1.0
  O  O14  1  0.53230281  0.75000000  0.21745062  1.0
  O  O15  1  0.46769719  0.25000000  0.78254938  1.0
  O  O16  1  0.44132750  0.75000000  0.68313058  1.0
  O  O17  1  0.55867250  0.25000000  0.31686942  1.0
