# generated using pymatgen
data_EuCu
_symmetry_space_group_name_H-M   'P 1'
_cell_length_a   7.71823150
_cell_length_b   4.32042733
_cell_length_c   5.89324015
_cell_angle_alpha   90.00000000
_cell_angle_beta   90.00000000
_cell_angle_gamma   90.00000000
_symmetry_Int_Tables_number   1
_chemical_formula_structural   EuCu
_chemical_formula_sum   'Eu4 Cu4'
_cell_volume   196.51632955
_cell_formula_units_Z   4
loop_
 _symmetry_equiv_pos_site_id
 _symmetry_equiv_pos_as_xyz
  1  'x, y, z'
loop_
 _atom_site_type_symbol
 _atom_site_label
 _atom_site_symmetry_multiplicity
 _atom_site_fract_x
 _atom_site_fract_y
 _atom_site_fract_z
 _atom_site_occupancy
  Eu  Eu0  1  0.32186511  0.75000000  0.12565876  1.0
  Eu  Eu1  1  0.82186511  0.75000000  0.37434124  1.0
  Eu  Eu2  1  0.67813489  0.25000000  0.87434124  1.0
  Eu  Eu3  1  0.17813489  0.25000000  0.62565876  1.0
  Cu  Cu4  1  0.46805197  0.75000000  0.60758879  1.0
  Cu  Cu5  1  0.96805197  0.75000000  0.89241121  1.0
  Cu  Cu6  1  0.53194803  0.25000000  0.39241121  1.0
  Cu  Cu7  1  0.03194803  0.25000000  0.10758879  1.0
