# generated using pymatgen
data_Co2C
_symmetry_space_group_name_H-M   'P 1'
_cell_length_a   4.35842219
_cell_length_b   4.35462233
_cell_length_c   2.86961757
_cell_angle_alpha   90.00000000
_cell_angle_beta   90.00000000
_cell_angle_gamma   90.00000000
_symmetry_Int_Tables_number   1
_chemical_formula_structural   Co2C
_chemical_formula_sum   'Co4 C2'
_cell_volume   54.46328283
_cell_formula_units_Z   2
loop_
 _symmetry_equiv_pos_site_id
 _symmetry_equiv_pos_as_xyz
  1  'x, y, z'
loop_
 _atom_site_type_symbol
 _atom_site_label
 _atom_site_symmetry_multiplicity
 _atom_site_fract_x
 _atom_site_fract_y
 _atom_site_fract_z
 _atom_site_occupancy
  Co  Co0  1  0.24168067  0.84985450  0.50000000  1.0
  Co  Co1  1  0.74168067  0.65014550  0.00000000  1.0
  Co  Co2  1  0.75831933  0.15014550  0.50000000  1.0
  Co  Co3  1  0.25831933  0.34985450  0.00000000  1.0
  C  C4  1  0.50000000  0.50000000  0.50000000  1.0
  C  C5  1  0.00000000  0.00000000  0.00000000  1.0
