# generated using pymatgen
data_ZrSnRh
_symmetry_space_group_name_H-M   'P 1'
_cell_length_a   7.40462674
_cell_length_b   7.40462674
_cell_length_c   7.28362030
_cell_angle_alpha   90.00000000
_cell_angle_beta   90.00000000
_cell_angle_gamma   120.00000000
_symmetry_Int_Tables_number   1
_chemical_formula_structural   ZrSnRh
_chemical_formula_sum   'Zr6 Sn6 Rh6'
_cell_volume   345.84720556
_cell_formula_units_Z   6
loop_
 _symmetry_equiv_pos_site_id
 _symmetry_equiv_pos_as_xyz
  1  'x, y, z'
loop_
 _atom_site_type_symbol
 _atom_site_label
 _atom_site_symmetry_multiplicity
 _atom_site_fract_x
 _atom_site_fract_y
 _atom_site_fract_z
 _atom_site_occupancy
  Zr  Zr0  1  0.98294065  0.59434002  0.25000000  1.0
  Zr  Zr1  1  0.59434002  0.98294065  0.75000000  1.0
  Zr  Zr2  1  0.61139937  0.01705935  0.25000000  1.0
  Zr  Zr3  1  0.40565998  0.38860063  0.25000000  1.0
  Zr  Zr4  1  0.01705935  0.61139937  0.75000000  1.0
  Zr  Zr5  1  0.38860063  0.40565998  0.75000000  1.0
  Sn  Sn6  1  0.72969038  0.72969038  0.50000000  1.0
  Sn  Sn7  1  0.72969038  0.72969038  0.00000000  1.0
  Sn  Sn8  1  0.00000000  0.27030962  0.50000000  1.0
  Sn  Sn9  1  0.00000000  0.27030962  0.00000000  1.0
  Sn  Sn10  1  0.27030962  0.00000000  0.50000000  1.0
  Sn  Sn11  1  0.27030962  0.00000000  0.00000000  1.0
  Rh  Rh12  1  0.33333333  0.66666667  0.46441465  1.0
  Rh  Rh13  1  0.33333333  0.66666667  0.03558535  1.0
  Rh  Rh14  1  0.66666667  0.33333333  0.96441465  1.0
  Rh  Rh15  1  0.66666667  0.33333333  0.53558535  1.0
  Rh  Rh16  1  0.00000000  0.00000000  0.25000000  1.0
  Rh  Rh17  1  0.00000000  0.00000000  0.75000000  1.0
