# generated using pymatgen
data_Y(BC)2
_symmetry_space_group_name_H-M   'P 1'
_cell_length_a   5.34824694
_cell_length_b   5.34824694
_cell_length_c   3.57149950
_cell_angle_alpha   90.00000000
_cell_angle_beta   90.00000000
_cell_angle_gamma   90.00000000
_symmetry_Int_Tables_number   1
_chemical_formula_structural   Y(BC)2
_chemical_formula_sum   'Y2 B4 C4'
_cell_volume   102.15826208
_cell_formula_units_Z   2
loop_
 _symmetry_equiv_pos_site_id
 _symmetry_equiv_pos_as_xyz
  1  'x, y, z'
loop_
 _atom_site_type_symbol
 _atom_site_label
 _atom_site_symmetry_multiplicity
 _atom_site_fract_x
 _atom_site_fract_y
 _atom_site_fract_z
 _atom_site_occupancy
  Y  Y0  1  0.50000000  0.50000000  0.00000000  1.0
  Y  Y1  1  0.00000000  0.00000000  0.00000000  1.0
  B  B2  1  0.36325011  0.13674989  0.50000000  1.0
  B  B3  1  0.86325011  0.36325011  0.50000000  1.0
  B  B4  1  0.63674989  0.86325011  0.50000000  1.0
  B  B5  1  0.13674989  0.63674989  0.50000000  1.0
  C  C6  1  0.83820935  0.66179065  0.50000000  1.0
  C  C7  1  0.33820935  0.83820935  0.50000000  1.0
  C  C8  1  0.16179065  0.33820935  0.50000000  1.0
  C  C9  1  0.66179065  0.16179065  0.50000000  1.0
