# generated using pymatgen
data_SrZrO3
_symmetry_space_group_name_H-M   'P 1'
_cell_length_a   5.87543352
_cell_length_b   8.25377812
_cell_length_c   5.82074788
_cell_angle_alpha   90.00000000
_cell_angle_beta   90.00000000
_cell_angle_gamma   90.00000000
_symmetry_Int_Tables_number   1
_chemical_formula_structural   SrZrO3
_chemical_formula_sum   'Sr4 Zr4 O12'
_cell_volume   282.27440149
_cell_formula_units_Z   4
loop_
 _symmetry_equiv_pos_site_id
 _symmetry_equiv_pos_as_xyz
  1  'x, y, z'
loop_
 _atom_site_type_symbol
 _atom_site_label
 _atom_site_symmetry_multiplicity
 _atom_site_fract_x
 _atom_site_fract_y
 _atom_site_fract_z
 _atom_site_occupancy
  Sr  Sr0  1  0.03080566  0.75000000  0.50691607  1.0
  Sr  Sr1  1  0.53080566  0.75000000  0.99308393  1.0
  Sr  Sr2  1  0.96919434  0.25000000  0.49308393  1.0
  Sr  Sr3  1  0.46919434  0.25000000  0.00691607  1.0
  Zr  Zr4  1  0.50000000  0.00000000  0.50000000  1.0
  Zr  Zr5  1  0.50000000  0.50000000  0.50000000  1.0
  Zr  Zr6  1  0.00000000  0.00000000  0.00000000  1.0
  Zr  Zr7  1  0.00000000  0.50000000  0.00000000  1.0
  O  O8  1  0.28519520  0.96046392  0.78536666  1.0
  O  O9  1  0.28519520  0.53953608  0.78536666  1.0
  O  O10  1  0.78519520  0.96046392  0.71463334  1.0
  O  O11  1  0.78519520  0.53953608  0.71463334  1.0
  O  O12  1  0.71480480  0.46046392  0.21463334  1.0
  O  O13  1  0.71480480  0.03953608  0.21463334  1.0
  O  O14  1  0.21480480  0.46046392  0.28536666  1.0
  O  O15  1  0.21480480  0.03953608  0.28536666  1.0
  O  O16  1  0.98083826  0.75000000  0.07490003  1.0
  O  O17  1  0.48083826  0.75000000  0.42509997  1.0
  O  O18  1  0.01916174  0.25000000  0.92509997  1.0
  O  O19  1  0.51916174  0.25000000  0.57490003  1.0
