# generated using pymatgen
data_Rb3CeF6
_symmetry_space_group_name_H-M   'P 1'
_cell_length_a   9.86481244
_cell_length_b   9.86481244
_cell_length_c   9.86481244
_cell_angle_alpha   90.00000000
_cell_angle_beta   90.00000000
_cell_angle_gamma   90.00000000
_symmetry_Int_Tables_number   1
_chemical_formula_structural   Rb3CeF6
_chemical_formula_sum   'Rb12 Ce4 F24'
_cell_volume   959.98953190
_cell_formula_units_Z   4
loop_
 _symmetry_equiv_pos_site_id
 _symmetry_equiv_pos_as_xyz
  1  'x, y, z'
loop_
 _atom_site_type_symbol
 _atom_site_label
 _atom_site_symmetry_multiplicity
 _atom_site_fract_x
 _atom_site_fract_y
 _atom_site_fract_z
 _atom_site_occupancy
  Rb  Rb0  1  0.22279705  0.72279705  0.77720295  1.0
  Rb  Rb1  1  0.22279705  0.77720295  0.27720295  1.0
  Rb  Rb2  1  0.72279705  0.72279705  0.72279705  1.0
  Rb  Rb3  1  0.72279705  0.77720295  0.22279705  1.0
  Rb  Rb4  1  0.77720295  0.22279705  0.72279705  1.0
  Rb  Rb5  1  0.77720295  0.27720295  0.22279705  1.0
  Rb  Rb6  1  0.27720295  0.22279705  0.77720295  1.0
  Rb  Rb7  1  0.27720295  0.27720295  0.27720295  1.0
  Rb  Rb8  1  0.50000000  0.00000000  0.50000000  1.0
  Rb  Rb9  1  0.50000000  0.50000000  0.00000000  1.0
  Rb  Rb10  1  0.00000000  0.00000000  0.00000000  1.0
  Rb  Rb11  1  0.00000000  0.50000000  0.50000000  1.0
  Ce  Ce12  1  0.00000000  0.50000000  0.00000000  1.0
  Ce  Ce13  1  0.00000000  0.00000000  0.50000000  1.0
  Ce  Ce14  1  0.50000000  0.50000000  0.50000000  1.0
  Ce  Ce15  1  0.50000000  0.00000000  0.00000000  1.0
  F  F16  1  0.46094255  0.56640910  0.72124434  1.0
  F  F17  1  0.46094255  0.93359090  0.22124434  1.0
  F  F18  1  0.96094255  0.56640910  0.77875566  1.0
  F  F19  1  0.96094255  0.93359090  0.27875566  1.0
  F  F20  1  0.06640910  0.77875566  0.53905745  1.0
  F  F21  1  0.06640910  0.72124434  0.03905745  1.0
  F  F22  1  0.56640910  0.77875566  0.96094255  1.0
  F  F23  1  0.56640910  0.72124434  0.46094255  1.0
  F  F24  1  0.27875566  0.96094255  0.93359090  1.0
  F  F25  1  0.27875566  0.53905745  0.43359090  1.0
  F  F26  1  0.77875566  0.96094255  0.56640910  1.0
  F  F27  1  0.77875566  0.53905745  0.06640910  1.0
  F  F28  1  0.53905745  0.06640910  0.77875566  1.0
  F  F29  1  0.53905745  0.43359090  0.27875566  1.0
  F  F30  1  0.03905745  0.06640910  0.72124434  1.0
  F  F31  1  0.03905745  0.43359090  0.22124434  1.0
  F  F32  1  0.93359090  0.27875566  0.96094255  1.0
  F  F33  1  0.93359090  0.22124434  0.46094255  1.0
  F  F34  1  0.43359090  0.27875566  0.53905745  1.0
  F  F35  1  0.43359090  0.22124434  0.03905745  1.0
  F  F36  1  0.72124434  0.46094255  0.56640910  1.0
  F  F37  1  0.72124434  0.03905745  0.06640910  1.0
  F  F38  1  0.22124434  0.46094255  0.93359090  1.0
  F  F39  1  0.22124434  0.03905745  0.43359090  1.0
