# generated using pymatgen
data_Ga8Cu3W2
_symmetry_space_group_name_H-M   'P 1'
_cell_length_a   10.42664425
_cell_length_b   10.42664425
_cell_length_c   10.42664425
_cell_angle_alpha   109.47122063
_cell_angle_beta   109.47122063
_cell_angle_gamma   109.47122063
_symmetry_Int_Tables_number   1
_chemical_formula_structural   Ga8Cu3W2
_chemical_formula_sum   'Ga32 Cu12 W8'
_cell_volume   872.59310596
_cell_formula_units_Z   4
loop_
 _symmetry_equiv_pos_site_id
 _symmetry_equiv_pos_as_xyz
  1  'x, y, z'
loop_
 _atom_site_type_symbol
 _atom_site_label
 _atom_site_symmetry_multiplicity
 _atom_site_fract_x
 _atom_site_fract_y
 _atom_site_fract_z
 _atom_site_occupancy
  Ga  Ga0  1  0.79230102  0.79230102  0.79230102  1.0
  Ga  Ga1  1  1.00000000  0.70769898  1.50000000  1.0
  Ga  Ga2  1  0.50000000  1.00000000  0.70769898  1.0
  Ga  Ga3  1  0.70769898  1.50000000  1.00000000  1.0
  Ga  Ga4  1  1.00000000  1.20769898  1.50000000  1.0
  Ga  Ga5  1  1.29230102  1.29230102  1.29230102  1.0
  Ga  Ga6  1  1.50000000  1.00000000  1.20769898  1.0
  Ga  Ga7  1  1.20769898  0.50000000  1.00000000  1.0
  Ga  Ga8  1  0.76835625  0.49903074  0.51210712  1.0
  Ga  Ga9  1  1.01307638  1.00096926  1.76932551  1.0
  Ga  Ga10  1  0.48692362  1.25624913  0.98789288  1.0
  Ga  Ga11  1  0.73164375  1.24375087  0.73067449  1.0
  Ga  Ga12  1  1.26932551  1.50096926  1.51307638  1.0
  Ga  Ga13  1  1.01210712  0.99903074  1.26835625  1.0
  Ga  Ga14  1  1.23067449  0.74375087  1.23164375  1.0
  Ga  Ga15  1  0.48789288  0.75624913  0.98692362  1.0
  Ga  Ga16  1  1.25624913  0.98789288  1.48692362  1.0
  Ga  Ga17  1  0.24375087  0.73067449  0.73164375  1.0
  Ga  Ga18  1  0.49903074  0.51210712  0.76835625  1.0
  Ga  Ga19  1  1.00096926  1.76932551  1.01307638  1.0
  Ga  Ga20  1  0.75624913  0.98692362  0.48789288  1.0
  Ga  Ga21  1  1.74375087  1.23164375  1.23067449  1.0
  Ga  Ga22  1  0.99903074  1.26835625  1.01210712  1.0
  Ga  Ga23  1  0.50096926  0.51307638  0.26932551  1.0
  Ga  Ga24  1  0.76932551  1.01307638  1.00096926  1.0
  Ga  Ga25  1  0.51210712  0.76835625  0.49903074  1.0
  Ga  Ga26  1  0.73067449  0.73164375  0.24375087  1.0
  Ga  Ga27  1  0.98789288  0.48692362  1.25624913  1.0
  Ga  Ga28  1  1.26835625  1.01210712  0.99903074  1.0
  Ga  Ga29  1  1.51307638  1.26932551  1.50096926  1.0
  Ga  Ga30  1  0.98692362  1.48789288  0.75624913  1.0
  Ga  Ga31  1  1.23164375  1.23067449  1.74375087  1.0
  Cu  Cu32  1  1.02142723  1.25000000  1.27142723  1.0
  Cu  Cu33  1  1.47857277  0.75000000  1.22857277  1.0
  Cu  Cu34  1  0.77142723  0.75000000  0.52142723  1.0
  Cu  Cu35  1  0.72857277  1.25000000  0.97857277  1.0
  Cu  Cu36  1  0.75000000  1.22857277  0.47857277  1.0
  Cu  Cu37  1  1.25000000  1.27142723  1.02142723  1.0
  Cu  Cu38  1  0.25000000  0.97857277  0.72857277  1.0
  Cu  Cu39  1  0.75000000  0.52142723  0.77142723  1.0
  Cu  Cu40  1  1.27142723  1.02142723  1.25000000  1.0
  Cu  Cu41  1  1.22857277  0.47857277  0.75000000  1.0
  Cu  Cu42  1  0.52142723  0.77142723  0.75000000  1.0
  Cu  Cu43  1  0.97857277  0.72857277  0.25000000  1.0
  W  W44  1  1.04414319  1.04414319  1.04414319  1.0
  W  W45  1  1.00000000  1.45585681  1.50000000  1.0
  W  W46  1  1.50000000  1.00000000  1.45585681  1.0
  W  W47  1  1.45585681  0.50000000  1.00000000  1.0
  W  W48  1  1.00000000  0.95585681  1.50000000  1.0
  W  W49  1  0.54414319  0.54414319  0.54414319  1.0
  W  W50  1  0.50000000  1.00000000  0.95585681  1.0
  W  W51  1  0.95585681  1.50000000  1.00000000  1.0
