# generated using pymatgen
data_CeZn11
_symmetry_space_group_name_H-M   'P 1'
_cell_length_a   8.24198669
_cell_length_b   8.24198669
_cell_length_c   8.24198669
_cell_angle_alpha   100.11212264
_cell_angle_beta   100.11212264
_cell_angle_gamma   130.45494930
_symmetry_Int_Tables_number   1
_chemical_formula_structural   CeZn11
_chemical_formula_sum   'Ce2 Zn22'
_cell_volume   386.81938569
_cell_formula_units_Z   2
loop_
 _symmetry_equiv_pos_site_id
 _symmetry_equiv_pos_as_xyz
  1  'x, y, z'
loop_
 _atom_site_type_symbol
 _atom_site_label
 _atom_site_symmetry_multiplicity
 _atom_site_fract_x
 _atom_site_fract_y
 _atom_site_fract_z
 _atom_site_occupancy
  Ce  Ce0  1  0.75000000  1.25000000  0.50000000  1.0
  Ce  Ce1  1  1.00000000  1.00000000  1.00000000  1.0
  Zn  Zn2  1  0.50000000  0.50000000  1.00000000  1.0
  Zn  Zn3  1  0.25000000  0.75000000  0.50000000  1.0
  Zn  Zn4  1  1.37500000  1.12500000  0.75000000  1.0
  Zn  Zn5  1  0.87500000  0.62500000  1.25000000  1.0
  Zn  Zn6  1  1.37500000  0.62500000  0.75000000  1.0
  Zn  Zn7  1  0.37500000  0.62500000  0.25000000  1.0
  Zn  Zn8  1  0.82026036  0.90437292  1.32676605  1.0
  Zn  Zn9  1  1.57760688  0.90437292  1.08411257  1.0
  Zn  Zn10  1  1.65437292  1.07026036  0.82676605  1.0
  Zn  Zn11  1  1.24349431  1.07026036  1.41588743  1.0
  Zn  Zn12  1  0.82026036  0.49349431  0.91588743  1.0
  Zn  Zn13  1  1.57760688  1.49349431  1.67323395  1.0
  Zn  Zn14  1  1.65437292  1.82760688  1.58411257  1.0
  Zn  Zn15  1  1.24349431  0.82760688  1.17323395  1.0
  Zn  Zn16  1  0.92973964  0.34562708  1.17323395  1.0
  Zn  Zn17  1  1.17239312  1.34562708  1.41588743  1.0
  Zn  Zn18  1  1.09562708  1.17973964  1.67323395  1.0
  Zn  Zn19  1  1.50650569  1.17973964  1.08411257  1.0
  Zn  Zn20  1  0.92973964  0.75650569  1.58411257  1.0
  Zn  Zn21  1  1.17239312  0.75650569  0.82676605  1.0
  Zn  Zn22  1  1.09562708  0.42239312  0.91588743  1.0
  Zn  Zn23  1  1.50650569  1.42239312  1.32676605  1.0
