# generated using pymatgen
data_PH6N3O
_symmetry_space_group_name_H-M   'P 1'
_cell_length_a   8.59889862
_cell_length_b   8.85907897
_cell_length_c   5.39582658
_cell_angle_alpha   90.00000000
_cell_angle_beta   92.55639762
_cell_angle_gamma   90.00000000
_symmetry_Int_Tables_number   1
_chemical_formula_structural   PH6N3O
_chemical_formula_sum   'P4 H24 N12 O4'
_cell_volume   410.63594307
_cell_formula_units_Z   4
loop_
 _symmetry_equiv_pos_site_id
 _symmetry_equiv_pos_as_xyz
  1  'x, y, z'
loop_
 _atom_site_type_symbol
 _atom_site_label
 _atom_site_symmetry_multiplicity
 _atom_site_fract_x
 _atom_site_fract_y
 _atom_site_fract_z
 _atom_site_occupancy
  P  P0  1  0.74776239  0.97326774  0.83686155  1.0
  P  P1  1  0.74776239  0.52673226  0.33686155  1.0
  P  P2  1  0.25223761  0.47326774  0.66313845  1.0
  P  P3  1  0.25223761  0.02673226  0.16313845  1.0
  H  H4  1  1.00286844  0.90069821  0.80656274  1.0
  H  H5  1  1.00286844  0.59930179  0.30656274  1.0
  H  H6  1  -0.00286844  0.40069821  0.69343726  1.0
  H  H7  1  -0.00286844  0.09930179  0.19343726  1.0
  H  H8  1  0.89943801  0.77184856  0.95864811  1.0
  H  H9  1  0.89943801  0.72815144  0.45864811  1.0
  H  H10  1  0.10056199  0.27184856  0.54135189  1.0
  H  H11  1  0.10056199  0.22815144  0.04135189  1.0
  H  H12  1  0.76245537  0.44783834  0.92310006  1.0
  H  H13  1  0.76245537  0.05216166  0.42310006  1.0
  H  H14  1  0.23754463  0.94783834  0.57689994  1.0
  H  H15  1  0.23754463  0.55216166  0.07689994  1.0
  H  H16  1  0.59751431  0.78679114  0.64977724  1.0
  H  H17  1  0.59751431  0.71320886  0.14977724  1.0
  H  H18  1  0.40248569  0.28679114  0.85022276  1.0
  H  H19  1  0.40248569  0.21320886  0.35022276  1.0
  H  H20  1  0.49036150  0.89621025  0.83625462  1.0
  H  H21  1  0.49036150  0.60378975  0.33625462  1.0
  H  H22  1  0.50963850  0.39621025  0.66374538  1.0
  H  H23  1  0.50963850  0.10378975  0.16374538  1.0
  H  H24  1  0.25275673  0.69986927  0.87805977  1.0
  H  H25  1  0.25275673  0.80013073  0.37805977  1.0
  H  H26  1  0.74724327  0.19986927  0.62194023  1.0
  H  H27  1  0.74724327  0.30013073  0.12194023  1.0
  N  N28  1  0.89578443  0.85245210  0.82156783  1.0
  N  N29  1  0.89578443  0.64754790  0.32156783  1.0
  N  N30  1  0.10421557  0.35245210  0.67843217  1.0
  N  N31  1  0.10421557  0.14754790  0.17843217  1.0
  N  N32  1  0.59886240  0.85245702  0.80712157  1.0
  N  N33  1  0.59886240  0.64754298  0.30712157  1.0
  N  N34  1  0.40113760  0.35245702  0.69287843  1.0
  N  N35  1  0.40113760  0.14754298  0.19287843  1.0
  N  N36  1  0.22390028  0.58862871  0.89670240  1.0
  N  N37  1  0.22390028  0.91137129  0.39670240  1.0
  N  N38  1  0.77609972  0.08862871  0.60329760  1.0
  N  N39  1  0.77609972  0.41137129  0.10329760  1.0
  O  O40  1  0.26937798  0.93395786  0.92892229  1.0
  O  O41  1  0.26937798  0.56604214  0.42892229  1.0
  O  O42  1  0.73062202  0.43395786  0.57107771  1.0
  O  O43  1  0.73062202  0.06604214  0.07107771  1.0
