# generated using pymatgen
data_TaN2
_symmetry_space_group_name_H-M   'P 1'
_cell_length_a   3.05948542
_cell_length_b   3.05948542
_cell_length_c   7.77572049
_cell_angle_alpha   90.00000000
_cell_angle_beta   90.00000000
_cell_angle_gamma   120.00000000
_symmetry_Int_Tables_number   1
_chemical_formula_structural   TaN2
_chemical_formula_sum   'Ta2 N4'
_cell_volume   63.03301031
_cell_formula_units_Z   2
loop_
 _symmetry_equiv_pos_site_id
 _symmetry_equiv_pos_as_xyz
  1  'x, y, z'
loop_
 _atom_site_type_symbol
 _atom_site_label
 _atom_site_symmetry_multiplicity
 _atom_site_fract_x
 _atom_site_fract_y
 _atom_site_fract_z
 _atom_site_occupancy
  Ta  Ta0  1  0.66666667  0.33333333  0.25000000  1.0
  Ta  Ta1  1  0.33333333  0.66666667  0.75000000  1.0
  N  N2  1  0.00000000  0.00000000  0.40939664  1.0
  N  N3  1  0.00000000  0.00000000  0.59060336  1.0
  N  N4  1  0.00000000  0.00000000  0.90939664  1.0
  N  N5  1  0.00000000  0.00000000  0.09060336  1.0
