# generated using pymatgen
data_Hf2NiP
_symmetry_space_group_name_H-M   'P 1'
_cell_length_a   5.18607687
_cell_length_b   3.59418444
_cell_length_c   7.50555280
_cell_angle_alpha   90.00000000
_cell_angle_beta   111.04361345
_cell_angle_gamma   90.00000000
_symmetry_Int_Tables_number   1
_chemical_formula_structural   Hf2NiP
_chemical_formula_sum   'Hf4 Ni2 P2'
_cell_volume   130.57098717
_cell_formula_units_Z   2
loop_
 _symmetry_equiv_pos_site_id
 _symmetry_equiv_pos_as_xyz
  1  'x, y, z'
loop_
 _atom_site_type_symbol
 _atom_site_label
 _atom_site_symmetry_multiplicity
 _atom_site_fract_x
 _atom_site_fract_y
 _atom_site_fract_z
 _atom_site_occupancy
  Hf  Hf0  1  0.70650951  0.25000000  0.92799554  1.0
  Hf  Hf1  1  0.29349049  0.75000000  0.07200446  1.0
  Hf  Hf2  1  0.70924792  0.25000000  0.42511382  1.0
  Hf  Hf3  1  0.29075208  0.75000000  0.57488618  1.0
  Ni  Ni4  1  0.14668911  0.25000000  0.79143296  1.0
  Ni  Ni5  1  0.85331089  0.75000000  0.20856704  1.0
  P  P6  1  0.15070231  0.25000000  0.29018272  1.0
  P  P7  1  0.84929769  0.75000000  0.70981728  1.0
