# generated using pymatgen
data_NaVBP2H3O10
_symmetry_space_group_name_H-M   'P 1'
_cell_length_a   9.36880068
_cell_length_b   9.36880068
_cell_length_c   9.21122522
_cell_angle_alpha   42.40009035
_cell_angle_beta   137.59990965
_cell_angle_gamma   126.90150018
_symmetry_Int_Tables_number   1
_chemical_formula_structural   NaVBP2H3O10
_chemical_formula_sum   'Na2 V2 B2 P4 H6 O20'
_cell_volume   364.90572699
_cell_formula_units_Z   2
loop_
 _symmetry_equiv_pos_site_id
 _symmetry_equiv_pos_as_xyz
  1  'x, y, z'
loop_
 _atom_site_type_symbol
 _atom_site_label
 _atom_site_symmetry_multiplicity
 _atom_site_fract_x
 _atom_site_fract_y
 _atom_site_fract_z
 _atom_site_occupancy
  Na  Na0  1  1.13375215  0.13375215  0.25000000  1.0
  Na  Na1  1  0.86624785  -0.13375215  0.75000000  1.0
  V  V2  1  1.00000000  0.50000000  0.50000000  1.0
  V  V3  1  1.50000000  0.00000000  -0.00000000  1.0
  B  B4  1  0.53129630  -0.46870370  0.25000000  1.0
  B  B5  1  1.46870370  0.46870370  0.75000000  1.0
  P  P6  1  1.15751619  0.70975117  0.76959561  1.0
  P  P7  1  0.29024883  -0.15751619  0.26959561  1.0
  P  P8  1  1.70975117  0.15751619  0.73040439  1.0
  P  P9  1  0.84248381  -0.70975117  0.23040439  1.0
  H  H10  1  0.66879871  -0.30468747  0.05178474  1.0
  H  H11  1  1.30468747  0.33120129  0.55178474  1.0
  H  H12  1  0.69531253  -0.33120129  0.44821526  1.0
  H  H13  1  1.33120129  0.30468747  0.94821526  1.0
  H  H14  1  1.00000000  0.50000000  -0.00000000  1.0
  H  H15  1  1.50000000  0.00000000  0.50000000  1.0
  O  O16  1  1.31389455  0.53375848  0.02903072  1.0
  O  O17  1  0.46624152  -0.31389455  0.52903072  1.0
  O  O18  1  1.53375848  0.31389455  0.47096928  1.0
  O  O19  1  0.68610545  -0.53375848  0.97096928  1.0
  O  O20  1  1.03175228  0.36078732  0.21361876  1.0
  O  O21  1  0.63921268  -0.03175228  0.71361876  1.0
  O  O22  1  1.36078732  0.03175228  0.28638124  1.0
  O  O23  1  0.96824772  -0.36078732  0.78638124  1.0
  O  O24  1  0.93167453  -0.72669233  0.77180256  1.0
  O  O25  1  1.72669233  0.06832547  0.27180256  1.0
  O  O26  1  0.27330767  -0.06832547  0.72819744  1.0
  O  O27  1  1.06832547  0.72669233  0.22819744  1.0
  O  O28  1  1.07296942  0.72070357  0.54114854  1.0
  O  O29  1  0.27929643  -0.07296942  0.04114854  1.0
  O  O30  1  1.72070357  0.07296942  0.95885146  1.0
  O  O31  1  0.92703058  -0.72070357  0.45885146  1.0
  O  O32  1  0.69048523  -0.42953253  0.22155164  1.0
  O  O33  1  1.42953253  0.30951477  0.72155164  1.0
  O  O34  1  0.57046747  -0.30951477  0.27844836  1.0
  O  O35  1  1.30951477  0.42953253  0.77844836  1.0
