# generated using pymatgen
data_Fe(P2O3)2
_symmetry_space_group_name_H-M   'P 1'
_cell_length_a   10.84252457
_cell_length_b   10.84252457
_cell_length_c   10.84252431
_cell_angle_alpha   127.51150951
_cell_angle_beta   127.51150951
_cell_angle_gamma   77.41770955
_symmetry_Int_Tables_number   1
_chemical_formula_structural   Fe(P2O3)2
_chemical_formula_sum   'Fe2 P8 O12'
_cell_volume   777.97630067
_cell_formula_units_Z   2
loop_
 _symmetry_equiv_pos_site_id
 _symmetry_equiv_pos_as_xyz
  1  'x, y, z'
loop_
 _atom_site_type_symbol
 _atom_site_label
 _atom_site_symmetry_multiplicity
 _atom_site_fract_x
 _atom_site_fract_y
 _atom_site_fract_z
 _atom_site_occupancy
  Fe  Fe0  1  0.00000000  0.00000000  0.00000000  1.0
  Fe  Fe1  1  0.75000000  0.25000000  0.50000000  1.0
  P  P2  1  0.93180589  0.21914665  0.71265926  1.0
  P  P3  1  1.24351259  1.03085335  1.21265923  1.0
  P  P4  1  0.50648741  0.21914665  0.28734077  1.0
  P  P5  1  0.81819411  1.03085335  0.78734074  1.0
  P  P6  1  0.78085335  0.49351259  0.71265923  1.0
  P  P7  1  -0.03085335  0.18180589  0.21265926  1.0
  P  P8  1  0.78085335  1.06819411  1.28734074  1.0
  P  P9  1  -0.03085335  0.75648741  0.78734077  1.0
  O  O10  1  1.42712755  0.26769226  1.15943530  1.0
  O  O11  1  1.64174302  0.98230773  1.65943528  1.0
  O  O12  1  0.10825698  0.26769227  -0.15943528  1.0
  O  O13  1  0.32287245  0.98230774  0.34056470  1.0
  O  O14  1  0.73230773  0.89174302  1.15943528  1.0
  O  O15  1  0.01769226  0.67712755  0.65943530  1.0
  O  O16  1  0.73230774  0.57287245  0.84056470  1.0
  O  O17  1  0.01769227  0.35825698  0.34056472  1.0
  O  O18  1  0.37500000  0.12500000  0.25000000  1.0
  O  O19  1  0.87500000  0.12500000  0.75000000  1.0
  O  O20  1  0.87500000  1.12500000  1.25000000  1.0
  O  O21  1  0.87500000  0.62500000  0.75000000  1.0
