# generated using pymatgen
data_ReH8(NCl3)2
_symmetry_space_group_name_H-M   'P 1'
_cell_length_a   7.13874002
_cell_length_b   7.13874002
_cell_length_c   7.13874002
_cell_angle_alpha   60.00000000
_cell_angle_beta   60.00000000
_cell_angle_gamma   60.00000000
_symmetry_Int_Tables_number   1
_chemical_formula_structural   ReH8(NCl3)2
_chemical_formula_sum   'Re1 H8 N2 Cl6'
_cell_volume   257.24663333
_cell_formula_units_Z   1
loop_
 _symmetry_equiv_pos_site_id
 _symmetry_equiv_pos_as_xyz
  1  'x, y, z'
loop_
 _atom_site_type_symbol
 _atom_site_label
 _atom_site_symmetry_multiplicity
 _atom_site_fract_x
 _atom_site_fract_y
 _atom_site_fract_z
 _atom_site_occupancy
  Re  Re0  1  0.00000000  0.00000000  0.00000000  1.0
  H  H1  1  0.69099152  0.69099152  -0.30900848  1.0
  H  H2  1  1.30900848  0.30900848  0.07297456  1.0
  H  H3  1  1.30900848  0.07297456  0.30900848  1.0
  H  H4  1  0.92702544  0.69099152  -0.30900848  1.0
  H  H5  1  1.07297456  0.30900848  0.30900848  1.0
  H  H6  1  0.69099152  0.92702544  -0.30900848  1.0
  H  H7  1  0.69099152  0.69099152  -0.07297456  1.0
  H  H8  1  1.30900848  0.30900848  0.30900848  1.0
  N  N9  1  0.75000000  0.75000000  -0.25000000  1.0
  N  N10  1  1.25000000  0.25000000  0.25000000  1.0
  Cl  Cl11  1  -0.76469151  0.76469151  0.76469151  1.0
  Cl  Cl12  1  -0.23530849  0.23530849  0.76469151  1.0
  Cl  Cl13  1  0.76469151  0.76469151  -0.76469151  1.0
  Cl  Cl14  1  0.23530849  1.23530849  -0.23530849  1.0
  Cl  Cl15  1  0.23530849  -0.23530849  1.23530849  1.0
  Cl  Cl16  1  -0.23530849  0.23530849  0.23530849  1.0
