# generated using pymatgen
data_Ba2VO4
_symmetry_space_group_name_H-M   'P 1'
_cell_length_a   7.73545440
_cell_length_b   6.00374283
_cell_length_c   10.66432493
_cell_angle_alpha   90.00000000
_cell_angle_beta   90.00000000
_cell_angle_gamma   90.00000000
_symmetry_Int_Tables_number   1
_chemical_formula_structural   Ba2VO4
_chemical_formula_sum   'Ba8 V4 O16'
_cell_volume   495.26915432
_cell_formula_units_Z   4
loop_
 _symmetry_equiv_pos_site_id
 _symmetry_equiv_pos_as_xyz
  1  'x, y, z'
loop_
 _atom_site_type_symbol
 _atom_site_label
 _atom_site_symmetry_multiplicity
 _atom_site_fract_x
 _atom_site_fract_y
 _atom_site_fract_z
 _atom_site_occupancy
  Ba  Ba0  1  0.49810010  0.75000000  0.69813510  1.0
  Ba  Ba1  1  -0.00189990  0.75000000  0.80186490  1.0
  Ba  Ba2  1  0.50189990  0.25000000  0.30186490  1.0
  Ba  Ba3  1  1.00189990  0.25000000  0.19813510  1.0
  Ba  Ba4  1  0.84693348  0.75000000  0.43221887  1.0
  Ba  Ba5  1  0.34693348  0.75000000  0.06778113  1.0
  Ba  Ba6  1  0.15306652  0.25000000  0.56778113  1.0
  Ba  Ba7  1  0.65306652  0.25000000  0.93221887  1.0
  V  V8  1  0.78501259  0.75000000  0.07957084  1.0
  V  V9  1  0.28501259  0.75000000  0.42042916  1.0
  V  V10  1  0.21498741  0.25000000  0.92042916  1.0
  V  V11  1  0.71498741  0.25000000  0.57957084  1.0
  O  O12  1  0.18198973  0.75000000  0.57427478  1.0
  O  O13  1  0.68198973  0.75000000  0.92572522  1.0
  O  O14  1  0.81801027  0.25000000  0.42572522  1.0
  O  O15  1  0.31801027  0.25000000  0.07427478  1.0
  O  O16  1  0.70139694  0.99522876  0.15051386  1.0
  O  O17  1  0.70139694  0.50477124  0.15051386  1.0
  O  O18  1  0.20139694  0.99522876  0.34948614  1.0
  O  O19  1  0.20139694  0.50477124  0.34948614  1.0
  O  O20  1  0.29860306  0.49522876  0.84948614  1.0
  O  O21  1  0.29860306  0.00477124  0.84948614  1.0
  O  O22  1  0.79860306  0.49522876  0.65051386  1.0
  O  O23  1  0.79860306  0.00477124  0.65051386  1.0
  O  O24  1  1.01290991  0.75000000  0.07576115  1.0
  O  O25  1  0.51290991  0.75000000  0.42423885  1.0
  O  O26  1  -0.01290991  0.25000000  0.92423885  1.0
  O  O27  1  0.48709009  0.25000000  0.57576115  1.0
