# generated using pymatgen
data_CaSnO3
_symmetry_space_group_name_H-M   'P 1'
_cell_length_a   5.75108242
_cell_length_b   7.99267431
_cell_length_c   5.57447117
_cell_angle_alpha   90.00000000
_cell_angle_beta   90.00000000
_cell_angle_gamma   90.00000000
_symmetry_Int_Tables_number   1
_chemical_formula_structural   CaSnO3
_chemical_formula_sum   'Ca4 Sn4 O12'
_cell_volume   256.23908900
_cell_formula_units_Z   4
loop_
 _symmetry_equiv_pos_site_id
 _symmetry_equiv_pos_as_xyz
  1  'x, y, z'
loop_
 _atom_site_type_symbol
 _atom_site_label
 _atom_site_symmetry_multiplicity
 _atom_site_fract_x
 _atom_site_fract_y
 _atom_site_fract_z
 _atom_site_occupancy
  Ca  Ca0  1  0.05396559  0.75000000  0.51459754  1.0
  Ca  Ca1  1  0.55396559  0.75000000  0.98540246  1.0
  Ca  Ca2  1  0.94603441  0.25000000  0.48540246  1.0
  Ca  Ca3  1  0.44603441  0.25000000  0.01459754  1.0
  Sn  Sn4  1  0.50000000  0.00000000  0.50000000  1.0
  Sn  Sn5  1  0.50000000  0.50000000  0.50000000  1.0
  Sn  Sn6  1  0.00000000  0.00000000  0.00000000  1.0
  Sn  Sn7  1  0.00000000  0.50000000  0.00000000  1.0
  O  O8  1  0.29980911  0.94311820  0.80350737  1.0
  O  O9  1  0.29980911  0.55688180  0.80350737  1.0
  O  O10  1  0.79980911  0.94311820  0.69649263  1.0
  O  O11  1  0.79980911  0.55688180  0.69649263  1.0
  O  O12  1  0.70019089  0.44311820  0.19649263  1.0
  O  O13  1  0.70019089  0.05688180  0.19649263  1.0
  O  O14  1  0.20019089  0.44311820  0.30350737  1.0
  O  O15  1  0.20019089  0.05688180  0.30350737  1.0
  O  O16  1  0.95704963  0.75000000  0.10821652  1.0
  O  O17  1  0.45704963  0.75000000  0.39178348  1.0
  O  O18  1  0.04295037  0.25000000  0.89178348  1.0
  O  O19  1  0.54295037  0.25000000  0.60821652  1.0
