# generated using pymatgen
data_CsGaTe2
_symmetry_space_group_name_H-M   'P 1'
_cell_length_a   8.56091927
_cell_length_b   8.56091927
_cell_length_c   18.29991875
_cell_angle_alpha   83.28309580
_cell_angle_beta   96.71690420
_cell_angle_gamma   90.00549159
_symmetry_Int_Tables_number   1
_chemical_formula_structural   CsGaTe2
_chemical_formula_sum   'Cs8 Ga8 Te16'
_cell_volume   1322.71530713
_cell_formula_units_Z   8
loop_
 _symmetry_equiv_pos_site_id
 _symmetry_equiv_pos_as_xyz
  1  'x, y, z'
loop_
 _atom_site_type_symbol
 _atom_site_label
 _atom_site_symmetry_multiplicity
 _atom_site_fract_x
 _atom_site_fract_y
 _atom_site_fract_z
 _atom_site_occupancy
  Cs  Cs0  1  1.65220178  0.22276065  0.10874202  1.0
  Cs  Cs1  1  0.77723935  -0.65220178  0.60874202  1.0
  Cs  Cs2  1  1.22276065  0.65220178  0.39125798  1.0
  Cs  Cs3  1  0.34779822  -0.22276065  0.89125798  1.0
  Cs  Cs4  1  1.22486645  0.14948373  0.40082258  1.0
  Cs  Cs5  1  0.85051627  -0.22486645  0.90082258  1.0
  Cs  Cs6  1  1.14948373  0.22486645  0.09917742  1.0
  Cs  Cs7  1  0.77513355  -0.14948373  0.59917742  1.0
  Ga  Ga8  1  0.70726695  -0.08488430  0.32878693  1.0
  Ga  Ga9  1  1.08488430  0.29273305  0.82878693  1.0
  Ga  Ga10  1  0.91511570  -0.29273305  0.17121307  1.0
  Ga  Ga11  1  1.29273305  0.08488430  0.67121307  1.0
  Ga  Ga12  1  0.42037902  -0.29283826  0.17165074  1.0
  Ga  Ga13  1  1.29283826  0.57962098  0.67165074  1.0
  Ga  Ga14  1  0.70716174  -0.57962098  0.32834926  1.0
  Ga  Ga15  1  1.57962098  0.29283826  0.82834926  1.0
  Te  Te16  1  0.64439916  -0.27001675  0.08020698  1.0
  Te  Te17  1  1.27001675  0.35560084  0.58020698  1.0
  Te  Te18  1  0.72998325  -0.35560084  0.41979302  1.0
  Te  Te19  1  1.35560084  0.27001675  0.91979302  1.0
  Te  Te20  1  1.72936737  0.14594824  0.41782841  1.0
  Te  Te21  1  0.85405176  -0.72936737  0.91782841  1.0
  Te  Te22  1  1.14594824  0.72936737  0.08217159  1.0
  Te  Te23  1  0.27063263  -0.14594824  0.58217159  1.0
  Te  Te24  1  0.42684593  -0.05170198  0.25012071  1.0
  Te  Te25  1  1.05170198  0.57315407  0.75012071  1.0
  Te  Te26  1  0.94829802  -0.57315407  0.24987929  1.0
  Te  Te27  1  1.57315407  0.05170198  0.74987929  1.0
  Te  Te28  1  0.94812395  -0.05187605  0.25000000  1.0
  Te  Te29  1  1.05187605  0.05187605  0.75000000  1.0
  Te  Te30  1  1.42660678  0.42660678  0.25000000  1.0
  Te  Te31  1  0.57339322  -0.42660678  0.75000000  1.0
