# generated using pymatgen
data_As2Pd5
_symmetry_space_group_name_H-M   'P 1'
_cell_length_a   7.41366008
_cell_length_b   7.41366008
_cell_length_c   13.87113247
_cell_angle_alpha   90.00000000
_cell_angle_beta   90.00000000
_cell_angle_gamma   120.00000000
_symmetry_Int_Tables_number   1
_chemical_formula_structural   As2Pd5
_chemical_formula_sum   'As12 Pd30'
_cell_volume   660.24921069
_cell_formula_units_Z   6
loop_
 _symmetry_equiv_pos_site_id
 _symmetry_equiv_pos_as_xyz
  1  'x, y, z'
loop_
 _atom_site_type_symbol
 _atom_site_label
 _atom_site_symmetry_multiplicity
 _atom_site_fract_x
 _atom_site_fract_y
 _atom_site_fract_z
 _atom_site_occupancy
  As  As0  1  0.67307940  0.67307940  0.21749056  1.0
  As  As1  1  0.67307940  0.00000000  0.71749056  1.0
  As  As2  1  -0.00000000  0.67307940  0.71749056  1.0
  As  As3  1  0.00000000  0.32692060  0.21749056  1.0
  As  As4  1  0.32692060  0.32692060  0.71749056  1.0
  As  As5  1  0.32692060  0.00000000  0.21749056  1.0
  As  As6  1  0.33333333  0.66666667  0.44497943  1.0
  As  As7  1  0.33333333  0.66666667  0.94497943  1.0
  As  As8  1  0.66666667  0.33333333  0.44497943  1.0
  As  As9  1  0.66666667  0.33333333  0.94497943  1.0
  As  As10  1  0.00000000  0.00000000  -0.01170901  1.0
  As  As11  1  0.00000000  0.00000000  0.48829099  1.0
  Pd  Pd12  1  0.75773045  0.75773045  0.61782569  1.0
  Pd  Pd13  1  0.75773045  0.00000000  0.11782569  1.0
  Pd  Pd14  1  0.00000000  0.75773045  0.11782569  1.0
  Pd  Pd15  1  -0.00000000  0.24226955  0.61782569  1.0
  Pd  Pd16  1  0.24226955  0.24226955  0.11782569  1.0
  Pd  Pd17  1  0.24226955  0.00000000  0.61782569  1.0
  Pd  Pd18  1  0.70417196  0.70417196  0.41107610  1.0
  Pd  Pd19  1  0.70417196  0.00000000  0.91107610  1.0
  Pd  Pd20  1  -0.00000000  0.70417196  0.91107610  1.0
  Pd  Pd21  1  0.00000000  0.29582804  0.41107610  1.0
  Pd  Pd22  1  0.29582804  0.29582804  0.91107610  1.0
  Pd  Pd23  1  0.29582804  0.00000000  0.41107610  1.0
  Pd  Pd24  1  0.60334710  0.60334710  0.02522695  1.0
  Pd  Pd25  1  0.60334710  0.00000000  0.52522695  1.0
  Pd  Pd26  1  -0.00000000  0.60334710  0.52522695  1.0
  Pd  Pd27  1  0.00000000  0.39665290  0.02522695  1.0
  Pd  Pd28  1  0.39665290  0.39665290  0.52522695  1.0
  Pd  Pd29  1  0.39665290  0.00000000  0.02522695  1.0
  Pd  Pd30  1  0.38574359  0.38574359  0.30684778  1.0
  Pd  Pd31  1  0.38574359  0.00000000  0.80684778  1.0
  Pd  Pd32  1  -0.00000000  0.38574359  0.80684778  1.0
  Pd  Pd33  1  0.00000000  0.61425641  0.30684778  1.0
  Pd  Pd34  1  0.61425641  0.61425641  0.80684778  1.0
  Pd  Pd35  1  0.61425641  0.00000000  0.30684778  1.0
  Pd  Pd36  1  0.33333333  0.66666667  0.15991238  1.0
  Pd  Pd37  1  0.33333333  0.66666667  0.65991238  1.0
  Pd  Pd38  1  0.66666667  0.33333333  0.15991238  1.0
  Pd  Pd39  1  0.66666667  0.33333333  0.65991238  1.0
  Pd  Pd40  1  0.00000000  0.00000000  0.28352415  1.0
  Pd  Pd41  1  0.00000000  0.00000000  0.78352415  1.0
