# generated using pymatgen
data_Li2C5O7
_symmetry_space_group_name_H-M   'P 1'
_cell_length_a   7.61138296
_cell_length_b   7.61138296
_cell_length_c   7.55157387
_cell_angle_alpha   74.38850118
_cell_angle_beta   105.61149882
_cell_angle_gamma   121.69458899
_symmetry_Int_Tables_number   1
_chemical_formula_structural   Li2C5O7
_chemical_formula_sum   'Li4 C10 O14'
_cell_volume   354.12628016
_cell_formula_units_Z   2
loop_
 _symmetry_equiv_pos_site_id
 _symmetry_equiv_pos_as_xyz
  1  'x, y, z'
loop_
 _atom_site_type_symbol
 _atom_site_label
 _atom_site_symmetry_multiplicity
 _atom_site_fract_x
 _atom_site_fract_y
 _atom_site_fract_z
 _atom_site_occupancy
  C  C0  1  0.54706765  -0.26594283  0.21810292  1.0
  C  C1  1  1.26594283  0.45293235  0.71810292  1.0
  C  C2  1  0.73405717  0.54706765  0.28189708  1.0
  C  C3  1  0.45293235  0.26594283  0.78189708  1.0
  C  C4  1  0.50815304  0.39067757  0.27088954  1.0
  C  C5  1  0.60932243  0.49184696  0.77088954  1.0
  C  C6  1  1.39067757  0.50815304  0.22911046  1.0
  C  C7  1  0.49184696  -0.39067757  0.72911046  1.0
  C  C8  1  0.75690600  0.75690600  0.25000000  1.0
  C  C9  1  0.24309400  0.24309400  0.75000000  1.0
  O  O10  1  0.43338980  0.19900514  0.29201632  1.0
  O  O11  1  0.80099486  0.56661020  0.79201632  1.0
  O  O12  1  1.19900514  0.43338980  0.20798368  1.0
  O  O13  1  0.56661020  -0.19900514  0.70798368  1.0
  O  O14  1  0.92541731  0.92541731  0.25000000  1.0
  O  O15  1  0.07458269  0.07458269  0.75000000  1.0
  O  O16  1  0.80084853  0.17387551  0.42473511  1.0
  O  O17  1  0.82612449  0.19915147  0.92473511  1.0
  O  O18  1  1.17387551  0.80084853  0.07526489  1.0
  O  O19  1  0.19915147  -0.17387551  0.57526489  1.0
  O  O20  1  0.51338644  -0.11700618  0.18883198  1.0
  O  O21  1  1.11700618  0.48661356  0.68883198  1.0
  O  O22  1  0.88299382  0.51338644  0.31116802  1.0
  O  O23  1  0.48661356  0.11700618  0.81116802  1.0
  Li  Li24  1  0.20331324  -0.09531867  0.30156799  1.0
  Li  Li25  1  1.09531867  0.79668676  0.80156799  1.0
  Li  Li26  1  0.90468133  0.20331324  0.19843201  1.0
  Li  Li27  1  0.79668676  0.09531867  0.69843201  1.0
