# generated using pymatgen
data_KAgCO3
_symmetry_space_group_name_H-M   'P 1'
_cell_length_a   5.82071921
_cell_length_b   10.35748544
_cell_length_c   6.08527859
_cell_angle_alpha   90.00000000
_cell_angle_beta   90.00000000
_cell_angle_gamma   90.00000000
_symmetry_Int_Tables_number   1
_chemical_formula_structural   KAgCO3
_chemical_formula_sum   'K4 Ag4 C4 O12'
_cell_volume   366.86936364
_cell_formula_units_Z   4
loop_
 _symmetry_equiv_pos_site_id
 _symmetry_equiv_pos_as_xyz
  1  'x, y, z'
loop_
 _atom_site_type_symbol
 _atom_site_label
 _atom_site_symmetry_multiplicity
 _atom_site_fract_x
 _atom_site_fract_y
 _atom_site_fract_z
 _atom_site_occupancy
  K  K0  1  0.50000000  0.36071084  0.75000000  1.0
  K  K1  1  0.50000000  0.63928916  0.25000000  1.0
  K  K2  1  0.00000000  0.36071084  0.25000000  1.0
  K  K3  1  0.00000000  0.63928916  0.75000000  1.0
  Ag  Ag4  1  0.25000000  0.00000000  0.64262187  1.0
  Ag  Ag5  1  0.25000000  0.00000000  0.14262187  1.0
  Ag  Ag6  1  0.75000000  0.00000000  0.35737813  1.0
  Ag  Ag7  1  0.75000000  0.00000000  0.85737813  1.0
  C  C8  1  0.50000000  0.74506020  0.75000000  1.0
  C  C9  1  0.50000000  0.25493980  0.25000000  1.0
  C  C10  1  0.00000000  0.74506020  0.25000000  1.0
  C  C11  1  0.00000000  0.25493980  0.75000000  1.0
  O  O12  1  0.35328928  0.80508156  0.62374423  1.0
  O  O13  1  0.35328928  0.19491844  0.12374423  1.0
  O  O14  1  0.85328928  0.80508156  0.37625577  1.0
  O  O15  1  0.85328928  0.19491844  0.87625577  1.0
  O  O16  1  0.64671072  0.80508156  0.87625577  1.0
  O  O17  1  0.64671072  0.19491844  0.37625577  1.0
  O  O18  1  0.14671072  0.80508156  0.12374423  1.0
  O  O19  1  0.14671072  0.19491844  0.62374423  1.0
  O  O20  1  0.50000000  0.62115938  0.75000000  1.0
  O  O21  1  0.50000000  0.37884062  0.25000000  1.0
  O  O22  1  0.00000000  0.62115938  0.25000000  1.0
  O  O23  1  0.00000000  0.37884062  0.75000000  1.0
