# generated using pymatgen
data_TlCr5Se8
_symmetry_space_group_name_H-M   'P 1'
_cell_length_a   9.68178930
_cell_length_b   9.68178930
_cell_length_c   9.07493860
_cell_angle_alpha   74.89123172
_cell_angle_beta   105.10876828
_cell_angle_gamma   158.10707970
_symmetry_Int_Tables_number   1
_chemical_formula_structural   TlCr5Se8
_chemical_formula_sum   'Tl1 Cr5 Se8'
_cell_volume   305.80540811
_cell_formula_units_Z   1
loop_
 _symmetry_equiv_pos_site_id
 _symmetry_equiv_pos_as_xyz
  1  'x, y, z'
loop_
 _atom_site_type_symbol
 _atom_site_label
 _atom_site_symmetry_multiplicity
 _atom_site_fract_x
 _atom_site_fract_y
 _atom_site_fract_z
 _atom_site_occupancy
  Cr  Cr0  1  0.65763109  -0.65763109  0.47449241  1.0
  Cr  Cr1  1  1.34236891  -0.34236891  0.52550759  1.0
  Cr  Cr2  1  0.00000000  -0.00000000  0.50000000  1.0
  Cr  Cr3  1  0.70433233  -0.70433233  0.83332150  1.0
  Cr  Cr4  1  1.29566767  -0.29566767  0.16667850  1.0
  Se  Se5  1  0.76175074  -0.76175074  0.34458002  1.0
  Se  Se6  1  1.23824926  -0.23824926  0.65541998  1.0
  Se  Se7  1  0.82931136  -0.82931136  0.01144568  1.0
  Se  Se8  1  1.17068864  -0.17068864  0.98855432  1.0
  Se  Se9  1  0.91631985  -0.91631985  0.67669447  1.0
  Se  Se10  1  1.08368015  -0.08368015  0.32330553  1.0
  Se  Se11  1  0.57587661  -0.57587661  0.65206126  1.0
  Se  Se12  1  1.42412339  -0.42412339  0.34793874  1.0
  Tl  Tl13  1  0.50000000  0.50000000  0.00000000  1.0
