# generated using pymatgen
data_Lu2(Al3Ir)3
_symmetry_space_group_name_H-M   'P 1'
_cell_length_a   7.51112437
_cell_length_b   7.51112437
_cell_length_c   9.40388882
_cell_angle_alpha   90.00000000
_cell_angle_beta   90.00000000
_cell_angle_gamma   60.48266644
_symmetry_Int_Tables_number   1
_chemical_formula_structural   Lu2(Al3Ir)3
_chemical_formula_sum   'Lu4 Al18 Ir6'
_cell_volume   461.67866604
_cell_formula_units_Z   2
loop_
 _symmetry_equiv_pos_site_id
 _symmetry_equiv_pos_as_xyz
  1  'x, y, z'
loop_
 _atom_site_type_symbol
 _atom_site_label
 _atom_site_symmetry_multiplicity
 _atom_site_fract_x
 _atom_site_fract_y
 _atom_site_fract_z
 _atom_site_occupancy
  Lu  Lu0  1  -0.00503669  1.32750603  0.25000000  1.0
  Lu  Lu1  1  0.32750603  0.99496331  0.75000000  1.0
  Lu  Lu2  1  -0.32750603  1.00503669  0.25000000  1.0
  Lu  Lu3  1  0.00503669  0.67249397  0.75000000  1.0
  Al  Al4  1  0.00041424  0.66443934  0.42407845  1.0
  Al  Al5  1  0.00041424  0.66443934  0.07592155  1.0
  Al  Al6  1  -0.33556066  1.00041424  0.92407845  1.0
  Al  Al7  1  -0.33556066  1.00041424  0.57592155  1.0
  Al  Al8  1  0.33556066  0.99958576  0.42407845  1.0
  Al  Al9  1  0.33556066  0.99958576  0.07592155  1.0
  Al  Al10  1  -0.00041424  1.33556066  0.92407845  1.0
  Al  Al11  1  -0.00041424  1.33556066  0.57592155  1.0
  Al  Al12  1  0.33993189  0.44986593  0.25000000  1.0
  Al  Al13  1  -0.55013407  1.33993189  0.75000000  1.0
  Al  Al14  1  0.55013407  0.66006811  0.25000000  1.0
  Al  Al15  1  -0.33993189  1.55013407  0.75000000  1.0
  Al  Al16  1  0.33268341  0.66731659  0.94588131  1.0
  Al  Al17  1  0.33268341  0.66731659  0.55411869  1.0
  Al  Al18  1  -0.33268341  1.33268341  0.44588131  1.0
  Al  Al19  1  -0.33268341  1.33268341  0.05411869  1.0
  Al  Al20  1  0.12885582  0.87114418  0.25000000  1.0
  Al  Al21  1  -0.12885582  1.12885582  0.75000000  1.0
  Ir  Ir22  1  0.67228613  0.67228613  0.50000000  1.0
  Ir  Ir23  1  0.67228613  0.67228613  0.00000000  1.0
  Ir  Ir24  1  0.32771387  0.32771387  0.50000000  1.0
  Ir  Ir25  1  0.32771387  0.32771387  0.00000000  1.0
  Ir  Ir26  1  0.00000000  -0.00000000  0.50000000  1.0
  Ir  Ir27  1  -0.00000000  0.00000000  0.00000000  1.0
