# generated using pymatgen
data_Ni3Sn
_symmetry_space_group_name_H-M   'P 1'
_cell_length_a   5.29979771
_cell_length_b   5.29979771
_cell_length_c   8.57047787
_cell_angle_alpha   90.00000000
_cell_angle_beta   90.00000000
_cell_angle_gamma   120.00000000
_symmetry_Int_Tables_number   1
_chemical_formula_structural   Ni3Sn
_chemical_formula_sum   'Ni12 Sn4'
_cell_volume   208.47513097
_cell_formula_units_Z   4
loop_
 _symmetry_equiv_pos_site_id
 _symmetry_equiv_pos_as_xyz
  1  'x, y, z'
loop_
 _atom_site_type_symbol
 _atom_site_label
 _atom_site_symmetry_multiplicity
 _atom_site_fract_x
 _atom_site_fract_y
 _atom_site_fract_z
 _atom_site_occupancy
  Ni  Ni0  1  0.50000000  0.50000000  0.50000000  1.0
  Ni  Ni1  1  0.50000000  0.00000000  0.50000000  1.0
  Ni  Ni2  1  -0.00000000  0.50000000  0.50000000  1.0
  Ni  Ni3  1  0.50000000  0.50000000  0.00000000  1.0
  Ni  Ni4  1  0.50000000  0.00000000  0.00000000  1.0
  Ni  Ni5  1  -0.00000000  0.50000000  0.00000000  1.0
  Ni  Ni6  1  0.17630769  0.82369231  0.25000000  1.0
  Ni  Ni7  1  0.17630769  0.35261537  0.25000000  1.0
  Ni  Ni8  1  0.64738463  0.82369231  0.25000000  1.0
  Ni  Ni9  1  0.82369231  0.17630769  0.75000000  1.0
  Ni  Ni10  1  0.82369231  0.64738463  0.75000000  1.0
  Ni  Ni11  1  0.35261537  0.17630769  0.75000000  1.0
  Sn  Sn12  1  0.00000000  0.00000000  0.50000000  1.0
  Sn  Sn13  1  0.00000000  0.00000000  0.00000000  1.0
  Sn  Sn14  1  0.33333333  0.66666667  0.75000000  1.0
  Sn  Sn15  1  0.66666667  0.33333333  0.25000000  1.0
