# generated using pymatgen
data_H6PdN8
_symmetry_space_group_name_H-M   'P 1'
_cell_length_a   7.83349502
_cell_length_b   7.83349502
_cell_length_c   7.83349502
_cell_angle_alpha   99.73962055
_cell_angle_beta   99.73962055
_cell_angle_gamma   131.42645001
_symmetry_Int_Tables_number   1
_chemical_formula_structural   H6PdN8
_chemical_formula_sum   'H12 Pd2 N16'
_cell_volume   328.52716590
_cell_formula_units_Z   2
loop_
 _symmetry_equiv_pos_site_id
 _symmetry_equiv_pos_as_xyz
  1  'x, y, z'
loop_
 _atom_site_type_symbol
 _atom_site_label
 _atom_site_symmetry_multiplicity
 _atom_site_fract_x
 _atom_site_fract_y
 _atom_site_fract_z
 _atom_site_occupancy
  H  H0  1  0.76160589  1.48069958  1.24230547  1.0
  H  H1  1  1.23839411  0.51930042  0.75769453  1.0
  H  H2  1  0.48069958  0.23839411  0.71909369  1.0
  H  H3  1  0.51930042  0.76160589  1.28090631  1.0
  H  H4  1  0.82350038  1.48088149  1.04967247  1.0
  H  H5  1  1.43120903  0.77382792  0.95032753  1.0
  H  H6  1  0.48088149  0.43120903  0.65738111  1.0
  H  H7  1  0.77382792  0.82350038  1.34261889  1.0
  H  H8  1  1.17649962  0.51911851  0.95032753  1.0
  H  H9  1  0.56879097  1.22617208  1.04967247  1.0
  H  H10  1  1.51911851  1.56879097  1.34261889  1.0
  H  H11  1  1.22617208  1.17649962  0.65738111  1.0
  Pd  Pd12  1  0.00000000  0.00000000  0.00000000  1.0
  Pd  Pd13  1  0.50000000  0.50000000  0.00000000  1.0
  N  N14  1  0.80297020  0.94186891  1.74483911  1.0
  N  N15  1  0.19702980  0.05813109  0.25516089  1.0
  N  N16  1  0.94186891  1.19702980  1.13889872  1.0
  N  N17  1  1.05813109  0.80297020  0.86110128  1.0
  N  N18  1  0.71878005  0.02625789  0.74503794  1.0
  N  N19  1  0.28121995  0.97374211  1.25496206  1.0
  N  N20  1  1.02625789  1.28121995  1.30747785  1.0
  N  N21  1  0.97374211  0.71878005  0.69252215  1.0
  N  N22  1  0.63490276  0.10524559  0.74014835  1.0
  N  N23  1  0.36509724  0.89475441  1.25985165  1.0
  N  N24  1  1.10524559  1.36509724  1.47034282  1.0
  N  N25  1  0.89475441  0.63490276  0.52965718  1.0
  N  N26  1  0.68531115  1.41315489  1.09846605  1.0
  N  N27  1  1.31468885  0.58684511  0.90153395  1.0
  N  N28  1  0.41315489  0.31468885  0.72784374  1.0
  N  N29  1  0.58684511  0.68531115  1.27215626  1.0
