# generated using pymatgen
data_Cr2HgO4
_symmetry_space_group_name_H-M   'P 1'
_cell_length_a   6.19727658
_cell_length_b   6.19727658
_cell_length_c   6.19727658
_cell_angle_alpha   60.00000000
_cell_angle_beta   60.00000000
_cell_angle_gamma   60.00000000
_symmetry_Int_Tables_number   1
_chemical_formula_structural   Cr2HgO4
_chemical_formula_sum   'Cr4 Hg2 O8'
_cell_volume   168.30136533
_cell_formula_units_Z   2
loop_
 _symmetry_equiv_pos_site_id
 _symmetry_equiv_pos_as_xyz
  1  'x, y, z'
loop_
 _atom_site_type_symbol
 _atom_site_label
 _atom_site_symmetry_multiplicity
 _atom_site_fract_x
 _atom_site_fract_y
 _atom_site_fract_z
 _atom_site_occupancy
  Cr  Cr0  1  1.12500000  -0.37500000  0.62500000  1.0
  Cr  Cr1  1  0.62500000  1.12500000  -0.37500000  1.0
  Cr  Cr2  1  0.62500000  0.62500000  0.12500000  1.0
  Cr  Cr3  1  0.62500000  0.62500000  -0.37500000  1.0
  Hg  Hg4  1  0.25000000  0.25000000  0.25000000  1.0
  Hg  Hg5  1  -0.00000000  1.00000000  0.00000000  1.0
  O  O6  1  -0.18972173  0.39657391  0.39657391  1.0
  O  O7  1  0.39657391  0.81027827  0.39657391  1.0
  O  O8  1  0.39657391  1.39657391  -0.18972173  1.0
  O  O9  1  0.39657391  0.39657391  0.39657391  1.0
  O  O10  1  0.43972173  0.85342609  -0.14657391  1.0
  O  O11  1  0.85342609  -0.56027827  0.85342609  1.0
  O  O12  1  0.85342609  0.85342609  -0.56027827  1.0
  O  O13  1  0.85342609  -0.14657391  0.85342609  1.0
