# generated using pymatgen
data_SiO2
_symmetry_space_group_name_H-M   'P 1'
_cell_length_a   7.75529187
_cell_length_b   7.75529187
_cell_length_c   7.75529187
_cell_angle_alpha   106.75631664
_cell_angle_beta   106.75631664
_cell_angle_gamma   115.04919848
_symmetry_Int_Tables_number   1
_chemical_formula_structural   SiO2
_chemical_formula_sum   'Si8 O16'
_cell_volume   356.48723699
_cell_formula_units_Z   8
loop_
 _symmetry_equiv_pos_site_id
 _symmetry_equiv_pos_as_xyz
  1  'x, y, z'
loop_
 _atom_site_type_symbol
 _atom_site_label
 _atom_site_symmetry_multiplicity
 _atom_site_fract_x
 _atom_site_fract_y
 _atom_site_fract_z
 _atom_site_occupancy
  Si  Si0  1  1.24471676  0.88489911  0.76747079  1.0
  Si  Si1  1  1.11742831  1.47724597  1.23252921  1.0
  Si  Si2  1  0.88257169  1.11510089  0.35981766  1.0
  Si  Si3  1  1.75528324  1.52275403  1.64018234  1.0
  Si  Si4  1  1.52275403  1.75528324  1.64018234  1.0
  Si  Si5  1  1.11510089  0.88257169  0.35981766  1.0
  Si  Si6  1  0.88489911  1.24471676  0.76747079  1.0
  Si  Si7  1  1.47724597  1.11742831  1.23252921  1.0
  O  O8  1  1.08056205  0.37343515  1.00000000  1.0
  O  O9  1  0.37343515  1.08056205  1.00000000  1.0
  O  O10  1  0.62656485  0.62656485  0.70712689  1.0
  O  O11  1  0.91943795  0.91943795  0.29287311  1.0
  O  O12  1  -0.00000000  0.71509674  0.71509674  1.0
  O  O13  1  -0.00000000  0.28490326  0.28490326  1.0
  O  O14  1  0.71509674  -0.00000000  0.71509674  1.0
  O  O15  1  0.28490326  0.00000000  0.28490326  1.0
  O  O16  1  1.23952482  0.98555342  0.60913253  1.0
  O  O17  1  1.37642089  1.63039229  1.39086747  1.0
  O  O18  1  1.62357911  1.01444658  1.25397139  1.0
  O  O19  1  0.76047518  1.36960771  0.74602861  1.0
  O  O20  1  1.36960771  0.76047518  0.74602861  1.0
  O  O21  1  1.01444658  1.62357911  1.25397139  1.0
  O  O22  1  0.98555342  1.23952482  0.60913253  1.0
  O  O23  1  1.63039229  1.37642089  1.39086747  1.0
