# generated using pymatgen
data_Ge3(SbO3)4
_symmetry_space_group_name_H-M   'P 1'
_cell_length_a   9.27627816
_cell_length_b   9.27627816
_cell_length_c   9.27627816
_cell_angle_alpha   109.47122063
_cell_angle_beta   109.47122063
_cell_angle_gamma   109.47122063
_symmetry_Int_Tables_number   1
_chemical_formula_structural   Ge3(SbO3)4
_chemical_formula_sum   'Ge6 Sb8 O24'
_cell_volume   614.46817944
_cell_formula_units_Z   2
loop_
 _symmetry_equiv_pos_site_id
 _symmetry_equiv_pos_as_xyz
  1  'x, y, z'
loop_
 _atom_site_type_symbol
 _atom_site_label
 _atom_site_symmetry_multiplicity
 _atom_site_fract_x
 _atom_site_fract_y
 _atom_site_fract_z
 _atom_site_occupancy
  Ge  Ge0  1  1.12500000  0.87500000  1.25000000  1.0
  Ge  Ge1  1  0.37500000  0.62500000  0.75000000  1.0
  Ge  Ge2  1  0.25000000  1.12500000  0.87500000  1.0
  Ge  Ge3  1  0.75000000  1.37500000  0.62500000  1.0
  Ge  Ge4  1  0.62500000  0.75000000  0.37500000  1.0
  Ge  Ge5  1  0.87500000  0.25000000  1.12500000  1.0
  Sb  Sb6  1  1.30083204  1.30083204  1.30083204  1.0
  Sb  Sb7  1  1.50000000  1.00000000  1.19916796  1.0
  Sb  Sb8  1  0.80083204  0.80083204  0.80083204  1.0
  Sb  Sb9  1  0.50000000  1.00000000  0.69916796  1.0
  Sb  Sb10  1  1.00000000  1.19916796  1.50000000  1.0
  Sb  Sb11  1  1.19916796  0.50000000  1.00000000  1.0
  Sb  Sb12  1  1.00000000  0.69916796  1.50000000  1.0
  Sb  Sb13  1  0.69916796  1.50000000  1.00000000  1.0
  O  O14  1  1.29626388  1.14069144  1.08319790  1.0
  O  O15  1  1.55749353  1.21306597  1.41680210  1.0
  O  O16  1  0.64069144  0.79626388  0.58319790  1.0
  O  O17  1  0.71306597  1.05749353  0.91680210  1.0
  O  O18  1  1.08319790  1.29626388  1.14069144  1.0
  O  O19  1  0.65557244  0.94250647  0.35930856  1.0
  O  O20  1  0.79626388  0.58319790  0.64069144  1.0
  O  O21  1  0.44250647  1.15557244  0.85930856  1.0
  O  O22  1  1.14069144  1.08319790  1.29626388  1.0
  O  O23  1  1.28693403  0.84442756  1.20373612  1.0
  O  O24  1  0.58319790  0.64069144  0.79626388  1.0
  O  O25  1  0.34442756  0.78693403  0.70373612  1.0
  O  O26  1  0.94250647  1.35930856  0.65557244  1.0
  O  O27  1  1.20373612  1.28693403  1.84442756  1.0
  O  O28  1  0.78693403  0.70373612  0.34442756  1.0
  O  O29  1  0.85930856  0.44250647  1.15557244  1.0
  O  O30  1  1.84442756  1.20373612  1.28693403  1.0
  O  O31  1  0.41680210  0.55749353  0.21306597  1.0
  O  O32  1  1.05749353  0.91680210  1.71306597  1.0
  O  O33  1  0.70373612  1.34442756  0.78693403  1.0
  O  O34  1  1.21306597  1.41680210  1.55749353  1.0
  O  O35  1  0.35930856  0.65557244  0.94250647  1.0
  O  O36  1  1.15557244  0.85930856  1.44250647  1.0
  O  O37  1  0.91680210  1.71306597  1.05749353  1.0
