# generated using pymatgen
data_Li15H9N8
_symmetry_space_group_name_H-M   'P 1'
_cell_length_a   7.11196201
_cell_length_b   10.32651993
_cell_length_c   7.11780376
_cell_angle_alpha   90.00000000
_cell_angle_beta   91.39447342
_cell_angle_gamma   90.00000000
_symmetry_Int_Tables_number   1
_chemical_formula_structural   Li15H9N8
_chemical_formula_sum   'Li30 H18 N16'
_cell_volume   522.58962954
_cell_formula_units_Z   2
loop_
 _symmetry_equiv_pos_site_id
 _symmetry_equiv_pos_as_xyz
  1  'x, y, z'
loop_
 _atom_site_type_symbol
 _atom_site_label
 _atom_site_symmetry_multiplicity
 _atom_site_fract_x
 _atom_site_fract_y
 _atom_site_fract_z
 _atom_site_occupancy
  Li  Li0  1  0.62254177  0.38546232  0.23489407  1.0
  Li  Li1  1  0.62254177  0.61453768  0.73489407  1.0
  Li  Li2  1  0.17984333  0.85087128  0.75645692  1.0
  Li  Li3  1  0.17984333  0.14912872  0.25645692  1.0
  Li  Li4  1  0.63611725  0.89609406  0.29627584  1.0
  Li  Li5  1  0.63611725  0.10390594  0.79627584  1.0
  Li  Li6  1  0.12787400  0.38620530  0.76786683  1.0
  Li  Li7  1  0.12787400  0.61379470  0.26786683  1.0
  Li  Li8  1  0.62674945  0.11264969  0.21157422  1.0
  Li  Li9  1  0.62674945  0.88735031  0.71157422  1.0
  Li  Li10  1  0.13839733  0.61396029  0.72129603  1.0
  Li  Li11  1  0.13839733  0.38603971  0.22129603  1.0
  Li  Li12  1  0.88350599  0.24668936  0.28088945  1.0
  Li  Li13  1  0.88350599  0.75331064  0.78088945  1.0
  Li  Li14  1  0.89402784  0.12187931  0.00077426  1.0
  Li  Li15  1  0.89402784  0.87812069  0.50077426  1.0
  Li  Li16  1  0.31863278  0.40774338  0.49244298  1.0
  Li  Li17  1  0.31863278  0.59225662  0.99244298  1.0
  Li  Li18  1  0.86384016  0.89300979  0.01752029  1.0
  Li  Li19  1  0.86384016  0.10699021  0.51752029  1.0
  Li  Li20  1  0.38107937  0.63260027  0.50696492  1.0
  Li  Li21  1  0.38107937  0.36739973  0.00696492  1.0
  Li  Li22  1  0.87800529  0.36926381  0.99222676  1.0
  Li  Li23  1  0.87800529  0.63073619  0.49222676  1.0
  Li  Li24  1  0.43377267  0.08943958  0.50524776  1.0
  Li  Li25  1  0.43377267  0.91056042  0.00524776  1.0
  Li  Li26  1  0.92488660  0.59102422  0.00081271  1.0
  Li  Li27  1  0.92488660  0.40897578  0.50081271  1.0
  Li  Li28  1  0.37211410  0.86395531  0.49494924  1.0
  Li  Li29  1  0.37211410  0.13604469  0.99494924  1.0
  H  H30  1  0.77482038  0.54512250  0.23539900  1.0
  H  H31  1  0.77482038  0.45487750  0.73539900  1.0
  H  H32  1  0.27591534  0.04480812  0.73698438  1.0
  H  H33  1  0.27591534  0.95519188  0.23698438  1.0
  H  H34  1  0.47453130  0.56341955  0.24441346  1.0
  H  H35  1  0.47453130  0.43658045  0.74441346  1.0
  H  H36  1  0.00001745  0.01963280  0.75949682  1.0
  H  H37  1  0.00001745  0.98036720  0.25949682  1.0
  H  H38  1  0.11261892  0.20787764  0.88459680  1.0
  H  H39  1  0.11261892  0.79212236  0.38459680  1.0
  H  H40  1  0.65474345  0.29530763  0.58323691  1.0
  H  H41  1  0.65474345  0.70469237  0.08323691  1.0
  H  H42  1  0.15263784  0.79164817  0.07533447  1.0
  H  H43  1  0.15263784  0.20835183  0.57533447  1.0
  H  H44  1  0.63181504  0.70332768  0.38894180  1.0
  H  H45  1  0.63181504  0.29667232  0.88894180  1.0
  H  H46  1  0.50624269  0.26168783  0.41725379  1.0
  H  H47  1  0.50624269  0.73831217  0.91725379  1.0
  N  N48  1  0.39916428  0.00811911  0.25018048  1.0
  N  N49  1  0.39916428  0.99188089  0.75018048  1.0
  N  N50  1  0.89155128  0.51499655  0.74304341  1.0
  N  N51  1  0.89155128  0.48500345  0.24304341  1.0
  N  N52  1  0.86312604  0.01424455  0.25520936  1.0
  N  N53  1  0.86312604  0.98575545  0.75520936  1.0
  N  N54  1  0.36817274  0.50505604  0.74387301  1.0
  N  N55  1  0.36817274  0.49494396  0.24387301  1.0
  N  N56  1  0.63604296  0.24341612  0.01251742  1.0
  N  N57  1  0.63604296  0.75658388  0.51251742  1.0
  N  N58  1  0.11012915  0.27067182  0.46893273  1.0
  N  N59  1  0.11012915  0.72932818  0.96893273  1.0
  N  N60  1  0.63948088  0.76295924  0.96689160  1.0
  N  N61  1  0.63948088  0.23704076  0.46689160  1.0
  N  N62  1  0.12860232  0.74341055  0.51150229  1.0
  N  N63  1  0.12860232  0.25658945  0.01150229  1.0
