# generated using pymatgen
data_KLiYF5
_symmetry_space_group_name_H-M   'P 1'
_cell_length_a   6.55321309
_cell_length_b   11.90198608
_cell_length_c   6.37484608
_cell_angle_alpha   90.00000000
_cell_angle_beta   114.03888769
_cell_angle_gamma   90.00000000
_symmetry_Int_Tables_number   1
_chemical_formula_structural   KLiYF5
_chemical_formula_sum   'K4 Li4 Y4 F20'
_cell_volume   454.09031231
_cell_formula_units_Z   4
loop_
 _symmetry_equiv_pos_site_id
 _symmetry_equiv_pos_as_xyz
  1  'x, y, z'
loop_
 _atom_site_type_symbol
 _atom_site_label
 _atom_site_symmetry_multiplicity
 _atom_site_fract_x
 _atom_site_fract_y
 _atom_site_fract_z
 _atom_site_occupancy
  K  K0  1  0.94939061  0.84940562  0.46668160  1.0
  K  K1  1  0.94939061  0.65059438  0.96668160  1.0
  K  K2  1  0.05060939  0.34940562  0.03331840  1.0
  K  K3  1  0.05060939  0.15059438  0.53331840  1.0
  Li  Li4  1  0.55383859  0.24701900  0.46038261  1.0
  Li  Li5  1  0.55383859  0.25298100  0.96038261  1.0
  Li  Li6  1  0.44616141  0.74701900  0.03961739  1.0
  Li  Li7  1  0.44616141  0.75298100  0.53961739  1.0
  Y  Y8  1  0.68163501  0.49770059  0.32006118  1.0
  Y  Y9  1  0.68163501  0.00229941  0.82006118  1.0
  Y  Y10  1  0.31836499  0.99770059  0.17993882  1.0
  Y  Y11  1  0.31836499  0.50229941  0.67993882  1.0
  F  F12  1  0.95618793  0.00570915  0.17284322  1.0
  F  F13  1  0.95618793  0.49429085  0.67284322  1.0
  F  F14  1  0.04381207  0.50570915  0.32715678  1.0
  F  F15  1  0.04381207  0.99429085  0.82715678  1.0
  F  F16  1  0.71655915  0.30521896  0.27560783  1.0
  F  F17  1  0.71655915  0.19478104  0.77560783  1.0
  F  F18  1  0.28344085  0.80521896  0.22439217  1.0
  F  F19  1  0.28344085  0.69478104  0.72439217  1.0
  F  F20  1  0.66417305  0.02999304  0.45214560  1.0
  F  F21  1  0.66417305  0.47000696  0.95214560  1.0
  F  F22  1  0.33582695  0.52999304  0.04785440  1.0
  F  F23  1  0.33582695  0.97000696  0.54785440  1.0
  F  F24  1  0.46602204  0.39552870  0.46707899  1.0
  F  F25  1  0.46602204  0.10447130  0.96707899  1.0
  F  F26  1  0.53397796  0.89552870  0.03292101  1.0
  F  F27  1  0.53397796  0.60447130  0.53292101  1.0
  F  F28  1  0.28835537  0.17415796  0.27778793  1.0
  F  F29  1  0.28835537  0.32584204  0.77778793  1.0
  F  F30  1  0.71164463  0.67415796  0.22221207  1.0
  F  F31  1  0.71164463  0.82584204  0.72221207  1.0
