# generated using pymatgen
data_Rb2CdI4
_symmetry_space_group_name_H-M   'P 1'
_cell_length_a   8.40280000
_cell_length_b   8.51282929
_cell_length_c   10.25514443
_cell_angle_alpha   90.00000000
_cell_angle_beta   108.10405429
_cell_angle_gamma   90.00000000
_symmetry_Int_Tables_number   1
_chemical_formula_structural   Rb2CdI4
_chemical_formula_sum   'Rb4 Cd2 I8'
_cell_volume   697.25075948
_cell_formula_units_Z   2
loop_
 _symmetry_equiv_pos_site_id
 _symmetry_equiv_pos_as_xyz
  1  'x, y, z'
loop_
 _atom_site_type_symbol
 _atom_site_label
 _atom_site_symmetry_multiplicity
 _atom_site_fract_x
 _atom_site_fract_y
 _atom_site_fract_z
 _atom_site_occupancy
  Rb  Rb0  1  0.77741591  0.75000000  0.44411434  1.0
  Rb  Rb1  1  0.22258409  0.25000000  0.55588566  1.0
  Rb  Rb2  1  0.74831624  0.75000000  0.93652081  1.0
  Rb  Rb3  1  0.25168376  0.25000000  0.06347919  1.0
  Cd  Cd4  1  0.22724067  0.75000000  0.30245881  1.0
  Cd  Cd5  1  0.77275933  0.25000000  0.69754119  1.0
  I  I6  1  1.00041414  0.99408164  0.75784112  1.0
  I  I7  1  1.00041414  0.50591836  0.75784112  1.0
  I  I8  1  -0.00041414  0.49408164  0.24215888  1.0
  I  I9  1  -0.00041414  0.00591836  0.24215888  1.0
  I  I10  1  0.42062956  0.75000000  0.12213138  1.0
  I  I11  1  0.57937044  0.25000000  0.87786862  1.0
  I  I12  1  0.41354082  0.75000000  0.58261674  1.0
  I  I13  1  0.58645918  0.25000000  0.41738326  1.0
