# generated using pymatgen
data_K2Sn(AsS3)2
_symmetry_space_group_name_H-M   'P 1'
_cell_length_a   6.78543386
_cell_length_b   6.78543386
_cell_length_c   7.40086389
_cell_angle_alpha   90.00000000
_cell_angle_beta   90.00000000
_cell_angle_gamma   120.00000000
_symmetry_Int_Tables_number   1
_chemical_formula_structural   K2Sn(AsS3)2
_chemical_formula_sum   'K2 Sn1 As2 S6'
_cell_volume   295.09937684
_cell_formula_units_Z   1
loop_
 _symmetry_equiv_pos_site_id
 _symmetry_equiv_pos_as_xyz
  1  'x, y, z'
loop_
 _atom_site_type_symbol
 _atom_site_label
 _atom_site_symmetry_multiplicity
 _atom_site_fract_x
 _atom_site_fract_y
 _atom_site_fract_z
 _atom_site_occupancy
  K  K0  1  0.33333333  0.66666667  0.59847647  1.0
  K  K1  1  0.66666667  0.33333333  0.40152353  1.0
  Sn  Sn2  1  0.00000000  0.00000000  0.00000000  1.0
  As  As3  1  0.33333333  0.66666667  0.06384308  1.0
  As  As4  1  0.66666667  0.33333333  0.93615692  1.0
  S  S5  1  0.23347018  0.89456379  0.22044114  1.0
  S  S6  1  0.89456379  0.66109361  0.77955886  1.0
  S  S7  1  0.66109361  0.76652982  0.22044114  1.0
  S  S8  1  0.10543621  0.33890639  0.22044114  1.0
  S  S9  1  0.76652982  0.10543621  0.77955886  1.0
  S  S10  1  0.33890639  0.23347018  0.77955886  1.0
