# generated using pymatgen
data_TbC2
_symmetry_space_group_name_H-M   'P 1'
_cell_length_a   4.06081403
_cell_length_b   4.06081403
_cell_length_c   4.06081403
_cell_angle_alpha   125.97673526
_cell_angle_beta   125.97673526
_cell_angle_gamma   79.92638080
_symmetry_Int_Tables_number   1
_chemical_formula_structural   TbC2
_chemical_formula_sum   'Tb1 C2'
_cell_volume   42.34740111
_cell_formula_units_Z   1
loop_
 _symmetry_equiv_pos_site_id
 _symmetry_equiv_pos_as_xyz
  1  'x, y, z'
loop_
 _atom_site_type_symbol
 _atom_site_label
 _atom_site_symmetry_multiplicity
 _atom_site_fract_x
 _atom_site_fract_y
 _atom_site_fract_z
 _atom_site_occupancy
  Tb  Tb0  1  0.00000000  0.00000000  0.00000000  1.0
  C  C1  1  0.60455683  0.60455683  1.00000000  1.0
  C  C2  1  0.39544317  0.39544317  -0.00000000  1.0
