# generated using pymatgen
data_V4P2C
_symmetry_space_group_name_H-M   'P 1'
_cell_length_a   9.53633936
_cell_length_b   9.53633937
_cell_length_c   3.15576445
_cell_angle_alpha   90.00000000
_cell_angle_beta   90.00000000
_cell_angle_gamma   120.00000000
_symmetry_Int_Tables_number   1
_chemical_formula_structural   V4P2C
_chemical_formula_sum   'V12 P6 C3'
_cell_volume   248.54132307
_cell_formula_units_Z   3
loop_
 _symmetry_equiv_pos_site_id
 _symmetry_equiv_pos_as_xyz
  1  'x, y, z'
loop_
 _atom_site_type_symbol
 _atom_site_label
 _atom_site_symmetry_multiplicity
 _atom_site_fract_x
 _atom_site_fract_y
 _atom_site_fract_z
 _atom_site_occupancy
  V  V0  1  0.20832805  0.75644049  0.00000000  1.0
  V  V1  1  0.75644049  0.20832805  0.00000000  1.0
  V  V2  1  0.54811244  0.79167195  0.00000000  1.0
  V  V3  1  0.24355951  0.45188756  0.00000000  1.0
  V  V4  1  0.79167195  0.54811244  0.00000000  1.0
  V  V5  1  0.45188756  0.24355951  0.00000000  1.0
  V  V6  1  0.81351857  0.81351857  0.50000000  1.0
  V  V7  1  -0.00000000  0.18648143  0.50000000  1.0
  V  V8  1  0.18648143  0.00000000  0.50000000  1.0
  V  V9  1  0.53404319  0.53404319  0.50000000  1.0
  V  V10  1  -0.00000000  0.46595681  0.50000000  1.0
  V  V11  1  0.46595681  0.00000000  0.50000000  1.0
  P  P12  1  0.28236815  0.28236815  0.50000000  1.0
  P  P13  1  -0.00000000  0.71763185  0.50000000  1.0
  P  P14  1  0.71763185  0.00000000  0.50000000  1.0
  P  P15  1  0.33333333  0.66666667  0.50000000  1.0
  P  P16  1  0.66666667  0.33333333  0.50000000  1.0
  P  P17  1  0.00000000  0.00000000  0.00000000  1.0
  C  C18  1  0.66935724  0.66935724  0.00000000  1.0
  C  C19  1  0.00000000  0.33064276  0.00000000  1.0
  C  C20  1  0.33064276  0.00000000  0.00000000  1.0
