# generated using pymatgen
data_GaFe
_symmetry_space_group_name_H-M   'P 1'
_cell_length_a   7.65590218
_cell_length_b   7.65590218
_cell_length_c   7.65590218
_cell_angle_alpha   109.30250446
_cell_angle_beta   109.30250446
_cell_angle_gamma   109.30250446
_symmetry_Int_Tables_number   1
_chemical_formula_structural   GaFe
_chemical_formula_sum   'Ga13 Fe13'
_cell_volume   347.57674980
_cell_formula_units_Z   13
loop_
 _symmetry_equiv_pos_site_id
 _symmetry_equiv_pos_as_xyz
  1  'x, y, z'
loop_
 _atom_site_type_symbol
 _atom_site_label
 _atom_site_symmetry_multiplicity
 _atom_site_fract_x
 _atom_site_fract_y
 _atom_site_fract_z
 _atom_site_occupancy
  Ga  Ga0  1  1.04077962  0.04077962  -0.30695029  1.0
  Ga  Ga1  1  1.04077962  -0.30695029  0.04077962  1.0
  Ga  Ga2  1  1.30695029  0.95922038  -0.04077962  1.0
  Ga  Ga3  1  0.95922038  1.30695029  -0.04077962  1.0
  Ga  Ga4  1  0.95922038  0.95922038  0.30695029  1.0
  Ga  Ga5  1  0.69304971  0.04077962  0.04077962  1.0
  Ga  Ga6  1  0.61176703  1.00000000  -0.61176703  1.0
  Ga  Ga7  1  0.61176703  0.38823297  -0.00000000  1.0
  Ga  Ga8  1  1.00000000  0.61176703  -0.61176703  1.0
  Ga  Ga9  1  1.00000000  0.38823297  -0.38823297  1.0
  Ga  Ga10  1  0.38823297  1.00000000  -0.38823297  1.0
  Ga  Ga11  1  0.38823297  0.61176703  0.00000000  1.0
  Ga  Ga12  1  0.50000000  0.50000000  0.50000000  1.0
  Fe  Fe13  1  1.30044512  0.30044512  -0.35107557  1.0
  Fe  Fe14  1  1.30044512  -0.35107557  0.30044512  1.0
  Fe  Fe15  1  1.35107557  0.69955488  -0.30044512  1.0
  Fe  Fe16  1  0.69955488  1.35107557  -0.30044512  1.0
  Fe  Fe17  1  0.69955488  0.69955488  0.35107557  1.0
  Fe  Fe18  1  0.64892443  0.30044512  0.30044512  1.0
  Fe  Fe19  1  0.32320554  0.32320554  0.10412129  1.0
  Fe  Fe20  1  0.32320554  1.10412129  -0.67679446  1.0
  Fe  Fe21  1  0.89587871  0.67679446  0.67679446  1.0
  Fe  Fe22  1  1.67679446  -0.10412129  0.67679446  1.0
  Fe  Fe23  1  1.67679446  0.67679446  -0.10412129  1.0
  Fe  Fe24  1  1.10412129  0.32320554  -0.67679446  1.0
  Fe  Fe25  1  0.00000000  0.00000000  0.00000000  1.0
