# generated using pymatgen
data_CaBPdN
_symmetry_space_group_name_H-M   'P 1'
_cell_length_a   3.79546286
_cell_length_b   3.79546286
_cell_length_c   7.60142580
_cell_angle_alpha   90.00000000
_cell_angle_beta   90.00000000
_cell_angle_gamma   90.00000000
_symmetry_Int_Tables_number   1
_chemical_formula_structural   CaBPdN
_chemical_formula_sum   'Ca2 B2 Pd2 N2'
_cell_volume   109.50263062
_cell_formula_units_Z   2
loop_
 _symmetry_equiv_pos_site_id
 _symmetry_equiv_pos_as_xyz
  1  'x, y, z'
loop_
 _atom_site_type_symbol
 _atom_site_label
 _atom_site_symmetry_multiplicity
 _atom_site_fract_x
 _atom_site_fract_y
 _atom_site_fract_z
 _atom_site_occupancy
  Ca  Ca0  1  0.50000000  0.00000000  0.65950120  1.0
  Ca  Ca1  1  0.00000000  0.50000000  0.34049880  1.0
  B  B2  1  0.50000000  0.00000000  0.16671150  1.0
  B  B3  1  0.00000000  0.50000000  0.83328850  1.0
  Pd  Pd4  1  0.00000000  0.00000000  0.00000000  1.0
  Pd  Pd5  1  0.50000000  0.50000000  0.00000000  1.0
  N  N6  1  0.50000000  0.00000000  0.34624174  1.0
  N  N7  1  0.00000000  0.50000000  0.65375826  1.0
