# generated using pymatgen
data_BaGaF5
_symmetry_space_group_name_H-M   'P 1'
_cell_length_a   5.23387959
_cell_length_b   5.72986514
_cell_length_c   14.18115537
_cell_angle_alpha   90.00000000
_cell_angle_beta   90.00000000
_cell_angle_gamma   90.00000000
_symmetry_Int_Tables_number   1
_chemical_formula_structural   BaGaF5
_chemical_formula_sum   'Ba4 Ga4 F20'
_cell_volume   425.28468469
_cell_formula_units_Z   4
loop_
 _symmetry_equiv_pos_site_id
 _symmetry_equiv_pos_as_xyz
  1  'x, y, z'
loop_
 _atom_site_type_symbol
 _atom_site_label
 _atom_site_symmetry_multiplicity
 _atom_site_fract_x
 _atom_site_fract_y
 _atom_site_fract_z
 _atom_site_occupancy
  Ba  Ba0  1  0.73554420  0.65686533  0.65467143  1.0
  Ba  Ba1  1  0.23554420  0.84313467  0.34532857  1.0
  Ba  Ba2  1  0.26445580  0.15686533  0.84532857  1.0
  Ba  Ba3  1  0.76445580  0.34313467  0.15467143  1.0
  Ga  Ga4  1  0.19630393  0.84959005  0.08826579  1.0
  Ga  Ga5  1  0.69630393  0.65040995  0.91173421  1.0
  Ga  Ga6  1  0.80369607  0.34959005  0.41173421  1.0
  Ga  Ga7  1  0.30369607  0.15040995  0.58826579  1.0
  F  F8  1  0.18741845  0.42671982  0.64505441  1.0
  F  F9  1  0.68741845  0.07328018  0.35494559  1.0
  F  F10  1  0.81258155  0.92671982  0.85494559  1.0
  F  F11  1  0.31258155  0.57328018  0.14505441  1.0
  F  F12  1  0.46639253  0.84952255  0.99160853  1.0
  F  F13  1  0.96639253  0.65047745  0.00839147  1.0
  F  F14  1  0.53360747  0.34952255  0.50839147  1.0
  F  F15  1  0.03360747  0.15047745  0.49160853  1.0
  F  F16  1  0.42747154  0.64444522  0.81916233  1.0
  F  F17  1  0.92747154  0.85555478  0.18083767  1.0
  F  F18  1  0.57252846  0.14444522  0.68083767  1.0
  F  F19  1  0.07252846  0.35555478  0.31916233  1.0
  F  F20  1  0.43473781  0.88519981  0.52687044  1.0
  F  F21  1  0.93473781  0.61480019  0.47312956  1.0
  F  F22  1  0.56526219  0.38519981  0.97312956  1.0
  F  F23  1  0.06526219  0.11480019  0.02687044  1.0
  F  F24  1  0.10804051  0.96454691  0.67322376  1.0
  F  F25  1  0.60804051  0.53545309  0.32677624  1.0
  F  F26  1  0.89195949  0.46454691  0.82677624  1.0
  F  F27  1  0.39195949  0.03545309  0.17322376  1.0
