# generated using pymatgen
data_Hg3PO4
_symmetry_space_group_name_H-M   'P 1'
_cell_length_a   8.06694686
_cell_length_b   8.34968293
_cell_length_c   10.26383393
_cell_angle_alpha   90.00000000
_cell_angle_beta   118.22038236
_cell_angle_gamma   90.00000000
_symmetry_Int_Tables_number   1
_chemical_formula_structural   Hg3PO4
_chemical_formula_sum   'Hg12 P4 O16'
_cell_volume   609.16002051
_cell_formula_units_Z   4
loop_
 _symmetry_equiv_pos_site_id
 _symmetry_equiv_pos_as_xyz
  1  'x, y, z'
loop_
 _atom_site_type_symbol
 _atom_site_label
 _atom_site_symmetry_multiplicity
 _atom_site_fract_x
 _atom_site_fract_y
 _atom_site_fract_z
 _atom_site_occupancy
  Hg  Hg0  1  0.88060562  0.38378815  0.46293626  1.0
  Hg  Hg1  1  0.88060562  0.11621185  0.96293626  1.0
  Hg  Hg2  1  0.11939438  0.88378815  0.03706374  1.0
  Hg  Hg3  1  0.11939438  0.61621185  0.53706374  1.0
  Hg  Hg4  1  0.44807804  0.23067103  0.44001477  1.0
  Hg  Hg5  1  0.44807804  0.26932897  0.94001477  1.0
  Hg  Hg6  1  0.55192196  0.73067103  0.05998523  1.0
  Hg  Hg7  1  0.55192196  0.76932897  0.55998523  1.0
  Hg  Hg8  1  0.15692488  0.06002202  0.38652052  1.0
  Hg  Hg9  1  0.15692488  0.43997798  0.88652052  1.0
  Hg  Hg10  1  0.84307512  0.56002202  0.11347948  1.0
  Hg  Hg11  1  0.84307512  0.93997798  0.61347948  1.0
  P  P12  1  0.71199738  0.06687870  0.24633516  1.0
  P  P13  1  0.71199738  0.43312130  0.74633516  1.0
  P  P14  1  0.28800262  0.56687870  0.25366484  1.0
  P  P15  1  0.28800262  0.93312130  0.75366484  1.0
  O  O16  1  0.88668422  0.95041820  0.31686477  1.0
  O  O17  1  0.88668422  0.54958180  0.81686477  1.0
  O  O18  1  0.11331578  0.45041820  0.18313523  1.0
  O  O19  1  0.11331578  0.04958180  0.68313523  1.0
  O  O20  1  0.73436498  0.18370747  0.13621334  1.0
  O  O21  1  0.73436498  0.31629253  0.63621334  1.0
  O  O22  1  0.26563502  0.68370747  0.36378666  1.0
  O  O23  1  0.26563502  0.81629253  0.86378666  1.0
  O  O24  1  0.71152554  0.16966653  0.37727164  1.0
  O  O25  1  0.71152554  0.33033347  0.87727164  1.0
  O  O26  1  0.28847446  0.66966653  0.12272836  1.0
  O  O27  1  0.28847446  0.83033347  0.62272836  1.0
  O  O28  1  0.47112169  0.46837337  0.32504319  1.0
  O  O29  1  0.47112169  0.03162663  0.82504319  1.0
  O  O30  1  0.52887831  0.96837337  0.17495681  1.0
  O  O31  1  0.52887831  0.53162663  0.67495681  1.0
