# generated using pymatgen
data_RbSi2O5
_symmetry_space_group_name_H-M   'P 1'
_cell_length_a   12.10858183
_cell_length_b   8.28864904
_cell_length_c   4.95917154
_cell_angle_alpha   90.00000000
_cell_angle_beta   90.00000000
_cell_angle_gamma   90.00000000
_symmetry_Int_Tables_number   1
_chemical_formula_structural   RbSi2O5
_chemical_formula_sum   'Rb4 Si8 O20'
_cell_volume   497.72122651
_cell_formula_units_Z   4
loop_
 _symmetry_equiv_pos_site_id
 _symmetry_equiv_pos_as_xyz
  1  'x, y, z'
loop_
 _atom_site_type_symbol
 _atom_site_label
 _atom_site_symmetry_multiplicity
 _atom_site_fract_x
 _atom_site_fract_y
 _atom_site_fract_z
 _atom_site_occupancy
  O  O0  1  0.71375467  0.46769312  0.22147225  1.0
  O  O1  1  0.71375467  0.03230688  0.22147225  1.0
  O  O2  1  0.21375467  0.46769312  0.27852775  1.0
  O  O3  1  0.21375467  0.03230688  0.27852775  1.0
  O  O4  1  0.28624533  0.96769312  0.77852775  1.0
  O  O5  1  0.28624533  0.53230688  0.77852775  1.0
  O  O6  1  0.78624533  0.96769312  0.72147225  1.0
  O  O7  1  0.78624533  0.53230688  0.72147225  1.0
  O  O8  1  0.32906170  0.25000000  0.55544482  1.0
  O  O9  1  0.82906170  0.25000000  0.94455518  1.0
  O  O10  1  0.67093830  0.75000000  0.44455518  1.0
  O  O11  1  0.17093830  0.75000000  0.05544482  1.0
  O  O12  1  0.92732980  0.52165059  0.14670774  1.0
  O  O13  1  0.92732980  -0.02165059  0.14670774  1.0
  O  O14  1  0.42732980  0.52165059  0.35329226  1.0
  O  O15  1  0.42732980  -0.02165059  0.35329226  1.0
  O  O16  1  0.07267020  1.02165059  0.85329226  1.0
  O  O17  1  0.07267020  0.47834941  0.85329226  1.0
  O  O18  1  0.57267020  1.02165059  0.64670774  1.0
  O  O19  1  0.57267020  0.47834941  0.64670774  1.0
  Rb  Rb20  1  0.52547031  0.25000000  0.06124502  1.0
  Rb  Rb21  1  0.02547031  0.25000000  0.43875498  1.0
  Rb  Rb22  1  0.47452969  0.75000000  0.93875498  1.0
  Rb  Rb23  1  0.97452969  0.75000000  0.56124502  1.0
  Si  Si24  1  0.81807803  0.44418010  0.00929473  1.0
  Si  Si25  1  0.81807803  0.05581990  0.00929473  1.0
  Si  Si26  1  0.31807803  0.44418010  0.49070527  1.0
  Si  Si27  1  0.31807803  0.05581990  0.49070527  1.0
  Si  Si28  1  0.18192197  0.94418010  0.99070527  1.0
  Si  Si29  1  0.18192197  0.55581990  0.99070527  1.0
  Si  Si30  1  0.68192197  0.94418010  0.50929473  1.0
  Si  Si31  1  0.68192197  0.55581990  0.50929473  1.0
