# generated using pymatgen
data_TeSeO4
_symmetry_space_group_name_H-M   'P 1'
_cell_length_a   6.89644551
_cell_length_b   4.49399753
_cell_length_c   7.71980575
_cell_angle_alpha   106.92747734
_cell_angle_beta   116.53162769
_cell_angle_gamma   89.98722524
_symmetry_Int_Tables_number   1
_chemical_formula_structural   TeSeO4
_chemical_formula_sum   'Te2 Se2 O8'
_cell_volume   202.41611884
_cell_formula_units_Z   2
loop_
 _symmetry_equiv_pos_site_id
 _symmetry_equiv_pos_as_xyz
  1  'x, y, z'
loop_
 _atom_site_type_symbol
 _atom_site_label
 _atom_site_symmetry_multiplicity
 _atom_site_fract_x
 _atom_site_fract_y
 _atom_site_fract_z
 _atom_site_occupancy
  Te  Te0  1  -0.00142923  -0.01639589  -0.00193226  1.0
  Te  Te1  1  0.78018003  0.26525964  0.56135017  1.0
  Se  Se2  1  0.51490037  -0.23806090  0.03071351  1.0
  Se  Se3  1  0.26388950  0.01094515  0.52870723  1.0
  O  O4  1  0.31450809  0.00849585  -0.00050877  1.0
  O  O5  1  0.68402428  1.00844275  0.99950987  1.0
  O  O6  1  0.09462333  0.28864473  0.55978409  1.0
  O  O7  1  0.46425715  0.28871773  0.56002672  1.0
  O  O8  1  0.93966581  0.51820109  0.88020754  1.0
  O  O9  1  0.13513255  -0.18904592  0.27090101  1.0
  O  O10  1  0.64379759  -0.18022444  0.28852393  1.0
  O  O11  1  0.83915054  -0.08227979  0.67921695  1.0
