# generated using pymatgen
data_CuP2H8CN2O5
_symmetry_space_group_name_H-M   'P 1'
_cell_length_a   7.76563853
_cell_length_b   7.76563853
_cell_length_c   8.44790199
_cell_angle_alpha   80.50941388
_cell_angle_beta   99.49058612
_cell_angle_gamma   122.55978326
_symmetry_Int_Tables_number   1
_chemical_formula_structural   CuP2H8CN2O5
_chemical_formula_sum   'Cu2 P4 H16 C2 N4 O10'
_cell_volume   421.72397057
_cell_formula_units_Z   2
loop_
 _symmetry_equiv_pos_site_id
 _symmetry_equiv_pos_as_xyz
  1  'x, y, z'
loop_
 _atom_site_type_symbol
 _atom_site_label
 _atom_site_symmetry_multiplicity
 _atom_site_fract_x
 _atom_site_fract_y
 _atom_site_fract_z
 _atom_site_occupancy
  Cu  Cu0  1  1.00000000  0.00000000  0.00000000  1.0
  Cu  Cu1  1  1.00000000  -0.00000000  0.50000000  1.0
  P  P2  1  1.27468876  -0.04290615  0.79767031  1.0
  P  P3  1  1.04290615  -0.27468876  0.29767031  1.0
  P  P4  1  0.95709385  0.27468876  0.70232969  1.0
  P  P5  1  0.72531124  0.04290615  0.20232969  1.0
  H  H6  1  1.54648375  -0.25913506  0.53950129  1.0
  H  H7  1  1.25913506  -0.54648375  0.03950129  1.0
  H  H8  1  0.74086494  0.54648375  0.96049871  1.0
  H  H9  1  0.45351625  0.25913506  0.46049871  1.0
  H  H10  1  0.74482206  0.13028455  0.67229989  1.0
  H  H11  1  0.86971545  0.25517794  0.17229989  1.0
  H  H12  1  1.13028455  -0.25517794  0.82770011  1.0
  H  H13  1  1.25517794  -0.13028455  0.32770011  1.0
  H  H14  1  1.46878887  -0.02463013  0.82969394  1.0
  H  H15  1  1.02463013  -0.46878887  0.32969394  1.0
  H  H16  1  0.97536987  0.46878887  0.67030606  1.0
  H  H17  1  0.53121113  0.02463013  0.17030606  1.0
  H  H18  1  0.49312548  0.37623421  0.87792325  1.0
  H  H19  1  0.62376579  0.50687452  0.37792325  1.0
  H  H20  1  1.37623421  -0.50687452  0.62207675  1.0
  H  H21  1  1.50687452  -0.37623421  0.12207675  1.0
  C  C22  1  0.66203743  0.66203743  0.75000000  1.0
  C  C23  1  0.33796257  0.33796257  0.25000000  1.0
  N  N24  1  1.50588873  -0.36594771  0.63665427  1.0
  N  N25  1  1.36594771  -0.50588873  0.13665427  1.0
  N  N26  1  0.63405229  0.50588873  0.86334573  1.0
  N  N27  1  0.49411127  0.36594771  0.36334573  1.0
  O  O28  1  1.74258594  -0.02675444  0.38264214  1.0
  O  O29  1  1.02675444  -0.74258594  0.88264214  1.0
  O  O30  1  0.97324556  0.74258594  0.11735786  1.0
  O  O31  1  0.25741406  0.02675444  0.61735786  1.0
  O  O32  1  0.26525208  0.07552614  0.92200058  1.0
  O  O33  1  0.92447386  0.73474792  0.42200058  1.0
  O  O34  1  1.07552614  -0.73474792  0.57799942  1.0
  O  O35  1  1.73474792  -0.07552614  0.07799942  1.0
  O  O36  1  0.83206762  0.83206762  0.75000000  1.0
  O  O37  1  0.16793238  0.16793238  0.25000000  1.0
