# generated using pymatgen
data_Sr4Ti5(Si2O11)2
_symmetry_space_group_name_H-M   'P 1'
_cell_length_a   7.62228795
_cell_length_b   7.62228795
_cell_length_c   11.98041343
_cell_angle_alpha   67.44880236
_cell_angle_beta   112.55119764
_cell_angle_gamma   136.30443579
_symmetry_Int_Tables_number   1
_chemical_formula_structural   Sr4Ti5(Si2O11)2
_chemical_formula_sum   'Sr4 Ti5 Si4 O22'
_cell_volume   437.88639384
_cell_formula_units_Z   1
loop_
 _symmetry_equiv_pos_site_id
 _symmetry_equiv_pos_as_xyz
  1  'x, y, z'
loop_
 _atom_site_type_symbol
 _atom_site_label
 _atom_site_symmetry_multiplicity
 _atom_site_fract_x
 _atom_site_fract_y
 _atom_site_fract_z
 _atom_site_occupancy
  Sr  Sr0  1  1.23481208  -0.23481208  0.26772889  1.0
  Sr  Sr1  1  0.76518792  0.23481208  0.73227111  1.0
  Sr  Sr2  1  0.95358653  -0.95358653  0.25914576  1.0
  Sr  Sr3  1  0.04641347  -0.04641347  0.74085424  1.0
  Ti  Ti4  1  0.50000000  0.50000000  0.50000000  1.0
  Ti  Ti5  1  0.24216739  0.24216739  0.00000000  1.0
  Ti  Ti6  1  0.75783261  0.75783261  -0.00000000  1.0
  Ti  Ti7  1  0.72466219  0.27533781  0.99879881  1.0
  Ti  Ti8  1  1.27533781  -0.27533781  0.00120119  1.0
  Si  Si9  1  0.59506922  0.40493078  0.27102396  1.0
  Si  Si10  1  1.40493078  -0.40493078  0.72897604  1.0
  Si  Si11  1  0.15651973  -0.15651973  0.54662704  1.0
  Si  Si12  1  0.84348027  -0.84348027  0.45337296  1.0
  O  O13  1  1.20119705  -0.67121253  0.81777317  1.0
  O  O14  1  1.67121253  -0.20119705  0.81777317  1.0
  O  O15  1  0.79880295  0.67121253  0.18222683  1.0
  O  O16  1  0.32878747  0.20119705  0.18222683  1.0
  O  O17  1  0.95833465  0.54107254  0.88244751  1.0
  O  O18  1  0.45892746  0.04166535  0.88244751  1.0
  O  O19  1  1.04166535  -0.54107254  0.11755249  1.0
  O  O20  1  1.54107254  -0.04166535  0.11755249  1.0
  O  O21  1  0.86548636  0.65476373  0.58266215  1.0
  O  O22  1  0.34523627  0.13451364  0.58266215  1.0
  O  O23  1  1.13451364  -0.65476373  0.41733785  1.0
  O  O24  1  1.65476373  -0.13451364  0.41733785  1.0
  O  O25  1  0.90905806  -0.90905806  0.00120693  1.0
  O  O26  1  0.09094194  -0.09094194  0.99879307  1.0
  O  O27  1  0.59469085  -0.59469085  -0.00004005  1.0
  O  O28  1  0.40530915  -0.40530915  1.00004005  1.0
  O  O29  1  0.53177654  0.46822346  0.35809237  1.0
  O  O30  1  1.46822346  -0.46822346  0.64190763  1.0
  O  O31  1  0.72203006  -0.72203006  0.34515279  1.0
  O  O32  1  0.27796994  -0.27796994  0.65484721  1.0
  O  O33  1  0.85475074  -0.85475074  0.59096264  1.0
  O  O34  1  0.14524926  -0.14524926  0.40903736  1.0
