# generated using pymatgen
data_Tl6TeO12
_symmetry_space_group_name_H-M   'P 1'
_cell_length_a   6.55438335
_cell_length_b   6.55438335
_cell_length_c   6.55438335
_cell_angle_alpha   97.68264871
_cell_angle_beta   97.68264871
_cell_angle_gamma   97.68264871
_symmetry_Int_Tables_number   1
_chemical_formula_structural   Tl6TeO12
_chemical_formula_sum   'Tl6 Te1 O12'
_cell_volume   273.23104348
_cell_formula_units_Z   1
loop_
 _symmetry_equiv_pos_site_id
 _symmetry_equiv_pos_as_xyz
  1  'x, y, z'
loop_
 _atom_site_type_symbol
 _atom_site_label
 _atom_site_symmetry_multiplicity
 _atom_site_fract_x
 _atom_site_fract_y
 _atom_site_fract_z
 _atom_site_occupancy
  Tl  Tl0  1  0.86392159  0.69460635  0.39215250  1.0
  Tl  Tl1  1  1.30539365  -0.39215250  0.13607841  1.0
  Tl  Tl2  1  0.60784750  0.13607841  0.30539365  1.0
  Tl  Tl3  1  1.13607841  0.30539365  -0.39215250  1.0
  Tl  Tl4  1  0.69460635  1.39215250  -0.13607841  1.0
  Tl  Tl5  1  1.39215250  0.86392159  -0.30539365  1.0
  Te  Te6  1  0.00000000  0.00000000  -0.00000000  1.0
  O  O7  1  0.69962886  1.03591312  -0.07177251  1.0
  O  O8  1  0.96408688  0.07177251  0.30037114  1.0
  O  O9  1  1.07177251  0.30037114  -0.03591312  1.0
  O  O10  1  1.30037114  -0.03591312  0.07177251  1.0
  O  O11  1  1.03591312  0.92822749  -0.30037114  1.0
  O  O12  1  0.92822749  0.69962886  0.03591312  1.0
  O  O13  1  1.39957869  0.57741738  -0.17502550  1.0
  O  O14  1  0.42258262  1.17502550  -0.39957869  1.0
  O  O15  1  1.17502550  0.60042131  -0.57741738  1.0
  O  O16  1  0.60042131  0.42258262  0.17502550  1.0
  O  O17  1  1.57741738  -0.17502550  0.39957869  1.0
  O  O18  1  0.82497450  0.39957869  0.57741738  1.0
