# generated using pymatgen
data_Pd4Se
_symmetry_space_group_name_H-M   'P 1'
_cell_length_a   5.29724214
_cell_length_b   5.29724214
_cell_length_c   5.73100107
_cell_angle_alpha   90.00000000
_cell_angle_beta   90.00000000
_cell_angle_gamma   90.00000000
_symmetry_Int_Tables_number   1
_chemical_formula_structural   Pd4Se
_chemical_formula_sum   'Pd8 Se2'
_cell_volume   160.81632743
_cell_formula_units_Z   2
loop_
 _symmetry_equiv_pos_site_id
 _symmetry_equiv_pos_as_xyz
  1  'x, y, z'
loop_
 _atom_site_type_symbol
 _atom_site_label
 _atom_site_symmetry_multiplicity
 _atom_site_fract_x
 _atom_site_fract_y
 _atom_site_fract_z
 _atom_site_occupancy
  Pd  Pd0  1  0.23222850  0.37171048  0.15521325  1.0
  Pd  Pd1  1  0.26777150  0.87171048  0.34478675  1.0
  Pd  Pd2  1  0.62828952  0.23222850  0.84478675  1.0
  Pd  Pd3  1  0.87171048  0.73222850  0.65521325  1.0
  Pd  Pd4  1  0.76777150  0.62828952  0.15521325  1.0
  Pd  Pd5  1  0.73222850  0.12828952  0.34478675  1.0
  Pd  Pd6  1  0.37171048  0.76777150  0.84478675  1.0
  Pd  Pd7  1  0.12828952  0.26777150  0.65521325  1.0
  Se  Se8  1  0.50000000  0.50000000  0.50000000  1.0
  Se  Se9  1  0.00000000  0.00000000  0.00000000  1.0
