# generated using pymatgen
data_YGe2Pt
_symmetry_space_group_name_H-M   'P 1'
_cell_length_a   9.59324008
_cell_length_b   9.59324008
_cell_length_c   9.59324008
_cell_angle_alpha   153.84897474
_cell_angle_beta   125.57825306
_cell_angle_gamma   61.35053022
_symmetry_Int_Tables_number   1
_chemical_formula_structural   YGe2Pt
_chemical_formula_sum   'Y4 Ge8 Pt4'
_cell_volume   314.21033479
_cell_formula_units_Z   4
loop_
 _symmetry_equiv_pos_site_id
 _symmetry_equiv_pos_as_xyz
  1  'x, y, z'
loop_
 _atom_site_type_symbol
 _atom_site_label
 _atom_site_symmetry_multiplicity
 _atom_site_fract_x
 _atom_site_fract_y
 _atom_site_fract_z
 _atom_site_occupancy
  Y  Y0  1  0.79890232  0.79890232  1.00000000  1.0
  Y  Y1  1  0.20109768  0.20109768  -0.00000000  1.0
  Y  Y2  1  0.76319692  0.00000000  0.76319692  1.0
  Y  Y3  1  0.23680308  0.00000000  0.23680308  1.0
  Ge  Ge4  1  0.44968539  0.79956277  0.65012262  1.0
  Ge  Ge5  1  0.85055985  0.20043723  0.65012262  1.0
  Ge  Ge6  1  1.14944015  0.79956277  1.34987738  1.0
  Ge  Ge7  1  0.55031461  0.20043723  0.34987738  1.0
  Ge  Ge8  1  0.92592776  0.42592776  0.50000000  1.0
  Ge  Ge9  1  0.07407224  0.57407224  0.50000000  1.0
  Ge  Ge10  1  0.57353889  0.57353889  1.00000000  1.0
  Ge  Ge11  1  0.42646111  0.42646111  0.00000000  1.0
  Pt  Pt12  1  0.39887006  0.64799150  0.75087857  1.0
  Pt  Pt13  1  1.10288707  0.35200850  0.75087857  1.0
  Pt  Pt14  1  0.89711293  0.64799150  1.24912143  1.0
  Pt  Pt15  1  0.60112994  0.35200850  0.24912143  1.0
