# generated using pymatgen
data_SiPd3
_symmetry_space_group_name_H-M   'P 1'
_cell_length_a   5.84631438
_cell_length_b   7.62261517
_cell_length_c   5.31051219
_cell_angle_alpha   90.00000000
_cell_angle_beta   90.00000000
_cell_angle_gamma   90.00000000
_symmetry_Int_Tables_number   1
_chemical_formula_structural   SiPd3
_chemical_formula_sum   'Si4 Pd12'
_cell_volume   236.65875224
_cell_formula_units_Z   4
loop_
 _symmetry_equiv_pos_site_id
 _symmetry_equiv_pos_as_xyz
  1  'x, y, z'
loop_
 _atom_site_type_symbol
 _atom_site_label
 _atom_site_symmetry_multiplicity
 _atom_site_fract_x
 _atom_site_fract_y
 _atom_site_fract_z
 _atom_site_occupancy
  Si  Si0  1  0.10568256  0.75000000  0.96799291  1.0
  Si  Si1  1  0.60568256  0.75000000  0.53200709  1.0
  Si  Si2  1  0.89431744  0.25000000  0.03200709  1.0
  Si  Si3  1  0.39431744  0.25000000  0.46799291  1.0
  Pd  Pd4  1  0.32083518  0.94813424  0.67678988  1.0
  Pd  Pd5  1  0.32083518  0.55186576  0.67678988  1.0
  Pd  Pd6  1  0.82083518  0.94813424  0.82321012  1.0
  Pd  Pd7  1  0.82083518  0.55186576  0.82321012  1.0
  Pd  Pd8  1  0.67916482  0.44813424  0.32321012  1.0
  Pd  Pd9  1  0.67916482  0.05186576  0.32321012  1.0
  Pd  Pd10  1  0.17916482  0.44813424  0.17678988  1.0
  Pd  Pd11  1  0.17916482  0.05186576  0.17678988  1.0
  Pd  Pd12  1  0.49408581  0.75000000  0.09813165  1.0
  Pd  Pd13  1  0.99408581  0.75000000  0.40186835  1.0
  Pd  Pd14  1  0.50591419  0.25000000  0.90186835  1.0
  Pd  Pd15  1  0.00591419  0.25000000  0.59813165  1.0
