# generated using pymatgen
data_Cd3P2
_symmetry_space_group_name_H-M   'P 1'
_cell_length_a   8.86101076
_cell_length_b   8.86101076
_cell_length_c   12.46379207
_cell_angle_alpha   90.00000000
_cell_angle_beta   90.00000000
_cell_angle_gamma   90.00000000
_symmetry_Int_Tables_number   1
_chemical_formula_structural   Cd3P2
_chemical_formula_sum   'Cd24 P16'
_cell_volume   978.62593951
_cell_formula_units_Z   8
loop_
 _symmetry_equiv_pos_site_id
 _symmetry_equiv_pos_as_xyz
  1  'x, y, z'
loop_
 _atom_site_type_symbol
 _atom_site_label
 _atom_site_symmetry_multiplicity
 _atom_site_fract_x
 _atom_site_fract_y
 _atom_site_fract_z
 _atom_site_occupancy
  Cd  Cd0  1  0.21012224  0.50000000  0.88364988  1.0
  Cd  Cd1  1  0.78987776  0.50000000  0.88364988  1.0
  Cd  Cd2  1  0.71012224  0.00000000  0.61635012  1.0
  Cd  Cd3  1  0.28987776  0.00000000  0.61635012  1.0
  Cd  Cd4  1  0.50000000  0.21012224  0.11635012  1.0
  Cd  Cd5  1  0.50000000  0.78987776  0.11635012  1.0
  Cd  Cd6  1  0.00000000  0.71012224  0.38364988  1.0
  Cd  Cd7  1  0.00000000  0.28987776  0.38364988  1.0
  Cd  Cd8  1  0.28628645  0.50000000  0.60125119  1.0
  Cd  Cd9  1  0.71371355  0.50000000  0.60125119  1.0
  Cd  Cd10  1  0.78628645  0.00000000  0.89874881  1.0
  Cd  Cd11  1  0.21371355  0.00000000  0.89874881  1.0
  Cd  Cd12  1  0.50000000  0.28628645  0.39874881  1.0
  Cd  Cd13  1  0.50000000  0.71371355  0.39874881  1.0
  Cd  Cd14  1  0.00000000  0.78628645  0.10125119  1.0
  Cd  Cd15  1  0.00000000  0.21371355  0.10125119  1.0
  Cd  Cd16  1  0.25616522  0.50000000  0.15085380  1.0
  Cd  Cd17  1  0.74383478  0.50000000  0.15085380  1.0
  Cd  Cd18  1  0.75616522  0.00000000  0.34914620  1.0
  Cd  Cd19  1  0.24383478  0.00000000  0.34914620  1.0
  Cd  Cd20  1  0.50000000  0.25616522  0.84914620  1.0
  Cd  Cd21  1  0.50000000  0.74383478  0.84914620  1.0
  Cd  Cd22  1  0.00000000  0.75616522  0.65085380  1.0
  Cd  Cd23  1  0.00000000  0.24383478  0.65085380  1.0
  P  P24  1  0.50000000  0.50000000  0.74286818  1.0
  P  P25  1  0.00000000  0.00000000  0.75713182  1.0
  P  P26  1  0.50000000  0.50000000  0.25713182  1.0
  P  P27  1  0.00000000  0.00000000  0.24286818  1.0
  P  P28  1  0.00000000  0.50000000  0.74199403  1.0
  P  P29  1  0.50000000  0.00000000  0.75800597  1.0
  P  P30  1  0.50000000  0.00000000  0.25800597  1.0
  P  P31  1  0.00000000  0.50000000  0.24199403  1.0
  P  P32  1  0.24266303  0.24266303  0.50000000  1.0
  P  P33  1  0.75733697  0.75733697  0.50000000  1.0
  P  P34  1  0.74266303  0.74266303  0.00000000  1.0
  P  P35  1  0.25733697  0.25733697  0.00000000  1.0
  P  P36  1  0.75733697  0.24266303  0.50000000  1.0
  P  P37  1  0.24266303  0.75733697  0.50000000  1.0
  P  P38  1  0.25733697  0.74266303  0.00000000  1.0
  P  P39  1  0.74266303  0.25733697  0.00000000  1.0
