# generated using pymatgen
data_CrCdF6
_symmetry_space_group_name_H-M   'P 1'
_cell_length_a   5.66293593
_cell_length_b   5.66293593
_cell_length_c   5.66293593
_cell_angle_alpha   56.81070443
_cell_angle_beta   56.81070443
_cell_angle_gamma   56.81070444
_symmetry_Int_Tables_number   1
_chemical_formula_structural   CrCdF6
_chemical_formula_sum   'Cr1 Cd1 F6'
_cell_volume   118.96127191
_cell_formula_units_Z   1
loop_
 _symmetry_equiv_pos_site_id
 _symmetry_equiv_pos_as_xyz
  1  'x, y, z'
loop_
 _atom_site_type_symbol
 _atom_site_label
 _atom_site_symmetry_multiplicity
 _atom_site_fract_x
 _atom_site_fract_y
 _atom_site_fract_z
 _atom_site_occupancy
  Cr  Cr0  1  0.00000000  0.00000000  0.00000000  1.0
  Cd  Cd1  1  0.50000000  0.50000000  -0.50000000  1.0
  F  F2  1  0.10539745  0.78291365  -0.66191277  1.0
  F  F3  1  0.66191277  -0.10539745  0.21708635  1.0
  F  F4  1  1.21708635  -0.33808723  -0.10539745  1.0
  F  F5  1  0.89460255  0.21708635  -0.33808723  1.0
  F  F6  1  0.33808723  0.10539745  -0.21708635  1.0
  F  F7  1  0.78291365  0.33808723  -0.89460255  1.0
