# generated using pymatgen
data_VIr
_symmetry_space_group_name_H-M   'P 1'
_cell_length_a   8.64369997
_cell_length_b   8.64369997
_cell_length_c   8.64369997
_cell_angle_alpha   130.90131833
_cell_angle_beta   100.12932035
_cell_angle_gamma   99.75126628
_symmetry_Int_Tables_number   1
_chemical_formula_structural   VIr
_chemical_formula_sum   'V16 Ir16'
_cell_volume   443.99382476
_cell_formula_units_Z   16
loop_
 _symmetry_equiv_pos_site_id
 _symmetry_equiv_pos_as_xyz
  1  'x, y, z'
loop_
 _atom_site_type_symbol
 _atom_site_label
 _atom_site_symmetry_multiplicity
 _atom_site_fract_x
 _atom_site_fract_y
 _atom_site_fract_z
 _atom_site_occupancy
  V  V0  1  1.09666314  1.22854013  0.86812301  1.0
  V  V1  1  1.36041712  1.22854013  1.13187699  1.0
  V  V2  1  0.84936432  0.23142788  0.61793644  1.0
  V  V3  1  0.61349144  0.23142788  0.38206356  1.0
  V  V4  1  0.36696584  0.50000000  0.86696584  1.0
  V  V5  1  0.63303416  0.50000000  1.13303416  1.0
  V  V6  1  1.11543909  0.50000000  0.61543909  1.0
  V  V7  1  0.88456091  0.50000000  0.38456091  1.0
  V  V8  1  0.86891492  0.00000000  0.86891492  1.0
  V  V9  1  0.13108508  -0.00000000  0.13108508  1.0
  V  V10  1  0.61980331  0.00000000  0.61980331  1.0
  V  V11  1  0.38019669  0.00000000  0.38019669  1.0
  V  V12  1  1.63958288  0.77145987  0.86812301  1.0
  V  V13  1  0.90333686  0.77145987  0.13187699  1.0
  V  V14  1  1.38650856  0.76857212  0.61793644  1.0
  V  V15  1  1.15063568  0.76857212  0.38206356  1.0
  Ir  Ir16  1  1.12662268  1.38111650  1.25449382  1.0
  Ir  Ir17  1  1.12662268  0.87212886  0.74550618  1.0
  Ir  Ir18  1  0.87725453  1.39370834  1.01759315  1.0
  Ir  Ir19  1  1.37611518  0.85966137  0.98240685  1.0
  Ir  Ir20  1  0.87725453  0.85966137  0.48354619  1.0
  Ir  Ir21  1  1.37611518  1.39370834  1.51645381  1.0
  Ir  Ir22  1  0.62670694  0.84957152  1.22286458  1.0
  Ir  Ir23  1  0.62670694  0.40384235  0.77713542  1.0
  Ir  Ir24  1  0.87337732  1.12787114  1.25449382  1.0
  Ir  Ir25  1  0.87337732  0.61888350  0.74550618  1.0
  Ir  Ir26  1  1.62388482  1.14033863  1.01759315  1.0
  Ir  Ir27  1  1.12274547  1.60629166  0.98240685  1.0
  Ir  Ir28  1  1.62388482  1.60629166  1.48354619  1.0
  Ir  Ir29  1  1.12274547  1.14033863  0.51645381  1.0
  Ir  Ir30  1  1.37329306  1.59615765  1.22286458  1.0
  Ir  Ir31  1  1.37329306  1.15042848  0.77713542  1.0
