# generated using pymatgen
data_NaSm(PS3)2
_symmetry_space_group_name_H-M   'P 1'
_cell_length_a   11.89737974
_cell_length_b   7.54606902
_cell_length_c   11.17003559
_cell_angle_alpha   90.00000000
_cell_angle_beta   111.77721483
_cell_angle_gamma   90.00000000
_symmetry_Int_Tables_number   1
_chemical_formula_structural   NaSm(PS3)2
_chemical_formula_sum   'Na4 Sm4 P8 S24'
_cell_volume   931.26004624
_cell_formula_units_Z   4
loop_
 _symmetry_equiv_pos_site_id
 _symmetry_equiv_pos_as_xyz
  1  'x, y, z'
loop_
 _atom_site_type_symbol
 _atom_site_label
 _atom_site_symmetry_multiplicity
 _atom_site_fract_x
 _atom_site_fract_y
 _atom_site_fract_z
 _atom_site_occupancy
  Na  Na0  1  0.85567843  0.38787990  0.63020989  1.0
  Na  Na1  1  0.85567843  0.11212010  0.13020989  1.0
  Na  Na2  1  0.14432157  0.88787990  0.86979011  1.0
  Na  Na3  1  0.14432157  0.61212010  0.36979011  1.0
  Sm  Sm4  1  0.65296918  0.60932094  0.90745886  1.0
  Sm  Sm5  1  0.65296918  0.89067906  0.40745886  1.0
  Sm  Sm6  1  0.34703082  0.10932094  0.59254114  1.0
  Sm  Sm7  1  0.34703082  0.39067906  0.09254114  1.0
  P  P8  1  0.80441009  0.88428770  0.75606751  1.0
  P  P9  1  0.80441009  0.61571230  0.25606751  1.0
  P  P10  1  0.19558991  0.38428770  0.74393249  1.0
  P  P11  1  0.19558991  0.11571230  0.24393249  1.0
  P  P12  1  0.32657087  0.59838067  0.74485508  1.0
  P  P13  1  0.32657087  0.90161933  0.24485508  1.0
  P  P14  1  0.67342913  0.09838067  0.75514492  1.0
  P  P15  1  0.67342913  0.40161933  0.25514492  1.0
  S  S16  1  0.90695694  0.99113784  0.66602584  1.0
  S  S17  1  0.90695694  0.50886216  0.16602584  1.0
  S  S18  1  0.09304306  0.49113784  0.83397416  1.0
  S  S19  1  0.09304306  0.00886216  0.33397416  1.0
  S  S20  1  0.87879907  0.80238756  0.94158760  1.0
  S  S21  1  0.87879907  0.69761244  0.44158760  1.0
  S  S22  1  0.12120093  0.30238756  0.55841240  1.0
  S  S23  1  0.12120093  0.19761244  0.05841240  1.0
  S  S24  1  0.77816191  0.28913508  0.87246142  1.0
  S  S25  1  0.77816191  0.21086492  0.37246142  1.0
  S  S26  1  0.22183809  0.78913508  0.62753858  1.0
  S  S27  1  0.22183809  0.71086492  0.12753858  1.0
  S  S28  1  0.69317916  0.68826644  0.64986008  1.0
  S  S29  1  0.69317916  0.81173356  0.14986008  1.0
  S  S30  1  0.30682084  0.18826644  0.85013992  1.0
  S  S31  1  0.30682084  0.31173356  0.35013992  1.0
  S  S32  1  0.55101066  0.97667640  0.81824181  1.0
  S  S33  1  0.55101066  0.52332360  0.31824181  1.0
  S  S34  1  0.44898934  0.47667640  0.68175819  1.0
  S  S35  1  0.44898934  0.02332360  0.18175819  1.0
  S  S36  1  0.40931999  0.68010665  0.93159660  1.0
  S  S37  1  0.40931999  0.81989335  0.43159660  1.0
  S  S38  1  0.59068001  0.18010665  0.56840340  1.0
  S  S39  1  0.59068001  0.31989335  0.06840340  1.0
