# generated using pymatgen
data_Y(PdO2)2
_symmetry_space_group_name_H-M   'P 1'
_cell_length_a   6.49783151
_cell_length_b   6.49783151
_cell_length_c   6.49783151
_cell_angle_alpha   126.97188805
_cell_angle_beta   126.97188805
_cell_angle_gamma   78.29655299
_symmetry_Int_Tables_number   1
_chemical_formula_structural   Y(PdO2)2
_chemical_formula_sum   'Y2 Pd4 O8'
_cell_volume   169.60455390
_cell_formula_units_Z   2
loop_
 _symmetry_equiv_pos_site_id
 _symmetry_equiv_pos_as_xyz
  1  'x, y, z'
loop_
 _atom_site_type_symbol
 _atom_site_label
 _atom_site_symmetry_multiplicity
 _atom_site_fract_x
 _atom_site_fract_y
 _atom_site_fract_z
 _atom_site_occupancy
  Y  Y0  1  0.75000000  0.25000000  0.50000000  1.0
  Y  Y1  1  1.00000000  1.00000000  1.00000000  1.0
  Pd  Pd2  1  0.37500000  1.12500000  0.75000000  1.0
  Pd  Pd3  1  0.37500000  0.62500000  0.25000000  1.0
  Pd  Pd4  1  0.37500000  0.62500000  0.75000000  1.0
  Pd  Pd5  1  0.87500000  0.62500000  1.25000000  1.0
  O  O6  1  0.71007526  0.86194139  0.46811908  1.0
  O  O7  1  1.39382230  1.24195617  1.53188092  1.0
  O  O8  1  0.99195617  0.96007526  1.34813387  1.0
  O  O9  1  0.61194139  0.64382230  0.65186613  1.0
  O  O10  1  1.03992474  0.38805861  1.03188092  1.0
  O  O11  1  0.35617770  1.00804383  0.96811908  1.0
  O  O12  1  0.75804383  1.28992474  1.15186613  1.0
  O  O13  1  1.13805861  0.60617770  0.84813387  1.0
