# generated using pymatgen
data_ReO2F3
_symmetry_space_group_name_H-M   'P 1'
_cell_length_a   6.00469420
_cell_length_b   5.28034509
_cell_length_c   13.69176045
_cell_angle_alpha   90.00000000
_cell_angle_beta   99.51043512
_cell_angle_gamma   90.00000000
_symmetry_Int_Tables_number   1
_chemical_formula_structural   ReO2F3
_chemical_formula_sum   'Re4 O8 F12'
_cell_volume   428.15590914
_cell_formula_units_Z   4
loop_
 _symmetry_equiv_pos_site_id
 _symmetry_equiv_pos_as_xyz
  1  'x, y, z'
loop_
 _atom_site_type_symbol
 _atom_site_label
 _atom_site_symmetry_multiplicity
 _atom_site_fract_x
 _atom_site_fract_y
 _atom_site_fract_z
 _atom_site_occupancy
  Re  Re0  1  0.67245511  0.20467570  0.35600972  1.0
  Re  Re1  1  0.67245511  0.29532430  0.85600972  1.0
  Re  Re2  1  0.32754489  0.70467570  0.14399028  1.0
  Re  Re3  1  0.32754489  0.79532430  0.64399028  1.0
  O  O4  1  0.81900503  0.94562457  0.40237380  1.0
  O  O5  1  0.81900503  0.55437543  0.90237380  1.0
  O  O6  1  0.18099497  0.44562457  0.09762620  1.0
  O  O7  1  0.18099497  0.05437543  0.59762620  1.0
  O  O8  1  0.74708992  0.41995016  0.44711703  1.0
  O  O9  1  0.74708992  0.08004984  0.94711703  1.0
  O  O10  1  0.25291008  0.91995016  0.05288297  1.0
  O  O11  1  0.25291008  0.58004984  0.55288297  1.0
  F  F12  1  0.86337549  0.30501903  0.26958267  1.0
  F  F13  1  0.86337549  0.19498097  0.76958267  1.0
  F  F14  1  0.13662451  0.80501903  0.23041733  1.0
  F  F15  1  0.13662451  0.69498097  0.73041733  1.0
  F  F16  1  0.53231873  -0.01338195  0.22824627  1.0
  F  F17  1  0.53231873  0.51338195  0.72824627  1.0
  F  F18  1  0.46768127  0.48661805  0.27175373  1.0
  F  F19  1  0.46768127  1.01338195  0.77175373  1.0
  F  F20  1  0.39224484  0.12103323  0.38821165  1.0
  F  F21  1  0.39224484  0.37896677  0.88821165  1.0
  F  F22  1  0.60775516  0.62103323  0.11178835  1.0
  F  F23  1  0.60775516  0.87896677  0.61178835  1.0
