# generated using pymatgen
data_Ca4MgB4(CO9)2
_symmetry_space_group_name_H-M   'P 1'
_cell_length_a   10.27191416
_cell_length_b   10.27191416
_cell_length_c   4.59883419
_cell_angle_alpha   75.87097210
_cell_angle_beta   104.12902790
_cell_angle_gamma   135.12155106
_symmetry_Int_Tables_number   1
_chemical_formula_structural   Ca4MgB4(CO9)2
_chemical_formula_sum   'Ca4 Mg1 B4 C2 O18'
_cell_volume   330.22654080
_cell_formula_units_Z   1
loop_
 _symmetry_equiv_pos_site_id
 _symmetry_equiv_pos_as_xyz
  1  'x, y, z'
loop_
 _atom_site_type_symbol
 _atom_site_label
 _atom_site_symmetry_multiplicity
 _atom_site_fract_x
 _atom_site_fract_y
 _atom_site_fract_z
 _atom_site_occupancy
  C  C0  1  1.30057427  -0.30057427  0.22712839  1.0
  C  C1  1  0.69942573  -0.69942573  0.77287161  1.0
  Ca  Ca2  1  0.92023557  -0.38909582  0.18895265  1.0
  Ca  Ca3  1  1.38909582  0.07976443  0.18895265  1.0
  Ca  Ca4  1  1.61090418  -0.07976443  0.81104735  1.0
  Ca  Ca5  1  1.07976443  -0.61090418  0.81104735  1.0
  Mg  Mg6  1  0.00000000  0.00000000  -0.00000000  1.0
  O  O7  1  1.33410965  -0.33410965  0.01927063  1.0
  O  O8  1  0.66589035  -0.66589035  0.98072937  1.0
  O  O9  1  0.68795562  -0.40730455  0.35721539  1.0
  O  O10  1  1.40730455  0.31204438  0.35721539  1.0
  O  O11  1  1.59269545  -0.31204438  0.64278461  1.0
  O  O12  1  1.31204438  -0.59269545  0.64278461  1.0
  O  O13  1  1.16090190  -0.16090190  0.86506164  1.0
  O  O14  1  0.83909810  -0.83909810  0.13493836  1.0
  O  O15  1  1.09446096  -0.09446096  0.34305527  1.0
  O  O16  1  0.90553904  -0.90553904  0.65694473  1.0
  O  O17  1  1.10589606  -0.79528894  0.26363475  1.0
  O  O18  1  1.79528894  -0.10589606  0.26363475  1.0
  O  O19  1  1.20471106  0.10589606  0.73636525  1.0
  O  O20  1  0.89410394  -0.20471106  0.73636525  1.0
  O  O21  1  1.14068837  -0.42601213  0.33234364  1.0
  O  O22  1  1.42601213  -0.14068837  0.33234364  1.0
  O  O23  1  1.57398787  0.14068837  0.66765636  1.0
  O  O24  1  0.85931163  -0.57398787  0.66765636  1.0
  B  B25  1  1.09215268  -0.09215268  0.64812633  1.0
  B  B26  1  0.90784732  -0.90784732  0.35187367  1.0
  B  B27  1  0.73577367  0.73577367  0.50000000  1.0
  B  B28  1  0.26422633  0.26422633  0.50000000  1.0
