# generated using pymatgen
data_GaBiS
_symmetry_space_group_name_H-M   'P 1'
_cell_length_a   10.94172054
_cell_length_b   10.94172054
_cell_length_c   14.44186628
_cell_angle_alpha   90.00000000
_cell_angle_beta   90.00000000
_cell_angle_gamma   90.00000000
_symmetry_Int_Tables_number   1
_chemical_formula_structural   GaBiS
_chemical_formula_sum   'Ga16 Bi16 S16'
_cell_volume   1728.99825891
_cell_formula_units_Z   16
loop_
 _symmetry_equiv_pos_site_id
 _symmetry_equiv_pos_as_xyz
  1  'x, y, z'
loop_
 _atom_site_type_symbol
 _atom_site_label
 _atom_site_symmetry_multiplicity
 _atom_site_fract_x
 _atom_site_fract_y
 _atom_site_fract_z
 _atom_site_occupancy
  Ga  Ga0  1  0.29203570  0.70796430  0.50000000  1.0
  Ga  Ga1  1  0.29203570  0.29203570  0.50000000  1.0
  Ga  Ga2  1  0.79203570  0.20796430  0.00000000  1.0
  Ga  Ga3  1  0.79203570  0.79203570  0.00000000  1.0
  Ga  Ga4  1  0.70796430  0.29203570  0.50000000  1.0
  Ga  Ga5  1  0.70796430  0.70796430  0.50000000  1.0
  Ga  Ga6  1  0.20796430  0.79203570  0.00000000  1.0
  Ga  Ga7  1  0.20796430  0.20796430  0.00000000  1.0
  Ga  Ga8  1  0.25000000  0.75000000  0.75000000  1.0
  Ga  Ga9  1  0.25000000  0.25000000  0.25000000  1.0
  Ga  Ga10  1  0.75000000  0.25000000  0.75000000  1.0
  Ga  Ga11  1  0.75000000  0.75000000  0.25000000  1.0
  Ga  Ga12  1  0.75000000  0.25000000  0.25000000  1.0
  Ga  Ga13  1  0.75000000  0.75000000  0.75000000  1.0
  Ga  Ga14  1  0.25000000  0.75000000  0.25000000  1.0
  Ga  Ga15  1  0.25000000  0.25000000  0.75000000  1.0
  Bi  Bi16  1  0.38961952  0.11755099  0.37896551  1.0
  Bi  Bi17  1  0.38961952  0.88244901  0.62103449  1.0
  Bi  Bi18  1  0.88961952  0.61755099  0.12103449  1.0
  Bi  Bi19  1  0.88961952  0.38244901  0.87896551  1.0
  Bi  Bi20  1  0.11755099  0.38961952  0.62103449  1.0
  Bi  Bi21  1  0.11755099  0.61038048  0.37896551  1.0
  Bi  Bi22  1  0.61755099  0.88961952  0.87896551  1.0
  Bi  Bi23  1  0.61755099  0.11038048  0.12103449  1.0
  Bi  Bi24  1  0.61038048  0.11755099  0.62103449  1.0
  Bi  Bi25  1  0.61038048  0.88244901  0.37896551  1.0
  Bi  Bi26  1  0.11038048  0.61755099  0.87896551  1.0
  Bi  Bi27  1  0.11038048  0.38244901  0.12103449  1.0
  Bi  Bi28  1  0.88244901  0.38961952  0.37896551  1.0
  Bi  Bi29  1  0.88244901  0.61038048  0.62103449  1.0
  Bi  Bi30  1  0.38244901  0.88961952  0.12103449  1.0
  Bi  Bi31  1  0.38244901  0.11038048  0.87896551  1.0
  S  S32  1  0.42981925  0.72883945  0.36840618  1.0
  S  S33  1  0.42981925  0.27116055  0.63159382  1.0
  S  S34  1  0.92981925  0.22883945  0.13159382  1.0
  S  S35  1  0.92981925  0.77116055  0.86840618  1.0
  S  S36  1  0.72883945  0.42981925  0.63159382  1.0
  S  S37  1  0.72883945  0.57018075  0.36840618  1.0
  S  S38  1  0.22883945  0.92981925  0.86840618  1.0
  S  S39  1  0.22883945  0.07018075  0.13159382  1.0
  S  S40  1  0.57018075  0.72883945  0.63159382  1.0
  S  S41  1  0.57018075  0.27116055  0.36840618  1.0
  S  S42  1  0.07018075  0.22883945  0.86840618  1.0
  S  S43  1  0.07018075  0.77116055  0.13159382  1.0
  S  S44  1  0.27116055  0.42981925  0.36840618  1.0
  S  S45  1  0.27116055  0.57018075  0.63159382  1.0
  S  S46  1  0.77116055  0.92981925  0.13159382  1.0
  S  S47  1  0.77116055  0.07018075  0.86840618  1.0
