# generated using pymatgen
data_LaZnRh
_symmetry_space_group_name_H-M   'P 1'
_cell_length_a   7.45418350
_cell_length_b   4.06176511
_cell_length_c   16.62018175
_cell_angle_alpha   90.00000000
_cell_angle_beta   90.00000000
_cell_angle_gamma   90.00000000
_symmetry_Int_Tables_number   1
_chemical_formula_structural   LaZnRh
_chemical_formula_sum   'La8 Zn8 Rh8'
_cell_volume   503.21161033
_cell_formula_units_Z   8
loop_
 _symmetry_equiv_pos_site_id
 _symmetry_equiv_pos_as_xyz
  1  'x, y, z'
loop_
 _atom_site_type_symbol
 _atom_site_label
 _atom_site_symmetry_multiplicity
 _atom_site_fract_x
 _atom_site_fract_y
 _atom_site_fract_z
 _atom_site_occupancy
  La  La0  1  0.95152677  0.75000000  0.28305406  1.0
  La  La1  1  0.45152677  0.75000000  0.21694594  1.0
  La  La2  1  0.04847323  0.25000000  0.71694594  1.0
  La  La3  1  0.54847323  0.25000000  0.78305406  1.0
  La  La4  1  0.82892195  0.75000000  0.05982500  1.0
  La  La5  1  0.32892195  0.75000000  0.44017500  1.0
  La  La6  1  0.17107805  0.25000000  0.94017500  1.0
  La  La7  1  0.67107805  0.25000000  0.55982500  1.0
  Zn  Zn8  1  0.00204573  0.75000000  0.55964109  1.0
  Zn  Zn9  1  0.50204573  0.75000000  0.94035891  1.0
  Zn  Zn10  1  0.99795427  0.25000000  0.44035891  1.0
  Zn  Zn11  1  0.49795427  0.25000000  0.05964109  1.0
  Zn  Zn12  1  0.87279814  0.75000000  0.85100340  1.0
  Zn  Zn13  1  0.37279814  0.75000000  0.64899660  1.0
  Zn  Zn14  1  0.12720186  0.25000000  0.14899660  1.0
  Zn  Zn15  1  0.62720186  0.25000000  0.35100340  1.0
  Rh  Rh16  1  0.75925906  0.75000000  0.43469812  1.0
  Rh  Rh17  1  0.25925906  0.75000000  0.06530188  1.0
  Rh  Rh18  1  0.24074094  0.25000000  0.56530188  1.0
  Rh  Rh19  1  0.74074094  0.25000000  0.93469812  1.0
  Rh  Rh20  1  0.75322299  0.75000000  0.68488671  1.0
  Rh  Rh21  1  0.25322299  0.75000000  0.81511329  1.0
  Rh  Rh22  1  0.24677701  0.25000000  0.31511329  1.0
  Rh  Rh23  1  0.74677701  0.25000000  0.18488671  1.0
