# generated using pymatgen
data_SnS
_symmetry_space_group_name_H-M   'P 1'
_cell_length_a   11.59371091
_cell_length_b   4.13883708
_cell_length_c   4.13882454
_cell_angle_alpha   90.01551957
_cell_angle_beta   82.20686280
_cell_angle_gamma   89.30459251
_symmetry_Int_Tables_number   1
_chemical_formula_structural   SnS
_chemical_formula_sum   'Sn2 S2'
_cell_volume   196.75023912
_cell_formula_units_Z   2
loop_
 _symmetry_equiv_pos_site_id
 _symmetry_equiv_pos_as_xyz
  1  'x, y, z'
loop_
 _atom_site_type_symbol
 _atom_site_label
 _atom_site_symmetry_multiplicity
 _atom_site_fract_x
 _atom_site_fract_y
 _atom_site_fract_z
 _atom_site_occupancy
  Sn  Sn0  1  -0.62267347  -0.74407584  -0.70170153  1.0
  Sn  Sn1  1  -0.37732653  -0.25592416  -0.29829847  1.0
  S  S2  1  -0.39824146  -0.75333031  -0.78852358  1.0
  S  S3  1  -0.60175854  -0.24666969  -0.21147642  1.0
