# generated using pymatgen
data_BaEu6Si3B6(HO13)2
_symmetry_space_group_name_H-M   'P 1'
_cell_length_a   10.88543075
_cell_length_b   10.88543075
_cell_length_c   4.81848558
_cell_angle_alpha   90.00000000
_cell_angle_beta   90.00000000
_cell_angle_gamma   120.00000000
_symmetry_Int_Tables_number   1
_chemical_formula_structural   BaEu6Si3B6(HO13)2
_chemical_formula_sum   'Ba1 Eu6 Si3 B6 H2 O26'
_cell_volume   494.46144532
_cell_formula_units_Z   1
loop_
 _symmetry_equiv_pos_site_id
 _symmetry_equiv_pos_as_xyz
  1  'x, y, z'
loop_
 _atom_site_type_symbol
 _atom_site_label
 _atom_site_symmetry_multiplicity
 _atom_site_fract_x
 _atom_site_fract_y
 _atom_site_fract_z
 _atom_site_occupancy
  Ba  Ba0  1  0.00000000  0.00000000  0.00725088  1.0
  Eu  Eu1  1  0.56871512  0.78435756  0.01115395  1.0
  Eu  Eu2  1  0.78435756  0.56871512  0.01115395  1.0
  Eu  Eu3  1  0.78435756  0.21564244  0.01115395  1.0
  Eu  Eu4  1  0.21564244  0.78435756  0.01115395  1.0
  Eu  Eu5  1  0.21564244  0.43128488  0.01115395  1.0
  Eu  Eu6  1  0.43128488  0.21564244  0.01115395  1.0
  Si  Si7  1  0.50000000  0.50000000  0.56784004  1.0
  Si  Si8  1  0.50000000  0.00000000  0.56784004  1.0
  Si  Si9  1  -0.00000000  0.50000000  0.56784004  1.0
  B  B10  1  0.75029007  0.75029007  0.49756930  1.0
  B  B11  1  0.75029007  0.00000000  0.49756930  1.0
  B  B12  1  0.00000000  0.75029007  0.49756930  1.0
  B  B13  1  -0.00000000  0.24970993  0.49756930  1.0
  B  B14  1  0.24970993  0.24970993  0.49756930  1.0
  B  B15  1  0.24970993  0.00000000  0.49756930  1.0
  H  H16  1  0.33333333  0.66666667  0.43712661  1.0
  H  H17  1  0.66666667  0.33333333  0.43712661  1.0
  O  O18  1  0.74781356  0.87390678  0.37604526  1.0
  O  O19  1  0.87390678  0.74781356  0.37604526  1.0
  O  O20  1  0.87390678  0.12609322  0.37604526  1.0
  O  O21  1  0.12609322  0.87390678  0.37604526  1.0
  O  O22  1  0.12609322  0.25218644  0.37604526  1.0
  O  O23  1  0.25218644  0.12609322  0.37604526  1.0
  O  O24  1  0.14310335  0.57155167  0.75885797  1.0
  O  O25  1  0.57155167  0.14310335  0.75885797  1.0
  O  O26  1  0.57155167  0.42844833  0.75885797  1.0
  O  O27  1  0.42844833  0.57155167  0.75885797  1.0
  O  O28  1  0.42844833  0.85689665  0.75885797  1.0
  O  O29  1  0.85689665  0.42844833  0.75885797  1.0
  O  O30  1  0.74028179  0.74028179  0.79156327  1.0
  O  O31  1  0.74028179  0.00000000  0.79156327  1.0
  O  O32  1  -0.00000000  0.74028179  0.79156327  1.0
  O  O33  1  0.00000000  0.25971821  0.79156327  1.0
  O  O34  1  0.25971821  0.25971821  0.79156327  1.0
  O  O35  1  0.25971821  0.00000000  0.79156327  1.0
  O  O36  1  0.62080245  0.62080245  0.35270686  1.0
  O  O37  1  0.62080245  0.00000000  0.35270686  1.0
  O  O38  1  -0.00000000  0.62080245  0.35270686  1.0
  O  O39  1  0.00000000  0.37919755  0.35270686  1.0
  O  O40  1  0.37919755  0.37919755  0.35270686  1.0
  O  O41  1  0.37919755  0.00000000  0.35270686  1.0
  O  O42  1  0.33333333  0.66666667  0.23354803  1.0
  O  O43  1  0.66666667  0.33333333  0.23354803  1.0
