# generated using pymatgen
data_Sr3Gd(BO3)3
_symmetry_space_group_name_H-M   'P 1'
_cell_length_a   7.96162189
_cell_length_b   7.96162189
_cell_length_c   7.96162189
_cell_angle_alpha   105.02438906
_cell_angle_beta   105.02438906
_cell_angle_gamma   105.02438906
_symmetry_Int_Tables_number   1
_chemical_formula_structural   Sr3Gd(BO3)3
_chemical_formula_sum   'Sr6 Gd2 B6 O18'
_cell_volume   440.98700014
_cell_formula_units_Z   2
loop_
 _symmetry_equiv_pos_site_id
 _symmetry_equiv_pos_as_xyz
  1  'x, y, z'
loop_
 _atom_site_type_symbol
 _atom_site_label
 _atom_site_symmetry_multiplicity
 _atom_site_fract_x
 _atom_site_fract_y
 _atom_site_fract_z
 _atom_site_occupancy
  Sr  Sr0  1  0.76459843  0.63156292  0.13731592  1.0
  Sr  Sr1  1  1.36843708  -0.13731592  0.23540157  1.0
  Sr  Sr2  1  0.86268408  0.23540157  0.36843708  1.0
  Sr  Sr3  1  1.23540157  0.36843708  -0.13731592  1.0
  Sr  Sr4  1  0.63156292  1.13731592  -0.23540157  1.0
  Sr  Sr5  1  1.13731592  0.76459843  -0.36843708  1.0
  Gd  Gd6  1  0.50000000  0.50000000  0.50000000  1.0
  Gd  Gd7  1  0.00000000  0.00000000  0.00000000  1.0
  B  B8  1  1.54025229  0.79453960  -0.10789853  1.0
  B  B9  1  1.20546040  0.10789853  -0.54025229  1.0
  B  B10  1  1.10789853  -0.54025229  0.20546040  1.0
  B  B11  1  0.45974771  0.20546040  0.10789853  1.0
  B  B12  1  0.79453960  0.89210147  0.54025229  1.0
  B  B13  1  0.89210147  1.54025229  -0.20546040  1.0
  O  O14  1  1.46416162  0.75203129  -0.29879524  1.0
  O  O15  1  1.24796871  0.29879524  -0.46416162  1.0
  O  O16  1  1.29879524  -0.46416162  0.24796871  1.0
  O  O17  1  0.53583838  0.24796871  0.29879524  1.0
  O  O18  1  0.75203129  0.70120476  0.46416162  1.0
  O  O19  1  0.70120476  1.46416162  -0.24796871  1.0
  O  O20  1  1.70148968  0.95052931  -0.00779137  1.0
  O  O21  1  1.04947069  0.00779137  -0.70148968  1.0
  O  O22  1  1.00779137  -0.70148968  0.04947069  1.0
  O  O23  1  0.29851032  0.04947069  0.00779137  1.0
  O  O24  1  0.95052931  0.99220863  0.70148968  1.0
  O  O25  1  0.99220863  1.70148968  -0.04947069  1.0
  O  O26  1  0.53663839  0.31097757  0.01664794  1.0
  O  O27  1  0.68902243  0.98335206  0.46336161  1.0
  O  O28  1  0.98335206  1.46336161  -0.31097757  1.0
  O  O29  1  1.46336161  0.68902243  -0.01664794  1.0
  O  O30  1  1.31097757  0.01664794  -0.46336161  1.0
  O  O31  1  1.01664794  -0.46336161  0.31097757  1.0
