# generated using pymatgen
data_CaTlI3
_symmetry_space_group_name_H-M   'P 1'
_cell_length_a   8.03072753
_cell_length_b   8.03072753
_cell_length_c   11.75738495
_cell_angle_alpha   90.00000000
_cell_angle_beta   90.00000000
_cell_angle_gamma   146.78662109
_symmetry_Int_Tables_number   1
_chemical_formula_structural   CaTlI3
_chemical_formula_sum   'Ca2 Tl2 I6'
_cell_volume   415.34570426
_cell_formula_units_Z   2
loop_
 _symmetry_equiv_pos_site_id
 _symmetry_equiv_pos_as_xyz
  1  'x, y, z'
loop_
 _atom_site_type_symbol
 _atom_site_label
 _atom_site_symmetry_multiplicity
 _atom_site_fract_x
 _atom_site_fract_y
 _atom_site_fract_z
 _atom_site_occupancy
  Ca  Ca0  1  0.00000000  0.00000000  0.00000000  1.0
  Ca  Ca1  1  0.00000000  0.00000000  0.50000000  1.0
  Tl  Tl2  1  -0.25976724  0.25976724  0.75000000  1.0
  Tl  Tl3  1  0.25976724  0.74023276  0.25000000  1.0
  I  I4  1  0.36477297  0.63522703  0.94690355  1.0
  I  I5  1  0.36477297  0.63522703  0.55309645  1.0
  I  I6  1  -0.36477297  0.36477297  0.44690355  1.0
  I  I7  1  -0.36477297  0.36477297  0.05309645  1.0
  I  I8  1  0.07263886  0.92736114  0.75000000  1.0
  I  I9  1  -0.07263886  0.07263886  0.25000000  1.0
