# generated using pymatgen
data_Li2VS2O9
_symmetry_space_group_name_H-M   'P 1'
_cell_length_a   7.74531778
_cell_length_b   7.74531778
_cell_length_c   7.74531778
_cell_angle_alpha   109.92842530
_cell_angle_beta   109.92842530
_cell_angle_gamma   108.56063080
_symmetry_Int_Tables_number   1
_chemical_formula_structural   Li2VS2O9
_chemical_formula_sum   'Li4 V2 S4 O18'
_cell_volume   357.61334088
_cell_formula_units_Z   2
loop_
 _symmetry_equiv_pos_site_id
 _symmetry_equiv_pos_as_xyz
  1  'x, y, z'
loop_
 _atom_site_type_symbol
 _atom_site_label
 _atom_site_symmetry_multiplicity
 _atom_site_fract_x
 _atom_site_fract_y
 _atom_site_fract_z
 _atom_site_occupancy
  O  O0  1  1.25786866  0.97369995  1.50000000  1.0
  O  O1  1  0.47369995  0.75786866  0.50000000  1.0
  O  O2  1  0.97369995  0.47369995  0.71583129  1.0
  O  O3  1  0.75786866  1.25786866  1.28416871  1.0
  O  O4  1  1.30956385  1.62129492  1.03534774  1.0
  O  O5  1  0.58594717  1.27421610  0.96465226  1.0
  O  O6  1  1.08594717  1.12129492  0.31173107  1.0
  O  O7  1  0.80956385  0.77421610  0.68826893  1.0
  O  O8  1  0.62129492  0.58594717  0.31173107  1.0
  O  O9  1  1.27421610  1.30956385  0.68826893  1.0
  O  O10  1  1.12129492  1.80956385  1.03534774  1.0
  O  O11  1  0.77421610  1.08594717  0.96465226  1.0
  O  O12  1  1.47387336  1.28349058  1.50000000  1.0
  O  O13  1  0.78349058  0.97387336  1.50000000  1.0
  O  O14  1  0.28349058  0.78349058  0.80961722  1.0
  O  O15  1  0.97387336  1.47387336  1.19038278  1.0
  O  O16  1  0.67442403  0.67442403  -0.00000000  1.0
  O  O17  1  0.17442403  0.17442403  -0.00000000  1.0
  S  S18  1  1.28388811  1.17078634  1.50000000  1.0
  S  S19  1  1.67078634  1.78388811  1.50000000  1.0
  S  S20  1  1.17078634  1.67078634  0.88689823  1.0
  S  S21  1  0.78388811  1.28388811  1.11310177  1.0
  Li  Li22  1  0.71660454  0.44369225  0.50000000  1.0
  Li  Li23  1  0.94369225  1.21660454  1.50000000  1.0
  Li  Li24  1  0.44369225  0.94369225  0.72708771  1.0
  Li  Li25  1  1.21660454  0.71660454  1.27291229  1.0
  V  V26  1  0.49945014  0.49945014  0.00000000  1.0
  V  V27  1  -0.00054986  -0.00054986  -0.00000000  1.0
