# generated using pymatgen
data_SrBi6(PO5)4
_symmetry_space_group_name_H-M   'P 1'
_cell_length_a   7.06323349
_cell_length_b   9.31864396
_cell_length_c   7.76111170
_cell_angle_alpha   107.02734884
_cell_angle_beta   112.11439617
_cell_angle_gamma   93.21915018
_symmetry_Int_Tables_number   1
_chemical_formula_structural   SrBi6(PO5)4
_chemical_formula_sum   'Sr1 Bi6 P4 O20'
_cell_volume   444.45465439
_cell_formula_units_Z   1
loop_
 _symmetry_equiv_pos_site_id
 _symmetry_equiv_pos_as_xyz
  1  'x, y, z'
loop_
 _atom_site_type_symbol
 _atom_site_label
 _atom_site_symmetry_multiplicity
 _atom_site_fract_x
 _atom_site_fract_y
 _atom_site_fract_z
 _atom_site_occupancy
  Sr  Sr0  1  0.00000000  0.00000000  0.00000000  1.0
  Bi  Bi1  1  -0.66740583  -0.48782697  -0.87295128  1.0
  Bi  Bi2  1  -0.33259417  -0.51217303  -0.12704872  1.0
  Bi  Bi3  1  -0.56218905  -0.91244202  -0.20606076  1.0
  Bi  Bi4  1  -0.43781095  -0.08755798  -0.79393924  1.0
  Bi  Bi5  1  -0.19594359  -0.67614375  -0.69703240  1.0
  Bi  Bi6  1  -0.80405641  -0.32385625  -0.30296760  1.0
  P  P7  1  -0.95414483  -0.24341467  -0.73319922  1.0
  P  P8  1  -0.04585517  -0.75658533  -0.26680078  1.0
  P  P9  1  -0.65413611  -0.74429306  -0.60542027  1.0
  P  P10  1  -0.34586389  -0.25570694  -0.39457973  1.0
  O  O11  1  -0.94756345  -0.58435537  -0.20589031  1.0
  O  O12  1  -0.05243655  -0.41564463  -0.79410969  1.0
  O  O13  1  -0.87952710  -0.84710048  -0.17587405  1.0
  O  O14  1  -0.12047290  -0.15289952  -0.82412595  1.0
  O  O15  1  -0.87229592  -0.72159421  -0.73682670  1.0
  O  O16  1  -0.12770408  -0.27840579  -0.26317330  1.0
  O  O17  1  -0.85135267  -0.17182404  -0.50250243  1.0
  O  O18  1  -0.14864733  -0.82817596  -0.49749757  1.0
  O  O19  1  -0.78940358  -0.24157215  -0.82348279  1.0
  O  O20  1  -0.21059642  -0.75842785  -0.17651721  1.0
  O  O21  1  -0.64805034  -0.91702003  -0.68274176  1.0
  O  O22  1  -0.35194966  -0.08297997  -0.31725824  1.0
  O  O23  1  -0.62084557  -0.69216413  -0.38412391  1.0
  O  O24  1  -0.37915443  -0.30783587  -0.61587609  1.0
  O  O25  1  -0.48455472  -0.64471005  -0.62813258  1.0
  O  O26  1  -0.51544528  -0.35528995  -0.37186742  1.0
  O  O27  1  -0.44738255  -0.63685224  -0.97338378  1.0
  O  O28  1  -0.55261745  -0.36314776  -0.02661622  1.0
  O  O29  1  -0.32143048  -0.90206227  -0.90575810  1.0
  O  O30  1  -0.67856952  -0.09793773  -0.09424190  1.0
