# generated using pymatgen
data_Ba3Cr2WO9
_symmetry_space_group_name_H-M   'P 1'
_cell_length_a   5.74954284
_cell_length_b   5.74954284
_cell_length_c   14.15515098
_cell_angle_alpha   90.00000000
_cell_angle_beta   90.00000000
_cell_angle_gamma   120.00000000
_symmetry_Int_Tables_number   1
_chemical_formula_structural   Ba3Cr2WO9
_chemical_formula_sum   'Ba6 Cr4 W2 O18'
_cell_volume   405.23949639
_cell_formula_units_Z   2
loop_
 _symmetry_equiv_pos_site_id
 _symmetry_equiv_pos_as_xyz
  1  'x, y, z'
loop_
 _atom_site_type_symbol
 _atom_site_label
 _atom_site_symmetry_multiplicity
 _atom_site_fract_x
 _atom_site_fract_y
 _atom_site_fract_z
 _atom_site_occupancy
  Ba  Ba0  1  0.33333333  0.66666667  0.89851295  1.0
  Ba  Ba1  1  0.33333333  0.66666667  0.60148705  1.0
  Ba  Ba2  1  0.66666667  0.33333333  0.39851295  1.0
  Ba  Ba3  1  0.66666667  0.33333333  0.10148705  1.0
  Ba  Ba4  1  0.00000000  0.00000000  0.25000000  1.0
  Ba  Ba5  1  0.00000000  -0.00000000  0.75000000  1.0
  Cr  Cr6  1  0.33333333  0.66666667  0.34171020  1.0
  Cr  Cr7  1  0.33333333  0.66666667  0.15828980  1.0
  Cr  Cr8  1  0.66666667  0.33333333  0.84171020  1.0
  Cr  Cr9  1  0.66666667  0.33333333  0.65828980  1.0
  W  W10  1  0.00000000  0.00000000  0.50000000  1.0
  W  W11  1  0.00000000  0.00000000  0.00000000  1.0
  O  O12  1  0.16103197  0.83901157  0.42142473  1.0
  O  O13  1  0.16103197  0.83901157  0.07857527  1.0
  O  O14  1  0.83901157  0.16103197  0.92142473  1.0
  O  O15  1  0.83901157  0.16103197  0.57857527  1.0
  O  O16  1  0.67797960  0.83896803  0.42142473  1.0
  O  O17  1  0.67797960  0.83896803  0.07857527  1.0
  O  O18  1  0.16098843  0.32202040  0.42142473  1.0
  O  O19  1  0.16098843  0.32202040  0.07857527  1.0
  O  O20  1  0.83896803  0.67797960  0.92142473  1.0
  O  O21  1  0.83896803  0.67797960  0.57857527  1.0
  O  O22  1  0.32202040  0.16098843  0.92142473  1.0
  O  O23  1  0.32202040  0.16098843  0.57857527  1.0
  O  O24  1  0.48171175  0.96342820  0.25000000  1.0
  O  O25  1  0.96342820  0.48171175  0.75000000  1.0
  O  O26  1  0.48171645  0.51828825  0.25000000  1.0
  O  O27  1  0.03657180  0.51828355  0.25000000  1.0
  O  O28  1  0.51828825  0.48171645  0.75000000  1.0
  O  O29  1  0.51828355  0.03657180  0.75000000  1.0
