# generated using pymatgen
data_NaPN2
_symmetry_space_group_name_H-M   'P 1'
_cell_length_a   5.00628358
_cell_length_b   5.00628358
_cell_length_c   5.00628358
_cell_angle_alpha   120.04431445
_cell_angle_beta   120.04431445
_cell_angle_gamma   89.92326225
_symmetry_Int_Tables_number   1
_chemical_formula_structural   NaPN2
_chemical_formula_sum   'Na2 P2 N4'
_cell_volume   88.66249074
_cell_formula_units_Z   2
loop_
 _symmetry_equiv_pos_site_id
 _symmetry_equiv_pos_as_xyz
  1  'x, y, z'
loop_
 _atom_site_type_symbol
 _atom_site_label
 _atom_site_symmetry_multiplicity
 _atom_site_fract_x
 _atom_site_fract_y
 _atom_site_fract_z
 _atom_site_occupancy
  Na  Na0  1  0.50000000  0.50000000  -0.00000000  1.0
  Na  Na1  1  1.25000000  0.75000000  0.50000000  1.0
  P  P2  1  0.00000000  0.00000000  0.00000000  1.0
  P  P3  1  0.75000000  1.25000000  0.50000000  1.0
  N  N4  1  0.87500000  1.00004773  0.62504773  1.0
  N  N5  1  1.75004773  1.12500000  1.12504773  1.0
  N  N6  1  0.99995227  1.62500000  0.87495227  1.0
  N  N7  1  1.37500000  1.24995227  1.37495227  1.0
