# generated using pymatgen
data_ScSi2Rh
_symmetry_space_group_name_H-M   'P 1'
_cell_length_a   6.33485548
_cell_length_b   4.03960567
_cell_length_c   9.56217996
_cell_angle_alpha   90.00000000
_cell_angle_beta   90.00000000
_cell_angle_gamma   90.00000000
_symmetry_Int_Tables_number   1
_chemical_formula_structural   ScSi2Rh
_chemical_formula_sum   'Sc4 Si8 Rh4'
_cell_volume   244.69922700
_cell_formula_units_Z   4
loop_
 _symmetry_equiv_pos_site_id
 _symmetry_equiv_pos_as_xyz
  1  'x, y, z'
loop_
 _atom_site_type_symbol
 _atom_site_label
 _atom_site_symmetry_multiplicity
 _atom_site_fract_x
 _atom_site_fract_y
 _atom_site_fract_z
 _atom_site_occupancy
  Sc  Sc0  1  0.75976491  0.75000000  0.31778165  1.0
  Sc  Sc1  1  0.25976491  0.75000000  0.18221835  1.0
  Sc  Sc2  1  0.24023509  0.25000000  0.68221835  1.0
  Sc  Sc3  1  0.74023509  0.25000000  0.81778165  1.0
  Si  Si4  1  0.76859561  0.75000000  0.02817220  1.0
  Si  Si5  1  0.26859561  0.75000000  0.47182780  1.0
  Si  Si6  1  0.23140439  0.25000000  0.97182780  1.0
  Si  Si7  1  0.73140439  0.25000000  0.52817220  1.0
  Si  Si8  1  0.54417688  0.75000000  0.65852299  1.0
  Si  Si9  1  0.04417688  0.75000000  0.84147701  1.0
  Si  Si10  1  0.45582312  0.25000000  0.34147701  1.0
  Si  Si11  1  0.95582312  0.25000000  0.15852299  1.0
  Rh  Rh12  1  0.91650963  0.75000000  0.59901453  1.0
  Rh  Rh13  1  0.41650963  0.75000000  0.90098547  1.0
  Rh  Rh14  1  0.08349037  0.25000000  0.40098547  1.0
  Rh  Rh15  1  0.58349037  0.25000000  0.09901453  1.0
