# generated using pymatgen
data_Cs3Mo2Br9
_symmetry_space_group_name_H-M   'P 1'
_cell_length_a   7.87303762
_cell_length_b   7.87303762
_cell_length_c   19.16499558
_cell_angle_alpha   90.00000000
_cell_angle_beta   90.00000000
_cell_angle_gamma   120.00000000
_symmetry_Int_Tables_number   1
_chemical_formula_structural   Cs3Mo2Br9
_chemical_formula_sum   'Cs6 Mo4 Br18'
_cell_volume   1028.78354227
_cell_formula_units_Z   2
loop_
 _symmetry_equiv_pos_site_id
 _symmetry_equiv_pos_as_xyz
  1  'x, y, z'
loop_
 _atom_site_type_symbol
 _atom_site_label
 _atom_site_symmetry_multiplicity
 _atom_site_fract_x
 _atom_site_fract_y
 _atom_site_fract_z
 _atom_site_occupancy
  Cs  Cs0  1  0.33333333  0.66666667  0.43413581  1.0
  Cs  Cs1  1  0.33333333  0.66666667  0.06586419  1.0
  Cs  Cs2  1  0.66666667  0.33333333  0.93413581  1.0
  Cs  Cs3  1  0.66666667  0.33333333  0.56586419  1.0
  Cs  Cs4  1  0.00000000  0.00000000  0.25000000  1.0
  Cs  Cs5  1  0.00000000  0.00000000  0.75000000  1.0
  Mo  Mo6  1  0.33333333  0.66666667  0.82442677  1.0
  Mo  Mo7  1  0.33333333  0.66666667  0.67557323  1.0
  Mo  Mo8  1  0.66666667  0.33333333  0.32442677  1.0
  Mo  Mo9  1  0.66666667  0.33333333  0.17557323  1.0
  Br  Br10  1  0.17885371  0.82114629  0.90265248  1.0
  Br  Br11  1  0.17885371  0.82114629  0.59734752  1.0
  Br  Br12  1  0.17885371  0.35770741  0.90265248  1.0
  Br  Br13  1  0.17885371  0.35770741  0.59734752  1.0
  Br  Br14  1  0.82114629  0.17885371  0.40265248  1.0
  Br  Br15  1  0.82114629  0.17885371  0.09734752  1.0
  Br  Br16  1  0.82114629  0.64229259  0.40265248  1.0
  Br  Br17  1  0.82114629  0.64229259  0.09734752  1.0
  Br  Br18  1  0.64229259  0.82114629  0.90265248  1.0
  Br  Br19  1  0.64229259  0.82114629  0.59734752  1.0
  Br  Br20  1  0.35770741  0.17885371  0.40265248  1.0
  Br  Br21  1  0.35770741  0.17885371  0.09734752  1.0
  Br  Br22  1  0.50506805  0.49493195  0.25000000  1.0
  Br  Br23  1  0.50506805  1.01013611  0.25000000  1.0
  Br  Br24  1  0.49493195  0.50506805  0.75000000  1.0
  Br  Br25  1  0.49493195  -0.01013611  0.75000000  1.0
  Br  Br26  1  -0.01013611  0.49493195  0.25000000  1.0
  Br  Br27  1  1.01013611  0.50506805  0.75000000  1.0
