# generated using pymatgen
data_CaSn2Rh
_symmetry_space_group_name_H-M   'P 1'
_cell_length_a   5.88441652
_cell_length_b   5.88441652
_cell_length_c   7.57939540
_cell_angle_alpha   90.00000000
_cell_angle_beta   90.00000000
_cell_angle_gamma   136.16674671
_symmetry_Int_Tables_number   1
_chemical_formula_structural   CaSn2Rh
_chemical_formula_sum   'Ca2 Sn4 Rh2'
_cell_volume   181.76070741
_cell_formula_units_Z   2
loop_
 _symmetry_equiv_pos_site_id
 _symmetry_equiv_pos_as_xyz
  1  'x, y, z'
loop_
 _atom_site_type_symbol
 _atom_site_label
 _atom_site_symmetry_multiplicity
 _atom_site_fract_x
 _atom_site_fract_y
 _atom_site_fract_z
 _atom_site_occupancy
  Ca  Ca0  1  0.43327455  0.56672545  0.75000000  1.0
  Ca  Ca1  1  -0.43327455  0.43327455  0.25000000  1.0
  Sn  Sn2  1  0.14511388  0.85488612  0.95290291  1.0
  Sn  Sn3  1  0.14511388  0.85488612  0.54709709  1.0
  Sn  Sn4  1  -0.14511388  0.14511388  0.45290291  1.0
  Sn  Sn5  1  -0.14511388  0.14511388  0.04709709  1.0
  Rh  Rh6  1  -0.29004846  0.29004846  0.75000000  1.0
  Rh  Rh7  1  0.29004846  0.70995154  0.25000000  1.0
