# generated using pymatgen
data_VH4(CO3)2
_symmetry_space_group_name_H-M   'P 1'
_cell_length_a   8.14851442
_cell_length_b   8.01825999
_cell_length_c   8.79261437
_cell_angle_alpha   90.00000000
_cell_angle_beta   90.00000000
_cell_angle_gamma   90.00000000
_symmetry_Int_Tables_number   1
_chemical_formula_structural   VH4(CO3)2
_chemical_formula_sum   'V4 H16 C8 O24'
_cell_volume   574.48222838
_cell_formula_units_Z   4
loop_
 _symmetry_equiv_pos_site_id
 _symmetry_equiv_pos_as_xyz
  1  'x, y, z'
loop_
 _atom_site_type_symbol
 _atom_site_label
 _atom_site_symmetry_multiplicity
 _atom_site_fract_x
 _atom_site_fract_y
 _atom_site_fract_z
 _atom_site_occupancy
  V  V0  1  0.50000000  0.76534294  0.75000000  1.0
  V  V1  1  0.00000000  0.23465706  0.75000000  1.0
  V  V2  1  0.50000000  0.23465706  0.25000000  1.0
  V  V3  1  0.00000000  0.76534294  0.25000000  1.0
  O  O4  1  0.50000000  0.48564722  0.75000000  1.0
  O  O5  1  0.00000000  0.51435278  0.75000000  1.0
  O  O6  1  0.50000000  0.51435278  0.25000000  1.0
  O  O7  1  0.00000000  0.48564722  0.25000000  1.0
  O  O8  1  0.21958438  0.71899166  0.35313080  1.0
  O  O9  1  0.28041562  0.28100834  0.35313080  1.0
  O  O10  1  0.71958438  0.28100834  0.14686920  1.0
  O  O11  1  0.78041562  0.71899166  0.14686920  1.0
  O  O12  1  0.78041562  0.28100834  0.64686920  1.0
  O  O13  1  0.71958438  0.71899166  0.64686920  1.0
  O  O14  1  0.28041562  0.71899166  0.85313080  1.0
  O  O15  1  0.21958438  0.28100834  0.85313080  1.0
  O  O16  1  0.39500466  0.72691216  0.54385577  1.0
  O  O17  1  0.10499534  0.27308784  0.54385577  1.0
  O  O18  1  0.89500466  0.27308784  0.95614423  1.0
  O  O19  1  0.60499534  0.72691216  0.95614423  1.0
  O  O20  1  0.60499534  0.27308784  0.45614423  1.0
  O  O21  1  0.89500466  0.72691216  0.45614423  1.0
  O  O22  1  0.10499534  0.72691216  0.04385577  1.0
  O  O23  1  0.39500466  0.27308784  0.04385577  1.0
  O  O24  1  0.50000000  0.96442418  0.75000000  1.0
  O  O25  1  0.00000000  0.03557582  0.75000000  1.0
  O  O26  1  0.50000000  0.03557582  0.25000000  1.0
  O  O27  1  0.00000000  0.96442418  0.25000000  1.0
  H  H28  1  0.58661284  0.41407318  0.70827920  1.0
  H  H29  1  0.91338716  0.58592682  0.70827920  1.0
  H  H30  1  0.08661284  0.58592682  0.79172080  1.0
  H  H31  1  0.41338716  0.41407318  0.79172080  1.0
  H  H32  1  0.41338716  0.58592682  0.29172080  1.0
  H  H33  1  0.08661284  0.41407318  0.29172080  1.0
  H  H34  1  0.91338716  0.41407318  0.20827920  1.0
  H  H35  1  0.58661284  0.58592682  0.20827920  1.0
  H  H36  1  0.16865808  0.83830372  0.55459498  1.0
  H  H37  1  0.33134192  0.16169628  0.55459498  1.0
  H  H38  1  0.66865808  0.16169628  0.94540502  1.0
  H  H39  1  0.83134192  0.83830372  0.94540502  1.0
  H  H40  1  0.83134192  0.16169628  0.44540502  1.0
  H  H41  1  0.66865808  0.83830372  0.44540502  1.0
  H  H42  1  0.33134192  0.83830372  0.05459498  1.0
  H  H43  1  0.16865808  0.16169628  0.05459498  1.0
  C  C44  1  0.25780650  0.76489813  0.48761920  1.0
  C  C45  1  0.24219350  0.23510187  0.48761920  1.0
  C  C46  1  0.75780650  0.23510187  0.01238080  1.0
  C  C47  1  0.74219350  0.76489813  0.01238080  1.0
  C  C48  1  0.74219350  0.23510187  0.51238080  1.0
  C  C49  1  0.75780650  0.76489813  0.51238080  1.0
  C  C50  1  0.24219350  0.76489813  0.98761920  1.0
  C  C51  1  0.25780650  0.23510187  0.98761920  1.0
