# generated using pymatgen
data_CsSnF3
_symmetry_space_group_name_H-M   'P 1'
_cell_length_a   4.81597348
_cell_length_b   6.97267805
_cell_length_c   15.40703070
_cell_angle_alpha   90.00000000
_cell_angle_beta   107.18188734
_cell_angle_gamma   90.00000000
_symmetry_Int_Tables_number   1
_chemical_formula_structural   CsSnF3
_chemical_formula_sum   'Cs4 Sn4 F12'
_cell_volume   494.28230534
_cell_formula_units_Z   4
loop_
 _symmetry_equiv_pos_site_id
 _symmetry_equiv_pos_as_xyz
  1  'x, y, z'
loop_
 _atom_site_type_symbol
 _atom_site_label
 _atom_site_symmetry_multiplicity
 _atom_site_fract_x
 _atom_site_fract_y
 _atom_site_fract_z
 _atom_site_occupancy
  Cs  Cs0  1  0.61907288  0.96000383  0.35936493  1.0
  Cs  Cs1  1  0.61907288  0.53999617  0.85936493  1.0
  Cs  Cs2  1  0.38092712  0.46000383  0.14063507  1.0
  Cs  Cs3  1  0.38092712  0.03999617  0.64063507  1.0
  Sn  Sn4  1  0.86903114  0.94457638  0.12065339  1.0
  Sn  Sn5  1  0.86903114  0.55542362  0.62065339  1.0
  Sn  Sn6  1  0.13096886  0.44457638  0.37934661  1.0
  Sn  Sn7  1  0.13096886  0.05542362  0.87934661  1.0
  F  F8  1  0.19250962  0.17782174  0.44395427  1.0
  F  F9  1  0.19250962  0.32217826  0.94395427  1.0
  F  F10  1  0.80749038  0.67782174  0.05604573  1.0
  F  F11  1  0.80749038  0.82217826  0.55604573  1.0
  F  F12  1  0.54964466  0.41626233  0.35850865  1.0
  F  F13  1  0.54964466  0.08373767  0.85850865  1.0
  F  F14  1  0.45035534  0.91626233  0.14149135  1.0
  F  F15  1  0.45035534  0.58373767  0.64149135  1.0
  F  F16  1  0.97500661  0.29918451  0.25659151  1.0
  F  F17  1  0.97500661  0.20081549  0.75659151  1.0
  F  F18  1  0.02499339  0.79918451  0.24340849  1.0
  F  F19  1  0.02499339  0.70081549  0.74340849  1.0
