# generated using pymatgen
data_ZnO2
_symmetry_space_group_name_H-M   'P 1'
_cell_length_a   6.23609449
_cell_length_b   4.12609113
_cell_length_c   4.93311874
_cell_angle_alpha   90.00000000
_cell_angle_beta   90.00000000
_cell_angle_gamma   90.00000000
_symmetry_Int_Tables_number   1
_chemical_formula_structural   ZnO2
_chemical_formula_sum   'Zn4 O8'
_cell_volume   126.93256948
_cell_formula_units_Z   4
loop_
 _symmetry_equiv_pos_site_id
 _symmetry_equiv_pos_as_xyz
  1  'x, y, z'
loop_
 _atom_site_type_symbol
 _atom_site_label
 _atom_site_symmetry_multiplicity
 _atom_site_fract_x
 _atom_site_fract_y
 _atom_site_fract_z
 _atom_site_occupancy
  Zn  Zn0  1  0.12501571  0.75000646  0.50003112  1.0
  Zn  Zn1  1  0.62501571  0.74999354  0.49996888  1.0
  Zn  Zn2  1  0.87498429  0.25000646  0.99996888  1.0
  Zn  Zn3  1  0.37498429  0.24999354  0.00003112  1.0
  O  O4  1  0.37501877  0.47293530  0.63140004  1.0
  O  O5  1  0.87501877  1.02706470  0.36859996  1.0
  O  O6  1  0.62498123  -0.02706470  0.86859996  1.0
  O  O7  1  0.12498123  0.52706470  0.13140004  1.0
  O  O8  1  0.12499834  0.97281841  0.86868223  1.0
  O  O9  1  0.62499834  0.52718159  0.13131777  1.0
  O  O10  1  0.87500166  0.47281841  0.63131777  1.0
  O  O11  1  0.37500166  0.02718159  0.36868223  1.0
