# generated using pymatgen
data_K2SeO4
_symmetry_space_group_name_H-M   'P 1'
_cell_length_a   7.83921105
_cell_length_b   6.16957320
_cell_length_c   10.58003139
_cell_angle_alpha   90.00000000
_cell_angle_beta   90.00000000
_cell_angle_gamma   90.00000000
_symmetry_Int_Tables_number   1
_chemical_formula_structural   K2SeO4
_chemical_formula_sum   'K8 Se4 O16'
_cell_volume   511.69884230
_cell_formula_units_Z   4
loop_
 _symmetry_equiv_pos_site_id
 _symmetry_equiv_pos_as_xyz
  1  'x, y, z'
loop_
 _atom_site_type_symbol
 _atom_site_label
 _atom_site_symmetry_multiplicity
 _atom_site_fract_x
 _atom_site_fract_y
 _atom_site_fract_z
 _atom_site_occupancy
  K  K0  1  0.82390581  0.75000000  0.42887554  1.0
  K  K1  1  0.32390581  0.75000000  0.07112446  1.0
  K  K2  1  0.17609419  0.25000000  0.57112446  1.0
  K  K3  1  0.67609419  0.25000000  0.92887554  1.0
  K  K4  1  0.48745252  0.75000000  0.70734134  1.0
  K  K5  1  -0.01254748  0.75000000  0.79265866  1.0
  K  K6  1  0.51254748  0.25000000  0.29265866  1.0
  K  K7  1  1.01254748  0.25000000  0.20734134  1.0
  Se  Se8  1  0.78221450  0.75000000  0.09123300  1.0
  Se  Se9  1  0.28221450  0.75000000  0.40876700  1.0
  Se  Se10  1  0.21778550  0.25000000  0.90876700  1.0
  Se  Se11  1  0.71778550  0.25000000  0.59123300  1.0
  O  O12  1  0.73319269  0.97127142  0.17520637  1.0
  O  O13  1  0.73319269  0.52872858  0.17520637  1.0
  O  O14  1  0.23319269  0.97127142  0.32479363  1.0
  O  O15  1  0.23319269  0.52872858  0.32479363  1.0
  O  O16  1  0.26680731  0.47127142  0.82479363  1.0
  O  O17  1  0.26680731  0.02872858  0.82479363  1.0
  O  O18  1  0.76680731  0.47127142  0.67520637  1.0
  O  O19  1  0.76680731  0.02872858  0.67520637  1.0
  O  O20  1  0.98876450  0.75000000  0.05702946  1.0
  O  O21  1  0.48876450  0.75000000  0.44297054  1.0
  O  O22  1  0.01123550  0.25000000  0.94297054  1.0
  O  O23  1  0.51123550  0.25000000  0.55702946  1.0
  O  O24  1  0.16623934  0.75000000  0.54235932  1.0
  O  O25  1  0.66623934  0.75000000  0.95764068  1.0
  O  O26  1  0.83376066  0.25000000  0.45764068  1.0
  O  O27  1  0.33376066  0.25000000  0.04235932  1.0
