# generated using pymatgen
data_CsLu(SO4)2
_symmetry_space_group_name_H-M   'P 1'
_cell_length_a   8.86486102
_cell_length_b   5.45091165
_cell_length_c   9.44338109
_cell_angle_alpha   90.00000000
_cell_angle_beta   89.35532757
_cell_angle_gamma   90.00000000
_symmetry_Int_Tables_number   1
_chemical_formula_structural   CsLu(SO4)2
_chemical_formula_sum   'Cs2 Lu2 S4 O16'
_cell_volume   456.29015533
_cell_formula_units_Z   2
loop_
 _symmetry_equiv_pos_site_id
 _symmetry_equiv_pos_as_xyz
  1  'x, y, z'
loop_
 _atom_site_type_symbol
 _atom_site_label
 _atom_site_symmetry_multiplicity
 _atom_site_fract_x
 _atom_site_fract_y
 _atom_site_fract_z
 _atom_site_occupancy
  Cs  Cs0  1  0.50000000  0.74954073  0.75000000  1.0
  Cs  Cs1  1  0.50000000  0.25045927  0.25000000  1.0
  Lu  Lu2  1  0.00000000  0.74904707  0.75000000  1.0
  Lu  Lu3  1  -0.00000000  0.25095293  0.25000000  1.0
  S  S4  1  0.79090583  0.75106130  0.42328551  1.0
  S  S5  1  0.79090583  0.24893870  -0.07671449  1.0
  S  S6  1  0.20909417  0.75106130  1.07671449  1.0
  S  S7  1  0.20909417  0.24893870  0.57671449  1.0
  O  O8  1  0.85781859  1.02541392  0.85482337  1.0
  O  O9  1  0.85781859  -0.02541392  0.35482337  1.0
  O  O10  1  0.14218141  1.02541392  0.64517663  1.0
  O  O11  1  0.14218141  -0.02541392  0.14517663  1.0
  O  O12  1  0.85818891  0.52847953  0.35411054  1.0
  O  O13  1  0.85818891  0.47152047  0.85411054  1.0
  O  O14  1  0.14181109  0.52847953  0.14588946  1.0
  O  O15  1  0.14181109  0.47152047  0.64588946  1.0
  O  O16  1  0.83421049  0.75040278  0.57662340  1.0
  O  O17  1  0.83421049  0.24959722  0.07662340  1.0
  O  O18  1  0.16578951  0.75040278  0.92337660  1.0
  O  O19  1  0.16578951  0.24959722  0.42337660  1.0
  O  O20  1  0.62637813  1.24921298  0.91056928  1.0
  O  O21  1  0.62637813  -0.24921298  0.41056928  1.0
  O  O22  1  0.37362187  1.24921298  0.58943072  1.0
  O  O23  1  0.37362187  -0.24921298  0.08943072  1.0
