# generated using pymatgen
data_NaCO2
_symmetry_space_group_name_H-M   'P 1'
_cell_length_a   3.55425921
_cell_length_b   5.30089471
_cell_length_c   10.63625370
_cell_angle_alpha   90.00000000
_cell_angle_beta   93.98521321
_cell_angle_gamma   90.00000000
_symmetry_Int_Tables_number   1
_chemical_formula_structural   NaCO2
_chemical_formula_sum   'Na4 C4 O8'
_cell_volume   199.91048636
_cell_formula_units_Z   4
loop_
 _symmetry_equiv_pos_site_id
 _symmetry_equiv_pos_as_xyz
  1  'x, y, z'
loop_
 _atom_site_type_symbol
 _atom_site_label
 _atom_site_symmetry_multiplicity
 _atom_site_fract_x
 _atom_site_fract_y
 _atom_site_fract_z
 _atom_site_occupancy
  Na  Na0  1  0.70219661  0.94165504  0.64439952  1.0
  Na  Na1  1  0.70219661  0.55834496  0.14439952  1.0
  Na  Na2  1  0.29780339  0.44165504  0.85560048  1.0
  Na  Na3  1  0.29780339  0.05834496  0.35560048  1.0
  C  C4  1  0.88740151  0.95580189  0.93710083  1.0
  C  C5  1  0.88740151  0.54419811  0.43710083  1.0
  C  C6  1  0.11259849  0.45580189  0.56289917  1.0
  C  C7  1  0.11259849  0.04419811  0.06289917  1.0
  O  O8  1  0.83584172  0.11599498  0.84920393  1.0
  O  O9  1  0.83584172  0.38400502  0.34920393  1.0
  O  O10  1  0.16415828  0.61599498  0.65079607  1.0
  O  O11  1  0.16415828  0.88400502  0.15079607  1.0
  O  O12  1  0.77411127  0.72927949  0.93297563  1.0
  O  O13  1  0.77411127  0.77072051  0.43297563  1.0
  O  O14  1  0.22588873  0.22927949  0.56702437  1.0
  O  O15  1  0.22588873  0.27072051  0.06702437  1.0
