# generated using pymatgen
data_Rb2SiP4O13
_symmetry_space_group_name_H-M   'P 1'
_cell_length_a   15.53387673
_cell_length_b   7.95149404
_cell_length_c   4.93585654
_cell_angle_alpha   81.60128930
_cell_angle_beta   83.55627840
_cell_angle_gamma   82.86377126
_symmetry_Int_Tables_number   1
_chemical_formula_structural   Rb2SiP4O13
_chemical_formula_sum   'Rb4 Si2 P8 O26'
_cell_volume   595.69935317
_cell_formula_units_Z   2
loop_
 _symmetry_equiv_pos_site_id
 _symmetry_equiv_pos_as_xyz
  1  'x, y, z'
loop_
 _atom_site_type_symbol
 _atom_site_label
 _atom_site_symmetry_multiplicity
 _atom_site_fract_x
 _atom_site_fract_y
 _atom_site_fract_z
 _atom_site_occupancy
  Rb  Rb0  1  -0.99039220  -0.24172850  -0.68641150  1.0
  Rb  Rb1  1  -0.00960780  -0.75827150  -0.31358850  1.0
  Rb  Rb2  1  -0.52504031  -0.79310859  -0.27724676  1.0
  Rb  Rb3  1  -0.47495969  -0.20689141  -0.72275324  1.0
  Si  Si4  1  -0.74258382  -0.45359738  -0.53619104  1.0
  Si  Si5  1  -0.25741618  -0.54640262  -0.46380896  1.0
  P  P6  1  -0.83676957  -0.59536173  -0.97117980  1.0
  P  P7  1  -0.16323043  -0.40463827  -0.02882020  1.0
  P  P8  1  -0.34966480  -0.68930278  -0.90106962  1.0
  P  P9  1  -0.65033520  -0.31069722  -0.09893038  1.0
  P  P10  1  -0.19576691  -0.89343780  -0.67510689  1.0
  P  P11  1  -0.80423309  -0.10656220  -0.32489311  1.0
  P  P12  1  -0.70940662  -0.82728450  -0.67775786  1.0
  P  P13  1  -0.29059338  -0.17271550  -0.32224214  1.0
  O  O14  1  -0.75762462  -0.75463846  -0.94801495  1.0
  O  O15  1  -0.24237538  -0.24536154  -0.05198505  1.0
  O  O16  1  -0.92324314  -0.65777102  -0.87450333  1.0
  O  O17  1  -0.07675686  -0.34222898  -0.12549667  1.0
  O  O18  1  -0.27162415  -0.84919442  -0.87625991  1.0
  O  O19  1  -0.72837585  -0.15080558  -0.12374009  1.0
  O  O20  1  -0.10641164  -0.91580971  -0.81854466  1.0
  O  O21  1  -0.89358836  -0.08419029  -0.18145534  1.0
  O  O22  1  -0.81176704  -0.46328163  -0.79690342  1.0
  O  O23  1  -0.18823296  -0.53671837  -0.20309658  1.0
  O  O24  1  -0.43604148  -0.75421764  -0.81205634  1.0
  O  O25  1  -0.56395852  -0.24578236  -0.18794366  1.0
  O  O26  1  -0.65745347  -0.38613599  -0.78963713  1.0
  O  O27  1  -0.34254653  -0.61386401  -0.21036287  1.0
  O  O28  1  -0.62874797  -0.94194571  -0.73842971  1.0
  O  O29  1  -0.37125203  -0.05805429  -0.26157029  1.0
  O  O30  1  -0.32614412  -0.55659214  -0.72532375  1.0
  O  O31  1  -0.67385588  -0.44340786  -0.27467625  1.0
  O  O32  1  -0.69591278  -0.67243565  -0.53786708  1.0
  O  O33  1  -0.30408722  -0.32756435  -0.46213292  1.0
  O  O34  1  -0.78865765  -0.23472829  -0.53582336  1.0
  O  O35  1  -0.21134235  -0.76527171  -0.46417664  1.0
  O  O36  1  -0.78573361  -0.92065442  -0.48552197  1.0
  O  O37  1  -0.21426639  -0.07934558  -0.51447803  1.0
  O  O38  1  -0.82875097  -0.52283317  -0.28147916  1.0
  O  O39  1  -0.17124903  -0.47716683  -0.71852084  1.0
