# generated using pymatgen
data_LiBiF6
_symmetry_space_group_name_H-M   'P 1'
_cell_length_a   5.67904365
_cell_length_b   5.67904365
_cell_length_c   5.67904365
_cell_angle_alpha   57.21964118
_cell_angle_beta   57.21964118
_cell_angle_gamma   57.21964118
_symmetry_Int_Tables_number   1
_chemical_formula_structural   LiBiF6
_chemical_formula_sum   'Li1 Bi1 F6'
_cell_volume   121.21843232
_cell_formula_units_Z   1
loop_
 _symmetry_equiv_pos_site_id
 _symmetry_equiv_pos_as_xyz
  1  'x, y, z'
loop_
 _atom_site_type_symbol
 _atom_site_label
 _atom_site_symmetry_multiplicity
 _atom_site_fract_x
 _atom_site_fract_y
 _atom_site_fract_z
 _atom_site_occupancy
  Li  Li0  1  0.50000000  0.50000000  -0.50000000  1.0
  Bi  Bi1  1  0.00000000  -0.00000000  0.00000000  1.0
  F  F2  1  0.13967505  0.75253550  -0.64410328  1.0
  F  F3  1  0.64410328  -0.13967505  0.24746450  1.0
  F  F4  1  1.24746450  -0.35589672  -0.13967505  1.0
  F  F5  1  0.86032495  0.24746450  -0.35589672  1.0
  F  F6  1  0.35589672  0.13967505  -0.24746450  1.0
  F  F7  1  0.75253550  0.35589672  -0.86032495  1.0
