# generated using pymatgen
data_CuH12N2(Cl2O)2
_symmetry_space_group_name_H-M   'P 1'
_cell_length_a   7.69773957
_cell_length_b   7.69773957
_cell_length_c   7.96945767
_cell_angle_alpha   90.00000000
_cell_angle_beta   90.00000000
_cell_angle_gamma   90.00000000
_symmetry_Int_Tables_number   1
_chemical_formula_structural   CuH12N2(Cl2O)2
_chemical_formula_sum   'Cu2 H24 N4 Cl8 O4'
_cell_volume   472.23176446
_cell_formula_units_Z   2
loop_
 _symmetry_equiv_pos_site_id
 _symmetry_equiv_pos_as_xyz
  1  'x, y, z'
loop_
 _atom_site_type_symbol
 _atom_site_label
 _atom_site_symmetry_multiplicity
 _atom_site_fract_x
 _atom_site_fract_y
 _atom_site_fract_z
 _atom_site_occupancy
  Cu  Cu0  1  0.50000000  0.50000000  0.50000000  1.0
  Cu  Cu1  1  0.00000000  0.00000000  0.00000000  1.0
  H  H2  1  0.43048570  0.91457554  0.32448964  1.0
  H  H3  1  0.43048570  0.91457554  0.67551036  1.0
  H  H4  1  0.93048570  0.58542446  0.82448964  1.0
  H  H5  1  0.93048570  0.58542446  0.17551036  1.0
  H  H6  1  0.08542446  0.56951430  0.32448964  1.0
  H  H7  1  0.08542446  0.56951430  0.67551036  1.0
  H  H8  1  0.58542446  0.93048570  0.82448964  1.0
  H  H9  1  0.58542446  0.93048570  0.17551036  1.0
  H  H10  1  0.56951430  0.08542446  0.32448964  1.0
  H  H11  1  0.56951430  0.08542446  0.67551036  1.0
  H  H12  1  0.06951430  0.41457554  0.82448964  1.0
  H  H13  1  0.06951430  0.41457554  0.17551036  1.0
  H  H14  1  0.91457554  0.43048570  0.32448964  1.0
  H  H15  1  0.91457554  0.43048570  0.67551036  1.0
  H  H16  1  0.41457554  0.06951430  0.82448964  1.0
  H  H17  1  0.41457554  0.06951430  0.17551036  1.0
  H  H18  1  0.42565074  0.57434926  0.18037270  1.0
  H  H19  1  0.42565074  0.57434926  0.81962730  1.0
  H  H20  1  0.92565074  0.92565074  0.68037270  1.0
  H  H21  1  0.92565074  0.92565074  0.31962730  1.0
  H  H22  1  0.57434926  0.42565074  0.18037270  1.0
  H  H23  1  0.57434926  0.42565074  0.81962730  1.0
  H  H24  1  0.07434926  0.07434926  0.68037270  1.0
  H  H25  1  0.07434926  0.07434926  0.31962730  1.0
  N  N26  1  0.50000000  0.00000000  0.25000000  1.0
  N  N27  1  0.50000000  0.00000000  0.75000000  1.0
  N  N28  1  0.00000000  0.50000000  0.75000000  1.0
  N  N29  1  0.00000000  0.50000000  0.25000000  1.0
  Cl  Cl30  1  0.21080679  0.21080679  0.50000000  1.0
  Cl  Cl31  1  0.71080679  0.28919321  0.00000000  1.0
  Cl  Cl32  1  0.78919321  0.78919321  0.50000000  1.0
  Cl  Cl33  1  0.28919321  0.71080679  0.00000000  1.0
  Cl  Cl34  1  0.28892112  0.71107888  0.50000000  1.0
  Cl  Cl35  1  0.78892112  0.78892112  0.00000000  1.0
  Cl  Cl36  1  0.71107888  0.28892112  0.50000000  1.0
  Cl  Cl37  1  0.21107888  0.21107888  0.00000000  1.0
  O  O38  1  0.50000000  0.50000000  0.25400089  1.0
  O  O39  1  0.50000000  0.50000000  0.74599911  1.0
  O  O40  1  0.00000000  0.00000000  0.75400089  1.0
  O  O41  1  0.00000000  0.00000000  0.24599911  1.0
