# generated using pymatgen
data_Sr3Co(CN)3
_symmetry_space_group_name_H-M   'P 1'
_cell_length_a   8.72166890
_cell_length_b   8.72166890
_cell_length_c   5.41769195
_cell_angle_alpha   90.00000000
_cell_angle_beta   90.00000000
_cell_angle_gamma   120.00000000
_symmetry_Int_Tables_number   1
_chemical_formula_structural   Sr3Co(CN)3
_chemical_formula_sum   'Sr6 Co2 C6 N6'
_cell_volume   356.89801303
_cell_formula_units_Z   2
loop_
 _symmetry_equiv_pos_site_id
 _symmetry_equiv_pos_as_xyz
  1  'x, y, z'
loop_
 _atom_site_type_symbol
 _atom_site_label
 _atom_site_symmetry_multiplicity
 _atom_site_fract_x
 _atom_site_fract_y
 _atom_site_fract_z
 _atom_site_occupancy
  Sr  Sr0  1  0.93408876  0.62690294  0.25000000  1.0
  Sr  Sr1  1  0.62690294  0.69281418  0.75000000  1.0
  Sr  Sr2  1  0.69281418  0.06591124  0.25000000  1.0
  Sr  Sr3  1  0.37309706  0.30718582  0.25000000  1.0
  Sr  Sr4  1  0.06591124  0.37309706  0.75000000  1.0
  Sr  Sr5  1  0.30718582  0.93408876  0.75000000  1.0
  Co  Co6  1  0.33333333  0.66666667  0.25000000  1.0
  Co  Co7  1  0.66666667  0.33333333  0.75000000  1.0
  C  C8  1  0.30420775  0.85171710  0.25000000  1.0
  C  C9  1  0.85171710  0.54750935  0.75000000  1.0
  C  C10  1  0.54750935  0.69579225  0.25000000  1.0
  C  C11  1  0.14828290  0.45249065  0.25000000  1.0
  C  C12  1  0.69579225  0.14828290  0.75000000  1.0
  C  C13  1  0.45249065  0.30420775  0.75000000  1.0
  N  N14  1  0.27635173  0.97833316  0.25000000  1.0
  N  N15  1  0.97833316  0.70198144  0.75000000  1.0
  N  N16  1  0.70198144  0.72364827  0.25000000  1.0
  N  N17  1  0.02166684  0.29801856  0.25000000  1.0
  N  N18  1  0.72364827  0.02166684  0.75000000  1.0
  N  N19  1  0.29801856  0.27635173  0.75000000  1.0
