# generated using pymatgen
data_BaCSNCl
_symmetry_space_group_name_H-M   'P 1'
_cell_length_a   5.89911791
_cell_length_b   4.66255033
_cell_length_c   8.96996987
_cell_angle_alpha   90.00000000
_cell_angle_beta   98.81713504
_cell_angle_gamma   90.00000000
_symmetry_Int_Tables_number   1
_chemical_formula_structural   BaCSNCl
_chemical_formula_sum   'Ba2 C2 S2 N2 Cl2'
_cell_volume   243.80285678
_cell_formula_units_Z   2
loop_
 _symmetry_equiv_pos_site_id
 _symmetry_equiv_pos_as_xyz
  1  'x, y, z'
loop_
 _atom_site_type_symbol
 _atom_site_label
 _atom_site_symmetry_multiplicity
 _atom_site_fract_x
 _atom_site_fract_y
 _atom_site_fract_z
 _atom_site_occupancy
  Ba  Ba0  1  0.71115830  0.25000000  0.30280935  1.0
  Ba  Ba1  1  0.28884170  0.75000000  0.69719065  1.0
  C  C2  1  0.89155797  0.25000000  0.84270168  1.0
  C  C3  1  0.10844203  0.75000000  0.15729832  1.0
  S  S4  1  0.63832782  0.25000000  0.89593325  1.0
  S  S5  1  0.36167218  0.75000000  0.10406675  1.0
  N  N6  1  0.07524204  0.25000000  0.80452457  1.0
  N  N7  1  0.92475796  0.75000000  0.19547543  1.0
  Cl  Cl8  1  0.24897593  0.25000000  0.45289460  1.0
  Cl  Cl9  1  0.75102407  0.75000000  0.54710540  1.0
