# generated using pymatgen
data_Yb(ClO4)3
_symmetry_space_group_name_H-M   'P 1'
_cell_length_a   9.79180878
_cell_length_b   9.79180878
_cell_length_c   5.55651101
_cell_angle_alpha   90.00000000
_cell_angle_beta   90.00000000
_cell_angle_gamma   120.00000000
_symmetry_Int_Tables_number   1
_chemical_formula_structural   Yb(ClO4)3
_chemical_formula_sum   'Yb2 Cl6 O24'
_cell_volume   461.37988681
_cell_formula_units_Z   2
loop_
 _symmetry_equiv_pos_site_id
 _symmetry_equiv_pos_as_xyz
  1  'x, y, z'
loop_
 _atom_site_type_symbol
 _atom_site_label
 _atom_site_symmetry_multiplicity
 _atom_site_fract_x
 _atom_site_fract_y
 _atom_site_fract_z
 _atom_site_occupancy
  Yb  Yb0  1  0.66666667  0.33333333  0.25000000  1.0
  Yb  Yb1  1  0.33333333  0.66666667  0.75000000  1.0
  Cl  Cl2  1  0.29754886  0.89935402  0.25000000  1.0
  Cl  Cl3  1  0.89935402  0.60180515  0.75000000  1.0
  Cl  Cl4  1  0.60180515  0.70245114  0.25000000  1.0
  Cl  Cl5  1  0.10064598  0.39819485  0.25000000  1.0
  Cl  Cl6  1  0.70245114  0.10064598  0.75000000  1.0
  Cl  Cl7  1  0.39819485  0.29754886  0.75000000  1.0
  O  O8  1  0.26153917  0.79572831  0.46417648  1.0
  O  O9  1  0.26153917  0.79572831  0.03582352  1.0
  O  O10  1  0.79572831  0.53418914  0.96417648  1.0
  O  O11  1  0.79572831  0.53418914  0.53582352  1.0
  O  O12  1  0.53418914  0.73846083  0.46417648  1.0
  O  O13  1  0.53418914  0.73846083  0.03582352  1.0
  O  O14  1  0.20427169  0.46581086  0.46417648  1.0
  O  O15  1  0.20427169  0.46581086  0.03582352  1.0
  O  O16  1  0.73846083  0.20427169  0.96417648  1.0
  O  O17  1  0.73846083  0.20427169  0.53582352  1.0
  O  O18  1  0.46581086  0.26153917  0.96417648  1.0
  O  O19  1  0.46581086  0.26153917  0.53582352  1.0
  O  O20  1  0.19625999  0.96539877  0.25000000  1.0
  O  O21  1  0.96539877  0.76913878  0.75000000  1.0
  O  O22  1  0.76913878  0.80374001  0.25000000  1.0
  O  O23  1  0.03460123  0.23086122  0.25000000  1.0
  O  O24  1  0.80374001  0.03460123  0.75000000  1.0
  O  O25  1  0.23086122  0.19625999  0.75000000  1.0
  O  O26  1  0.55273407  0.53555748  0.25000000  1.0
  O  O27  1  0.53555748  0.98282341  0.75000000  1.0
  O  O28  1  0.98282341  0.44726593  0.25000000  1.0
  O  O29  1  0.46444252  0.01717659  0.25000000  1.0
  O  O30  1  0.44726593  0.46444252  0.75000000  1.0
  O  O31  1  0.01717659  0.55273407  0.75000000  1.0
