# generated using pymatgen
data_Y(BIr)2
_symmetry_space_group_name_H-M   'P 1'
_cell_length_a   10.03442723
_cell_length_b   10.03442723
_cell_length_c   3.77827740
_cell_angle_alpha   90.00000000
_cell_angle_beta   90.00000000
_cell_angle_gamma   90.00000000
_symmetry_Int_Tables_number   1
_chemical_formula_structural   Y(BIr)2
_chemical_formula_sum   'Y4 B8 Ir8'
_cell_volume   380.43373045
_cell_formula_units_Z   4
loop_
 _symmetry_equiv_pos_site_id
 _symmetry_equiv_pos_as_xyz
  1  'x, y, z'
loop_
 _atom_site_type_symbol
 _atom_site_label
 _atom_site_symmetry_multiplicity
 _atom_site_fract_x
 _atom_site_fract_y
 _atom_site_fract_z
 _atom_site_occupancy
  Y  Y0  1  0.25000000  0.25000000  0.25000000  1.0
  Y  Y1  1  0.75000000  0.75000000  0.25000000  1.0
  Y  Y2  1  0.25000000  0.75000000  0.75000000  1.0
  Y  Y3  1  0.75000000  0.25000000  0.75000000  1.0
  B  B4  1  0.48248555  0.79573739  0.25002815  1.0
  B  B5  1  0.98248555  0.29573739  0.24997185  1.0
  B  B6  1  0.79573739  0.51751445  0.74997185  1.0
  B  B7  1  0.29573739  0.01751445  0.75002815  1.0
  B  B8  1  0.51751445  0.20426261  0.25002815  1.0
  B  B9  1  0.01751445  0.70426261  0.24997185  1.0
  B  B10  1  0.20426261  0.48248555  0.74997185  1.0
  B  B11  1  0.70426261  0.98248555  0.75002815  1.0
  Ir  Ir12  1  0.85600025  0.46163498  0.24997232  1.0
  Ir  Ir13  1  0.35600025  0.96163498  0.25002768  1.0
  Ir  Ir14  1  0.46163498  0.14399975  0.75002768  1.0
  Ir  Ir15  1  0.96163498  0.64399975  0.74997232  1.0
  Ir  Ir16  1  0.14399975  0.53836502  0.24997232  1.0
  Ir  Ir17  1  0.64399975  0.03836502  0.25002768  1.0
  Ir  Ir18  1  0.53836502  0.85600025  0.75002768  1.0
  Ir  Ir19  1  0.03836502  0.35600025  0.74997232  1.0
