# generated using pymatgen
data_TlIO3
_symmetry_space_group_name_H-M   'P 1'
_cell_length_a   4.64268234
_cell_length_b   4.64268234
_cell_length_c   4.64268234
_cell_angle_alpha   87.14084539
_cell_angle_beta   87.14084539
_cell_angle_gamma   87.14084539
_symmetry_Int_Tables_number   1
_chemical_formula_structural   TlIO3
_chemical_formula_sum   'Tl1 I1 O3'
_cell_volume   99.70897899
_cell_formula_units_Z   1
loop_
 _symmetry_equiv_pos_site_id
 _symmetry_equiv_pos_as_xyz
  1  'x, y, z'
loop_
 _atom_site_type_symbol
 _atom_site_label
 _atom_site_symmetry_multiplicity
 _atom_site_fract_x
 _atom_site_fract_y
 _atom_site_fract_z
 _atom_site_occupancy
  Tl  Tl0  1  -0.01628735  -0.01628735  -0.01628735  1.0
  I  I1  1  0.49816702  0.49816702  -0.50183298  1.0
  O  O2  1  0.09418817  0.55431608  -0.44568392  1.0
  O  O3  1  0.55431608  0.09418817  -0.44568392  1.0
  O  O4  1  0.55431608  0.55431608  -0.90581183  1.0
