# generated using pymatgen
data_LiGa(H2N)4
_symmetry_space_group_name_H-M   'P 1'
_cell_length_a   6.04478304
_cell_length_b   7.79274607
_cell_length_c   6.16100004
_cell_angle_alpha   90.00000000
_cell_angle_beta   104.21862246
_cell_angle_gamma   90.00000000
_symmetry_Int_Tables_number   1
_chemical_formula_structural   LiGa(H2N)4
_chemical_formula_sum   'Li2 Ga2 H16 N8'
_cell_volume   281.32611155
_cell_formula_units_Z   2
loop_
 _symmetry_equiv_pos_site_id
 _symmetry_equiv_pos_as_xyz
  1  'x, y, z'
loop_
 _atom_site_type_symbol
 _atom_site_label
 _atom_site_symmetry_multiplicity
 _atom_site_fract_x
 _atom_site_fract_y
 _atom_site_fract_z
 _atom_site_occupancy
  Li  Li0  1  0.63090737  0.50884151  0.39907236  1.0
  Li  Li1  1  0.36909263  0.00884151  0.60092764  1.0
  Ga  Ga2  1  0.13588889  0.28619014  0.36193954  1.0
  Ga  Ga3  1  0.86411111  0.78619014  0.63806046  1.0
  H  H4  1  0.27379840  0.46823462  0.08976534  1.0
  H  H5  1  0.72620160  0.96823462  0.91023466  1.0
  H  H6  1  0.74175725  0.30164111  0.12759647  1.0
  H  H7  1  0.25824275  0.80164111  0.87240353  1.0
  H  H8  1  0.11702681  0.00418158  0.16438499  1.0
  H  H9  1  0.88297319  0.50418158  0.83561501  1.0
  H  H10  1  0.34365474  0.10462318  0.14060719  1.0
  H  H11  1  0.65634526  0.60462318  0.85939281  1.0
  H  H12  1  0.19668151  0.59078742  0.26977223  1.0
  H  H13  1  0.80331849  0.09078742  0.73022777  1.0
  H  H14  1  0.73991930  0.19303901  0.35073121  1.0
  H  H15  1  0.26008070  0.69303901  0.64926879  1.0
  H  H16  1  0.39415060  0.34009425  0.73768749  1.0
  H  H17  1  0.60584940  0.84009425  0.26231251  1.0
  H  H18  1  0.14927334  0.27494433  0.77749439  1.0
  H  H19  1  0.85072666  0.77494433  0.22250561  1.0
  N  N20  1  0.25058856  0.07547662  0.25381636  1.0
  N  N21  1  0.74941144  0.57547662  0.74618364  1.0
  N  N22  1  0.28250885  0.47954558  0.25719351  1.0
  N  N23  1  0.71749115  0.97954558  0.74280649  1.0
  N  N24  1  0.80548405  0.30226278  0.29787279  1.0
  N  N25  1  0.19451595  0.80226278  0.70212721  1.0
  N  N26  1  0.26246503  0.25603787  0.68128505  1.0
  N  N27  1  0.73753497  0.75603787  0.31871495  1.0
