# generated using pymatgen
data_In2Te3
_symmetry_space_group_name_H-M   'P 1'
_cell_length_a   10.14139966
_cell_length_b   10.14139966
_cell_length_c   10.14139966
_cell_angle_alpha   97.95936761
_cell_angle_beta   97.95936761
_cell_angle_gamma   136.30756857
_symmetry_Int_Tables_number   1
_chemical_formula_structural   In2Te3
_chemical_formula_sum   'In6 Te9'
_cell_volume   668.76385262
_cell_formula_units_Z   3
loop_
 _symmetry_equiv_pos_site_id
 _symmetry_equiv_pos_as_xyz
  1  'x, y, z'
loop_
 _atom_site_type_symbol
 _atom_site_label
 _atom_site_symmetry_multiplicity
 _atom_site_fract_x
 _atom_site_fract_y
 _atom_site_fract_z
 _atom_site_occupancy
  In  In0  1  1.51437249  0.70200456  0.81236793  1.0
  In  In1  1  0.70200456  0.51437249  0.81236793  1.0
  In  In2  1  0.70200456  0.88963663  1.18763207  1.0
  In  In3  1  0.88963663  0.70200456  0.18763207  1.0
  In  In4  1  0.76253442  0.26253442  0.50000000  1.0
  In  In5  1  1.26253442  0.76253442  0.50000000  1.0
  Te  Te6  1  0.66030638  -0.00034780  0.66065418  1.0
  Te  Te7  1  0.99965220  0.66030638  0.66065418  1.0
  Te  Te8  1  0.99965220  1.33899801  1.33934582  1.0
  Te  Te9  1  0.33899801  -0.00034780  0.33934582  1.0
  Te  Te10  1  0.75285002  0.75285002  0.38434162  1.0
  Te  Te11  1  0.75285002  1.36850840  1.00000000  1.0
  Te  Te12  1  0.36850840  0.75285002  1.00000000  1.0
  Te  Te13  1  0.36850840  0.36850840  0.61565838  1.0
  Te  Te14  1  -0.07441272  -0.07441272  -0.00000000  1.0
