# generated using pymatgen
data_KSn2(AsO4)3
_symmetry_space_group_name_H-M   'P 1'
_cell_length_a   9.74292239
_cell_length_b   9.74292239
_cell_length_c   9.74292239
_cell_angle_alpha   55.17432662
_cell_angle_beta   55.17432662
_cell_angle_gamma   55.17432662
_symmetry_Int_Tables_number   1
_chemical_formula_structural   KSn2(AsO4)3
_chemical_formula_sum   'K2 Sn4 As6 O24'
_cell_volume   580.58899641
_cell_formula_units_Z   2
loop_
 _symmetry_equiv_pos_site_id
 _symmetry_equiv_pos_as_xyz
  1  'x, y, z'
loop_
 _atom_site_type_symbol
 _atom_site_label
 _atom_site_symmetry_multiplicity
 _atom_site_fract_x
 _atom_site_fract_y
 _atom_site_fract_z
 _atom_site_occupancy
  K  K0  1  1.00000000  0.00000000  0.00000000  1.0
  K  K1  1  0.50000000  0.50000000  0.50000000  1.0
  Sn  Sn2  1  0.85041136  -0.14958864  -0.14958864  1.0
  Sn  Sn3  1  0.35041136  0.35041136  0.35041136  1.0
  Sn  Sn4  1  0.64958864  0.64958864  -0.35041136  1.0
  Sn  Sn5  1  1.14958864  0.14958864  0.14958864  1.0
  As  As6  1  0.46725485  0.75000000  0.03274515  1.0
  As  As7  1  0.96725485  -0.46725485  0.25000000  1.0
  As  As8  1  0.25000000  0.96725485  -0.46725485  1.0
  As  As9  1  0.75000000  1.03274515  -0.53274515  1.0
  As  As10  1  0.53274515  0.25000000  -0.03274515  1.0
  As  As11  1  1.03274515  0.46725485  -0.25000000  1.0
  O  O12  1  0.73815044  1.02475758  -0.34388856  1.0
  O  O13  1  1.23815044  0.15611144  -0.47524242  1.0
  O  O14  1  0.84388856  0.47524242  -0.23815044  1.0
  O  O15  1  0.34388856  0.26184956  -0.02475758  1.0
  O  O16  1  0.97524242  0.34388856  -0.73815044  1.0
  O  O17  1  0.47524242  0.76184956  -0.15611144  1.0
  O  O18  1  0.26184956  0.97524242  -0.65611144  1.0
  O  O19  1  0.76184956  0.84388856  -0.52475758  1.0
  O  O20  1  0.65611144  0.73815044  0.02475758  1.0
  O  O21  1  1.15611144  -0.47524242  0.23815044  1.0
  O  O22  1  0.52475758  0.23815044  0.15611144  1.0
  O  O23  1  1.02475758  0.65611144  -0.26184956  1.0
  O  O24  1  0.71861259  0.05939567  -0.06015225  1.0
  O  O25  1  1.21861259  0.43984775  -0.44060433  1.0
  O  O26  1  0.56015225  0.44060433  -0.21861259  1.0
  O  O27  1  1.06015225  0.28138741  -0.05939567  1.0
  O  O28  1  0.94060433  0.06015225  0.28138741  1.0
  O  O29  1  0.44060433  0.78138741  -0.43984775  1.0
  O  O30  1  1.28138741  -0.05939567  0.06015225  1.0
  O  O31  1  0.78138741  0.56015225  -0.55939567  1.0
  O  O32  1  0.93984775  -0.28138741  0.05939567  1.0
  O  O33  1  0.43984775  0.55939567  0.21861259  1.0
  O  O34  1  0.55939567  1.21861259  -0.56015225  1.0
  O  O35  1  1.05939567  -0.06015225  -0.28138741  1.0
