# generated using pymatgen
data_H8Pd(NCl3)2
_symmetry_space_group_name_H-M   'P 1'
_cell_length_a   7.12417883
_cell_length_b   7.12417883
_cell_length_c   10.38131527
_cell_angle_alpha   90.01394317
_cell_angle_beta   89.98605683
_cell_angle_gamma   93.48734264
_symmetry_Int_Tables_number   1
_chemical_formula_structural   H8Pd(NCl3)2
_chemical_formula_sum   'H16 Pd2 N4 Cl12'
_cell_volume   525.91679005
_cell_formula_units_Z   2
loop_
 _symmetry_equiv_pos_site_id
 _symmetry_equiv_pos_as_xyz
  1  'x, y, z'
loop_
 _atom_site_type_symbol
 _atom_site_label
 _atom_site_symmetry_multiplicity
 _atom_site_fract_x
 _atom_site_fract_y
 _atom_site_fract_z
 _atom_site_occupancy
  H  H0  1  0.94751219  -0.07205039  0.33048450  1.0
  H  H1  1  1.07205039  0.05248781  0.83048450  1.0
  H  H2  1  0.92794961  -0.05248781  0.16951550  1.0
  H  H3  1  1.05248781  0.07205039  0.66951550  1.0
  H  H4  1  1.85811030  0.01915714  0.75980196  1.0
  H  H5  1  0.98084286  -0.85811030  0.25980196  1.0
  H  H6  1  1.01915714  0.85811030  0.74019804  1.0
  H  H7  1  0.14188970  -0.01915714  0.24019804  1.0
  H  H8  1  1.48163670  -0.35732177  0.75981652  1.0
  H  H9  1  1.35732177  -0.48163670  0.25981652  1.0
  H  H10  1  0.64267823  0.48163670  0.74018348  1.0
  H  H11  1  0.51836330  0.35732177  0.24018348  1.0
  H  H12  1  0.44831598  0.42871329  0.83049187  1.0
  H  H13  1  0.57128671  0.55168402  0.33049187  1.0
  H  H14  1  1.42871329  -0.55168402  0.66950813  1.0
  H  H15  1  1.55168402  -0.42871329  0.16950813  1.0
  Pd  Pd16  1  1.50000000  -0.00000000  0.00000000  1.0
  Pd  Pd17  1  1.00000000  0.50000000  0.50000000  1.0
  N  N18  1  1.00044598  1.00044598  0.75000000  1.0
  N  N19  1  -0.00044598  -0.00044598  0.25000000  1.0
  N  N20  1  0.50032596  0.50032596  0.75000000  1.0
  N  N21  1  0.49967404  0.49967404  0.25000000  1.0
  Cl  Cl22  1  0.74079812  0.24043659  1.00022470  1.0
  Cl  Cl23  1  0.75956341  0.25920188  0.50022470  1.0
  Cl  Cl24  1  1.24043659  -0.25920188  0.49977530  1.0
  Cl  Cl25  1  1.25920188  -0.24043659  -0.00022470  1.0
  Cl  Cl26  1  1.52716743  -0.02662741  0.77543914  1.0
  Cl  Cl27  1  1.02662741  -0.52716743  0.27543914  1.0
  Cl  Cl28  1  0.97337259  0.52716743  0.72456087  1.0
  Cl  Cl29  1  0.47283257  0.02662741  0.22456087  1.0
  Cl  Cl30  1  0.27565083  0.22493295  0.97318072  1.0
  Cl  Cl31  1  0.77506705  0.72434917  0.47318072  1.0
  Cl  Cl32  1  1.22493295  -0.72434917  0.52681928  1.0
  Cl  Cl33  1  1.72434917  -0.22493295  0.02681928  1.0
