# generated using pymatgen
data_Rb2LiVS2
_symmetry_space_group_name_H-M   'P 1'
_cell_length_a   18.46966198
_cell_length_b   17.44057362
_cell_length_c   7.44130451
_cell_angle_alpha   85.93092886
_cell_angle_beta   70.37345112
_cell_angle_gamma   23.69562002
_symmetry_Int_Tables_number   1
_chemical_formula_structural   Rb2LiVS2
_chemical_formula_sum   'Rb8 Li4 V4 S8'
_cell_volume   708.23085305
_cell_formula_units_Z   4
loop_
 _symmetry_equiv_pos_site_id
 _symmetry_equiv_pos_as_xyz
  1  'x, y, z'
loop_
 _atom_site_type_symbol
 _atom_site_label
 _atom_site_symmetry_multiplicity
 _atom_site_fract_x
 _atom_site_fract_y
 _atom_site_fract_z
 _atom_site_occupancy
  Rb  Rb0  1  1.16416649  0.40777971  0.56362035  1.0
  Rb  Rb1  1  0.86443345  0.56362035  0.40777971  1.0
  Rb  Rb2  1  0.84222029  1.08583351  0.38556655  1.0
  Rb  Rb3  1  0.68637965  0.38556655  1.08583351  1.0
  Rb  Rb4  1  1.56362035  -0.13556655  0.16416649  1.0
  Rb  Rb5  1  1.40777971  0.16416649  -0.13556655  1.0
  Rb  Rb6  1  0.38556655  0.68637965  0.84222029  1.0
  Rb  Rb7  1  1.08583351  0.84222029  0.68637965  1.0
  Li  Li8  1  0.62500000  0.62500000  1.12500000  1.0
  Li  Li9  1  0.62500000  1.12500000  0.62500000  1.0
  Li  Li10  1  0.62500000  0.62500000  0.62500000  1.0
  Li  Li11  1  1.12500000  0.62500000  0.62500000  1.0
  V  V12  1  1.12500000  0.12500000  0.62500000  1.0
  V  V13  1  1.12500000  0.62500000  0.12500000  1.0
  V  V14  1  1.12500000  0.12500000  0.12500000  1.0
  V  V15  1  1.62500000  0.12500000  0.12500000  1.0
  S  S16  1  1.22622935  -0.09398224  0.55285781  1.0
  S  S17  1  1.31489507  0.55285781  -0.09398224  1.0
  S  S18  1  0.34398224  1.02377065  0.93510493  1.0
  S  S19  1  0.69714219  0.93510493  1.02377065  1.0
  S  S20  1  1.55285781  0.31489507  0.22622935  1.0
  S  S21  1  0.90601776  0.22622935  0.31489507  1.0
  S  S22  1  0.93510493  0.69714219  0.34398224  1.0
  S  S23  1  1.02377065  0.34398224  0.69714219  1.0
