# generated using pymatgen
data_CsCaCl3
_symmetry_space_group_name_H-M   'P 1'
_cell_length_a   7.72858473
_cell_length_b   7.72858473
_cell_length_c   7.72858473
_cell_angle_alpha   120.11223061
_cell_angle_beta   120.11223061
_cell_angle_gamma   89.80572056
_symmetry_Int_Tables_number   1
_chemical_formula_structural   CsCaCl3
_chemical_formula_sum   'Cs2 Ca2 Cl6'
_cell_volume   325.87036443
_cell_formula_units_Z   2
loop_
 _symmetry_equiv_pos_site_id
 _symmetry_equiv_pos_as_xyz
  1  'x, y, z'
loop_
 _atom_site_type_symbol
 _atom_site_label
 _atom_site_symmetry_multiplicity
 _atom_site_fract_x
 _atom_site_fract_y
 _atom_site_fract_z
 _atom_site_occupancy
  Cs  Cs0  1  0.75000000  0.25000000  0.50000000  1.0
  Cs  Cs1  1  0.25000000  0.75000000  0.50000000  1.0
  Ca  Ca2  1  0.50000000  0.50000000  0.00000000  1.0
  Ca  Ca3  1  0.00000000  0.00000000  0.00000000  1.0
  Cl  Cl4  1  0.77055472  0.27055472  1.04110943  1.0
  Cl  Cl5  1  0.72944528  0.77055472  0.50000000  1.0
  Cl  Cl6  1  0.27055472  0.22944528  0.50000000  1.0
  Cl  Cl7  1  1.22944528  0.72944528  0.95889057  1.0
  Cl  Cl8  1  0.25000000  0.25000000  0.00000000  1.0
  Cl  Cl9  1  0.75000000  0.75000000  0.00000000  1.0
