# generated using pymatgen
data_Co(BO2)2
_symmetry_space_group_name_H-M   'P 1'
_cell_length_a   5.49053681
_cell_length_b   5.49053681
_cell_length_c   4.41427313
_cell_angle_alpha   75.03397684
_cell_angle_beta   104.96602316
_cell_angle_gamma   119.29245631
_symmetry_Int_Tables_number   1
_chemical_formula_structural   Co(BO2)2
_chemical_formula_sum   'Co2 B4 O8'
_cell_volume   110.73808416
_cell_formula_units_Z   2
loop_
 _symmetry_equiv_pos_site_id
 _symmetry_equiv_pos_as_xyz
  1  'x, y, z'
loop_
 _atom_site_type_symbol
 _atom_site_label
 _atom_site_symmetry_multiplicity
 _atom_site_fract_x
 _atom_site_fract_y
 _atom_site_fract_z
 _atom_site_occupancy
  O  O0  1  1.54446869  0.27157689  0.53124104  1.0
  O  O1  1  0.72842311  -0.54446869  0.03124104  1.0
  O  O2  1  1.27157689  0.54446869  0.96875896  1.0
  O  O3  1  0.45553131  -0.27157689  0.46875896  1.0
  O  O4  1  1.29802489  0.00281789  0.98589592  1.0
  O  O5  1  0.99718211  -0.29802489  0.48589592  1.0
  O  O6  1  1.00281789  0.29802489  0.51410408  1.0
  O  O7  1  0.70197511  -0.00281789  0.01410408  1.0
  Co  Co8  1  0.87547727  -0.12452273  0.75000000  1.0
  Co  Co9  1  1.12452273  0.12452273  0.25000000  1.0
  B  B10  1  1.57751345  0.21121193  0.87202596  1.0
  B  B11  1  0.78878807  -0.57751345  0.37202596  1.0
  B  B12  1  1.21121193  0.57751345  0.62797404  1.0
  B  B13  1  0.42248655  -0.21121193  0.12797404  1.0
