# generated using pymatgen
data_RbLu(WO4)2
_symmetry_space_group_name_H-M   'P 1'
_cell_length_a   7.55806700
_cell_length_b   7.55806700
_cell_length_c   7.58946994
_cell_angle_alpha   61.77507336
_cell_angle_beta   118.22492664
_cell_angle_gamma   92.40982173
_symmetry_Int_Tables_number   1
_chemical_formula_structural   RbLu(WO4)2
_chemical_formula_sum   'Rb2 Lu2 W4 O16'
_cell_volume   327.23439881
_cell_formula_units_Z   2
loop_
 _symmetry_equiv_pos_site_id
 _symmetry_equiv_pos_as_xyz
  1  'x, y, z'
loop_
 _atom_site_type_symbol
 _atom_site_label
 _atom_site_symmetry_multiplicity
 _atom_site_fract_x
 _atom_site_fract_y
 _atom_site_fract_z
 _atom_site_occupancy
  Rb  Rb0  1  0.19964475  0.19964475  0.25000000  1.0
  Rb  Rb1  1  0.80035525  0.80035525  0.75000000  1.0
  Lu  Lu2  1  0.77519322  0.77519322  0.25000000  1.0
  Lu  Lu3  1  0.22480678  0.22480678  0.75000000  1.0
  W  W4  1  0.69582618  0.30509935  0.22817485  1.0
  W  W5  1  0.69490065  0.30417382  0.72817485  1.0
  W  W6  1  1.30509935  -0.30417382  0.27182515  1.0
  W  W7  1  1.30417382  -0.30509935  0.77182515  1.0
  O  O8  1  1.59324746  -0.37358901  0.03948524  1.0
  O  O9  1  1.37358901  -0.59324746  0.53948524  1.0
  O  O10  1  0.62641099  0.59324746  0.46051476  1.0
  O  O11  1  0.40675254  0.37358901  0.96051476  1.0
  O  O12  1  0.77116070  0.04516385  0.29747301  1.0
  O  O13  1  0.95483615  0.22883930  0.79747301  1.0
  O  O14  1  1.04516385  -0.22883930  0.20252699  1.0
  O  O15  1  1.22883930  -0.04516385  0.70252699  1.0
  O  O16  1  1.36134085  -0.05735853  0.11852780  1.0
  O  O17  1  1.05735853  -0.36134085  0.61852780  1.0
  O  O18  1  0.94264147  0.36134085  0.38147220  1.0
  O  O19  1  0.63865915  0.05735853  0.88147220  1.0
  O  O20  1  0.61885753  0.24120373  0.43942267  1.0
  O  O21  1  0.75879627  0.38114247  0.93942267  1.0
  O  O22  1  1.24120373  -0.38114247  0.06057733  1.0
  O  O23  1  1.38114247  -0.24120373  0.56057733  1.0
