# generated using pymatgen
data_Y8In3Co
_symmetry_space_group_name_H-M   'P 1'
_cell_length_a   10.38921247
_cell_length_b   10.38921247
_cell_length_c   7.05198400
_cell_angle_alpha   90.00000000
_cell_angle_beta   90.00000000
_cell_angle_gamma   120.00000000
_symmetry_Int_Tables_number   1
_chemical_formula_structural   Y8In3Co
_chemical_formula_sum   'Y16 In6 Co2'
_cell_volume   659.18483268
_cell_formula_units_Z   2
loop_
 _symmetry_equiv_pos_site_id
 _symmetry_equiv_pos_as_xyz
  1  'x, y, z'
loop_
 _atom_site_type_symbol
 _atom_site_label
 _atom_site_symmetry_multiplicity
 _atom_site_fract_x
 _atom_site_fract_y
 _atom_site_fract_z
 _atom_site_occupancy
  Y  Y0  1  0.07190284  0.53595142  0.01786508  1.0
  Y  Y1  1  0.53595142  0.07190284  0.51786508  1.0
  Y  Y2  1  0.53595142  0.46404858  0.51786508  1.0
  Y  Y3  1  0.46404858  0.53595142  0.01786508  1.0
  Y  Y4  1  0.46404858  0.92809716  0.01786508  1.0
  Y  Y5  1  0.92809716  0.46404858  0.51786508  1.0
  Y  Y6  1  0.35579042  0.17789521  0.22417470  1.0
  Y  Y7  1  0.17789521  0.35579042  0.72417470  1.0
  Y  Y8  1  0.17789521  0.82210479  0.72417470  1.0
  Y  Y9  1  0.82210479  0.17789521  0.22417470  1.0
  Y  Y10  1  0.82210479  0.64420958  0.22417470  1.0
  Y  Y11  1  0.64420958  0.82210479  0.72417470  1.0
  Y  Y12  1  0.33333333  0.66666667  0.40870935  1.0
  Y  Y13  1  0.66666667  0.33333333  0.90870935  1.0
  Y  Y14  1  0.00000000  0.00000000  0.00422527  1.0
  Y  Y15  1  0.00000000  0.00000000  0.50422527  1.0
  In  In16  1  0.67428397  0.83714198  0.26481105  1.0
  In  In17  1  0.83714198  0.67428397  0.76481105  1.0
  In  In18  1  0.83714198  0.16285802  0.76481105  1.0
  In  In19  1  0.16285802  0.83714198  0.26481105  1.0
  In  In20  1  0.16285802  0.32571603  0.26481105  1.0
  In  In21  1  0.32571603  0.16285802  0.76481105  1.0
  Co  Co22  1  0.33333333  0.66666667  0.79351290  1.0
  Co  Co23  1  0.66666667  0.33333333  0.29351290  1.0
