# generated using pymatgen
data_LaPO4
_symmetry_space_group_name_H-M   'P 1'
_cell_length_a   6.55478911
_cell_length_b   7.16588312
_cell_length_c   8.35080822
_cell_angle_alpha   90.00000000
_cell_angle_beta   125.94575786
_cell_angle_gamma   90.00000000
_symmetry_Int_Tables_number   1
_chemical_formula_structural   LaPO4
_chemical_formula_sum   'La4 P4 O16'
_cell_volume   317.55065838
_cell_formula_units_Z   4
loop_
 _symmetry_equiv_pos_site_id
 _symmetry_equiv_pos_as_xyz
  1  'x, y, z'
loop_
 _atom_site_type_symbol
 _atom_site_label
 _atom_site_symmetry_multiplicity
 _atom_site_fract_x
 _atom_site_fract_y
 _atom_site_fract_z
 _atom_site_occupancy
  La  La0  1  0.81333516  0.84135393  0.21483175  1.0
  La  La1  1  0.81333516  0.65864607  0.71483175  1.0
  La  La2  1  0.18666484  0.34135393  0.28516825  1.0
  La  La3  1  0.18666484  0.15864607  0.78516825  1.0
  P  P4  1  0.69370194  0.33835222  0.30428723  1.0
  P  P5  1  0.69370194  0.16164778  0.80428723  1.0
  P  P6  1  0.30629806  0.83835222  0.19571277  1.0
  P  P7  1  0.30629806  0.66164778  0.69571277  1.0
  O  O8  1  0.88386903  0.17089637  0.38116223  1.0
  O  O9  1  0.88386903  0.32910363  0.88116223  1.0
  O  O10  1  0.11613097  0.67089637  0.11883777  1.0
  O  O11  1  0.11613097  0.82910363  0.61883777  1.0
  O  O12  1  0.80880321  0.49381703  0.24962059  1.0
  O  O13  1  0.80880321  0.00618297  0.74962059  1.0
  O  O14  1  0.19119679  0.99381703  0.25037941  1.0
  O  O15  1  0.19119679  0.50618297  0.75037941  1.0
  O  O16  1  0.66655216  0.39689312  0.47081936  1.0
  O  O17  1  0.66655216  0.10310688  0.97081936  1.0
  O  O18  1  0.33344784  0.89689312  0.02918064  1.0
  O  O19  1  0.33344784  0.60310688  0.52918064  1.0
  O  O20  1  0.42054600  0.28720049  0.12871384  1.0
  O  O21  1  0.42054600  0.21279951  0.62871384  1.0
  O  O22  1  0.57945400  0.78720049  0.37128616  1.0
  O  O23  1  0.57945400  0.71279951  0.87128616  1.0
