# generated using pymatgen
data_Rb3ScV2O8
_symmetry_space_group_name_H-M   'P 1'
_cell_length_a   5.89668059
_cell_length_b   5.89668059
_cell_length_c   7.94503871
_cell_angle_alpha   90.00000000
_cell_angle_beta   90.00000000
_cell_angle_gamma   120.00000000
_symmetry_Int_Tables_number   1
_chemical_formula_structural   Rb3ScV2O8
_chemical_formula_sum   'Rb3 Sc1 V2 O8'
_cell_volume   239.24444180
_cell_formula_units_Z   1
loop_
 _symmetry_equiv_pos_site_id
 _symmetry_equiv_pos_as_xyz
  1  'x, y, z'
loop_
 _atom_site_type_symbol
 _atom_site_label
 _atom_site_symmetry_multiplicity
 _atom_site_fract_x
 _atom_site_fract_y
 _atom_site_fract_z
 _atom_site_occupancy
  Rb  Rb0  1  0.33333333  0.66666667  0.71290451  1.0
  Rb  Rb1  1  0.66666667  0.33333333  0.28709549  1.0
  Rb  Rb2  1  0.00000000  0.00000000  0.00000000  1.0
  Sc  Sc3  1  0.00000000  0.00000000  0.50000000  1.0
  V  V4  1  0.33333333  0.66666667  0.27383342  1.0
  V  V5  1  0.66666667  0.33333333  0.72616658  1.0
  O  O6  1  0.65716148  0.82858074  0.34523026  1.0
  O  O7  1  0.82858074  0.65716148  0.65476974  1.0
  O  O8  1  0.82858074  0.17141926  0.65476974  1.0
  O  O9  1  0.17141926  0.82858074  0.34523026  1.0
  O  O10  1  0.17141926  0.34283852  0.34523026  1.0
  O  O11  1  0.34283852  0.17141926  0.65476974  1.0
  O  O12  1  0.33333333  0.66666667  0.06415445  1.0
  O  O13  1  0.66666667  0.33333333  0.93584555  1.0
