# generated using pymatgen
data_Sn4Rh
_symmetry_space_group_name_H-M   'P 1'
_cell_length_a   12.51982787
_cell_length_b   12.51982787
_cell_length_c   12.51982787
_cell_angle_alpha   150.39894216
_cell_angle_beta   150.39894216
_cell_angle_gamma   42.35611312
_symmetry_Int_Tables_number   1
_chemical_formula_structural   Sn4Rh
_chemical_formula_sum   'Sn16 Rh4'
_cell_volume   477.65469597
_cell_formula_units_Z   4
loop_
 _symmetry_equiv_pos_site_id
 _symmetry_equiv_pos_as_xyz
  1  'x, y, z'
loop_
 _atom_site_type_symbol
 _atom_site_label
 _atom_site_symmetry_multiplicity
 _atom_site_fract_x
 _atom_site_fract_y
 _atom_site_fract_z
 _atom_site_occupancy
  Sn  Sn0  1  1.13702688  1.63607820  1.14728801  1.0
  Sn  Sn1  1  1.63702688  1.48973887  1.50094867  1.0
  Sn  Sn2  1  0.88607820  0.88702688  1.64728801  1.0
  Sn  Sn3  1  0.38607820  0.73879019  0.99905133  1.0
  Sn  Sn4  1  1.61297312  1.61392180  1.35271199  1.0
  Sn  Sn5  1  1.11297312  1.76026113  0.99905133  1.0
  Sn  Sn6  1  0.86392180  1.36297312  0.85271199  1.0
  Sn  Sn7  1  1.36392180  1.51120981  1.50094867  1.0
  Sn  Sn8  1  0.98879019  1.13607820  0.49905133  1.0
  Sn  Sn9  1  1.48879019  0.98973887  0.85271199  1.0
  Sn  Sn10  1  0.73973887  0.38702688  1.00094867  1.0
  Sn  Sn11  1  0.23973887  0.23879019  0.35271199  1.0
  Sn  Sn12  1  1.76120981  1.11392180  1.00094867  1.0
  Sn  Sn13  1  1.26120981  1.26026113  0.64728801  1.0
  Sn  Sn14  1  1.01026113  0.86297312  0.49905133  1.0
  Sn  Sn15  1  1.51026113  1.01120981  1.14728801  1.0
  Rh  Rh16  1  0.75000000  0.75000000  -0.00000000  1.0
  Rh  Rh17  1  1.25000000  1.25000000  1.00000000  1.0
  Rh  Rh18  1  -0.00000000  0.50000000  0.50000000  1.0
  Rh  Rh19  1  0.50000000  -0.00000000  0.50000000  1.0
