# generated using pymatgen
data_Zn(PO3)2
_symmetry_space_group_name_H-M   'P 1'
_cell_length_a   6.77734356
_cell_length_b   6.77734356
_cell_length_c   5.03198599
_cell_angle_alpha   75.69459993
_cell_angle_beta   104.30540007
_cell_angle_gamma   95.20514079
_symmetry_Int_Tables_number   1
_chemical_formula_structural   Zn(PO3)2
_chemical_formula_sum   'Zn2 P4 O12'
_cell_volume   216.91136274
_cell_formula_units_Z   2
loop_
 _symmetry_equiv_pos_site_id
 _symmetry_equiv_pos_as_xyz
  1  'x, y, z'
loop_
 _atom_site_type_symbol
 _atom_site_label
 _atom_site_symmetry_multiplicity
 _atom_site_fract_x
 _atom_site_fract_y
 _atom_site_fract_z
 _atom_site_occupancy
  Zn  Zn0  1  0.62665814  0.62665814  0.25000000  1.0
  Zn  Zn1  1  0.37334186  0.37334186  0.75000000  1.0
  P  P2  1  0.69719803  0.12512409  0.25343109  1.0
  P  P3  1  0.87487591  0.30280197  0.75343109  1.0
  P  P4  1  1.12512409  -0.30280197  0.24656891  1.0
  P  P5  1  1.30280197  -0.12512409  0.74656891  1.0
  O  O6  1  0.84360751  0.14247725  0.03751891  1.0
  O  O7  1  0.85752275  0.15639249  0.53751891  1.0
  O  O8  1  1.14247725  -0.15639249  0.46248109  1.0
  O  O9  1  1.15639249  -0.14247725  0.96248109  1.0
  O  O10  1  1.61368411  -0.08970724  0.31071704  1.0
  O  O11  1  1.08970724  -0.61368411  0.81071704  1.0
  O  O12  1  0.91029276  0.61368411  0.18928296  1.0
  O  O13  1  0.38631589  0.08970724  0.68928296  1.0
  O  O14  1  0.55194600  0.30120132  0.14817471  1.0
  O  O15  1  0.69879868  0.44805400  0.64817471  1.0
  O  O16  1  1.30120132  -0.44805400  0.35182529  1.0
  O  O17  1  1.44805400  -0.30120132  0.85182529  1.0
