# generated using pymatgen
data_MnCrAs
_symmetry_space_group_name_H-M   'P 1'
_cell_length_a   3.79041394
_cell_length_b   3.79041394
_cell_length_c   6.01806615
_cell_angle_alpha   90.00000000
_cell_angle_beta   90.00000000
_cell_angle_gamma   90.00000000
_symmetry_Int_Tables_number   1
_chemical_formula_structural   MnCrAs
_chemical_formula_sum   'Mn2 Cr2 As2'
_cell_volume   86.46298743
_cell_formula_units_Z   2
loop_
 _symmetry_equiv_pos_site_id
 _symmetry_equiv_pos_as_xyz
  1  'x, y, z'
loop_
 _atom_site_type_symbol
 _atom_site_label
 _atom_site_symmetry_multiplicity
 _atom_site_fract_x
 _atom_site_fract_y
 _atom_site_fract_z
 _atom_site_occupancy
  Mn  Mn0  1  0.50000000  0.00000000  0.30083057  1.0
  Mn  Mn1  1  0.00000000  0.50000000  0.69916943  1.0
  Cr  Cr2  1  0.00000000  0.00000000  0.00000000  1.0
  Cr  Cr3  1  0.50000000  0.50000000  0.00000000  1.0
  As  As4  1  0.50000000  0.00000000  0.72652708  1.0
  As  As5  1  0.00000000  0.50000000  0.27347292  1.0
