# generated using pymatgen
data_Cs3Ag2Sb3S8
_symmetry_space_group_name_H-M   'P 1'
_cell_length_a   10.91367760
_cell_length_b   7.39928553
_cell_length_c   13.04793211
_cell_angle_alpha   90.00000000
_cell_angle_beta   104.11315334
_cell_angle_gamma   90.00000000
_symmetry_Int_Tables_number   1
_chemical_formula_structural   Cs3Ag2Sb3S8
_chemical_formula_sum   'Cs6 Ag4 Sb6 S16'
_cell_volume   1021.86133902
_cell_formula_units_Z   2
loop_
 _symmetry_equiv_pos_site_id
 _symmetry_equiv_pos_as_xyz
  1  'x, y, z'
loop_
 _atom_site_type_symbol
 _atom_site_label
 _atom_site_symmetry_multiplicity
 _atom_site_fract_x
 _atom_site_fract_y
 _atom_site_fract_z
 _atom_site_occupancy
  Cs  Cs0  1  0.92409657  0.25000000  0.07620136  1.0
  Cs  Cs1  1  0.07590343  0.75000000  0.92379864  1.0
  Cs  Cs2  1  0.35386011  0.25000000  0.44806431  1.0
  Cs  Cs3  1  0.64613989  0.75000000  0.55193569  1.0
  Cs  Cs4  1  0.04511575  0.25000000  0.65412084  1.0
  Cs  Cs5  1  0.95488425  0.75000000  0.34587916  1.0
  Ag  Ag6  1  0.36783851  0.47239426  0.89704720  1.0
  Ag  Ag7  1  0.36783851  0.02760574  0.89704720  1.0
  Ag  Ag8  1  0.63216149  0.97239426  0.10295280  1.0
  Ag  Ag9  1  0.63216149  0.52760574  0.10295280  1.0
  Sb  Sb10  1  0.72891187  0.25000000  0.37209908  1.0
  Sb  Sb11  1  0.27108813  0.75000000  0.62790092  1.0
  Sb  Sb12  1  0.62539534  0.25000000  0.79469771  1.0
  Sb  Sb13  1  0.37460466  0.75000000  0.20530229  1.0
  Sb  Sb14  1  0.32923015  0.25000000  0.11170957  1.0
  Sb  Sb15  1  0.67076985  0.75000000  0.88829043  1.0
  S  S16  1  0.78760282  0.99813757  0.81758491  1.0
  S  S17  1  0.78760282  0.50186243  0.81758491  1.0
  S  S18  1  0.21239718  0.49813757  0.18241509  1.0
  S  S19  1  0.21239718  0.00186243  0.18241509  1.0
  S  S20  1  0.37832897  0.48369176  0.70709045  1.0
  S  S21  1  0.37832897  0.01630824  0.70709045  1.0
  S  S22  1  0.62167103  0.98369176  0.29290955  1.0
  S  S23  1  0.62167103  0.51630824  0.29290955  1.0
  S  S24  1  0.94081812  0.25000000  0.36110726  1.0
  S  S25  1  0.05918188  0.75000000  0.63889274  1.0
  S  S26  1  0.70658575  0.25000000  0.54671773  1.0
  S  S27  1  0.29341425  0.75000000  0.45328227  1.0
  S  S28  1  0.58950554  0.25000000  0.97831461  1.0
  S  S29  1  0.41049446  0.75000000  0.02168539  1.0
  S  S30  1  0.19578685  0.25000000  0.93263923  1.0
  S  S31  1  0.80421315  0.75000000  0.06736077  1.0
