# generated using pymatgen
data_SrSnHg
_symmetry_space_group_name_H-M   'P 1'
_cell_length_a   5.00153824
_cell_length_b   5.00153824
_cell_length_c   8.27003428
_cell_angle_alpha   90.00000000
_cell_angle_beta   90.00000000
_cell_angle_gamma   120.00000000
_symmetry_Int_Tables_number   1
_chemical_formula_structural   SrSnHg
_chemical_formula_sum   'Sr2 Sn2 Hg2'
_cell_volume   179.16168085
_cell_formula_units_Z   2
loop_
 _symmetry_equiv_pos_site_id
 _symmetry_equiv_pos_as_xyz
  1  'x, y, z'
loop_
 _atom_site_type_symbol
 _atom_site_label
 _atom_site_symmetry_multiplicity
 _atom_site_fract_x
 _atom_site_fract_y
 _atom_site_fract_z
 _atom_site_occupancy
  Sr  Sr0  1  0.00000000  0.00000000  -0.00547136  1.0
  Sr  Sr1  1  0.00000000  0.00000000  0.49452864  1.0
  Sn  Sn2  1  0.33333333  0.66666667  0.70984202  1.0
  Sn  Sn3  1  0.66666667  0.33333333  0.20984202  1.0
  Hg  Hg4  1  0.33333333  0.66666667  0.29562934  1.0
  Hg  Hg5  1  0.66666667  0.33333333  0.79562934  1.0
