# generated using pymatgen
data_BC5
_symmetry_space_group_name_H-M   'P 1'
_cell_length_a   4.45309359
_cell_length_b   4.45854917
_cell_length_c   4.46631501
_cell_angle_alpha   59.96147950
_cell_angle_beta   70.36987427
_cell_angle_gamma   79.79347047
_symmetry_Int_Tables_number   1
_chemical_formula_structural   BC5
_chemical_formula_sum   'B2 C10'
_cell_volume   72.29962565
_cell_formula_units_Z   2
loop_
 _symmetry_equiv_pos_site_id
 _symmetry_equiv_pos_as_xyz
  1  'x, y, z'
loop_
 _atom_site_type_symbol
 _atom_site_label
 _atom_site_symmetry_multiplicity
 _atom_site_fract_x
 _atom_site_fract_y
 _atom_site_fract_z
 _atom_site_occupancy
  B  B0  1  0.18977438  0.33774817  -0.73227000  1.0
  B  B1  1  0.81022562  -0.33774817  -0.26773000  1.0
  C  C2  1  0.68517785  0.66924884  -0.88574116  1.0
  C  C3  1  0.31482215  -0.66924884  -0.11425884  1.0
  C  C4  1  0.31664237  0.67512904  -0.77179232  1.0
  C  C5  1  0.68335763  -0.67512904  -0.22820768  1.0
  C  C6  1  0.79950273  0.33189714  -0.60134404  1.0
  C  C7  1  0.20049727  -0.33189714  -0.39865596  1.0
  C  C8  1  0.68297715  0.01559985  -0.57545289  1.0
  C  C9  1  0.31702285  -0.01559985  -0.42454711  1.0
  C  C10  1  0.18824125  -0.00044124  -0.06330835  1.0
  C  C11  1  0.81175875  0.00044124  -0.93669165  1.0
