# generated using pymatgen
data_GaC10Se
_symmetry_space_group_name_H-M   'P 1'
_cell_length_a   10.50454380
_cell_length_b   10.50454380
_cell_length_c   10.50454380
_cell_angle_alpha   109.47122063
_cell_angle_beta   109.47122063
_cell_angle_gamma   109.47122063
_symmetry_Int_Tables_number   1
_chemical_formula_structural   GaC10Se
_chemical_formula_sum   'Ga4 C40 Se4'
_cell_volume   892.29754456
_cell_formula_units_Z   4
loop_
 _symmetry_equiv_pos_site_id
 _symmetry_equiv_pos_as_xyz
  1  'x, y, z'
loop_
 _atom_site_type_symbol
 _atom_site_label
 _atom_site_symmetry_multiplicity
 _atom_site_fract_x
 _atom_site_fract_y
 _atom_site_fract_z
 _atom_site_occupancy
  Ga  Ga0  1  0.18494038  1.00000000  1.00000000  1.0
  Ga  Ga1  1  1.00000000  0.18494038  1.00000000  1.0
  Ga  Ga2  1  0.81505962  0.81505962  0.81505962  1.0
  Ga  Ga3  1  1.00000000  1.00000000  0.18494038  1.0
  C  C4  1  0.37791076  1.00000000  1.00000000  1.0
  C  C5  1  1.00000000  0.37791076  1.00000000  1.0
  C  C6  1  0.62208924  0.62208924  0.62208924  1.0
  C  C7  1  1.00000000  1.00000000  0.37791076  1.0
  C  C8  1  0.54483624  1.22426430  1.00000000  1.0
  C  C9  1  0.77573570  0.32057194  0.77573570  1.0
  C  C10  1  0.45516376  0.45516376  0.67942806  1.0
  C  C11  1  1.22426430  1.00000000  0.54483624  1.0
  C  C12  1  1.22426430  0.54483624  1.00000000  1.0
  C  C13  1  0.45516376  0.67942806  0.45516376  1.0
  C  C14  1  0.77573570  0.77573570  0.32057194  1.0
  C  C15  1  0.54483624  1.00000000  1.22426430  1.0
  C  C16  1  0.32057194  0.77573570  0.77573570  1.0
  C  C17  1  1.00000000  0.54483624  1.22426430  1.0
  C  C18  1  0.67942806  0.45516376  0.45516376  1.0
  C  C19  1  1.00000000  1.22426430  0.54483624  1.0
  C  C20  1  0.55525860  1.19789005  1.12122149  1.0
  C  C21  1  0.92333144  0.35736855  0.80210995  1.0
  C  C22  1  0.44474140  0.56596289  0.64263145  1.0
  C  C23  1  1.07666856  0.87877851  1.43403711  1.0
  C  C24  1  1.07666856  1.43403711  0.87877851  1.0
  C  C25  1  0.44474140  0.64263145  0.56596289  1.0
  C  C26  1  0.92333144  0.80210995  0.35736855  1.0
  C  C27  1  0.55525860  1.12122149  1.19789005  1.0
  C  C28  1  1.43403711  0.87877851  1.07666856  1.0
  C  C29  1  1.19789005  0.55525860  1.12122149  1.0
  C  C30  1  0.56596289  0.64263145  0.44474140  1.0
  C  C31  1  0.80210995  0.92333144  0.35736855  1.0
  C  C32  1  0.80210995  0.35736855  0.92333144  1.0
  C  C33  1  0.56596289  0.44474140  0.64263145  1.0
  C  C34  1  1.19789005  1.12122149  0.55525860  1.0
  C  C35  1  1.43403711  1.07666856  0.87877851  1.0
  C  C36  1  0.35736855  0.92333144  0.80210995  1.0
  C  C37  1  1.12122149  0.55525860  1.19789005  1.0
  C  C38  1  0.64263145  0.56596289  0.44474140  1.0
  C  C39  1  0.87877851  1.07666856  1.43403711  1.0
  C  C40  1  0.35736855  0.80210995  0.92333144  1.0
  C  C41  1  0.64263145  0.44474140  0.56596289  1.0
  C  C42  1  1.12122149  1.19789005  0.55525860  1.0
  C  C43  1  0.87877851  1.43403711  1.07666856  1.0
  Se  Se44  1  0.77776913  1.00000000  1.00000000  1.0
  Se  Se45  1  1.00000000  0.77776913  1.00000000  1.0
  Se  Se46  1  0.22223087  0.22223087  0.22223087  1.0
  Se  Se47  1  1.00000000  1.00000000  0.77776913  1.0
