# generated using pymatgen
data_Y(SiNi)6
_symmetry_space_group_name_H-M   'P 1'
_cell_length_a   7.74501759
_cell_length_b   7.74501759
_cell_length_c   11.20967265
_cell_angle_alpha   90.00000000
_cell_angle_beta   90.00000000
_cell_angle_gamma   90.00000000
_symmetry_Int_Tables_number   1
_chemical_formula_structural   Y(SiNi)6
_chemical_formula_sum   'Y4 Si24 Ni24'
_cell_volume   672.41554881
_cell_formula_units_Z   4
loop_
 _symmetry_equiv_pos_site_id
 _symmetry_equiv_pos_as_xyz
  1  'x, y, z'
loop_
 _atom_site_type_symbol
 _atom_site_label
 _atom_site_symmetry_multiplicity
 _atom_site_fract_x
 _atom_site_fract_y
 _atom_site_fract_z
 _atom_site_occupancy
  Y  Y0  1  0.50000000  0.00000000  0.00000000  1.0
  Y  Y1  1  0.00000000  0.50000000  0.00000000  1.0
  Y  Y2  1  0.50000000  0.00000000  0.50000000  1.0
  Y  Y3  1  0.00000000  0.50000000  0.50000000  1.0
  Si  Si4  1  0.60935856  0.36178656  0.57938660  1.0
  Si  Si5  1  0.10935856  0.13821344  0.57938660  1.0
  Si  Si6  1  0.39064144  0.63821344  0.57938660  1.0
  Si  Si7  1  0.89064144  0.86178656  0.57938660  1.0
  Si  Si8  1  0.63821344  0.60935856  0.42061340  1.0
  Si  Si9  1  0.13821344  0.89064144  0.42061340  1.0
  Si  Si10  1  0.36178656  0.39064144  0.42061340  1.0
  Si  Si11  1  0.86178656  0.10935856  0.42061340  1.0
  Si  Si12  1  0.78741960  0.43099745  0.74912849  1.0
  Si  Si13  1  0.28741960  0.06900255  0.74912849  1.0
  Si  Si14  1  0.21258040  0.56900255  0.74912849  1.0
  Si  Si15  1  0.71258040  0.93099745  0.74912849  1.0
  Si  Si16  1  0.56900255  0.78741960  0.25087151  1.0
  Si  Si17  1  0.06900255  0.71258040  0.25087151  1.0
  Si  Si18  1  0.43099745  0.21258040  0.25087151  1.0
  Si  Si19  1  0.93099745  0.28741960  0.25087151  1.0
  Si  Si20  1  0.84389645  0.16829741  0.86921770  1.0
  Si  Si21  1  0.34389645  0.33170259  0.86921770  1.0
  Si  Si22  1  0.15610355  0.83170259  0.86921770  1.0
  Si  Si23  1  0.65610355  0.66829741  0.86921770  1.0
  Si  Si24  1  0.83170259  0.84389645  0.13078230  1.0
  Si  Si25  1  0.33170259  0.65610355  0.13078230  1.0
  Si  Si26  1  0.16829741  0.15610355  0.13078230  1.0
  Si  Si27  1  0.66829741  0.34389645  0.13078230  1.0
  Ni  Ni28  1  0.63656462  0.37408285  0.92679222  1.0
  Ni  Ni29  1  0.13656462  0.12591715  0.92679222  1.0
  Ni  Ni30  1  0.36343538  0.62591715  0.92679222  1.0
  Ni  Ni31  1  0.86343538  0.87408285  0.92679222  1.0
  Ni  Ni32  1  0.62591715  0.63656462  0.07320778  1.0
  Ni  Ni33  1  0.12591715  0.86343538  0.07320778  1.0
  Ni  Ni34  1  0.37408285  0.36343538  0.07320778  1.0
  Ni  Ni35  1  0.87408285  0.13656462  0.07320778  1.0
  Ni  Ni36  1  0.55619645  0.18832087  0.75101571  1.0
  Ni  Ni37  1  0.05619645  0.31167913  0.75101571  1.0
  Ni  Ni38  1  0.44380355  0.81167913  0.75101571  1.0
  Ni  Ni39  1  0.94380355  0.68832087  0.75101571  1.0
  Ni  Ni40  1  0.81167913  0.55619645  0.24898429  1.0
  Ni  Ni41  1  0.31167913  0.94380355  0.24898429  1.0
  Ni  Ni42  1  0.18832087  0.44380355  0.24898429  1.0
  Ni  Ni43  1  0.68832087  0.05619645  0.24898429  1.0
  Ni  Ni44  1  0.82248888  0.15736177  0.62282519  1.0
  Ni  Ni45  1  0.32248888  0.34263823  0.62282519  1.0
  Ni  Ni46  1  0.17751112  0.84263823  0.62282519  1.0
  Ni  Ni47  1  0.67751112  0.65736177  0.62282519  1.0
  Ni  Ni48  1  0.84263823  0.82248888  0.37717481  1.0
  Ni  Ni49  1  0.34263823  0.67751112  0.37717481  1.0
  Ni  Ni50  1  0.15736177  0.17751112  0.37717481  1.0
  Ni  Ni51  1  0.65736177  0.32248888  0.37717481  1.0
