# generated using pymatgen
data_YCrWO6
_symmetry_space_group_name_H-M   'P 1'
_cell_length_a   10.97777465
_cell_length_b   5.19235367
_cell_length_c   7.36581013
_cell_angle_alpha   90.00000000
_cell_angle_beta   90.00000000
_cell_angle_gamma   90.00000000
_symmetry_Int_Tables_number   1
_chemical_formula_structural   YCrWO6
_chemical_formula_sum   'Y4 Cr4 W4 O24'
_cell_volume   419.85477602
_cell_formula_units_Z   4
loop_
 _symmetry_equiv_pos_site_id
 _symmetry_equiv_pos_as_xyz
  1  'x, y, z'
loop_
 _atom_site_type_symbol
 _atom_site_label
 _atom_site_symmetry_multiplicity
 _atom_site_fract_x
 _atom_site_fract_y
 _atom_site_fract_z
 _atom_site_occupancy
  Y  Y0  1  0.54432838  0.95274032  0.52134358  1.0
  Y  Y1  1  0.45567162  0.04725968  0.02134358  1.0
  Y  Y2  1  0.04432838  0.54725968  0.52134358  1.0
  Y  Y3  1  0.95567162  0.45274032  0.02134358  1.0
  Cr  Cr4  1  0.36792188  0.54842854  0.76948426  1.0
  Cr  Cr5  1  0.63207812  0.45157146  0.26948426  1.0
  Cr  Cr6  1  0.86792188  0.95157146  0.76948426  1.0
  Cr  Cr7  1  0.13207812  0.04842854  0.26948426  1.0
  W  W8  1  0.35391615  0.55743922  0.27649973  1.0
  W  W9  1  0.64608385  0.44256078  0.77649973  1.0
  W  W10  1  0.85391615  0.94256078  0.27649973  1.0
  W  W11  1  0.14608385  0.05743922  0.77649973  1.0
  O  O12  1  0.38162866  0.67177833  0.52055436  1.0
  O  O13  1  0.61837134  0.32822167  0.02055436  1.0
  O  O14  1  0.88162866  0.82822167  0.52055436  1.0
  O  O15  1  0.11837134  0.17177833  0.02055436  1.0
  O  O16  1  0.21476950  0.37995131  0.33623662  1.0
  O  O17  1  0.78523050  0.62004869  0.83623662  1.0
  O  O18  1  0.71476950  0.12004869  0.33623662  1.0
  O  O19  1  0.28523050  0.87995131  0.83623662  1.0
  O  O20  1  0.29050819  0.87712982  0.20768215  1.0
  O  O21  1  0.70949181  0.12287018  0.70768215  1.0
  O  O22  1  0.79050819  0.62287018  0.20768215  1.0
  O  O23  1  0.20949181  0.37712982  0.70768215  1.0
  O  O24  1  0.52520408  0.73142154  0.81431364  1.0
  O  O25  1  0.47479592  0.26857846  0.31431364  1.0
  O  O26  1  0.02520408  0.76857846  0.81431364  1.0
  O  O27  1  0.97479592  0.23142154  0.31431364  1.0
  O  O28  1  0.35751140  0.44055335  0.02810380  1.0
  O  O29  1  0.64248860  0.55944665  0.52810380  1.0
  O  O30  1  0.85751140  0.05944665  0.02810380  1.0
  O  O31  1  0.14248860  0.94055335  0.52810380  1.0
  O  O32  1  0.47755251  0.25413563  0.73160186  1.0
  O  O33  1  0.52244749  0.74586437  0.23160186  1.0
  O  O34  1  0.97755251  0.24586437  0.73160186  1.0
  O  O35  1  0.02244749  0.75413563  0.23160186  1.0
