# generated using pymatgen
data_Na3MnO4
_symmetry_space_group_name_H-M   'P 1'
_cell_length_a   7.66756657
_cell_length_b   7.66756657
_cell_length_c   7.66756657
_cell_angle_alpha   90.00000000
_cell_angle_beta   90.00000000
_cell_angle_gamma   90.00000000
_symmetry_Int_Tables_number   1
_chemical_formula_structural   Na3MnO4
_chemical_formula_sum   'Na12 Mn4 O16'
_cell_volume   450.78833171
_cell_formula_units_Z   4
loop_
 _symmetry_equiv_pos_site_id
 _symmetry_equiv_pos_as_xyz
  1  'x, y, z'
loop_
 _atom_site_type_symbol
 _atom_site_label
 _atom_site_symmetry_multiplicity
 _atom_site_fract_x
 _atom_site_fract_y
 _atom_site_fract_z
 _atom_site_occupancy
  Na  Na0  1  0.52372567  0.02372567  0.47627433  1.0
  Na  Na1  1  0.02372567  0.47627433  0.52372567  1.0
  Na  Na2  1  0.47627433  0.52372567  0.02372567  1.0
  Na  Na3  1  -0.02372567  -0.02372567  -0.02372567  1.0
  Na  Na4  1  0.28987060  0.78987060  0.71012940  1.0
  Na  Na5  1  0.78987060  0.71012940  0.28987060  1.0
  Na  Na6  1  0.71012940  0.28987060  0.78987060  1.0
  Na  Na7  1  0.21012940  0.21012940  0.21012940  1.0
  Na  Na8  1  0.76796138  0.26796138  0.23203862  1.0
  Na  Na9  1  0.26796138  0.23203862  0.76796138  1.0
  Na  Na10  1  0.23203862  0.76796138  0.26796138  1.0
  Na  Na11  1  0.73203862  0.73203862  0.73203862  1.0
  Mn  Mn12  1  0.99361346  0.49361346  0.00638654  1.0
  Mn  Mn13  1  0.49361346  0.00638654  0.99361346  1.0
  Mn  Mn14  1  0.00638654  0.99361346  0.49361346  1.0
  Mn  Mn15  1  0.50638654  0.50638654  0.50638654  1.0
  O  O16  1  0.54310262  0.97966715  0.77730682  1.0
  O  O17  1  1.04310262  0.52033285  0.22269318  1.0
  O  O18  1  0.47966715  0.72269318  0.45689738  1.0
  O  O19  1  0.97966715  0.77730682  0.54310262  1.0
  O  O20  1  0.22269318  1.04310262  0.52033285  1.0
  O  O21  1  0.72269318  0.45689738  0.47966715  1.0
  O  O22  1  0.45689738  0.47966715  0.72269318  1.0
  O  O23  1  -0.04310262  0.02033285  0.27730682  1.0
  O  O24  1  0.52033285  0.22269318  1.04310262  1.0
  O  O25  1  0.02033285  0.27730682  -0.04310262  1.0
  O  O26  1  0.77730682  0.54310262  0.97966715  1.0
  O  O27  1  0.27730682  -0.04310262  0.02033285  1.0
  O  O28  1  0.11915507  0.61915507  0.88084493  1.0
  O  O29  1  0.61915507  0.88084493  0.11915507  1.0
  O  O30  1  0.88084493  0.11915507  0.61915507  1.0
  O  O31  1  0.38084493  0.38084493  0.38084493  1.0
