# generated using pymatgen
data_RbMnVO4
_symmetry_space_group_name_H-M   'P 1'
_cell_length_a   11.34244791
_cell_length_b   11.34244791
_cell_length_c   9.12873930
_cell_angle_alpha   90.00000000
_cell_angle_beta   90.00000000
_cell_angle_gamma   120.00000000
_symmetry_Int_Tables_number   1
_chemical_formula_structural   RbMnVO4
_chemical_formula_sum   'Rb8 Mn8 V8 O32'
_cell_volume   1017.07978624
_cell_formula_units_Z   8
loop_
 _symmetry_equiv_pos_site_id
 _symmetry_equiv_pos_as_xyz
  1  'x, y, z'
loop_
 _atom_site_type_symbol
 _atom_site_label
 _atom_site_symmetry_multiplicity
 _atom_site_fract_x
 _atom_site_fract_y
 _atom_site_fract_z
 _atom_site_occupancy
  Rb  Rb0  1  0.52817501  0.48397166  0.51639858  1.0
  Rb  Rb1  1  0.48397166  0.95579664  0.01639858  1.0
  Rb  Rb2  1  0.95579664  0.47182499  0.51639858  1.0
  Rb  Rb3  1  0.51602834  0.04420336  0.51639858  1.0
  Rb  Rb4  1  0.47182499  0.51602834  0.01639858  1.0
  Rb  Rb5  1  0.04420336  0.52817501  0.01639858  1.0
  Rb  Rb6  1  -0.00000000  -0.00000000  0.00312923  1.0
  Rb  Rb7  1  0.00000000  0.00000000  0.50312923  1.0
  Mn  Mn8  1  0.16446847  0.83510025  0.32084019  1.0
  Mn  Mn9  1  0.83510025  0.67063178  0.82084019  1.0
  Mn  Mn10  1  0.67063178  0.83553153  0.32084019  1.0
  Mn  Mn11  1  0.16489975  0.32936822  0.32084019  1.0
  Mn  Mn12  1  0.83553153  0.16489975  0.82084019  1.0
  Mn  Mn13  1  0.32936822  0.16446847  0.82084019  1.0
  Mn  Mn14  1  0.33333333  0.66666667  0.68474494  1.0
  Mn  Mn15  1  0.66666667  0.33333333  0.18474494  1.0
  V  V16  1  0.83999219  0.66761819  0.21070585  1.0
  V  V17  1  0.66761819  0.82762601  0.71070585  1.0
  V  V18  1  0.82762601  0.16000781  0.21070585  1.0
  V  V19  1  0.33238181  0.17237399  0.21070585  1.0
  V  V20  1  0.16000781  0.33238181  0.71070585  1.0
  V  V21  1  0.17237399  0.83999219  0.71070585  1.0
  V  V22  1  0.33333333  0.66666667  0.28010633  1.0
  V  V23  1  0.66666667  0.33333333  0.78010633  1.0
  O  O24  1  0.81479871  0.80406885  0.24201023  1.0
  O  O25  1  0.80406885  0.98927014  0.74201023  1.0
  O  O26  1  0.98927014  0.18520129  0.24201023  1.0
  O  O27  1  0.19593115  0.01072986  0.24201023  1.0
  O  O28  1  0.18520129  0.19593115  0.74201023  1.0
  O  O29  1  0.01072986  0.81479871  0.74201023  1.0
  O  O30  1  0.27261154  0.76993267  0.21341883  1.0
  O  O31  1  0.76993267  0.49732113  0.71341883  1.0
  O  O32  1  0.49732113  0.72738846  0.21341883  1.0
  O  O33  1  0.23006733  0.50267887  0.21341883  1.0
  O  O34  1  0.72738846  0.23006733  0.71341883  1.0
  O  O35  1  0.50267887  0.27261154  0.71341883  1.0
  O  O36  1  0.97432578  0.68359876  0.31656461  1.0
  O  O37  1  0.68359876  0.70927298  0.81656461  1.0
  O  O38  1  0.70927298  0.02567422  0.31656461  1.0
  O  O39  1  0.31640124  0.29072702  0.31656461  1.0
  O  O40  1  0.02567422  0.31640124  0.81656461  1.0
  O  O41  1  0.29072702  0.97432578  0.81656461  1.0
  O  O42  1  0.88330266  0.67036863  0.02885908  1.0
  O  O43  1  0.67036863  0.78706597  0.52885908  1.0
  O  O44  1  0.78706597  0.11669734  0.02885908  1.0
  O  O45  1  0.32963137  0.21293403  0.02885908  1.0
  O  O46  1  0.11669734  0.32963137  0.52885908  1.0
  O  O47  1  0.21293403  0.88330266  0.52885908  1.0
  O  O48  1  0.69362707  0.51373474  0.24954410  1.0
  O  O49  1  0.51373474  0.82010767  0.74954410  1.0
  O  O50  1  0.82010767  0.30637293  0.24954410  1.0
  O  O51  1  0.48626526  0.17989233  0.24954410  1.0
  O  O52  1  0.30637293  0.48626526  0.74954410  1.0
  O  O53  1  0.17989233  0.69362707  0.74954410  1.0
  O  O54  1  0.33333333  0.66666667  0.46699511  1.0
  O  O55  1  0.66666667  0.33333333  0.96699511  1.0
