# generated using pymatgen
data_CaAlCuSi2O9
_symmetry_space_group_name_H-M   'P 1'
_cell_length_a   8.61519068
_cell_length_b   8.61519068
_cell_length_c   4.92920505
_cell_angle_alpha   82.26435047
_cell_angle_beta   97.73564953
_cell_angle_gamma   97.09638044
_symmetry_Int_Tables_number   1
_chemical_formula_structural   CaAlCuSi2O9
_chemical_formula_sum   'Ca2 Al2 Cu2 Si4 O18'
_cell_volume   357.14807520
_cell_formula_units_Z   2
loop_
 _symmetry_equiv_pos_site_id
 _symmetry_equiv_pos_as_xyz
  1  'x, y, z'
loop_
 _atom_site_type_symbol
 _atom_site_label
 _atom_site_symmetry_multiplicity
 _atom_site_fract_x
 _atom_site_fract_y
 _atom_site_fract_z
 _atom_site_occupancy
  Ca  Ca0  1  0.83057081  -0.16942919  0.00000000  1.0
  Ca  Ca1  1  1.16942919  0.16942919  0.00000000  1.0
  O  O2  1  0.86035460  -0.42867776  0.20604727  1.0
  O  O3  1  1.42867776  0.13964540  0.20604727  1.0
  O  O4  1  0.57132224  -0.13964540  0.79395273  1.0
  O  O5  1  1.13964540  0.42867776  0.79395273  1.0
  O  O6  1  1.17634334  0.56652577  0.26386211  1.0
  O  O7  1  0.43347423  -0.17634334  0.26386211  1.0
  O  O8  1  1.56652577  0.17634334  0.73613789  1.0
  O  O9  1  0.82365666  -0.56652577  0.73613789  1.0
  O  O10  1  0.59000308  -0.59000308  0.32461984  1.0
  O  O11  1  0.40999692  -0.40999692  0.67538016  1.0
  O  O12  1  0.69131915  -0.30868085  0.50000000  1.0
  O  O13  1  1.30868085  0.30868085  0.50000000  1.0
  O  O14  1  0.07532587  -0.07532587  0.19675322  1.0
  O  O15  1  0.92467413  -0.92467413  0.80324678  1.0
  O  O16  1  0.95277126  -0.71607797  0.15176808  1.0
  O  O17  1  1.71607797  0.04722874  0.15176808  1.0
  O  O18  1  0.28392203  -0.04722874  0.84823192  1.0
  O  O19  1  1.04722874  0.71607797  0.84823192  1.0
  Cu  Cu20  1  0.22776593  -0.22776593  0.07137556  1.0
  Cu  Cu21  1  0.77223407  -0.77223407  0.92862444  1.0
  Al  Al22  1  1.00000000  -0.50000000  -0.00000000  1.0
  Al  Al23  1  1.50000000  0.00000000  -0.00000000  1.0
  Si  Si24  1  0.74585873  -0.47926977  0.44063227  1.0
  Si  Si25  1  1.47926977  0.25414127  0.44063227  1.0
  Si  Si26  1  0.52073023  -0.25414127  0.55936773  1.0
  Si  Si27  1  1.25414127  0.47926977  0.55936773  1.0
