# generated using pymatgen
data_NaGdSiO4
_symmetry_space_group_name_H-M   'P 1'
_cell_length_a   8.79276619
_cell_length_b   8.79276619
_cell_length_c   8.79276619
_cell_angle_alpha   95.38572147
_cell_angle_beta   95.38572147
_cell_angle_gamma   144.31925442
_symmetry_Int_Tables_number   1
_chemical_formula_structural   NaGdSiO4
_chemical_formula_sum   'Na4 Gd4 Si4 O16'
_cell_volume   377.43531370
_cell_formula_units_Z   4
loop_
 _symmetry_equiv_pos_site_id
 _symmetry_equiv_pos_as_xyz
  1  'x, y, z'
loop_
 _atom_site_type_symbol
 _atom_site_label
 _atom_site_symmetry_multiplicity
 _atom_site_fract_x
 _atom_site_fract_y
 _atom_site_fract_z
 _atom_site_occupancy
  Na  Na0  1  0.58675887  0.89305132  1.47981019  1.0
  Na  Na1  1  0.89305132  1.41324113  1.30629245  1.0
  Na  Na2  1  0.41324113  0.10694868  0.52018981  1.0
  Na  Na3  1  1.10694868  0.58675887  0.69370755  1.0
  Gd  Gd4  1  0.69103248  0.62100100  0.31203348  1.0
  Gd  Gd5  1  0.62100100  0.30896752  0.92996852  1.0
  Gd  Gd6  1  1.30896752  1.37899900  1.68796652  1.0
  Gd  Gd7  1  0.37899900  0.69103248  1.07003148  1.0
  Si  Si8  1  0.90155712  0.76209978  0.66365691  1.0
  Si  Si9  1  0.76209978  0.09844288  0.86054266  1.0
  Si  Si10  1  1.09844288  1.23790022  1.33634309  1.0
  Si  Si11  1  0.23790022  0.90155712  1.13945734  1.0
  O  O12  1  1.21661409  1.06418252  0.76700169  1.0
  O  O13  1  0.70281917  0.55038760  0.76700169  1.0
  O  O14  1  1.06418252  0.29718083  0.84756843  1.0
  O  O15  1  1.55038760  0.78338591  0.84756843  1.0
  O  O16  1  1.29718083  1.44961240  1.23299831  1.0
  O  O17  1  0.78338591  0.93581748  1.23299831  1.0
  O  O18  1  0.44961240  1.21661409  1.15243157  1.0
  O  O19  1  0.93581748  1.70281917  1.15243157  1.0
  O  O20  1  0.89627229  0.62132939  0.51760168  1.0
  O  O21  1  0.62132939  0.10372771  0.72505710  1.0
  O  O22  1  1.10372771  1.37867061  1.48239832  1.0
  O  O23  1  0.37867061  0.89627229  1.27494290  1.0
  O  O24  1  0.76799453  0.80489225  1.57288678  1.0
  O  O25  1  0.80489225  1.23200547  1.03689772  1.0
  O  O26  1  0.23200547  0.19510775  0.42711322  1.0
  O  O27  1  1.19510775  0.76799453  0.96310228  1.0
