# generated using pymatgen
data_FeSbPt
_symmetry_space_group_name_H-M   'P 1'
_cell_length_a   6.18200641
_cell_length_b   6.18200641
_cell_length_c   6.18200641
_cell_angle_alpha   90.00000000
_cell_angle_beta   90.00000000
_cell_angle_gamma   90.00000000
_symmetry_Int_Tables_number   1
_chemical_formula_structural   FeSbPt
_chemical_formula_sum   'Fe4 Sb4 Pt4'
_cell_volume   236.25899503
_cell_formula_units_Z   4
loop_
 _symmetry_equiv_pos_site_id
 _symmetry_equiv_pos_as_xyz
  1  'x, y, z'
loop_
 _atom_site_type_symbol
 _atom_site_label
 _atom_site_symmetry_multiplicity
 _atom_site_fract_x
 _atom_site_fract_y
 _atom_site_fract_z
 _atom_site_occupancy
  Fe  Fe0  1  0.50003304  1.00003304  0.49996696  1.0
  Fe  Fe1  1  1.00003304  0.49996696  0.50003304  1.0
  Fe  Fe2  1  0.49996696  0.50003304  1.00003304  1.0
  Fe  Fe3  1  -0.00003304  -0.00003304  -0.00003304  1.0
  Sb  Sb4  1  0.99997142  0.49997142  0.00002858  1.0
  Sb  Sb5  1  0.49997142  0.00002858  0.99997142  1.0
  Sb  Sb6  1  0.00002858  0.99997142  0.49997142  1.0
  Sb  Sb7  1  0.50002858  0.50002858  0.50002858  1.0
  Pt  Pt8  1  0.24997014  0.74997014  0.75002986  1.0
  Pt  Pt9  1  0.74997014  0.75002986  0.24997014  1.0
  Pt  Pt10  1  0.75002986  0.24997014  0.74997014  1.0
  Pt  Pt11  1  0.25002986  0.25002986  0.25002986  1.0
