# generated using pymatgen
data_LuGaRh
_symmetry_space_group_name_H-M   'P 1'
_cell_length_a   6.68026421
_cell_length_b   4.26983871
_cell_length_c   7.74514953
_cell_angle_alpha   90.00000000
_cell_angle_beta   90.00000000
_cell_angle_gamma   90.00000000
_symmetry_Int_Tables_number   1
_chemical_formula_structural   LuGaRh
_chemical_formula_sum   'Lu4 Ga4 Rh4'
_cell_volume   220.91994023
_cell_formula_units_Z   4
loop_
 _symmetry_equiv_pos_site_id
 _symmetry_equiv_pos_as_xyz
  1  'x, y, z'
loop_
 _atom_site_type_symbol
 _atom_site_label
 _atom_site_symmetry_multiplicity
 _atom_site_fract_x
 _atom_site_fract_y
 _atom_site_fract_z
 _atom_site_occupancy
  Lu  Lu0  1  0.97272676  0.75000000  0.68535366  1.0
  Lu  Lu1  1  0.47272676  0.75000000  0.81464634  1.0
  Lu  Lu2  1  0.02727324  0.25000000  0.31464634  1.0
  Lu  Lu3  1  0.52727324  0.25000000  0.18535366  1.0
  Ga  Ga4  1  0.84707017  0.75000000  0.06605518  1.0
  Ga  Ga5  1  0.34707017  0.75000000  0.43394482  1.0
  Ga  Ga6  1  0.15292983  0.25000000  0.93394482  1.0
  Ga  Ga7  1  0.65292983  0.25000000  0.56605518  1.0
  Rh  Rh8  1  0.73487692  0.75000000  0.38512110  1.0
  Rh  Rh9  1  0.23487692  0.75000000  0.11487890  1.0
  Rh  Rh10  1  0.26512308  0.25000000  0.61487890  1.0
  Rh  Rh11  1  0.76512308  0.25000000  0.88512110  1.0
