# generated using pymatgen
data_Li15Au4
_symmetry_space_group_name_H-M   'P 1'
_cell_length_a   9.33804560
_cell_length_b   9.33804560
_cell_length_c   9.33804560
_cell_angle_alpha   109.47122063
_cell_angle_beta   109.47122063
_cell_angle_gamma   109.47122063
_symmetry_Int_Tables_number   1
_chemical_formula_structural   Li15Au4
_chemical_formula_sum   'Li30 Au8'
_cell_volume   626.82466853
_cell_formula_units_Z   2
loop_
 _symmetry_equiv_pos_site_id
 _symmetry_equiv_pos_as_xyz
  1  'x, y, z'
loop_
 _atom_site_type_symbol
 _atom_site_label
 _atom_site_symmetry_multiplicity
 _atom_site_fract_x
 _atom_site_fract_y
 _atom_site_fract_z
 _atom_site_occupancy
  Li  Li0  1  1.07918656  0.30468301  0.96165999  1.0
  Li  Li1  1  0.84302302  1.11752658  0.53834001  1.0
  Li  Li2  1  0.80468301  0.57918656  0.46165999  1.0
  Li  Li3  1  1.61752658  1.34302302  1.03834001  1.0
  Li  Li4  1  0.96165999  1.07918656  0.30468301  1.0
  Li  Li5  1  1.27450356  0.65697698  1.19531699  1.0
  Li  Li6  1  1.57918656  1.46165999  1.80468301  1.0
  Li  Li7  1  0.15697698  0.77450356  0.69531699  1.0
  Li  Li8  1  1.30468301  0.96165999  1.07918656  1.0
  Li  Li9  1  1.38247342  1.22549644  1.42081344  1.0
  Li  Li10  1  0.46165999  0.80468301  0.57918656  1.0
  Li  Li11  1  0.72549644  0.88247342  0.92081344  1.0
  Li  Li12  1  1.65697698  1.19531699  1.27450356  1.0
  Li  Li13  1  1.42081344  1.38247342  1.22549644  1.0
  Li  Li14  1  0.88247342  0.92081344  0.72549644  1.0
  Li  Li15  1  0.69531699  1.15697698  0.77450356  1.0
  Li  Li16  1  1.22549644  1.42081344  1.38247342  1.0
  Li  Li17  1  1.53834001  0.84302302  1.11752658  1.0
  Li  Li18  1  1.34302302  1.03834001  1.61752658  1.0
  Li  Li19  1  0.92081344  0.72549644  0.88247342  1.0
  Li  Li20  1  1.11752658  1.53834001  0.84302302  1.0
  Li  Li21  1  1.19531699  1.27450356  1.65697698  1.0
  Li  Li22  1  0.77450356  0.69531699  0.15697698  1.0
  Li  Li23  1  1.03834001  0.61752658  1.34302302  1.0
  Li  Li24  1  1.12500000  0.87500000  1.25000000  1.0
  Li  Li25  1  0.37500000  0.62500000  0.75000000  1.0
  Li  Li26  1  0.25000000  1.12500000  0.87500000  1.0
  Li  Li27  1  0.75000000  1.37500000  0.62500000  1.0
  Li  Li28  1  0.62500000  0.75000000  0.37500000  1.0
  Li  Li29  1  0.87500000  0.25000000  1.12500000  1.0
  Au  Au30  1  1.08851326  1.08851326  1.08851326  1.0
  Au  Au31  1  1.50000000  1.00000000  1.41148674  1.0
  Au  Au32  1  0.58851326  0.58851326  0.58851326  1.0
  Au  Au33  1  0.50000000  1.00000000  0.91148674  1.0
  Au  Au34  1  1.00000000  1.41148674  1.50000000  1.0
  Au  Au35  1  1.41148674  0.50000000  1.00000000  1.0
  Au  Au36  1  1.00000000  0.91148674  1.50000000  1.0
  Au  Au37  1  0.91148674  1.50000000  1.00000000  1.0
