# generated using pymatgen
data_RbEu2Cl7
_symmetry_space_group_name_H-M   'P 1'
_cell_length_a   13.74017113
_cell_length_b   7.09078114
_cell_length_c   13.12071567
_cell_angle_alpha   90.00000000
_cell_angle_beta   90.00000000
_cell_angle_gamma   90.00000000
_symmetry_Int_Tables_number   1
_chemical_formula_structural   RbEu2Cl7
_chemical_formula_sum   'Rb4 Eu8 Cl28'
_cell_volume   1278.33225492
_cell_formula_units_Z   4
loop_
 _symmetry_equiv_pos_site_id
 _symmetry_equiv_pos_as_xyz
  1  'x, y, z'
loop_
 _atom_site_type_symbol
 _atom_site_label
 _atom_site_symmetry_multiplicity
 _atom_site_fract_x
 _atom_site_fract_y
 _atom_site_fract_z
 _atom_site_occupancy
  Rb  Rb0  1  0.47102833  0.75000000  0.29828123  1.0
  Rb  Rb1  1  0.97102833  0.75000000  0.20171877  1.0
  Rb  Rb2  1  0.52897167  0.25000000  0.70171877  1.0
  Rb  Rb3  1  0.02897167  0.25000000  0.79828123  1.0
  Eu  Eu4  1  0.25805401  0.75000000  0.95839186  1.0
  Eu  Eu5  1  0.75805401  0.75000000  0.54160814  1.0
  Eu  Eu6  1  0.74194599  0.25000000  0.04160814  1.0
  Eu  Eu7  1  0.24194599  0.25000000  0.45839186  1.0
  Eu  Eu8  1  0.25032085  0.75000000  0.66013397  1.0
  Eu  Eu9  1  0.75032085  0.75000000  0.83986603  1.0
  Eu  Eu10  1  0.74967915  0.25000000  0.33986603  1.0
  Eu  Eu11  1  0.24967915  0.25000000  0.16013397  1.0
  Cl  Cl12  1  0.37491550  0.98841531  0.07785697  1.0
  Cl  Cl13  1  0.37491550  0.51158469  0.07785697  1.0
  Cl  Cl14  1  0.87491550  0.98841531  0.42214303  1.0
  Cl  Cl15  1  0.87491550  0.51158469  0.42214303  1.0
  Cl  Cl16  1  0.62508450  0.48841531  0.92214303  1.0
  Cl  Cl17  1  0.62508450  0.01158469  0.92214303  1.0
  Cl  Cl18  1  0.12508450  0.48841531  0.57785697  1.0
  Cl  Cl19  1  0.12508450  0.01158469  0.57785697  1.0
  Cl  Cl20  1  0.36958088  0.99067777  0.54198548  1.0
  Cl  Cl21  1  0.36958088  0.50932223  0.54198548  1.0
  Cl  Cl22  1  0.86958088  0.99067777  0.95801452  1.0
  Cl  Cl23  1  0.86958088  0.50932223  0.95801452  1.0
  Cl  Cl24  1  0.63041912  0.49067777  0.45801452  1.0
  Cl  Cl25  1  0.63041912  0.00932223  0.45801452  1.0
  Cl  Cl26  1  0.13041912  0.49067777  0.04198548  1.0
  Cl  Cl27  1  0.13041912  0.00932223  0.04198548  1.0
  Cl  Cl28  1  0.32835644  0.99053811  0.80742388  1.0
  Cl  Cl29  1  0.32835644  0.50946189  0.80742388  1.0
  Cl  Cl30  1  0.82835644  0.99053811  0.69257612  1.0
  Cl  Cl31  1  0.82835644  0.50946189  0.69257612  1.0
  Cl  Cl32  1  0.67164356  0.49053811  0.19257612  1.0
  Cl  Cl33  1  0.67164356  0.00946189  0.19257612  1.0
  Cl  Cl34  1  0.17164356  0.49053811  0.30742388  1.0
  Cl  Cl35  1  0.17164356  0.00946189  0.30742388  1.0
  Cl  Cl36  1  0.10747199  0.75000000  0.81129258  1.0
  Cl  Cl37  1  0.60747199  0.75000000  0.68870742  1.0
  Cl  Cl38  1  0.89252801  0.25000000  0.18870742  1.0
  Cl  Cl39  1  0.39252801  0.25000000  0.31129258  1.0
