# generated using pymatgen
data_SnTe
_symmetry_space_group_name_H-M   'P 1'
_cell_length_a   8.82411936
_cell_length_b   4.48362523
_cell_length_c   6.61585524
_cell_angle_alpha   90.00000000
_cell_angle_beta   90.00000000
_cell_angle_gamma   90.00000000
_symmetry_Int_Tables_number   1
_chemical_formula_structural   SnTe
_chemical_formula_sum   'Sn4 Te4'
_cell_volume   261.74998918
_cell_formula_units_Z   4
loop_
 _symmetry_equiv_pos_site_id
 _symmetry_equiv_pos_as_xyz
  1  'x, y, z'
loop_
 _atom_site_type_symbol
 _atom_site_label
 _atom_site_symmetry_multiplicity
 _atom_site_fract_x
 _atom_site_fract_y
 _atom_site_fract_z
 _atom_site_occupancy
  Sn  Sn0  1  0.39628746  0.75000000  0.68963430  1.0
  Sn  Sn1  1  0.89628746  0.75000000  0.81036570  1.0
  Sn  Sn2  1  0.60371254  0.25000000  0.31036570  1.0
  Sn  Sn3  1  0.10371254  0.25000000  0.18963430  1.0
  Te  Te4  1  0.33597614  0.75000000  0.13511990  1.0
  Te  Te5  1  0.83597614  0.75000000  0.36488010  1.0
  Te  Te6  1  0.66402386  0.25000000  0.86488010  1.0
  Te  Te7  1  0.16402386  0.25000000  0.63511990  1.0
