# generated using pymatgen
data_EuBrF
_symmetry_space_group_name_H-M   'P 1'
_cell_length_a   4.19235157
_cell_length_b   4.19235157
_cell_length_c   7.52247965
_cell_angle_alpha   90.00000000
_cell_angle_beta   90.00000000
_cell_angle_gamma   90.00000000
_symmetry_Int_Tables_number   1
_chemical_formula_structural   EuBrF
_chemical_formula_sum   'Eu2 Br2 F2'
_cell_volume   132.21368603
_cell_formula_units_Z   2
loop_
 _symmetry_equiv_pos_site_id
 _symmetry_equiv_pos_as_xyz
  1  'x, y, z'
loop_
 _atom_site_type_symbol
 _atom_site_label
 _atom_site_symmetry_multiplicity
 _atom_site_fract_x
 _atom_site_fract_y
 _atom_site_fract_z
 _atom_site_occupancy
  Eu  Eu0  1  0.50000000  0.00000000  0.19068488  1.0
  Eu  Eu1  1  0.00000000  0.50000000  0.80931512  1.0
  Br  Br2  1  0.50000000  0.00000000  0.64765978  1.0
  Br  Br3  1  0.00000000  0.50000000  0.35234022  1.0
  F  F4  1  0.00000000  0.00000000  0.00000000  1.0
  F  F5  1  0.50000000  0.50000000  0.00000000  1.0
