# generated using pymatgen
data_Cd2SnO4
_symmetry_space_group_name_H-M   'P 1'
_cell_length_a   6.58699427
_cell_length_b   6.58699427
_cell_length_c   6.58699427
_cell_angle_alpha   60.00000000
_cell_angle_beta   60.00000000
_cell_angle_gamma   60.00000000
_symmetry_Int_Tables_number   1
_chemical_formula_structural   Cd2SnO4
_chemical_formula_sum   'Cd4 Sn2 O8'
_cell_volume   202.09094695
_cell_formula_units_Z   2
loop_
 _symmetry_equiv_pos_site_id
 _symmetry_equiv_pos_as_xyz
  1  'x, y, z'
loop_
 _atom_site_type_symbol
 _atom_site_label
 _atom_site_symmetry_multiplicity
 _atom_site_fract_x
 _atom_site_fract_y
 _atom_site_fract_z
 _atom_site_occupancy
  Cd  Cd0  1  0.62500000  1.12500000  0.12500000  1.0
  Cd  Cd1  1  0.12500000  1.62500000  0.12500000  1.0
  Cd  Cd2  1  0.12500000  0.12500000  1.62500000  1.0
  Cd  Cd3  1  0.12500000  0.12500000  0.12500000  1.0
  Sn  Sn4  1  0.50000000  -0.50000000  0.50000000  1.0
  Sn  Sn5  1  0.75000000  0.75000000  0.75000000  1.0
  O  O6  1  -0.12684457  1.37561486  0.37561486  1.0
  O  O7  1  0.37561486  0.87315543  0.37561486  1.0
  O  O8  1  0.37561486  1.37561486  -0.12684457  1.0
  O  O9  1  0.37561486  1.37561486  0.37561486  1.0
  O  O10  1  -0.62315543  0.87438514  0.87438514  1.0
  O  O11  1  0.87438514  -0.62315543  0.87438514  1.0
  O  O12  1  0.87438514  0.87438514  -0.62315543  1.0
  O  O13  1  0.87438514  0.87438514  0.87438514  1.0
