# generated using pymatgen
data_Li4Al3Ge3IO12
_symmetry_space_group_name_H-M   'P 1'
_cell_length_a   8.82683253
_cell_length_b   8.82683253
_cell_length_c   8.82683253
_cell_angle_alpha   90.00000000
_cell_angle_beta   90.00000000
_cell_angle_gamma   90.00000000
_symmetry_Int_Tables_number   1
_chemical_formula_structural   Li4Al3Ge3IO12
_chemical_formula_sum   'Li8 Al6 Ge6 I2 O24'
_cell_volume   687.72475938
_cell_formula_units_Z   2
loop_
 _symmetry_equiv_pos_site_id
 _symmetry_equiv_pos_as_xyz
  1  'x, y, z'
loop_
 _atom_site_type_symbol
 _atom_site_label
 _atom_site_symmetry_multiplicity
 _atom_site_fract_x
 _atom_site_fract_y
 _atom_site_fract_z
 _atom_site_occupancy
  Li  Li0  1  0.31023614  0.31023614  0.68976386  1.0
  Li  Li1  1  0.31023614  0.68976386  0.31023614  1.0
  Li  Li2  1  0.81023614  0.81023614  0.18976386  1.0
  Li  Li3  1  0.81023614  0.18976386  0.81023614  1.0
  Li  Li4  1  0.68976386  0.31023614  0.31023614  1.0
  Li  Li5  1  0.68976386  0.68976386  0.68976386  1.0
  Li  Li6  1  0.18976386  0.81023614  0.81023614  1.0
  Li  Li7  1  0.18976386  0.18976386  0.18976386  1.0
  Al  Al8  1  0.25000000  0.50000000  0.00000000  1.0
  Al  Al9  1  0.75000000  0.50000000  0.00000000  1.0
  Al  Al10  1  0.00000000  0.25000000  0.50000000  1.0
  Al  Al11  1  0.00000000  0.75000000  0.50000000  1.0
  Al  Al12  1  0.50000000  0.00000000  0.25000000  1.0
  Al  Al13  1  0.50000000  0.00000000  0.75000000  1.0
  Ge  Ge14  1  0.25000000  0.00000000  0.50000000  1.0
  Ge  Ge15  1  0.75000000  0.00000000  0.50000000  1.0
  Ge  Ge16  1  0.50000000  0.25000000  0.00000000  1.0
  Ge  Ge17  1  0.50000000  0.75000000  0.00000000  1.0
  Ge  Ge18  1  0.00000000  0.50000000  0.25000000  1.0
  Ge  Ge19  1  0.00000000  0.50000000  0.75000000  1.0
  I  I20  1  0.50000000  0.50000000  0.50000000  1.0
  I  I21  1  0.00000000  0.00000000  0.00000000  1.0
  O  O22  1  0.35933192  0.09273577  0.64025780  1.0
  O  O23  1  0.35933192  0.90726423  0.35974220  1.0
  O  O24  1  0.85933192  0.85974220  0.40726423  1.0
  O  O25  1  0.85933192  0.14025780  0.59273577  1.0
  O  O26  1  0.35974220  0.35933192  0.90726423  1.0
  O  O27  1  0.35974220  0.64066808  0.09273577  1.0
  O  O28  1  0.85974220  0.59273577  0.14066808  1.0
  O  O29  1  0.85974220  0.40726423  0.85933192  1.0
  O  O30  1  0.09273577  0.35974220  0.64066808  1.0
  O  O31  1  0.09273577  0.64025780  0.35933192  1.0
  O  O32  1  0.59273577  0.85933192  0.14025780  1.0
  O  O33  1  0.59273577  0.14066808  0.85974220  1.0
  O  O34  1  0.64066808  0.09273577  0.35974220  1.0
  O  O35  1  0.64066808  0.90726423  0.64025780  1.0
  O  O36  1  0.14066808  0.85974220  0.59273577  1.0
  O  O37  1  0.14066808  0.14025780  0.40726423  1.0
  O  O38  1  0.64025780  0.35933192  0.09273577  1.0
  O  O39  1  0.64025780  0.64066808  0.90726423  1.0
  O  O40  1  0.14025780  0.59273577  0.85933192  1.0
  O  O41  1  0.14025780  0.40726423  0.14066808  1.0
  O  O42  1  0.90726423  0.35974220  0.35933192  1.0
  O  O43  1  0.90726423  0.64025780  0.64066808  1.0
  O  O44  1  0.40726423  0.85933192  0.85974220  1.0
  O  O45  1  0.40726423  0.14066808  0.14025780  1.0
