# generated using pymatgen
data_Gd3CrS6
_symmetry_space_group_name_H-M   'P 1'
_cell_length_a   13.42794520
_cell_length_b   16.03253944
_cell_length_c   3.81571201
_cell_angle_alpha   90.00000000
_cell_angle_beta   90.00000000
_cell_angle_gamma   90.00000000
_symmetry_Int_Tables_number   1
_chemical_formula_structural   Gd3CrS6
_chemical_formula_sum   'Gd12 Cr4 S24'
_cell_volume   821.46197651
_cell_formula_units_Z   4
loop_
 _symmetry_equiv_pos_site_id
 _symmetry_equiv_pos_as_xyz
  1  'x, y, z'
loop_
 _atom_site_type_symbol
 _atom_site_label
 _atom_site_symmetry_multiplicity
 _atom_site_fract_x
 _atom_site_fract_y
 _atom_site_fract_z
 _atom_site_occupancy
  Gd  Gd0  1  0.18039360  0.64733091  0.50000000  1.0
  Gd  Gd1  1  0.68039360  0.85266909  0.00000000  1.0
  Gd  Gd2  1  0.81960640  0.35266909  0.50000000  1.0
  Gd  Gd3  1  0.31960640  0.14733091  0.00000000  1.0
  Gd  Gd4  1  0.94908045  0.78018080  0.50000000  1.0
  Gd  Gd5  1  0.44908045  0.71981920  0.00000000  1.0
  Gd  Gd6  1  0.05091955  0.21981920  0.50000000  1.0
  Gd  Gd7  1  0.55091955  0.28018080  0.00000000  1.0
  Gd  Gd8  1  0.74153404  0.59790153  0.50000000  1.0
  Gd  Gd9  1  0.24153404  0.90209847  0.00000000  1.0
  Gd  Gd10  1  0.25846596  0.40209847  0.50000000  1.0
  Gd  Gd11  1  0.75846596  0.09790153  0.00000000  1.0
  Cr  Cr12  1  0.50000000  0.00000000  0.50000000  1.0
  Cr  Cr13  1  0.00000000  0.50000000  0.00000000  1.0
  Cr  Cr14  1  0.50000000  0.50000000  0.50000000  1.0
  Cr  Cr15  1  0.00000000  0.00000000  0.00000000  1.0
  S  S16  1  0.97769983  0.59628035  0.50000000  1.0
  S  S17  1  0.47769983  0.90371965  0.00000000  1.0
  S  S18  1  0.02230017  0.40371965  0.50000000  1.0
  S  S19  1  0.52230017  0.09628035  0.00000000  1.0
  S  S20  1  0.39798888  0.25354032  0.50000000  1.0
  S  S21  1  0.89798888  0.24645968  0.00000000  1.0
  S  S22  1  0.60201112  0.74645968  0.50000000  1.0
  S  S23  1  0.10201112  0.75354032  0.00000000  1.0
  S  S24  1  0.37905060  0.60608324  0.50000000  1.0
  S  S25  1  0.87905060  0.89391676  0.00000000  1.0
  S  S26  1  0.62094940  0.39391676  0.50000000  1.0
  S  S27  1  0.12094940  0.10608324  0.00000000  1.0
  S  S28  1  0.32137759  0.01949777  0.50000000  1.0
  S  S29  1  0.82137759  0.48050223  0.00000000  1.0
  S  S30  1  0.67862241  0.98050223  0.50000000  1.0
  S  S31  1  0.17862241  0.51949777  0.00000000  1.0
  S  S32  1  0.31123179  0.78983875  0.50000000  1.0
  S  S33  1  0.81123179  0.71016125  0.00000000  1.0
  S  S34  1  0.68876821  0.21016125  0.50000000  1.0
  S  S35  1  0.18876821  0.28983875  0.00000000  1.0
  S  S36  1  0.08033374  0.92607707  0.50000000  1.0
  S  S37  1  0.58033374  0.57392293  0.00000000  1.0
  S  S38  1  0.91966626  0.07392293  0.50000000  1.0
  S  S39  1  0.41966626  0.42607707  0.00000000  1.0
