# generated using pymatgen
data_BaWO4
_symmetry_space_group_name_H-M   'P 1'
_cell_length_a   7.72754993
_cell_length_b   5.67675896
_cell_length_c   8.93824583
_cell_angle_alpha   90.00000000
_cell_angle_beta   105.16790115
_cell_angle_gamma   90.00000000
_symmetry_Int_Tables_number   1
_chemical_formula_structural   BaWO4
_chemical_formula_sum   'Ba4 W4 O16'
_cell_volume   378.43852163
_cell_formula_units_Z   4
loop_
 _symmetry_equiv_pos_site_id
 _symmetry_equiv_pos_as_xyz
  1  'x, y, z'
loop_
 _atom_site_type_symbol
 _atom_site_label
 _atom_site_symmetry_multiplicity
 _atom_site_fract_x
 _atom_site_fract_y
 _atom_site_fract_z
 _atom_site_occupancy
  Ba  Ba0  1  0.32417753  0.24998709  0.09366907  1.0
  Ba  Ba1  1  0.67582247  0.74998709  0.40633093  1.0
  Ba  Ba2  1  0.67582247  0.75001291  0.90633093  1.0
  Ba  Ba3  1  0.32417753  0.25001291  0.59366907  1.0
  W  W4  1  0.17908694  0.74995452  0.33543690  1.0
  W  W5  1  0.82091306  0.24995452  0.16456310  1.0
  W  W6  1  0.82091306  0.25004548  0.66456310  1.0
  W  W7  1  0.17908694  0.75004548  0.83543690  1.0
  O  O8  1  0.16665513  0.75011005  0.03255985  1.0
  O  O9  1  0.83334487  0.25011005  0.46744015  1.0
  O  O10  1  0.83334487  0.24988995  0.96744015  1.0
  O  O11  1  0.16665513  0.74988995  0.53255985  1.0
  O  O12  1  0.00034473  0.49907008  0.25017212  1.0
  O  O13  1  0.99965527  0.99907008  0.24982788  1.0
  O  O14  1  0.99965527  0.50092992  0.74982788  1.0
  O  O15  1  0.00034473  0.00092992  0.75017212  1.0
  O  O16  1  0.35124984  0.52156836  0.34265897  1.0
  O  O17  1  0.64875016  0.02156836  0.15734103  1.0
  O  O18  1  0.64875016  0.47843164  0.65734103  1.0
  O  O19  1  0.35124984  0.97843164  0.84265897  1.0
  O  O20  1  0.35095247  0.97868123  0.34280656  1.0
  O  O21  1  0.64904753  0.47868123  0.15719344  1.0
  O  O22  1  0.64904753  0.02131877  0.65719344  1.0
  O  O23  1  0.35095247  0.52131877  0.84280656  1.0
