# generated using pymatgen
data_Ba3Te2O9
_symmetry_space_group_name_H-M   'P 1'
_cell_length_a   5.98144569
_cell_length_b   5.98144569
_cell_length_c   14.73227928
_cell_angle_alpha   90.00000000
_cell_angle_beta   90.00000000
_cell_angle_gamma   120.00000000
_symmetry_Int_Tables_number   1
_chemical_formula_structural   Ba3Te2O9
_chemical_formula_sum   'Ba6 Te4 O18'
_cell_volume   456.47069672
_cell_formula_units_Z   2
loop_
 _symmetry_equiv_pos_site_id
 _symmetry_equiv_pos_as_xyz
  1  'x, y, z'
loop_
 _atom_site_type_symbol
 _atom_site_label
 _atom_site_symmetry_multiplicity
 _atom_site_fract_x
 _atom_site_fract_y
 _atom_site_fract_z
 _atom_site_occupancy
  Ba  Ba0  1  0.33333333  0.66666667  0.44077515  1.0
  Ba  Ba1  1  0.33333333  0.66666667  0.05922485  1.0
  Ba  Ba2  1  0.66666667  0.33333333  0.94077515  1.0
  Ba  Ba3  1  0.66666667  0.33333333  0.55922485  1.0
  Ba  Ba4  1  0.33333333  0.66666667  0.75000000  1.0
  Ba  Ba5  1  0.66666667  0.33333333  0.25000000  1.0
  Te  Te6  1  0.00000000  0.00000000  0.35115002  1.0
  Te  Te7  1  -0.00000000  -0.00000000  0.14884998  1.0
  Te  Te8  1  -0.00000000  -0.00000000  0.85115002  1.0
  Te  Te9  1  0.00000000  0.00000000  0.64884998  1.0
  O  O10  1  0.16763890  0.83236110  0.90956513  1.0
  O  O11  1  0.16763890  0.83236110  0.59043487  1.0
  O  O12  1  0.16763890  0.33527780  0.90956513  1.0
  O  O13  1  0.16763890  0.33527780  0.59043487  1.0
  O  O14  1  0.83236110  0.16763890  0.40956513  1.0
  O  O15  1  0.83236110  0.16763890  0.09043487  1.0
  O  O16  1  0.83236110  0.66472220  0.40956513  1.0
  O  O17  1  0.83236110  0.66472220  0.09043487  1.0
  O  O18  1  0.66472220  0.83236110  0.90956513  1.0
  O  O19  1  0.66472220  0.83236110  0.59043487  1.0
  O  O20  1  0.33527780  0.16763890  0.40956513  1.0
  O  O21  1  0.33527780  0.16763890  0.09043487  1.0
  O  O22  1  0.14518055  0.85481945  0.25000000  1.0
  O  O23  1  0.14518055  0.29036109  0.25000000  1.0
  O  O24  1  0.85481945  0.14518055  0.75000000  1.0
  O  O25  1  0.85481945  0.70963891  0.75000000  1.0
  O  O26  1  0.70963891  0.85481945  0.25000000  1.0
  O  O27  1  0.29036109  0.14518055  0.75000000  1.0
