# generated using pymatgen
data_CuAgO
_symmetry_space_group_name_H-M   'P 1'
_cell_length_a   5.30518920
_cell_length_b   11.00702198
_cell_length_c   5.63669646
_cell_angle_alpha   90.00000000
_cell_angle_beta   107.93194584
_cell_angle_gamma   90.00000000
_symmetry_Int_Tables_number   1
_chemical_formula_structural   CuAgO
_chemical_formula_sum   'Cu6 Ag6 O6'
_cell_volume   313.16192471
_cell_formula_units_Z   6
loop_
 _symmetry_equiv_pos_site_id
 _symmetry_equiv_pos_as_xyz
  1  'x, y, z'
loop_
 _atom_site_type_symbol
 _atom_site_label
 _atom_site_symmetry_multiplicity
 _atom_site_fract_x
 _atom_site_fract_y
 _atom_site_fract_z
 _atom_site_occupancy
  Cu  Cu0  1  0.28494461  0.25912948  0.80302945  1.0
  Cu  Cu1  1  0.28494461  0.74087052  0.30302945  1.0
  Cu  Cu2  1  0.71505539  0.25912948  0.69697055  1.0
  Cu  Cu3  1  0.71505539  0.74087052  0.19697055  1.0
  Cu  Cu4  1  0.00000000  0.50000000  0.00000000  1.0
  Cu  Cu5  1  -0.00000000  0.50000000  0.50000000  1.0
  Ag  Ag6  1  0.28158639  0.21947519  0.32690028  1.0
  Ag  Ag7  1  0.28158639  0.78052481  0.82690028  1.0
  Ag  Ag8  1  0.71841361  0.21947519  0.17309972  1.0
  Ag  Ag9  1  0.71841361  0.78052481  0.67309972  1.0
  Ag  Ag10  1  0.00000000  0.00000000  0.00000000  1.0
  Ag  Ag11  1  -0.00000000  0.00000000  0.50000000  1.0
  O  O12  1  0.00000000  0.13718217  0.75000000  1.0
  O  O13  1  0.00000000  0.86281783  0.25000000  1.0
  O  O14  1  0.00000000  0.38619430  0.75000000  1.0
  O  O15  1  0.00000000  0.61380570  0.25000000  1.0
  O  O16  1  0.00000000  0.61299584  0.75000000  1.0
  O  O17  1  0.00000000  0.38700416  0.25000000  1.0
