# generated using pymatgen
data_PNCl2
_symmetry_space_group_name_H-M   'P 1'
_cell_length_a   11.99129156
_cell_length_b   11.99129156
_cell_length_c   6.52956543
_cell_angle_alpha   90.00000000
_cell_angle_beta   90.00000000
_cell_angle_gamma   90.00000000
_symmetry_Int_Tables_number   1
_chemical_formula_structural   PNCl2
_chemical_formula_sum   'P8 N8 Cl16'
_cell_volume   938.89322192
_cell_formula_units_Z   8
loop_
 _symmetry_equiv_pos_site_id
 _symmetry_equiv_pos_as_xyz
  1  'x, y, z'
loop_
 _atom_site_type_symbol
 _atom_site_label
 _atom_site_symmetry_multiplicity
 _atom_site_fract_x
 _atom_site_fract_y
 _atom_site_fract_z
 _atom_site_occupancy
  P  P0  1  0.16398049  0.96331443  0.45651701  1.0
  P  P1  1  0.83601951  0.03668557  0.45651701  1.0
  P  P2  1  0.46331443  0.33601951  0.95651701  1.0
  P  P3  1  0.53668557  0.66398049  0.95651701  1.0
  P  P4  1  0.33601951  0.53668557  0.04348299  1.0
  P  P5  1  0.66398049  0.46331443  0.04348299  1.0
  P  P6  1  0.03668557  0.16398049  0.54348299  1.0
  P  P7  1  0.96331443  0.83601951  0.54348299  1.0
  N  N8  1  0.08846195  0.87556289  0.57412751  1.0
  N  N9  1  0.91153805  0.12443711  0.57412751  1.0
  N  N10  1  0.37556289  0.41153805  0.07412751  1.0
  N  N11  1  0.62443711  0.58846195  0.07412751  1.0
  N  N12  1  0.41153805  0.62443711  0.92587249  1.0
  N  N13  1  0.58846195  0.37556289  0.92587249  1.0
  N  N14  1  0.12443711  0.08846195  0.42587249  1.0
  N  N15  1  0.87556289  0.91153805  0.42587249  1.0
  Cl  Cl16  1  0.20574312  0.90888367  0.17297465  1.0
  Cl  Cl17  1  0.79425688  0.09111633  0.17297465  1.0
  Cl  Cl18  1  0.40888367  0.29425688  0.67297465  1.0
  Cl  Cl19  1  0.59111633  0.70574312  0.67297465  1.0
  Cl  Cl20  1  0.29425688  0.59111633  0.32702535  1.0
  Cl  Cl21  1  0.70574312  0.40888367  0.32702535  1.0
  Cl  Cl22  1  0.09111633  0.20574312  0.82702535  1.0
  Cl  Cl23  1  0.90888367  0.79425688  0.82702535  1.0
  Cl  Cl24  1  0.31178525  0.96128354  0.60678021  1.0
  Cl  Cl25  1  0.68821475  0.03871646  0.60678021  1.0
  Cl  Cl26  1  0.46128354  0.18821475  0.10678021  1.0
  Cl  Cl27  1  0.53871646  0.81178525  0.10678021  1.0
  Cl  Cl28  1  0.18821475  0.53871646  0.89321979  1.0
  Cl  Cl29  1  0.81178525  0.46128354  0.89321979  1.0
  Cl  Cl30  1  0.03871646  0.31178525  0.39321979  1.0
  Cl  Cl31  1  0.96128354  0.68821475  0.39321979  1.0
