# generated using pymatgen
data_TaIr
_symmetry_space_group_name_H-M   'P 1'
_cell_length_a   13.83531107
_cell_length_b   2.87745441
_cell_length_c   4.85416082
_cell_angle_alpha   90.00000000
_cell_angle_beta   90.00000000
_cell_angle_gamma   90.00000000
_symmetry_Int_Tables_number   1
_chemical_formula_structural   TaIr
_chemical_formula_sum   'Ta6 Ir6'
_cell_volume   193.24645685
_cell_formula_units_Z   6
loop_
 _symmetry_equiv_pos_site_id
 _symmetry_equiv_pos_as_xyz
  1  'x, y, z'
loop_
 _atom_site_type_symbol
 _atom_site_label
 _atom_site_symmetry_multiplicity
 _atom_site_fract_x
 _atom_site_fract_y
 _atom_site_fract_z
 _atom_site_occupancy
  Ta  Ta0  1  0.91450250  0.50000000  0.32509837  1.0
  Ta  Ta1  1  0.41450250  0.50000000  0.67490163  1.0
  Ta  Ta2  1  0.08549750  0.50000000  0.67490163  1.0
  Ta  Ta3  1  0.58549750  0.50000000  0.32509837  1.0
  Ta  Ta4  1  0.25000000  0.50000000  0.05251029  1.0
  Ta  Ta5  1  0.75000000  0.50000000  0.94748971  1.0
  Ir  Ir6  1  0.25000000  0.00000000  0.54263465  1.0
  Ir  Ir7  1  0.75000000  0.00000000  0.45736535  1.0
  Ir  Ir8  1  0.41796410  0.00000000  0.17645040  1.0
  Ir  Ir9  1  0.91796410  0.00000000  0.82354960  1.0
  Ir  Ir10  1  0.58203590  0.00000000  0.82354960  1.0
  Ir  Ir11  1  0.08203590  0.00000000  0.17645040  1.0
