# generated using pymatgen
data_Gd3Sn3Au7
_symmetry_space_group_name_H-M   'P 1'
_cell_length_a   8.34149543
_cell_length_b   8.34149543
_cell_length_c   9.51385580
_cell_angle_alpha   90.00000000
_cell_angle_beta   90.00000000
_cell_angle_gamma   120.00000000
_symmetry_Int_Tables_number   1
_chemical_formula_structural   Gd3Sn3Au7
_chemical_formula_sum   'Gd6 Sn6 Au14'
_cell_volume   573.29087455
_cell_formula_units_Z   2
loop_
 _symmetry_equiv_pos_site_id
 _symmetry_equiv_pos_as_xyz
  1  'x, y, z'
loop_
 _atom_site_type_symbol
 _atom_site_label
 _atom_site_symmetry_multiplicity
 _atom_site_fract_x
 _atom_site_fract_y
 _atom_site_fract_z
 _atom_site_occupancy
  Gd  Gd0  1  0.01965201  0.70058650  0.25000000  1.0
  Gd  Gd1  1  0.70058650  0.68093449  0.75000000  1.0
  Gd  Gd2  1  0.68093449  0.98034799  0.25000000  1.0
  Gd  Gd3  1  0.29941350  0.31906551  0.25000000  1.0
  Gd  Gd4  1  0.98034799  0.29941350  0.75000000  1.0
  Gd  Gd5  1  0.31906551  0.01965201  0.75000000  1.0
  Sn  Sn6  1  0.33333333  0.66666667  0.45559311  1.0
  Sn  Sn7  1  0.33333333  0.66666667  0.04440689  1.0
  Sn  Sn8  1  0.66666667  0.33333333  0.95559311  1.0
  Sn  Sn9  1  0.66666667  0.33333333  0.54440689  1.0
  Sn  Sn10  1  0.00000000  0.00000000  0.50000000  1.0
  Sn  Sn11  1  0.00000000  0.00000000  0.00000000  1.0
  Au  Au12  1  0.66614417  0.64991601  0.40359143  1.0
  Au  Au13  1  0.66614417  0.64991601  0.09640857  1.0
  Au  Au14  1  0.64991601  0.98377184  0.90359143  1.0
  Au  Au15  1  0.64991601  0.98377184  0.59640857  1.0
  Au  Au16  1  0.98377184  0.33385583  0.40359143  1.0
  Au  Au17  1  0.98377184  0.33385583  0.09640857  1.0
  Au  Au18  1  0.35008399  0.01622816  0.40359143  1.0
  Au  Au19  1  0.35008399  0.01622816  0.09640857  1.0
  Au  Au20  1  0.33385583  0.35008399  0.90359143  1.0
  Au  Au21  1  0.33385583  0.35008399  0.59640857  1.0
  Au  Au22  1  0.01622816  0.66614417  0.90359143  1.0
  Au  Au23  1  0.01622816  0.66614417  0.59640857  1.0
  Au  Au24  1  0.66666667  0.33333333  0.25000000  1.0
  Au  Au25  1  0.33333333  0.66666667  0.75000000  1.0
