# generated using pymatgen
data_Be13W
_symmetry_space_group_name_H-M   'P 1'
_cell_length_a   9.59848036
_cell_length_b   9.59848036
_cell_length_c   9.59848036
_cell_angle_alpha   60.00000000
_cell_angle_beta   60.00000000
_cell_angle_gamma   60.00000000
_symmetry_Int_Tables_number   1
_chemical_formula_structural   Be13W
_chemical_formula_sum   'Be52 W4'
_cell_volume   625.30578182
_cell_formula_units_Z   4
loop_
 _symmetry_equiv_pos_site_id
 _symmetry_equiv_pos_as_xyz
  1  'x, y, z'
loop_
 _atom_site_type_symbol
 _atom_site_label
 _atom_site_symmetry_multiplicity
 _atom_site_fract_x
 _atom_site_fract_y
 _atom_site_fract_z
 _atom_site_occupancy
  Be  Be0  1  0.74953495  -0.25046505  1.14569844  1.0
  Be  Be1  1  -0.64476835  0.74953495  1.14569844  1.0
  Be  Be2  1  -0.64476835  1.14569844  0.74953495  1.0
  Be  Be3  1  0.74953495  0.14569844  0.74953495  1.0
  Be  Be4  1  0.50046505  0.50046505  -0.10523165  1.0
  Be  Be5  1  0.50046505  -0.10523165  0.50046505  1.0
  Be  Be6  1  0.10430156  -0.10523165  0.50046505  1.0
  Be  Be7  1  0.10430156  0.50046505  -0.10523165  1.0
  Be  Be8  1  0.74953495  -0.64476835  1.14569844  1.0
  Be  Be9  1  -0.25046505  1.14569844  0.35523165  1.0
  Be  Be10  1  -0.10523165  0.50046505  0.50046505  1.0
  Be  Be11  1  0.10430156  0.50046505  0.50046505  1.0
  Be  Be12  1  1.14569844  -0.64476835  0.74953495  1.0
  Be  Be13  1  0.14569844  0.74953495  0.35523165  1.0
  Be  Be14  1  -0.25046505  0.74953495  0.35523165  1.0
  Be  Be15  1  0.74953495  -0.64476835  0.74953495  1.0
  Be  Be16  1  -0.10523165  0.10430156  0.50046505  1.0
  Be  Be17  1  0.50046505  0.10430156  0.50046505  1.0
  Be  Be18  1  0.50046505  0.50046505  0.10430156  1.0
  Be  Be19  1  -0.10523165  0.50046505  0.10430156  1.0
  Be  Be20  1  1.14569844  -0.25046505  0.74953495  1.0
  Be  Be21  1  -0.64476835  0.74953495  0.74953495  1.0
  Be  Be22  1  0.50046505  0.10430156  -0.10523165  1.0
  Be  Be23  1  0.50046505  -0.10523165  0.10430156  1.0
  Be  Be24  1  1.00458527  -0.76091676  0.75174623  1.0
  Be  Be25  1  0.00458527  0.75174623  0.23908324  1.0
  Be  Be26  1  0.01091676  0.24541473  0.24541473  1.0
  Be  Be27  1  0.49825377  0.24541473  0.24541473  1.0
  Be  Be28  1  -0.76091676  1.00458527  0.75174623  1.0
  Be  Be29  1  1.00458527  0.00458527  0.75174623  1.0
  Be  Be30  1  1.00458527  -0.24825377  1.00458527  1.0
  Be  Be31  1  -0.76091676  0.75174623  1.00458527  1.0
  Be  Be32  1  0.24541473  0.01091676  0.24541473  1.0
  Be  Be33  1  0.24541473  0.24541473  0.01091676  1.0
  Be  Be34  1  0.49825377  0.24541473  0.01091676  1.0
  Be  Be35  1  0.49825377  0.01091676  0.24541473  1.0
  Be  Be36  1  0.75174623  0.00458527  1.00458527  1.0
  Be  Be37  1  -0.76091676  1.00458527  1.00458527  1.0
  Be  Be38  1  0.24541473  0.49825377  0.01091676  1.0
  Be  Be39  1  0.24541473  0.01091676  0.49825377  1.0
  Be  Be40  1  -0.24825377  1.00458527  0.23908324  1.0
  Be  Be41  1  0.75174623  -0.76091676  1.00458527  1.0
  Be  Be42  1  1.00458527  -0.76091676  1.00458527  1.0
  Be  Be43  1  0.00458527  1.00458527  0.23908324  1.0
  Be  Be44  1  0.24541473  0.49825377  0.24541473  1.0
  Be  Be45  1  0.01091676  0.49825377  0.24541473  1.0
  Be  Be46  1  0.01091676  0.24541473  0.49825377  1.0
  Be  Be47  1  0.24541473  0.24541473  0.49825377  1.0
  Be  Be48  1  0.00000000  1.00000000  -0.00000000  1.0
  Be  Be49  1  0.25000000  0.25000000  0.25000000  1.0
  Be  Be50  1  0.50000000  0.50000000  -0.50000000  1.0
  Be  Be51  1  0.75000000  -0.25000000  0.75000000  1.0
  W  W52  1  0.62500000  -0.37500000  1.12500000  1.0
  W  W53  1  0.62500000  0.12500000  0.62500000  1.0
  W  W54  1  0.62500000  -0.37500000  0.62500000  1.0
  W  W55  1  1.12500000  -0.37500000  0.62500000  1.0
