# generated using pymatgen
data_Cu(BO2)2
_symmetry_space_group_name_H-M   'P 1'
_cell_length_a   8.67550224
_cell_length_b   8.67550224
_cell_length_c   8.67550224
_cell_angle_alpha   96.16674353
_cell_angle_beta   96.16674353
_cell_angle_gamma   141.73505358
_symmetry_Int_Tables_number   1
_chemical_formula_structural   Cu(BO2)2
_chemical_formula_sum   'Cu6 B12 O24'
_cell_volume   382.03849650
_cell_formula_units_Z   6
loop_
 _symmetry_equiv_pos_site_id
 _symmetry_equiv_pos_as_xyz
  1  'x, y, z'
loop_
 _atom_site_type_symbol
 _atom_site_label
 _atom_site_symmetry_multiplicity
 _atom_site_fract_x
 _atom_site_fract_y
 _atom_site_fract_z
 _atom_site_occupancy
  Cu  Cu0  1  1.45679420  1.62500000  1.33179420  1.0
  Cu  Cu1  1  1.37500000  0.70679420  0.83179420  1.0
  Cu  Cu2  1  0.87500000  1.54320580  1.16820580  1.0
  Cu  Cu3  1  1.29320580  1.12500000  0.66820580  1.0
  Cu  Cu4  1  0.00000000  0.00000000  0.00000000  1.0
  Cu  Cu5  1  0.75000000  0.25000000  0.50000000  1.0
  B  B6  1  1.61758391  1.65526049  1.66718522  1.0
  B  B7  1  0.76192473  0.59473951  0.46232342  1.0
  B  B8  1  0.40526049  0.86758391  1.16718522  1.0
  B  B9  1  1.04960131  1.38241609  1.03767658  1.0
  B  B10  1  1.13241609  1.29960131  1.53767658  1.0
  B  B11  1  0.98807527  0.95039869  0.33281478  1.0
  B  B12  1  1.34473951  1.01192473  0.96232342  1.0
  B  B13  1  0.70039869  0.23807527  0.83281478  1.0
  B  B14  1  0.87509986  0.62500000  0.75009986  1.0
  B  B15  1  0.37500000  1.12509986  1.25009986  1.0
  B  B16  1  0.87500000  0.12490014  0.74990014  1.0
  B  B17  1  0.87490014  1.12500000  1.24990014  1.0
  O  O18  1  0.63009932  0.51694297  0.73893819  1.0
  O  O19  1  0.97199521  0.73305703  0.61315635  1.0
  O  O20  1  1.26694297  1.88009932  1.23893819  1.0
  O  O21  1  1.10883887  0.36990068  0.88684365  1.0
  O  O22  1  1.11990068  1.35883887  1.38684365  1.0
  O  O23  1  0.77800479  0.89116113  1.26106181  1.0
  O  O24  1  0.48305703  1.22199521  1.11315635  1.0
  O  O25  1  1.64116113  1.02800479  0.76106181  1.0
  O  O26  1  0.58584180  0.31519886  0.40964552  1.0
  O  O27  1  0.84444666  0.93480114  1.77064293  1.0
  O  O28  1  1.06519886  0.83584180  0.90964552  1.0
  O  O29  1  0.82380372  0.41415820  0.72935707  1.0
  O  O30  1  0.16415820  0.07380372  0.22935707  1.0
  O  O31  1  0.90555334  1.17619628  1.59035448  1.0
  O  O32  1  0.68480114  1.09444666  1.27064293  1.0
  O  O33  1  0.92619628  1.15555334  1.09035448  1.0
  O  O34  1  1.62263701  1.62500000  1.49763701  1.0
  O  O35  1  1.37500000  0.87263701  0.99763701  1.0
  O  O36  1  0.87500000  1.37736299  1.00236299  1.0
  O  O37  1  1.12736299  1.12500000  0.50236299  1.0
  O  O38  1  1.29058328  1.62500000  1.16558328  1.0
  O  O39  1  1.37500000  1.54058328  1.66558328  1.0
  O  O40  1  0.87500000  0.70941672  0.33441672  1.0
  O  O41  1  1.45941672  1.12500000  0.83441672  1.0
