# generated using pymatgen
data_Nb3Ga2Cl9
_symmetry_space_group_name_H-M   'P 1'
_cell_length_a   9.54451040
_cell_length_b   9.54451040
_cell_length_c   9.77439111
_cell_angle_alpha   74.31263982
_cell_angle_beta   105.68736018
_cell_angle_gamma   72.22338799
_symmetry_Int_Tables_number   1
_chemical_formula_structural   Nb3Ga2Cl9
_chemical_formula_sum   'Nb6 Ga4 Cl18'
_cell_volume   753.40986859
_cell_formula_units_Z   2
loop_
 _symmetry_equiv_pos_site_id
 _symmetry_equiv_pos_as_xyz
  1  'x, y, z'
loop_
 _atom_site_type_symbol
 _atom_site_label
 _atom_site_symmetry_multiplicity
 _atom_site_fract_x
 _atom_site_fract_y
 _atom_site_fract_z
 _atom_site_occupancy
  Nb  Nb0  1  0.47145622  -0.28238115  0.85417333  1.0
  Nb  Nb1  1  1.28238115  0.52854378  0.85417333  1.0
  Nb  Nb2  1  0.71761885  -0.52854378  0.14582667  1.0
  Nb  Nb3  1  1.52854378  0.28238115  0.14582667  1.0
  Nb  Nb4  1  0.61277162  -0.61277162  0.87977275  1.0
  Nb  Nb5  1  0.38722838  -0.38722838  0.12022725  1.0
  Ga  Ga6  1  0.71836300  -0.02450697  0.65567789  1.0
  Ga  Ga7  1  1.02450697  0.28163700  0.65567789  1.0
  Ga  Ga8  1  0.97549303  -0.28163700  0.34432211  1.0
  Ga  Ga9  1  1.28163700  0.02450697  0.34432211  1.0
  Cl  Cl10  1  0.59791150  -0.37425620  0.68734601  1.0
  Cl  Cl11  1  1.37425620  0.40208850  0.68734601  1.0
  Cl  Cl12  1  0.62574380  -0.40208850  0.31265399  1.0
  Cl  Cl13  1  1.40208850  0.37425620  0.31265399  1.0
  Cl  Cl14  1  0.33522653  -0.11130550  0.96838818  1.0
  Cl  Cl15  1  1.11130550  0.66477347  0.96838818  1.0
  Cl  Cl16  1  0.88869450  -0.66477347  0.03161182  1.0
  Cl  Cl17  1  1.66477347  0.11130550  0.03161182  1.0
  Cl  Cl18  1  1.43137243  -0.00155601  0.66335225  1.0
  Cl  Cl19  1  1.00155601  -0.43137243  0.66335225  1.0
  Cl  Cl20  1  0.99844399  0.43137243  0.33664775  1.0
  Cl  Cl21  1  0.56862757  0.00155601  0.33664775  1.0
  Cl  Cl22  1  0.79359268  -0.79359268  0.34385824  1.0
  Cl  Cl23  1  0.20640732  -0.20640732  0.65614176  1.0
  Cl  Cl24  1  0.75611123  -0.75611123  0.72826113  1.0
  Cl  Cl25  1  0.24388877  -0.24388877  0.27173887  1.0
  Cl  Cl26  1  0.72409251  -0.27590749  0.00000000  1.0
  Cl  Cl27  1  1.27590749  0.27590749  0.00000000  1.0
