# generated using pymatgen
data_AlH36C12S6(ClO2)3
_symmetry_space_group_name_H-M   'P 1'
_cell_length_a   9.89019920
_cell_length_b   9.89019920
_cell_length_c   9.89019920
_cell_angle_alpha   64.24923666
_cell_angle_beta   64.24923666
_cell_angle_gamma   64.24923666
_symmetry_Int_Tables_number   1
_chemical_formula_structural   AlH36C12S6(ClO2)3
_chemical_formula_sum   'Al1 H36 C12 S6 Cl3 O6'
_cell_volume   747.95465498
_cell_formula_units_Z   1
loop_
 _symmetry_equiv_pos_site_id
 _symmetry_equiv_pos_as_xyz
  1  'x, y, z'
loop_
 _atom_site_type_symbol
 _atom_site_label
 _atom_site_symmetry_multiplicity
 _atom_site_fract_x
 _atom_site_fract_y
 _atom_site_fract_z
 _atom_site_occupancy
  Al  Al0  1  0.50000000  0.50000000  -0.50000000  1.0
  H  H1  1  0.93028217  0.04234981  -0.27004705  1.0
  H  H2  1  1.04234981  -0.27004705  -0.06971783  1.0
  H  H3  1  0.72995295  -0.06971783  0.04234981  1.0
  H  H4  1  1.06971783  -0.04234981  -0.72995295  1.0
  H  H5  1  0.95765019  -0.72995295  0.06971783  1.0
  H  H6  1  0.27004705  0.06971783  -0.04234981  1.0
  H  H7  1  0.80918269  0.05695656  -0.37165922  1.0
  H  H8  1  1.05695656  -0.37165922  -0.19081731  1.0
  H  H9  1  0.62834078  -0.19081731  0.05695656  1.0
  H  H10  1  0.19081731  0.94304344  -0.62834078  1.0
  H  H11  1  0.94304344  0.37165922  -0.80918269  1.0
  H  H12  1  0.37165922  0.19081731  -0.05695656  1.0
  H  H13  1  0.97199090  0.14226568  -0.47998446  1.0
  H  H14  1  1.14226568  -0.47998446  -0.02800910  1.0
  H  H15  1  0.52001554  -0.02800910  0.14226568  1.0
  H  H16  1  1.02800910  -0.14226568  -0.52001554  1.0
  H  H17  1  0.85773432  -0.52001554  0.02800910  1.0
  H  H18  1  0.47998446  0.02800910  -0.14226568  1.0
  H  H19  1  0.83651469  0.47840601  -0.30945482  1.0
  H  H20  1  0.47840601  0.69054518  -0.16348531  1.0
  H  H21  1  0.69054518  0.83651469  -0.52159399  1.0
  H  H22  1  1.16348531  1.52159399  0.30945482  1.0
  H  H23  1  1.52159399  1.30945482  0.16348531  1.0
  H  H24  1  1.30945482  1.16348531  0.52159399  1.0
  H  H25  1  0.94078899  0.27460134  -0.22872501  1.0
  H  H26  1  1.27460134  -0.22872501  -0.05921101  1.0
  H  H27  1  0.77127499  -0.05921101  0.27460134  1.0
  H  H28  1  0.05921101  0.72539866  -0.77127499  1.0
  H  H29  1  0.72539866  0.22872501  -0.94078899  1.0
  H  H30  1  0.22872501  0.05921101  -0.27460134  1.0
  H  H31  1  0.98816768  0.36330851  -0.44063105  1.0
  H  H32  1  0.36330851  0.55936895  -0.01183232  1.0
  H  H33  1  0.55936895  0.98816768  -0.63669149  1.0
  H  H34  1  1.01183232  -0.36330851  -0.55936895  1.0
  H  H35  1  0.63669149  -0.55936895  0.01183232  1.0
  H  H36  1  0.44063105  0.01183232  -0.36330851  1.0
  C  C37  1  0.87963037  0.11507848  -0.36807525  1.0
  C  C38  1  1.11507848  -0.36807525  -0.12036963  1.0
  C  C39  1  0.63192475  -0.12036963  0.11507848  1.0
  C  C40  1  1.12036963  -0.11507848  -0.63192475  1.0
  C  C41  1  0.88492152  -0.63192475  0.12036963  1.0
  C  C42  1  0.36807525  0.12036963  -0.11507848  1.0
  C  C43  1  0.89487415  0.36127534  -0.32735402  1.0
  C  C44  1  0.36127534  0.67264598  -0.10512585  1.0
  C  C45  1  0.67264598  0.89487415  -0.63872466  1.0
  C  C46  1  0.10512585  0.63872466  -0.67264598  1.0
  C  C47  1  0.63872466  0.32735402  -0.89487415  1.0
  C  C48  1  0.32735402  0.10512585  -0.36127534  1.0
  S  S49  1  0.75080970  0.29529632  -0.32361920  1.0
  S  S50  1  0.29529632  0.67638080  -0.24919030  1.0
  S  S51  1  0.67638080  0.75080970  -0.70470368  1.0
  S  S52  1  0.24919030  0.70470368  -0.67638080  1.0
  S  S53  1  0.70470368  0.32361920  -0.75080970  1.0
  S  S54  1  0.32361920  0.24919030  -0.29529632  1.0
  Cl  Cl55  1  0.00000000  0.00000000  0.00000000  1.0
  Cl  Cl56  1  0.74515573  0.74515573  -0.25484427  1.0
  Cl  Cl57  1  1.25484427  1.25484427  0.25484427  1.0
  O  O58  1  0.70714550  0.40793647  -0.47781853  1.0
  O  O59  1  0.40793647  0.52218147  -0.29285450  1.0
  O  O60  1  0.52218147  0.70714550  -0.59206353  1.0
  O  O61  1  0.29285450  0.59206353  -0.52218147  1.0
  O  O62  1  0.59206353  0.47781853  -0.70714550  1.0
  O  O63  1  0.47781853  0.29285450  -0.40793647  1.0
