# generated using pymatgen
data_BaTeMoO5F2
_symmetry_space_group_name_H-M   'P 1'
_cell_length_a   5.67675808
_cell_length_b   10.13078117
_cell_length_c   12.48251840
_cell_angle_alpha   90.00000000
_cell_angle_beta   116.22397173
_cell_angle_gamma   90.00000000
_symmetry_Int_Tables_number   1
_chemical_formula_structural   BaTeMoO5F2
_chemical_formula_sum   'Ba4 Te4 Mo4 O20 F8'
_cell_volume   643.98180716
_cell_formula_units_Z   4
loop_
 _symmetry_equiv_pos_site_id
 _symmetry_equiv_pos_as_xyz
  1  'x, y, z'
loop_
 _atom_site_type_symbol
 _atom_site_label
 _atom_site_symmetry_multiplicity
 _atom_site_fract_x
 _atom_site_fract_y
 _atom_site_fract_z
 _atom_site_occupancy
  Ba  Ba0  1  0.38009492  0.96446136  0.64862416  1.0
  Ba  Ba1  1  0.61990508  0.46446136  0.85137584  1.0
  Ba  Ba2  1  0.61990508  0.03553864  0.35137584  1.0
  Ba  Ba3  1  0.38009492  0.53553864  0.14862416  1.0
  Te  Te4  1  0.70856525  0.61343499  0.56892010  1.0
  Te  Te5  1  0.29143475  0.11343499  0.93107990  1.0
  Te  Te6  1  0.29143475  0.38656501  0.43107990  1.0
  Te  Te7  1  0.70856525  0.88656501  0.06892010  1.0
  Mo  Mo8  1  0.10771514  0.75996026  0.35711852  1.0
  Mo  Mo9  1  0.89228486  0.25996026  0.14288148  1.0
  Mo  Mo10  1  0.89228486  0.24003974  0.64288148  1.0
  Mo  Mo11  1  0.10771514  0.74003974  0.85711852  1.0
  O  O12  1  0.47065925  0.48768429  0.59691739  1.0
  O  O13  1  0.52934075  0.98768429  0.90308261  1.0
  O  O14  1  0.52934075  0.51231571  0.40308261  1.0
  O  O15  1  0.47065925  0.01231571  0.09691739  1.0
  O  O16  1  0.78364224  0.83179366  0.24629987  1.0
  O  O17  1  0.21635776  0.33179366  0.25370013  1.0
  O  O18  1  0.21635776  0.16820634  0.75370013  1.0
  O  O19  1  0.78364224  0.66820634  0.74629987  1.0
  O  O20  1  0.43890627  0.75650018  0.51089119  1.0
  O  O21  1  0.56109373  0.25650018  0.98910881  1.0
  O  O22  1  0.56109373  0.24349982  0.48910881  1.0
  O  O23  1  0.43890627  0.74349982  0.01089119  1.0
  O  O24  1  1.01193296  0.59644448  0.36300281  1.0
  O  O25  1  -0.01193296  0.09644448  0.13699719  1.0
  O  O26  1  -0.01193296  0.40355552  0.63699719  1.0
  O  O27  1  1.01193296  0.90355552  0.86300281  1.0
  O  O28  1  0.25365057  0.75306465  0.26062484  1.0
  O  O29  1  0.74634943  0.25306465  0.23937516  1.0
  O  O30  1  0.74634943  0.24693535  0.73937516  1.0
  O  O31  1  0.25365057  0.74693535  0.76062484  1.0
  F  F32  1  0.95674381  0.82994586  0.47836579  1.0
  F  F33  1  0.04325619  0.32994586  0.02163421  1.0
  F  F34  1  0.04325619  0.17005414  0.52163421  1.0
  F  F35  1  0.95674381  0.67005414  0.97836579  1.0
  F  F36  1  0.21949478  0.96720935  0.39315138  1.0
  F  F37  1  0.78050522  0.46720935  0.10684862  1.0
  F  F38  1  0.78050522  0.03279065  0.60684862  1.0
  F  F39  1  0.21949478  0.53279065  0.89315138  1.0
