# generated using pymatgen
data_NbNiAs2
_symmetry_space_group_name_H-M   'P 1'
_cell_length_a   5.64748694
_cell_length_b   3.53674103
_cell_length_c   12.58473482
_cell_angle_alpha   90.00000000
_cell_angle_beta   90.00000000
_cell_angle_gamma   90.00000000
_symmetry_Int_Tables_number   1
_chemical_formula_structural   NbNiAs2
_chemical_formula_sum   'Nb4 Ni4 As8'
_cell_volume   251.36370241
_cell_formula_units_Z   4
loop_
 _symmetry_equiv_pos_site_id
 _symmetry_equiv_pos_as_xyz
  1  'x, y, z'
loop_
 _atom_site_type_symbol
 _atom_site_label
 _atom_site_symmetry_multiplicity
 _atom_site_fract_x
 _atom_site_fract_y
 _atom_site_fract_z
 _atom_site_occupancy
  Nb  Nb0  1  0.99044568  0.75000000  0.32847050  1.0
  Nb  Nb1  1  0.49044568  0.75000000  0.17152950  1.0
  Nb  Nb2  1  0.00955432  0.25000000  0.67152950  1.0
  Nb  Nb3  1  0.50955432  0.25000000  0.82847050  1.0
  Ni  Ni4  1  0.97845859  0.75000000  0.08764608  1.0
  Ni  Ni5  1  0.47845859  0.75000000  0.41235392  1.0
  Ni  Ni6  1  0.02154141  0.25000000  0.91235392  1.0
  Ni  Ni7  1  0.52154141  0.25000000  0.58764608  1.0
  As  As8  1  0.85342305  0.75000000  0.80928721  1.0
  As  As9  1  0.35342305  0.75000000  0.69071279  1.0
  As  As10  1  0.14657695  0.25000000  0.19071279  1.0
  As  As11  1  0.64657695  0.25000000  0.30928721  1.0
  As  As12  1  0.80498994  0.75000000  0.53681005  1.0
  As  As13  1  0.30498994  0.75000000  0.96318995  1.0
  As  As14  1  0.19501006  0.25000000  0.46318995  1.0
  As  As15  1  0.69501006  0.25000000  0.03681005  1.0
