# generated using pymatgen
data_KCoPO4
_symmetry_space_group_name_H-M   'P 1'
_cell_length_a   5.28015105
_cell_length_b   9.02491309
_cell_length_c   10.64795644
_cell_angle_alpha   90.00000000
_cell_angle_beta   122.06616542
_cell_angle_gamma   90.00000000
_symmetry_Int_Tables_number   1
_chemical_formula_structural   KCoPO4
_chemical_formula_sum   'K4 Co4 P4 O16'
_cell_volume   429.99393897
_cell_formula_units_Z   4
loop_
 _symmetry_equiv_pos_site_id
 _symmetry_equiv_pos_as_xyz
  1  'x, y, z'
loop_
 _atom_site_type_symbol
 _atom_site_label
 _atom_site_symmetry_multiplicity
 _atom_site_fract_x
 _atom_site_fract_y
 _atom_site_fract_z
 _atom_site_occupancy
  O  O0  1  1.04881766  0.26920076  0.00510182  1.0
  O  O1  1  1.04881766  0.23079924  0.50510182  1.0
  O  O2  1  -0.04881766  0.76920076  0.49489818  1.0
  O  O3  1  -0.04881766  0.73079924  0.99489818  1.0
  O  O4  1  0.52145205  0.31097002  0.41090485  1.0
  O  O5  1  0.52145205  0.18902998  0.91090485  1.0
  O  O6  1  0.47854795  0.81097002  0.08909515  1.0
  O  O7  1  0.47854795  0.68902998  0.58909515  1.0
  O  O8  1  0.82283098  0.32495948  0.15802356  1.0
  O  O9  1  0.82283098  0.17504052  0.65802356  1.0
  O  O10  1  0.17716902  0.82495948  0.34197644  1.0
  O  O11  1  0.17716902  0.67504052  0.84197644  1.0
  O  O12  1  -0.03765070  0.05958001  0.14123600  1.0
  O  O13  1  -0.03765070  0.44041999  0.64123600  1.0
  O  O14  1  1.03765070  0.55958001  0.35876400  1.0
  O  O15  1  1.03765070  0.94041999  0.85876400  1.0
  P  P16  1  0.83725844  0.20696300  0.05520888  1.0
  P  P17  1  0.83725844  0.29303700  0.55520888  1.0
  P  P18  1  0.16274156  0.70696300  0.44479112  1.0
  P  P19  1  0.16274156  0.79303700  0.94479112  1.0
  K  K20  1  0.58161646  1.00610565  0.32024978  1.0
  K  K21  1  0.58161646  0.49389435  0.82024978  1.0
  K  K22  1  0.41838354  0.50610565  0.17975022  1.0
  K  K23  1  0.41838354  -0.00610565  0.67975022  1.0
  Co  Co24  1  0.12221542  0.34692771  0.37340334  1.0
  Co  Co25  1  0.12221542  0.15307229  0.87340334  1.0
  Co  Co26  1  0.87778458  0.84692771  0.12659666  1.0
  Co  Co27  1  0.87778458  0.65307229  0.62659666  1.0
