# generated using pymatgen
data_RbLaGe(CN2)4
_symmetry_space_group_name_H-M   'P 1'
_cell_length_a   7.07279901
_cell_length_b   7.07279901
_cell_length_c   7.07279901
_cell_angle_alpha   104.62427563
_cell_angle_beta   104.62427563
_cell_angle_gamma   119.67247453
_symmetry_Int_Tables_number   1
_chemical_formula_structural   RbLaGe(CN2)4
_chemical_formula_sum   'Rb1 La1 Ge1 C4 N8'
_cell_volume   265.79087698
_cell_formula_units_Z   1
loop_
 _symmetry_equiv_pos_site_id
 _symmetry_equiv_pos_as_xyz
  1  'x, y, z'
loop_
 _atom_site_type_symbol
 _atom_site_label
 _atom_site_symmetry_multiplicity
 _atom_site_fract_x
 _atom_site_fract_y
 _atom_site_fract_z
 _atom_site_occupancy
  Rb  Rb0  1  0.75000000  0.25000000  0.50000000  1.0
  La  La1  1  0.50000000  0.50000000  0.00000000  1.0
  Ge  Ge2  1  0.00000000  0.00000000  0.00000000  1.0
  C  C3  1  1.65331181  1.68180932  1.58158854  1.0
  C  C4  1  0.92827672  1.34668819  1.02849751  1.0
  C  C5  1  1.10022079  1.07172328  0.41841146  1.0
  C  C6  1  1.31819068  0.89977921  0.97150249  1.0
  N  N7  1  0.72910868  0.70274638  0.77505465  1.0
  N  N8  1  1.04594597  0.27089132  0.97363769  1.0
  N  N9  1  0.92769173  0.95405403  1.22494535  1.0
  N  N10  1  0.29725362  1.07230827  1.02636231  1.0
  N  N11  1  1.57718329  1.65202111  1.39752984  1.0
  N  N12  1  0.82034655  1.42281671  1.07483783  1.0
  N  N13  1  1.25449127  1.17965345  0.60247016  1.0
  N  N14  1  1.34797889  0.74550873  0.92516217  1.0
