# generated using pymatgen
data_Y(SiPt)2
_symmetry_space_group_name_H-M   'P 1'
_cell_length_a   4.20719993
_cell_length_b   4.20719993
_cell_length_c   9.83592681
_cell_angle_alpha   90.00000000
_cell_angle_beta   90.00000000
_cell_angle_gamma   90.00000000
_symmetry_Int_Tables_number   1
_chemical_formula_structural   Y(SiPt)2
_chemical_formula_sum   'Y2 Si4 Pt4'
_cell_volume   174.10112977
_cell_formula_units_Z   2
loop_
 _symmetry_equiv_pos_site_id
 _symmetry_equiv_pos_as_xyz
  1  'x, y, z'
loop_
 _atom_site_type_symbol
 _atom_site_label
 _atom_site_symmetry_multiplicity
 _atom_site_fract_x
 _atom_site_fract_y
 _atom_site_fract_z
 _atom_site_occupancy
  Y  Y0  1  0.50000000  0.00000000  0.75438803  1.0
  Y  Y1  1  0.00000000  0.50000000  0.24561197  1.0
  Si  Si2  1  0.50000000  0.00000000  0.36667507  1.0
  Si  Si3  1  0.00000000  0.50000000  0.63332493  1.0
  Si  Si4  1  0.00000000  0.00000000  0.00000000  1.0
  Si  Si5  1  0.50000000  0.50000000  0.00000000  1.0
  Pt  Pt6  1  0.50000000  0.00000000  0.12362647  1.0
  Pt  Pt7  1  0.00000000  0.50000000  0.87637353  1.0
  Pt  Pt8  1  0.00000000  0.00000000  0.50000000  1.0
  Pt  Pt9  1  0.50000000  0.50000000  0.50000000  1.0
