# generated using pymatgen
data_Cd3As2
_symmetry_space_group_name_H-M   'P 1'
_cell_length_a   9.15438194
_cell_length_b   9.15438194
_cell_length_c   12.86782549
_cell_angle_alpha   90.00000000
_cell_angle_beta   90.00000000
_cell_angle_gamma   90.00000000
_symmetry_Int_Tables_number   1
_chemical_formula_structural   Cd3As2
_chemical_formula_sum   'Cd24 As16'
_cell_volume   1078.35863025
_cell_formula_units_Z   8
loop_
 _symmetry_equiv_pos_site_id
 _symmetry_equiv_pos_as_xyz
  1  'x, y, z'
loop_
 _atom_site_type_symbol
 _atom_site_label
 _atom_site_symmetry_multiplicity
 _atom_site_fract_x
 _atom_site_fract_y
 _atom_site_fract_z
 _atom_site_occupancy
  Cd  Cd0  1  0.74420489  0.50000000  0.85263348  1.0
  Cd  Cd1  1  0.25579511  0.50000000  0.85263348  1.0
  Cd  Cd2  1  0.00000000  0.24420489  0.35263348  1.0
  Cd  Cd3  1  0.00000000  0.75579511  0.35263348  1.0
  Cd  Cd4  1  0.75579511  0.00000000  0.64736652  1.0
  Cd  Cd5  1  0.24420489  0.00000000  0.64736652  1.0
  Cd  Cd6  1  0.50000000  0.25579511  0.14736652  1.0
  Cd  Cd7  1  0.50000000  0.74420489  0.14736652  1.0
  Cd  Cd8  1  0.28137649  0.50000000  0.39536776  1.0
  Cd  Cd9  1  0.71862351  0.50000000  0.39536776  1.0
  Cd  Cd10  1  -0.00000000  0.78137649  0.89536776  1.0
  Cd  Cd11  1  0.00000000  0.21862351  0.89536776  1.0
  Cd  Cd12  1  0.21862351  0.00000000  0.10463224  1.0
  Cd  Cd13  1  0.78137649  0.00000000  0.10463224  1.0
  Cd  Cd14  1  0.50000000  0.71862351  0.60463224  1.0
  Cd  Cd15  1  0.50000000  0.28137649  0.60463224  1.0
  Cd  Cd16  1  0.78450656  0.50000000  0.11740150  1.0
  Cd  Cd17  1  0.21549344  0.50000000  0.11740150  1.0
  Cd  Cd18  1  0.00000000  0.28450656  0.61740150  1.0
  Cd  Cd19  1  0.00000000  0.71549344  0.61740150  1.0
  Cd  Cd20  1  0.71549344  0.00000000  0.38259850  1.0
  Cd  Cd21  1  0.28450656  -0.00000000  0.38259850  1.0
  Cd  Cd22  1  0.50000000  0.21549344  0.88259850  1.0
  Cd  Cd23  1  0.50000000  0.78450656  0.88259850  1.0
  As  As24  1  0.00000000  0.00000000  0.24412791  1.0
  As  As25  1  0.50000000  0.50000000  0.74412791  1.0
  As  As26  1  0.50000000  0.50000000  0.25587209  1.0
  As  As27  1  0.00000000  0.00000000  0.75587209  1.0
  As  As28  1  0.00000000  0.50000000  0.25782112  1.0
  As  As29  1  0.00000000  0.50000000  0.75782112  1.0
  As  As30  1  0.50000000  0.00000000  0.24217888  1.0
  As  As31  1  0.50000000  0.00000000  0.74217888  1.0
  As  As32  1  0.25608405  0.74391595  0.00000000  1.0
  As  As33  1  0.74391595  0.74391595  -0.00000000  1.0
  As  As34  1  0.25608405  0.25608405  -0.00000000  1.0
  As  As35  1  0.74391595  0.25608405  0.00000000  1.0
  As  As36  1  0.24391595  0.75608405  0.50000000  1.0
  As  As37  1  0.75608405  0.75608405  0.50000000  1.0
  As  As38  1  0.24391595  0.24391595  0.50000000  1.0
  As  As39  1  0.75608405  0.24391595  0.50000000  1.0
