# generated using pymatgen
data_Li2HfCdF8
_symmetry_space_group_name_H-M   'P 1'
_cell_length_a   6.45384746
_cell_length_b   6.45384746
_cell_length_c   6.45384746
_cell_angle_alpha   132.92627880
_cell_angle_beta   132.92627880
_cell_angle_gamma   68.76994625
_symmetry_Int_Tables_number   1
_chemical_formula_structural   Li2HfCdF8
_chemical_formula_sum   'Li2 Hf1 Cd1 F8'
_cell_volume   141.51130000
_cell_formula_units_Z   1
loop_
 _symmetry_equiv_pos_site_id
 _symmetry_equiv_pos_as_xyz
  1  'x, y, z'
loop_
 _atom_site_type_symbol
 _atom_site_label
 _atom_site_symmetry_multiplicity
 _atom_site_fract_x
 _atom_site_fract_y
 _atom_site_fract_z
 _atom_site_occupancy
  Li  Li0  1  0.75000000  0.25000000  0.50000000  1.0
  Li  Li1  1  0.00000000  0.00000000  0.00000000  1.0
  Hf  Hf2  1  0.25000000  0.75000000  0.50000000  1.0
  Cd  Cd3  1  0.50000000  0.50000000  1.00000000  1.0
  F  F4  1  0.23865919  0.79758225  0.86007769  1.0
  F  F5  1  1.20241775  1.06249545  1.44107694  1.0
  F  F6  1  0.93750455  0.37858150  1.13992231  1.0
  F  F7  1  0.62141850  0.76134081  0.55892306  1.0
  F  F8  1  0.53465839  1.12819225  1.02545503  1.0
  F  F9  1  0.87180775  0.89726278  1.40646613  1.0
  F  F10  1  1.10273722  0.50920336  0.97454497  1.0
  F  F11  1  0.49079664  0.46534161  0.59353387  1.0
