# generated using pymatgen
data_Sr2P7I
_symmetry_space_group_name_H-M   'P 1'
_cell_length_a   10.05355679
_cell_length_b   10.05355679
_cell_length_c   10.05355679
_cell_angle_alpha   90.00000000
_cell_angle_beta   90.00000000
_cell_angle_gamma   90.00000000
_symmetry_Int_Tables_number   1
_chemical_formula_structural   Sr2P7I
_chemical_formula_sum   'Sr8 P28 I4'
_cell_volume   1016.15323994
_cell_formula_units_Z   4
loop_
 _symmetry_equiv_pos_site_id
 _symmetry_equiv_pos_as_xyz
  1  'x, y, z'
loop_
 _atom_site_type_symbol
 _atom_site_label
 _atom_site_symmetry_multiplicity
 _atom_site_fract_x
 _atom_site_fract_y
 _atom_site_fract_z
 _atom_site_occupancy
  Sr  Sr0  1  0.15381407  0.65381407  0.84618593  1.0
  Sr  Sr1  1  0.65381407  0.84618593  0.15381407  1.0
  Sr  Sr2  1  0.84618593  0.15381407  0.65381407  1.0
  Sr  Sr3  1  0.34618593  0.34618593  0.34618593  1.0
  Sr  Sr4  1  0.90326618  0.40326618  0.09673382  1.0
  Sr  Sr5  1  0.40326618  0.09673382  0.90326618  1.0
  Sr  Sr6  1  0.09673382  0.90326618  0.40326618  1.0
  Sr  Sr7  1  0.59673382  0.59673382  0.59673382  1.0
  P  P8  1  0.72068000  0.22068000  0.27932000  1.0
  P  P9  1  0.22068000  0.27932000  0.72068000  1.0
  P  P10  1  0.27932000  0.72068000  0.22068000  1.0
  P  P11  1  0.77932000  0.77932000  0.77932000  1.0
  P  P12  1  0.30980742  0.46350858  0.64410381  1.0
  P  P13  1  0.35589619  0.80980742  0.03649142  1.0
  P  P14  1  0.96350858  0.85589619  0.69019258  1.0
  P  P15  1  0.80980742  0.03649142  0.35589619  1.0
  P  P16  1  0.85589619  0.69019258  0.96350858  1.0
  P  P17  1  0.46350858  0.64410381  0.30980742  1.0
  P  P18  1  0.69019258  0.96350858  0.85589619  1.0
  P  P19  1  0.64410381  0.30980742  0.46350858  1.0
  P  P20  1  0.03649142  0.35589619  0.80980742  1.0
  P  P21  1  0.19019258  0.53649142  0.14410381  1.0
  P  P22  1  0.14410381  0.19019258  0.53649142  1.0
  P  P23  1  0.53649142  0.14410381  0.19019258  1.0
  P  P24  1  0.35667391  0.45836429  0.03040039  1.0
  P  P25  1  0.96959961  0.85667391  0.04163571  1.0
  P  P26  1  0.95836429  0.46959961  0.64332609  1.0
  P  P27  1  0.85667391  0.04163571  0.96959961  1.0
  P  P28  1  0.46959961  0.64332609  0.95836429  1.0
  P  P29  1  0.45836429  0.03040039  0.35667391  1.0
  P  P30  1  0.64332609  0.95836429  0.46959961  1.0
  P  P31  1  0.03040039  0.35667391  0.45836429  1.0
  P  P32  1  0.04163571  0.96959961  0.85667391  1.0
  P  P33  1  0.14332609  0.54163571  0.53040039  1.0
  P  P34  1  0.53040039  0.14332609  0.54163571  1.0
  P  P35  1  0.54163571  0.53040039  0.14332609  1.0
  I  I36  1  0.34876640  0.84876640  0.65123360  1.0
  I  I37  1  0.84876640  0.65123360  0.34876640  1.0
  I  I38  1  0.65123360  0.34876640  0.84876640  1.0
  I  I39  1  0.15123360  0.15123360  0.15123360  1.0
