# generated using pymatgen
data_Te2Pd3
_symmetry_space_group_name_H-M   'P 1'
_cell_length_a   6.70940569
_cell_length_b   6.70940569
_cell_length_c   8.02885145
_cell_angle_alpha   90.00000000
_cell_angle_beta   90.00000000
_cell_angle_gamma   145.87510459
_symmetry_Int_Tables_number   1
_chemical_formula_structural   Te2Pd3
_chemical_formula_sum   'Te4 Pd6'
_cell_volume   202.76052827
_cell_formula_units_Z   2
loop_
 _symmetry_equiv_pos_site_id
 _symmetry_equiv_pos_as_xyz
  1  'x, y, z'
loop_
 _atom_site_type_symbol
 _atom_site_label
 _atom_site_symmetry_multiplicity
 _atom_site_fract_x
 _atom_site_fract_y
 _atom_site_fract_z
 _atom_site_occupancy
  Te  Te0  1  0.25753101  0.74246899  0.75000000  1.0
  Te  Te1  1  -0.25753101  0.25753101  0.25000000  1.0
  Te  Te2  1  0.00000000  0.00000000  0.00000000  1.0
  Te  Te3  1  0.00000000  0.00000000  0.50000000  1.0
  Pd  Pd4  1  0.33782756  0.66217244  0.43339873  1.0
  Pd  Pd5  1  0.33782756  0.66217244  0.06660127  1.0
  Pd  Pd6  1  -0.33782756  0.33782756  0.93339873  1.0
  Pd  Pd7  1  -0.33782756  0.33782756  0.56660127  1.0
  Pd  Pd8  1  0.46668669  0.53331331  0.75000000  1.0
  Pd  Pd9  1  -0.46668669  0.46668669  0.25000000  1.0
