# generated using pymatgen
data_PtOF6
_symmetry_space_group_name_H-M   'P 1'
_cell_length_a   5.54486441
_cell_length_b   5.54486441
_cell_length_c   5.54486441
_cell_angle_alpha   107.48559511
_cell_angle_beta   107.48559511
_cell_angle_gamma   107.48559512
_symmetry_Int_Tables_number   1
_chemical_formula_structural   PtOF6
_chemical_formula_sum   'Pt1 O1 F6'
_cell_volume   140.05390964
_cell_formula_units_Z   1
loop_
 _symmetry_equiv_pos_site_id
 _symmetry_equiv_pos_as_xyz
  1  'x, y, z'
loop_
 _atom_site_type_symbol
 _atom_site_label
 _atom_site_symmetry_multiplicity
 _atom_site_fract_x
 _atom_site_fract_y
 _atom_site_fract_z
 _atom_site_occupancy
  Pt  Pt0  1  0.00000000  0.00000000  0.00000000  1.0
  O  O1  1  0.50000000  0.50000000  0.50000000  1.0
  F  F2  1  0.78584297  0.65281348  -0.01063933  1.0
  F  F3  1  1.34718652  0.01063933  0.21415703  1.0
  F  F4  1  1.01063933  0.21415703  0.34718652  1.0
  F  F5  1  1.21415703  0.34718652  0.01063933  1.0
  F  F6  1  0.65281348  0.98936067  -0.21415703  1.0
  F  F7  1  0.98936067  0.78584297  -0.34718652  1.0
