# generated using pymatgen
data_GdTlSe2
_symmetry_space_group_name_H-M   'P 1'
_cell_length_a   8.13520100
_cell_length_b   8.13520100
_cell_length_c   8.13520100
_cell_angle_alpha   30.19649386
_cell_angle_beta   30.19649386
_cell_angle_gamma   30.19649386
_symmetry_Int_Tables_number   1
_chemical_formula_structural   GdTlSe2
_chemical_formula_sum   'Gd1 Tl1 Se2'
_cell_volume   120.68065859
_cell_formula_units_Z   1
loop_
 _symmetry_equiv_pos_site_id
 _symmetry_equiv_pos_as_xyz
  1  'x, y, z'
loop_
 _atom_site_type_symbol
 _atom_site_label
 _atom_site_symmetry_multiplicity
 _atom_site_fract_x
 _atom_site_fract_y
 _atom_site_fract_z
 _atom_site_occupancy
  Gd  Gd0  1  1.50000000  0.50000000  0.50000000  1.0
  Tl  Tl1  1  0.00000000  0.00000000  0.00000000  1.0
  Se  Se2  1  0.76480244  0.76480244  0.76480244  1.0
  Se  Se3  1  1.23519756  1.23519756  0.23519756  1.0
