# generated using pymatgen
data_Sr3Fe3Si2SbO14
_symmetry_space_group_name_H-M   'P 1'
_cell_length_a   8.43630521
_cell_length_b   8.43630521
_cell_length_c   5.20474001
_cell_angle_alpha   90.00000000
_cell_angle_beta   90.00000000
_cell_angle_gamma   120.00000000
_symmetry_Int_Tables_number   1
_chemical_formula_structural   Sr3Fe3Si2SbO14
_chemical_formula_sum   'Sr3 Fe3 Si2 Sb1 O14'
_cell_volume   320.79991057
_cell_formula_units_Z   1
loop_
 _symmetry_equiv_pos_site_id
 _symmetry_equiv_pos_as_xyz
  1  'x, y, z'
loop_
 _atom_site_type_symbol
 _atom_site_label
 _atom_site_symmetry_multiplicity
 _atom_site_fract_x
 _atom_site_fract_y
 _atom_site_fract_z
 _atom_site_occupancy
  Sr  Sr0  1  0.43101280  0.43101280  0.00000000  1.0
  Sr  Sr1  1  0.00000000  0.56898720  0.00000000  1.0
  Sr  Sr2  1  0.56898720  0.00000000  0.00000000  1.0
  O  O3  1  0.33333333  0.66666667  0.22556812  1.0
  O  O4  1  0.66666667  0.33333333  0.77443188  1.0
  O  O5  1  0.09387764  0.87097720  0.22634156  1.0
  O  O6  1  0.87097720  0.09387764  0.77365844  1.0
  O  O7  1  0.77709956  0.90612236  0.22634156  1.0
  O  O8  1  0.12902280  0.22290044  0.22634156  1.0
  O  O9  1  0.90612236  0.77709956  0.77365844  1.0
  O  O10  1  0.22290044  0.12902280  0.77365844  1.0
  O  O11  1  0.68989732  0.52331985  0.33102924  1.0
  O  O12  1  0.52331985  0.68989732  0.66897076  1.0
  O  O13  1  0.83342253  0.31010268  0.33102924  1.0
  O  O14  1  0.47668015  0.16657747  0.33102924  1.0
  O  O15  1  0.31010268  0.83342253  0.66897076  1.0
  O  O16  1  0.16657747  0.47668015  0.66897076  1.0
  Fe  Fe17  1  0.74825193  0.74825193  0.50000000  1.0
  Fe  Fe18  1  -0.00000000  0.25174807  0.50000000  1.0
  Fe  Fe19  1  0.25174807  0.00000000  0.50000000  1.0
  Sb  Sb20  1  0.00000000  0.00000000  0.00000000  1.0
  Si  Si21  1  0.33333333  0.66666667  0.53571426  1.0
  Si  Si22  1  0.66666667  0.33333333  0.46428574  1.0
