# generated using pymatgen
data_ScCu(WO4)2
_symmetry_space_group_name_H-M   'P 1'
_cell_length_a   7.59530589
_cell_length_b   7.59530589
_cell_length_c   4.99714377
_cell_angle_alpha   89.28164230
_cell_angle_beta   90.71835770
_cell_angle_gamma   78.56952502
_symmetry_Int_Tables_number   1
_chemical_formula_structural   ScCu(WO4)2
_chemical_formula_sum   'Sc2 Cu2 W4 O16'
_cell_volume   282.50544301
_cell_formula_units_Z   2
loop_
 _symmetry_equiv_pos_site_id
 _symmetry_equiv_pos_as_xyz
  1  'x, y, z'
loop_
 _atom_site_type_symbol
 _atom_site_label
 _atom_site_symmetry_multiplicity
 _atom_site_fract_x
 _atom_site_fract_y
 _atom_site_fract_z
 _atom_site_occupancy
  Sc  Sc0  1  0.83530683  -0.16469317  0.25000000  1.0
  Sc  Sc1  1  1.16469317  0.16469317  0.75000000  1.0
  Cu  Cu2  1  1.34071812  0.34071812  0.25000000  1.0
  Cu  Cu3  1  0.65928188  -0.34071812  0.75000000  1.0
  W  W4  1  0.34485114  -0.16989299  0.25592271  1.0
  W  W5  1  1.16989299  0.65514886  0.75592271  1.0
  W  W6  1  0.83010701  -0.65514886  0.24407729  1.0
  W  W7  1  1.65514886  0.16989299  0.74407729  1.0
  O  O8  1  0.69498812  -0.05159630  0.90403227  1.0
  O  O9  1  1.05159630  0.30501188  0.40403227  1.0
  O  O10  1  0.94840370  -0.30501188  0.59596773  1.0
  O  O11  1  1.30501188  0.05159630  0.09596773  1.0
  O  O12  1  1.79911319  0.08631786  0.43075660  1.0
  O  O13  1  0.91368214  -0.79911319  0.93075660  1.0
  O  O14  1  1.08631786  0.79911319  0.06924340  1.0
  O  O15  1  0.20088681  -0.08631786  0.56924340  1.0
  O  O16  1  0.57007001  -0.19191932  0.39758608  1.0
  O  O17  1  1.19191932  0.42992999  0.89758608  1.0
  O  O18  1  0.80808068  -0.42992999  0.10241392  1.0
  O  O19  1  1.42992999  0.19191932  0.60241392  1.0
  O  O20  1  1.59305967  0.30767185  0.05693243  1.0
  O  O21  1  0.69232815  -0.59305967  0.55693243  1.0
  O  O22  1  1.30767185  0.59305967  0.44306757  1.0
  O  O23  1  0.40694033  -0.30767185  0.94306757  1.0
