# generated using pymatgen
data_Re2Si
_symmetry_space_group_name_H-M   'P 1'
_cell_length_a   6.36869001
_cell_length_b   9.44336427
_cell_length_c   5.83775534
_cell_angle_alpha   90.00000000
_cell_angle_beta   90.78637268
_cell_angle_gamma   90.00000000
_symmetry_Int_Tables_number   1
_chemical_formula_structural   Re2Si
_chemical_formula_sum   'Re16 Si8'
_cell_volume   351.06039574
_cell_formula_units_Z   8
loop_
 _symmetry_equiv_pos_site_id
 _symmetry_equiv_pos_as_xyz
  1  'x, y, z'
loop_
 _atom_site_type_symbol
 _atom_site_label
 _atom_site_symmetry_multiplicity
 _atom_site_fract_x
 _atom_site_fract_y
 _atom_site_fract_z
 _atom_site_occupancy
  Re  Re0  1  0.23677455  0.77935068  0.13866640  1.0
  Re  Re1  1  0.76322545  0.27935068  0.36133360  1.0
  Re  Re2  1  0.76322545  0.22064932  0.86133360  1.0
  Re  Re3  1  0.23677455  0.72064932  0.63866640  1.0
  Re  Re4  1  0.58161963  0.85058035  0.39658243  1.0
  Re  Re5  1  0.41838037  0.35058035  0.10341757  1.0
  Re  Re6  1  0.41838037  0.14941965  0.60341757  1.0
  Re  Re7  1  0.58161963  0.64941965  0.89658243  1.0
  Re  Re8  1  0.54979679  0.91493245  0.82954487  1.0
  Re  Re9  1  0.45020321  0.41493245  0.67045513  1.0
  Re  Re10  1  0.45020321  0.08506755  0.17045513  1.0
  Re  Re11  1  0.54979679  0.58506755  0.32954487  1.0
  Re  Re12  1  0.85849286  1.00220958  0.16827405  1.0
  Re  Re13  1  0.14150714  0.50220958  0.33172595  1.0
  Re  Re14  1  0.14150714  -0.00220958  0.83172595  1.0
  Re  Re15  1  0.85849286  0.49779042  0.66827405  1.0
  Si  Si16  1  0.91096429  0.78159415  0.86105850  1.0
  Si  Si17  1  0.08903571  0.28159415  0.63894150  1.0
  Si  Si18  1  0.08903571  0.21840585  0.13894150  1.0
  Si  Si19  1  0.91096429  0.71840585  0.36105850  1.0
  Si  Si20  1  0.17973345  0.96446660  0.42345059  1.0
  Si  Si21  1  0.82026655  0.46446660  0.07654941  1.0
  Si  Si22  1  0.82026655  0.03553340  0.57654941  1.0
  Si  Si23  1  0.17973345  0.53553340  0.92345059  1.0
