# generated using pymatgen
data_Cu2GeSe3
_symmetry_space_group_name_H-M   'P 1'
_cell_length_a   6.86244557
_cell_length_b   6.86244557
_cell_length_c   6.86244557
_cell_angle_alpha   145.72520773
_cell_angle_beta   60.31275463
_cell_angle_gamma   131.98369882
_symmetry_Int_Tables_number   1
_chemical_formula_structural   Cu2GeSe3
_chemical_formula_sum   'Cu2 Ge1 Se3'
_cell_volume   134.00472525
_cell_formula_units_Z   1
loop_
 _symmetry_equiv_pos_site_id
 _symmetry_equiv_pos_as_xyz
  1  'x, y, z'
loop_
 _atom_site_type_symbol
 _atom_site_label
 _atom_site_symmetry_multiplicity
 _atom_site_fract_x
 _atom_site_fract_y
 _atom_site_fract_z
 _atom_site_occupancy
  Cu  Cu0  1  1.67437833  1.00693755  0.66744078  1.0
  Cu  Cu1  1  1.33949677  1.00693755  1.33255922  1.0
  Ge  Ge2  1  -0.02164802  -0.02164802  -0.00000000  1.0
  Se  Se3  1  0.25369660  0.75369660  0.50000000  1.0
  Se  Se4  1  1.57072161  0.74153816  0.82918345  1.0
  Se  Se5  1  0.91235472  0.74153816  1.17081655  1.0
