# generated using pymatgen
data_B3Ru7
_symmetry_space_group_name_H-M   'P 1'
_cell_length_a   7.81568987
_cell_length_b   7.81568987
_cell_length_c   4.43880179
_cell_angle_alpha   90.00000000
_cell_angle_beta   90.00000000
_cell_angle_gamma   120.00000000
_symmetry_Int_Tables_number   1
_chemical_formula_structural   B3Ru7
_chemical_formula_sum   'B6 Ru14'
_cell_volume   234.81780292
_cell_formula_units_Z   2
loop_
 _symmetry_equiv_pos_site_id
 _symmetry_equiv_pos_as_xyz
  1  'x, y, z'
loop_
 _atom_site_type_symbol
 _atom_site_label
 _atom_site_symmetry_multiplicity
 _atom_site_fract_x
 _atom_site_fract_y
 _atom_site_fract_z
 _atom_site_occupancy
  B  B0  1  0.02271544  0.51135772  0.40750715  1.0
  B  B1  1  0.51135772  0.02271544  0.90750715  1.0
  B  B2  1  0.51135772  0.48864228  0.90750715  1.0
  B  B3  1  0.48864228  0.51135772  0.40750715  1.0
  B  B4  1  0.48864228  0.97728456  0.40750715  1.0
  B  B5  1  0.97728456  0.48864228  0.90750715  1.0
  Ru  Ru6  1  0.77892052  0.88946026  0.21876384  1.0
  Ru  Ru7  1  0.88946026  0.77892052  0.71876384  1.0
  Ru  Ru8  1  0.88946026  0.11053974  0.71876384  1.0
  Ru  Ru9  1  0.11053974  0.88946026  0.21876384  1.0
  Ru  Ru10  1  0.11053974  0.22107948  0.21876384  1.0
  Ru  Ru11  1  0.22107948  0.11053974  0.71876384  1.0
  Ru  Ru12  1  0.44469650  0.22234825  0.21089268  1.0
  Ru  Ru13  1  0.22234825  0.44469650  0.71089268  1.0
  Ru  Ru14  1  0.22234825  0.77765175  0.71089268  1.0
  Ru  Ru15  1  0.77765175  0.22234825  0.21089268  1.0
  Ru  Ru16  1  0.77765175  0.55530350  0.21089268  1.0
  Ru  Ru17  1  0.55530350  0.77765175  0.71089268  1.0
  Ru  Ru18  1  0.33333333  0.66666667  0.21850899  1.0
  Ru  Ru19  1  0.66666667  0.33333333  0.71850899  1.0
