# generated using pymatgen
data_Ca3(GaPd)2
_symmetry_space_group_name_H-M   'P 1'
_cell_length_a   5.81942800
_cell_length_b   7.94424451
_cell_length_c   13.96724007
_cell_angle_alpha   90.00000000
_cell_angle_beta   90.00000000
_cell_angle_gamma   90.00000000
_symmetry_Int_Tables_number   1
_chemical_formula_structural   Ca3(GaPd)2
_chemical_formula_sum   'Ca12 Ga8 Pd8'
_cell_volume   645.71890136
_cell_formula_units_Z   4
loop_
 _symmetry_equiv_pos_site_id
 _symmetry_equiv_pos_as_xyz
  1  'x, y, z'
loop_
 _atom_site_type_symbol
 _atom_site_label
 _atom_site_symmetry_multiplicity
 _atom_site_fract_x
 _atom_site_fract_y
 _atom_site_fract_z
 _atom_site_occupancy
  Ca  Ca0  1  0.85885614  0.60582664  0.90081867  1.0
  Ca  Ca1  1  0.85885614  0.60582664  0.59918133  1.0
  Ca  Ca2  1  0.85885614  0.89417336  0.40081867  1.0
  Ca  Ca3  1  0.85885614  0.89417336  0.09918133  1.0
  Ca  Ca4  1  0.14114386  0.10582664  0.90081867  1.0
  Ca  Ca5  1  0.14114386  0.10582664  0.59918133  1.0
  Ca  Ca6  1  0.14114386  0.39417336  0.40081867  1.0
  Ca  Ca7  1  0.14114386  0.39417336  0.09918133  1.0
  Ca  Ca8  1  0.36622320  0.75474365  0.75000000  1.0
  Ca  Ca9  1  0.36622320  0.74525635  0.25000000  1.0
  Ca  Ca10  1  0.63377680  0.25474365  0.75000000  1.0
  Ca  Ca11  1  0.63377680  0.24525635  0.25000000  1.0
  Ga  Ga12  1  0.85487357  0.90465027  0.75000000  1.0
  Ga  Ga13  1  0.85487357  0.59534973  0.25000000  1.0
  Ga  Ga14  1  0.14512643  0.40465027  0.75000000  1.0
  Ga  Ga15  1  0.14512643  0.09534973  0.25000000  1.0
  Ga  Ga16  1  0.36980016  0.75000000  0.00000000  1.0
  Ga  Ga17  1  0.36980016  0.75000000  0.50000000  1.0
  Ga  Ga18  1  0.63019984  0.25000000  0.00000000  1.0
  Ga  Ga19  1  0.63019984  0.25000000  0.50000000  1.0
  Pd  Pd20  1  0.63348534  0.96677173  0.90775571  1.0
  Pd  Pd21  1  0.63348534  0.96677173  0.59224429  1.0
  Pd  Pd22  1  0.63348534  0.53322827  0.40775571  1.0
  Pd  Pd23  1  0.63348534  0.53322827  0.09224429  1.0
  Pd  Pd24  1  0.36651466  0.46677173  0.90775571  1.0
  Pd  Pd25  1  0.36651466  0.46677173  0.59224429  1.0
  Pd  Pd26  1  0.36651466  0.03322827  0.40775571  1.0
  Pd  Pd27  1  0.36651466  0.03322827  0.09224429  1.0
