# generated using pymatgen
data_ScRhO3
_symmetry_space_group_name_H-M   'P 1'
_cell_length_a   7.52713316
_cell_length_b   7.52357290
_cell_length_c   10.38524650
_cell_angle_alpha   90.00000000
_cell_angle_beta   133.18065725
_cell_angle_gamma   90.00000000
_symmetry_Int_Tables_number   1
_chemical_formula_structural   ScRhO3
_chemical_formula_sum   'Sc8 Rh8 O24'
_cell_volume   428.86145454
_cell_formula_units_Z   8
loop_
 _symmetry_equiv_pos_site_id
 _symmetry_equiv_pos_as_xyz
  1  'x, y, z'
loop_
 _atom_site_type_symbol
 _atom_site_label
 _atom_site_symmetry_multiplicity
 _atom_site_fract_x
 _atom_site_fract_y
 _atom_site_fract_z
 _atom_site_occupancy
  Sc  Sc0  1  0.93811085  0.73216424  0.21197897  1.0
  Sc  Sc1  1  0.93811085  0.76783576  0.71197897  1.0
  Sc  Sc2  1  0.06188915  0.23216424  0.28802103  1.0
  Sc  Sc3  1  0.06188915  0.26783576  0.78802103  1.0
  Sc  Sc4  1  0.56624516  0.25876439  0.27512671  1.0
  Sc  Sc5  1  0.56624516  0.24123561  0.77512671  1.0
  Sc  Sc6  1  0.43375484  0.75876439  0.22487329  1.0
  Sc  Sc7  1  0.43375484  0.74123561  0.72487329  1.0
  Rh  Rh8  1  0.50000000  0.50000000  -0.00000000  1.0
  Rh  Rh9  1  0.50000000  0.00000000  0.50000000  1.0
  Rh  Rh10  1  0.00000000  0.50000000  0.00000000  1.0
  Rh  Rh11  1  -0.00000000  0.00000000  0.50000000  1.0
  Rh  Rh12  1  0.50000000  0.50000000  0.50000000  1.0
  Rh  Rh13  1  0.50000000  0.00000000  -0.00000000  1.0
  Rh  Rh14  1  -0.00000000  0.50000000  0.50000000  1.0
  Rh  Rh15  1  0.00000000  0.00000000  0.00000000  1.0
  O  O16  1  0.92630211  0.25183051  0.03533969  1.0
  O  O17  1  0.92630211  0.24816949  0.53533969  1.0
  O  O18  1  0.07369789  0.75183051  0.46466031  1.0
  O  O19  1  0.07369789  0.74816949  0.96466031  1.0
  O  O20  1  0.85628331  0.45583646  0.24717915  1.0
  O  O21  1  0.85628331  0.04416354  0.74717915  1.0
  O  O22  1  0.14371669  0.95583646  0.25282085  1.0
  O  O23  1  0.14371669  0.54416354  0.75282085  1.0
  O  O24  1  0.78330578  0.10059728  0.24633321  1.0
  O  O25  1  0.78330578  0.39940272  0.74633321  1.0
  O  O26  1  0.21669422  0.60059728  0.25366679  1.0
  O  O27  1  0.21669422  0.89940272  0.75366679  1.0
  O  O28  1  0.70829021  0.89761611  0.45490116  1.0
  O  O29  1  0.70829021  0.60238389  0.95490116  1.0
  O  O30  1  0.29170979  0.39761611  0.04509884  1.0
  O  O31  1  0.29170979  0.10238389  0.54509884  1.0
  O  O32  1  0.65133680  0.96576606  0.89112971  1.0
  O  O33  1  0.65133680  0.53423394  0.39112971  1.0
  O  O34  1  0.34866320  0.46576606  0.60887029  1.0
  O  O35  1  0.34866320  0.03423394  0.10887029  1.0
  O  O36  1  0.42378931  0.25003889  0.38982067  1.0
  O  O37  1  0.42378931  0.24996111  0.88982067  1.0
  O  O38  1  0.57621069  0.75003889  0.11017933  1.0
  O  O39  1  0.57621069  0.74996111  0.61017933  1.0
