# generated using pymatgen
data_AlH14C4NOF4
_symmetry_space_group_name_H-M   'P 1'
_cell_length_a   6.83362016
_cell_length_b   9.16924756
_cell_length_c   8.31093548
_cell_angle_alpha   65.25870715
_cell_angle_beta   74.31802008
_cell_angle_gamma   82.91466913
_symmetry_Int_Tables_number   1
_chemical_formula_structural   AlH14C4NOF4
_chemical_formula_sum   'Al2 H28 C8 N2 O2 F8'
_cell_volume   455.31832319
_cell_formula_units_Z   2
loop_
 _symmetry_equiv_pos_site_id
 _symmetry_equiv_pos_as_xyz
  1  'x, y, z'
loop_
 _atom_site_type_symbol
 _atom_site_label
 _atom_site_symmetry_multiplicity
 _atom_site_fract_x
 _atom_site_fract_y
 _atom_site_fract_z
 _atom_site_occupancy
  Al  Al0  1  -0.32781141  -0.61916645  -0.49567993  1.0
  Al  Al1  1  -0.67218859  -0.38083355  -0.50432007  1.0
  H  H2  1  -0.27422129  -0.33235244  -0.68423077  1.0
  H  H3  1  -0.72577871  -0.66764756  -0.31576923  1.0
  H  H4  1  -0.05057699  -0.39104000  -0.65153440  1.0
  H  H5  1  -0.94942301  -0.60896000  -0.34846560  1.0
  H  H6  1  -0.91457821  -0.61327278  -0.82463932  1.0
  H  H7  1  -0.08542179  -0.38672722  -0.17536068  1.0
  H  H8  1  -0.71229972  -0.58205856  -0.02628682  1.0
  H  H9  1  -0.28770028  -0.41794144  -0.97371318  1.0
  H  H10  1  -0.66441409  -0.56718940  -0.83002340  1.0
  H  H11  1  -0.33558591  -0.43281060  -0.16997660  1.0
  H  H12  1  -0.44846707  -0.95973353  -0.81698580  1.0
  H  H13  1  -0.55153293  -0.04026647  -0.18301420  1.0
  H  H14  1  -0.39057098  -0.76949260  -0.82664418  1.0
  H  H15  1  -0.60942902  -0.23050740  -0.17335582  1.0
  H  H16  1  -0.44516505  -0.78070325  -0.02241691  1.0
  H  H17  1  -0.55483495  -0.21929675  -0.97758309  1.0
  H  H18  1  -0.79140117  -0.01975148  -0.79392023  1.0
  H  H19  1  -0.20859883  -0.98024852  -0.20607977  1.0
  H  H20  1  -0.78784092  -0.84521529  -1.00315371  1.0
  H  H21  1  -0.21215908  -0.15478471  0.00315371  1.0
  H  H22  1  -0.98616191  -0.86658230  -0.80187389  1.0
  H  H23  1  -0.01383809  -0.13341770  -0.19812611  1.0
  H  H24  1  -0.72100321  -0.99737741  -0.54152048  1.0
  H  H25  1  -0.27899679  -0.00262259  -0.45847952  1.0
  H  H26  1  -0.90697489  -0.83826623  -0.54759976  1.0
  H  H27  1  -0.09302511  -0.16173377  -0.45240024  1.0
  H  H28  1  -0.64803431  -0.80816087  -0.55836626  1.0
  H  H29  1  -0.35196569  -0.19183913  -0.44163374  1.0
  C  C30  1  -0.75135699  -0.62748962  -0.87701575  1.0
  C  C31  1  -0.24864301  -0.37251038  -0.12298425  1.0
  C  C32  1  -0.47847069  -0.82998367  -0.87298014  1.0
  C  C33  1  -0.52152931  -0.17001633  -0.12701986  1.0
  C  C34  1  -0.82606411  -0.89099834  -0.85399960  1.0
  C  C35  1  -0.17393589  -0.10900166  -0.14600040  1.0
  C  C36  1  -0.74754512  -0.86714971  -0.59583097  1.0
  C  C37  1  -0.25245488  -0.13285029  -0.40416903  1.0
  N  N38  1  -0.70025142  -0.80371295  -0.80055175  1.0
  N  N39  1  -0.29974858  -0.19628705  -0.19944825  1.0
  O  O40  1  -0.17306054  -0.42216807  -0.67395197  1.0
  O  O41  1  -0.82693946  -0.57783193  -0.32604803  1.0
  F  F42  1  -0.53164175  -0.51750824  -0.62533915  1.0
  F  F43  1  -0.46835825  -0.48249176  -0.37466085  1.0
  F  F44  1  -0.51033919  -0.77268984  -0.32978419  1.0
  F  F45  1  -0.48966081  -0.22731016  -0.67021581  1.0
  F  F46  1  -0.22527655  -0.72585792  -0.63414703  1.0
  F  F47  1  -0.77472345  -0.27414208  -0.36585297  1.0
  F  F48  1  -0.14310779  -0.67874798  -0.36326498  1.0
  F  F49  1  -0.85689221  -0.32125202  -0.63673502  1.0
