# generated using pymatgen
data_La3GaNiS7
_symmetry_space_group_name_H-M   'P 1'
_cell_length_a   10.23371509
_cell_length_b   10.23371509
_cell_length_c   5.95548728
_cell_angle_alpha   90.00000000
_cell_angle_beta   90.00000000
_cell_angle_gamma   120.00000000
_symmetry_Int_Tables_number   1
_chemical_formula_structural   La3GaNiS7
_chemical_formula_sum   'La6 Ga2 Ni2 S14'
_cell_volume   540.15024480
_cell_formula_units_Z   2
loop_
 _symmetry_equiv_pos_site_id
 _symmetry_equiv_pos_as_xyz
  1  'x, y, z'
loop_
 _atom_site_type_symbol
 _atom_site_label
 _atom_site_symmetry_multiplicity
 _atom_site_fract_x
 _atom_site_fract_y
 _atom_site_fract_z
 _atom_site_occupancy
  La  La0  1  0.76764666  0.63041185  0.22725568  1.0
  La  La1  1  0.63041185  0.86276518  0.72725568  1.0
  La  La2  1  0.86276518  0.23235334  0.22725568  1.0
  La  La3  1  0.36958815  0.13723482  0.22725568  1.0
  La  La4  1  0.23235334  0.36958815  0.72725568  1.0
  La  La5  1  0.13723482  0.76764666  0.72725568  1.0
  Ga  Ga6  1  0.33333333  0.66666667  0.14619554  1.0
  Ga  Ga7  1  0.66666667  0.33333333  0.64619554  1.0
  Ni  Ni8  1  0.00000000  0.00000000  0.00843590  1.0
  Ni  Ni9  1  0.00000000  0.00000000  0.50843590  1.0
  S  S10  1  0.33333333  0.66666667  0.52218846  1.0
  S  S11  1  0.66666667  0.33333333  0.02218846  1.0
  S  S12  1  0.41745754  0.90246923  -0.00180215  1.0
  S  S13  1  0.90246923  0.48501169  0.49819785  1.0
  S  S14  1  0.48501169  0.58254246  -0.00180215  1.0
  S  S15  1  0.09753077  0.51498831  -0.00180215  1.0
  S  S16  1  0.58254246  0.09753077  0.49819785  1.0
  S  S17  1  0.51498831  0.41745754  0.49819785  1.0
  S  S18  1  0.08232188  0.86207463  0.25927317  1.0
  S  S19  1  0.86207463  0.77975275  0.75927317  1.0
  S  S20  1  0.77975275  0.91767812  0.25927317  1.0
  S  S21  1  0.13792537  0.22024725  0.25927317  1.0
  S  S22  1  0.91767812  0.13792537  0.75927317  1.0
  S  S23  1  0.22024725  0.08232188  0.75927317  1.0
