# generated using pymatgen
data_Cu3BPd3
_symmetry_space_group_name_H-M   'P 1'
_cell_length_a   7.94712709
_cell_length_b   7.94712709
_cell_length_c   7.94712709
_cell_angle_alpha   60.00000000
_cell_angle_beta   60.00000000
_cell_angle_gamma   60.00000000
_symmetry_Int_Tables_number   1
_chemical_formula_structural   Cu3BPd3
_chemical_formula_sum   'Cu12 B4 Pd12'
_cell_volume   354.90774523
_cell_formula_units_Z   4
loop_
 _symmetry_equiv_pos_site_id
 _symmetry_equiv_pos_as_xyz
  1  'x, y, z'
loop_
 _atom_site_type_symbol
 _atom_site_label
 _atom_site_symmetry_multiplicity
 _atom_site_fract_x
 _atom_site_fract_y
 _atom_site_fract_z
 _atom_site_occupancy
  Cu  Cu0  1  0.83231875  0.83231875  0.83231875  1.0
  Cu  Cu1  1  0.50304374  0.83231875  -0.16768125  1.0
  Cu  Cu2  1  0.83231875  0.83231875  -0.49695626  1.0
  Cu  Cu3  1  0.83231875  0.50304374  0.83231875  1.0
  Cu  Cu4  1  -0.25304374  0.41768125  0.41768125  1.0
  Cu  Cu5  1  0.41768125  1.41768125  -0.25304374  1.0
  Cu  Cu6  1  0.41768125  -0.25304374  0.41768125  1.0
  Cu  Cu7  1  0.41768125  1.41768125  0.41768125  1.0
  Cu  Cu8  1  -0.37500000  0.62500000  0.62500000  1.0
  Cu  Cu9  1  1.12500000  0.62500000  0.62500000  1.0
  Cu  Cu10  1  -0.37500000  0.62500000  1.12500000  1.0
  Cu  Cu11  1  0.62500000  1.12500000  -0.37500000  1.0
  B  B12  1  0.12500000  0.12500000  0.12500000  1.0
  B  B13  1  0.62500000  1.12500000  0.12500000  1.0
  B  B14  1  0.12500000  0.12500000  1.62500000  1.0
  B  B15  1  0.12500000  1.62500000  0.12500000  1.0
  Pd  Pd16  1  0.44594017  1.05405983  0.05405983  1.0
  Pd  Pd17  1  0.05405983  1.44594017  0.44594017  1.0
  Pd  Pd18  1  0.80405983  -0.80405983  0.80405983  1.0
  Pd  Pd19  1  0.19594017  -0.19594017  0.19594017  1.0
  Pd  Pd20  1  0.05405983  0.05405983  0.44594017  1.0
  Pd  Pd21  1  0.44594017  1.44594017  0.05405983  1.0
  Pd  Pd22  1  0.80405983  0.80405983  -0.80405983  1.0
  Pd  Pd23  1  0.19594017  1.19594017  -0.19594017  1.0
  Pd  Pd24  1  0.05405983  1.44594017  0.05405983  1.0
  Pd  Pd25  1  0.44594017  1.05405983  0.44594017  1.0
  Pd  Pd26  1  -0.19594017  0.19594017  0.19594017  1.0
  Pd  Pd27  1  -0.80405983  0.80405983  0.80405983  1.0
