# generated using pymatgen
data_Ti2MnO4
_symmetry_space_group_name_H-M   'P 1'
_cell_length_a   6.05843581
_cell_length_b   6.05843581
_cell_length_c   6.05843581
_cell_angle_alpha   60.00000000
_cell_angle_beta   60.00000000
_cell_angle_gamma   60.00000000
_symmetry_Int_Tables_number   1
_chemical_formula_structural   Ti2MnO4
_chemical_formula_sum   'Ti4 Mn2 O8'
_cell_volume   157.24126685
_cell_formula_units_Z   2
loop_
 _symmetry_equiv_pos_site_id
 _symmetry_equiv_pos_as_xyz
  1  'x, y, z'
loop_
 _atom_site_type_symbol
 _atom_site_label
 _atom_site_symmetry_multiplicity
 _atom_site_fract_x
 _atom_site_fract_y
 _atom_site_fract_z
 _atom_site_occupancy
  Ti  Ti0  1  0.12500000  0.12500000  1.62500000  1.0
  Ti  Ti1  1  0.12500000  0.62500000  0.12500000  1.0
  Ti  Ti2  1  0.62500000  0.12500000  1.12500000  1.0
  Ti  Ti3  1  0.12500000  0.12500000  0.12500000  1.0
  Mn  Mn4  1  0.75000000  -0.25000000  0.75000000  1.0
  Mn  Mn5  1  0.50000000  0.50000000  -0.50000000  1.0
  O  O6  1  0.36490914  0.36490914  -0.09472742  1.0
  O  O7  1  0.36490914  -0.09472742  0.36490914  1.0
  O  O8  1  -0.09472742  0.36490914  0.36490914  1.0
  O  O9  1  0.36490914  0.36490914  0.36490914  1.0
  O  O10  1  -0.11490914  0.88509086  0.34472742  1.0
  O  O11  1  0.88509086  -0.65527258  0.88509086  1.0
  O  O12  1  -0.65527258  0.88509086  0.88509086  1.0
  O  O13  1  0.88509086  -0.11490914  0.88509086  1.0
