# generated using pymatgen
data_Zn2GaAgSe4
_symmetry_space_group_name_H-M   'P 1'
_cell_length_a   7.04463087
_cell_length_b   7.04463087
_cell_length_c   7.04463087
_cell_angle_alpha   130.66691016
_cell_angle_beta   130.66691016
_cell_angle_gamma   72.34282600
_symmetry_Int_Tables_number   1
_chemical_formula_structural   Zn2GaAgSe4
_chemical_formula_sum   'Zn2 Ga1 Ag1 Se4'
_cell_volume   196.61569695
_cell_formula_units_Z   1
loop_
 _symmetry_equiv_pos_site_id
 _symmetry_equiv_pos_as_xyz
  1  'x, y, z'
loop_
 _atom_site_type_symbol
 _atom_site_label
 _atom_site_symmetry_multiplicity
 _atom_site_fract_x
 _atom_site_fract_y
 _atom_site_fract_z
 _atom_site_occupancy
  Zn  Zn0  1  0.25000000  0.75000000  0.50000000  1.0
  Zn  Zn1  1  0.75000000  0.25000000  0.50000000  1.0
  Ga  Ga2  1  0.00000000  0.00000000  0.00000000  1.0
  Ag  Ag3  1  0.50000000  0.50000000  1.00000000  1.0
  Se  Se4  1  0.36524032  0.89237110  1.00000000  1.0
  Se  Se5  1  1.10762890  1.10762890  1.47286922  1.0
  Se  Se6  1  0.63475968  0.63475968  0.52713078  1.0
  Se  Se7  1  0.89237110  0.36524032  1.00000000  1.0
