# generated using pymatgen
data_La2NiRuO6
_symmetry_space_group_name_H-M   'P 1'
_cell_length_a   5.54151096
_cell_length_b   5.76551989
_cell_length_c   9.65118653
_cell_angle_alpha   90.00000000
_cell_angle_beta   125.05666684
_cell_angle_gamma   90.00000000
_symmetry_Int_Tables_number   1
_chemical_formula_structural   La2NiRuO6
_chemical_formula_sum   'La4 Ni2 Ru2 O12'
_cell_volume   252.41248060
_cell_formula_units_Z   2
loop_
 _symmetry_equiv_pos_site_id
 _symmetry_equiv_pos_as_xyz
  1  'x, y, z'
loop_
 _atom_site_type_symbol
 _atom_site_label
 _atom_site_symmetry_multiplicity
 _atom_site_fract_x
 _atom_site_fract_y
 _atom_site_fract_z
 _atom_site_occupancy
  La  La0  1  0.23661569  0.44566718  0.24937505  1.0
  La  La1  1  0.23661569  0.05433282  0.74937505  1.0
  La  La2  1  0.76338431  0.94566718  0.25062495  1.0
  La  La3  1  0.76338431  0.55433282  0.75062495  1.0
  Ni  Ni4  1  0.00000000  0.00000000  0.00000000  1.0
  Ni  Ni5  1  -0.00000000  0.50000000  0.50000000  1.0
  Ru  Ru6  1  0.50000000  0.00000000  0.50000000  1.0
  Ru  Ru7  1  0.50000000  0.50000000  -0.00000000  1.0
  O  O8  1  0.33987020  0.02582785  0.25298677  1.0
  O  O9  1  0.33987020  0.47417215  0.75298677  1.0
  O  O10  1  0.66012980  0.52582785  0.24701323  1.0
  O  O11  1  0.66012980  0.97417215  0.74701323  1.0
  O  O12  1  0.83660347  0.70058533  0.04450922  1.0
  O  O13  1  0.83660347  0.79941467  0.54450922  1.0
  O  O14  1  0.16339653  0.20058533  0.45549078  1.0
  O  O15  1  0.16339653  0.29941467  0.95549078  1.0
  O  O16  1  0.74381091  0.20947483  0.04696636  1.0
  O  O17  1  0.74381091  0.29052517  0.54696636  1.0
  O  O18  1  0.25618909  0.70947483  0.45303364  1.0
  O  O19  1  0.25618909  0.79052517  0.95303364  1.0
