# generated using pymatgen
data_CaSO4
_symmetry_space_group_name_H-M   'P 1'
_cell_length_a   4.75037202
_cell_length_b   4.75037202
_cell_length_c   7.09796105
_cell_angle_alpha   90.00000000
_cell_angle_beta   90.00000000
_cell_angle_gamma   83.02754254
_symmetry_Int_Tables_number   1
_chemical_formula_structural   CaSO4
_chemical_formula_sum   'Ca2 S2 O8'
_cell_volume   158.98829384
_cell_formula_units_Z   2
loop_
 _symmetry_equiv_pos_site_id
 _symmetry_equiv_pos_as_xyz
  1  'x, y, z'
loop_
 _atom_site_type_symbol
 _atom_site_label
 _atom_site_symmetry_multiplicity
 _atom_site_fract_x
 _atom_site_fract_y
 _atom_site_fract_z
 _atom_site_occupancy
  Ca  Ca0  1  -0.34806441  1.34806441  0.25000000  1.0
  Ca  Ca1  1  0.34806441  0.65193559  0.75000000  1.0
  S  S2  1  0.15702524  0.84297476  0.25000000  1.0
  S  S3  1  -0.15702524  1.15702524  0.75000000  1.0
  O  O4  1  -0.15279327  1.81421199  0.25000000  1.0
  O  O5  1  0.81421199  0.84720673  0.75000000  1.0
  O  O6  1  -0.81421199  1.15279327  0.25000000  1.0
  O  O7  1  0.15279327  0.18578801  0.75000000  1.0
  O  O8  1  0.30038781  0.69961219  0.41816625  1.0
  O  O9  1  0.30038781  0.69961219  0.08183375  1.0
  O  O10  1  -0.30038781  1.30038781  0.91816625  1.0
  O  O11  1  -0.30038781  1.30038781  0.58183375  1.0
