# generated using pymatgen
data_GdAg(WO4)2
_symmetry_space_group_name_H-M   'P 1'
_cell_length_a   7.46155014
_cell_length_b   7.46155014
_cell_length_c   7.34234741
_cell_angle_alpha   65.47483846
_cell_angle_beta   114.52516154
_cell_angle_gamma   85.37291716
_symmetry_Int_Tables_number   1
_chemical_formula_structural   GdAg(WO4)2
_chemical_formula_sum   'Gd2 Ag2 W4 O16'
_cell_volume   322.15878336
_cell_formula_units_Z   2
loop_
 _symmetry_equiv_pos_site_id
 _symmetry_equiv_pos_as_xyz
  1  'x, y, z'
loop_
 _atom_site_type_symbol
 _atom_site_label
 _atom_site_symmetry_multiplicity
 _atom_site_fract_x
 _atom_site_fract_y
 _atom_site_fract_z
 _atom_site_occupancy
  Gd  Gd0  1  0.69650498  -0.30349502  0.00000000  1.0
  Gd  Gd1  1  1.30349502  0.30349502  0.00000000  1.0
  Ag  Ag2  1  0.68963869  -0.68963869  0.51642229  1.0
  Ag  Ag3  1  0.31036131  -0.31036131  0.48357771  1.0
  W  W4  1  0.20924748  -0.20924748  0.97096150  1.0
  W  W5  1  0.79075252  -0.79075252  0.02903850  1.0
  W  W6  1  0.83603932  -0.16396068  0.50000000  1.0
  W  W7  1  1.16396068  0.16396068  0.50000000  1.0
  O  O8  1  0.34869725  -0.10124385  0.75560231  1.0
  O  O9  1  1.10124385  0.65130275  0.75560231  1.0
  O  O10  1  0.89875615  -0.65130275  0.24439769  1.0
  O  O11  1  1.65130275  0.10124385  0.24439769  1.0
  O  O12  1  0.97981173  -0.97981173  0.66103440  1.0
  O  O13  1  0.02018827  -0.02018827  0.33896560  1.0
  O  O14  1  0.55871108  -0.55871108  0.86311097  1.0
  O  O15  1  0.44128892  -0.44128892  0.13688903  1.0
  O  O16  1  0.68920133  -0.21458986  0.64597010  1.0
  O  O17  1  1.21458986  0.31079867  0.64597010  1.0
  O  O18  1  0.78541014  -0.31079867  0.35402990  1.0
  O  O19  1  1.31079867  0.21458986  0.35402990  1.0
  O  O20  1  1.70014372  0.04444066  0.91243211  1.0
  O  O21  1  0.95555934  -0.70014372  0.91243211  1.0
  O  O22  1  1.04444066  0.70014372  0.08756789  1.0
  O  O23  1  0.29985628  -0.04444066  0.08756789  1.0
