# generated using pymatgen
data_SbRuSe
_symmetry_space_group_name_H-M   'P 1'
_cell_length_a   6.43383292
_cell_length_b   6.36397803
_cell_length_c   6.47186279
_cell_angle_alpha   90.00000000
_cell_angle_beta   113.17030081
_cell_angle_gamma   90.00000000
_symmetry_Int_Tables_number   1
_chemical_formula_structural   SbRuSe
_chemical_formula_sum   'Sb4 Ru4 Se4'
_cell_volume   243.61477886
_cell_formula_units_Z   4
loop_
 _symmetry_equiv_pos_site_id
 _symmetry_equiv_pos_as_xyz
  1  'x, y, z'
loop_
 _atom_site_type_symbol
 _atom_site_label
 _atom_site_symmetry_multiplicity
 _atom_site_fract_x
 _atom_site_fract_y
 _atom_site_fract_z
 _atom_site_occupancy
  Sb  Sb0  1  0.64470134  0.86409601  0.37708395  1.0
  Sb  Sb1  1  0.64470134  0.63590399  0.87708395  1.0
  Sb  Sb2  1  0.35529866  0.36409601  0.12291605  1.0
  Sb  Sb3  1  0.35529866  0.13590399  0.62291605  1.0
  Ru  Ru4  1  0.78820255  0.49401733  0.30013622  1.0
  Ru  Ru5  1  0.78820255  0.00598267  0.80013622  1.0
  Ru  Ru6  1  0.21179745  0.99401733  0.19986378  1.0
  Ru  Ru7  1  0.21179745  0.50598267  0.69986378  1.0
  Se  Se8  1  0.84929219  0.13415094  0.18066016  1.0
  Se  Se9  1  0.84929219  0.36584906  0.68066016  1.0
  Se  Se10  1  0.15070781  0.63415094  0.31933984  1.0
  Se  Se11  1  0.15070781  0.86584906  0.81933984  1.0
