# generated using pymatgen
data_CaMg(CO3)2
_symmetry_space_group_name_H-M   'P 1'
_cell_length_a   6.08306133
_cell_length_b   6.08306133
_cell_length_c   6.08306133
_cell_angle_alpha   47.03351640
_cell_angle_beta   47.03351640
_cell_angle_gamma   47.03351640
_symmetry_Int_Tables_number   1
_chemical_formula_structural   CaMg(CO3)2
_chemical_formula_sum   'Ca1 Mg1 C2 O6'
_cell_volume   110.18558684
_cell_formula_units_Z   1
loop_
 _symmetry_equiv_pos_site_id
 _symmetry_equiv_pos_as_xyz
  1  'x, y, z'
loop_
 _atom_site_type_symbol
 _atom_site_label
 _atom_site_symmetry_multiplicity
 _atom_site_fract_x
 _atom_site_fract_y
 _atom_site_fract_z
 _atom_site_occupancy
  Ca  Ca0  1  0.00000000  0.00000000  0.00000000  1.0
  Mg  Mg1  1  0.50000000  0.50000000  -0.50000000  1.0
  C  C2  1  0.24270928  0.24270928  0.24270928  1.0
  C  C3  1  0.75729072  -0.24270928  -0.24270928  1.0
  O  O4  1  0.27666388  0.96193660  -0.50726351  1.0
  O  O5  1  0.50726351  -0.27666388  0.03806340  1.0
  O  O6  1  1.03806340  -0.49273649  -0.27666388  1.0
  O  O7  1  0.72333612  0.03806340  -0.49273649  1.0
  O  O8  1  0.49273649  0.27666388  -0.03806340  1.0
  O  O9  1  0.96193660  0.49273649  -0.72333612  1.0
