# generated using pymatgen
data_Y2Te3
_symmetry_space_group_name_H-M   'P 1'
_cell_length_a   14.46265505
_cell_length_b   13.79162037
_cell_length_c   7.56624026
_cell_angle_alpha   79.42863157
_cell_angle_beta   69.62218712
_cell_angle_gamma   30.94918131
_symmetry_Int_Tables_number   1
_chemical_formula_structural   Y2Te3
_chemical_formula_sum   'Y8 Te12'
_cell_volume   706.50095327
_cell_formula_units_Z   4
loop_
 _symmetry_equiv_pos_site_id
 _symmetry_equiv_pos_as_xyz
  1  'x, y, z'
loop_
 _atom_site_type_symbol
 _atom_site_label
 _atom_site_symmetry_multiplicity
 _atom_site_fract_x
 _atom_site_fract_y
 _atom_site_fract_z
 _atom_site_occupancy
  Y  Y0  1  0.83257238  0.83257238  0.66742762  1.0
  Y  Y1  1  0.66742762  0.66742762  0.83257238  1.0
  Y  Y2  1  0.41742762  0.41742762  0.58257238  1.0
  Y  Y3  1  0.58257238  0.58257238  0.41742762  1.0
  Y  Y4  1  0.49968064  0.49968064  0.00031936  1.0
  Y  Y5  1  0.00031936  1.00031936  0.49968064  1.0
  Y  Y6  1  0.75031936  0.75031936  -0.75031936  1.0
  Y  Y7  1  0.24968064  1.24968064  -0.24968064  1.0
  Te  Te8  1  0.49861712  1.00138288  0.00138288  1.0
  Te  Te9  1  0.00138288  1.49861712  0.49861712  1.0
  Te  Te10  1  -0.24861712  1.24861712  0.24861712  1.0
  Te  Te11  1  0.24861712  0.75138288  -0.24861712  1.0
  Te  Te12  1  0.16587537  0.66857472  0.33490649  1.0
  Te  Te13  1  0.33490649  0.83064342  0.16587537  1.0
  Te  Te14  1  0.83064342  0.33490649  0.66857472  1.0
  Te  Te15  1  0.66857472  0.16587537  0.83064342  1.0
  Te  Te16  1  0.08412463  1.58142528  -0.08490649  1.0
  Te  Te17  1  -0.08490649  1.41935658  0.08412463  1.0
  Te  Te18  1  0.41935658  0.91509351  0.58142528  1.0
  Te  Te19  1  0.58142528  1.08412463  0.41935658  1.0
