# generated using pymatgen
data_Sr(TlHg)2
_symmetry_space_group_name_H-M   'P 1'
_cell_length_a   11.06029101
_cell_length_b   11.06029101
_cell_length_c   4.94688068
_cell_angle_alpha   90.00000000
_cell_angle_beta   90.00000000
_cell_angle_gamma   90.00000000
_symmetry_Int_Tables_number   1
_chemical_formula_structural   Sr(TlHg)2
_chemical_formula_sum   'Sr4 Tl8 Hg8'
_cell_volume   605.15209834
_cell_formula_units_Z   4
loop_
 _symmetry_equiv_pos_site_id
 _symmetry_equiv_pos_as_xyz
  1  'x, y, z'
loop_
 _atom_site_type_symbol
 _atom_site_label
 _atom_site_symmetry_multiplicity
 _atom_site_fract_x
 _atom_site_fract_y
 _atom_site_fract_z
 _atom_site_occupancy
  Sr  Sr0  1  0.14202199  0.85797801  0.50000000  1.0
  Sr  Sr1  1  0.64202199  0.64202199  0.00000000  1.0
  Sr  Sr2  1  0.85797801  0.14202199  0.50000000  1.0
  Sr  Sr3  1  0.35797801  0.35797801  0.00000000  1.0
  Tl  Tl4  1  0.47697655  0.14521622  0.50000000  1.0
  Tl  Tl5  1  0.97697655  0.35478378  0.00000000  1.0
  Tl  Tl6  1  0.85478378  0.52302345  0.50000000  1.0
  Tl  Tl7  1  0.35478378  0.97697655  0.00000000  1.0
  Tl  Tl8  1  0.52302345  0.85478378  0.50000000  1.0
  Tl  Tl9  1  0.02302345  0.64521622  0.00000000  1.0
  Tl  Tl10  1  0.14521622  0.47697655  0.50000000  1.0
  Tl  Tl11  1  0.64521622  0.02302345  0.00000000  1.0
  Hg  Hg12  1  0.40585575  0.59414425  0.50000000  1.0
  Hg  Hg13  1  0.90585575  0.90585575  0.00000000  1.0
  Hg  Hg14  1  0.59414425  0.40585575  0.50000000  1.0
  Hg  Hg15  1  0.09414425  0.09414425  0.00000000  1.0
  Hg  Hg16  1  0.19494143  0.19494143  0.50000000  1.0
  Hg  Hg17  1  0.69494143  0.30505857  0.00000000  1.0
  Hg  Hg18  1  0.80505857  0.80505857  0.50000000  1.0
  Hg  Hg19  1  0.30505857  0.69494143  0.00000000  1.0
