# generated using pymatgen
data_Y5Ga3
_symmetry_space_group_name_H-M   'P 1'
_cell_length_a   8.56302435
_cell_length_b   8.56302435
_cell_length_c   6.57740211
_cell_angle_alpha   89.19438928
_cell_angle_beta   90.80561072
_cell_angle_gamma   60.59395742
_symmetry_Int_Tables_number   1
_chemical_formula_structural   Y5Ga3
_chemical_formula_sum   'Y10 Ga6'
_cell_volume   419.99000548
_cell_formula_units_Z   2
loop_
 _symmetry_equiv_pos_site_id
 _symmetry_equiv_pos_as_xyz
  1  'x, y, z'
loop_
 _atom_site_type_symbol
 _atom_site_label
 _atom_site_symmetry_multiplicity
 _atom_site_fract_x
 _atom_site_fract_y
 _atom_site_fract_z
 _atom_site_occupancy
  Y  Y0  1  1.50773187  0.25125564  0.73151399  1.0
  Y  Y1  1  0.74874436  -0.50773187  0.73151399  1.0
  Y  Y2  1  1.25125564  0.50773187  0.26848601  1.0
  Y  Y3  1  0.49226813  -0.25125564  0.26848601  1.0
  Y  Y4  1  0.26819618  -0.26819618  0.77777242  1.0
  Y  Y5  1  0.73180382  -0.73180382  0.22222758  1.0
  Y  Y6  1  0.85658453  -0.14341547  0.50000000  1.0
  Y  Y7  1  1.14341547  0.14341547  0.50000000  1.0
  Y  Y8  1  0.81315046  -0.18684954  -0.00000000  1.0
  Y  Y9  1  1.18684954  0.18684954  -0.00000000  1.0
  Ga  Ga10  1  0.50346090  -0.09900391  0.70651758  1.0
  Ga  Ga11  1  1.09900391  0.49653910  0.70651758  1.0
  Ga  Ga12  1  0.90099609  -0.49653910  0.29348242  1.0
  Ga  Ga13  1  1.49653910  0.09900391  0.29348242  1.0
  Ga  Ga14  1  0.91064088  -0.91064088  0.81592864  1.0
  Ga  Ga15  1  0.08935912  -0.08935912  0.18407136  1.0
