# generated using pymatgen
data_YMnSn2
_symmetry_space_group_name_H-M   'P 1'
_cell_length_a   10.46304997
_cell_length_b   11.49781697
_cell_length_c   9.02024177
_cell_angle_alpha   90.00000000
_cell_angle_beta   90.00000000
_cell_angle_gamma   90.00000000
_symmetry_Int_Tables_number   1
_chemical_formula_structural   YMnSn2
_chemical_formula_sum   'Y12 Mn12 Sn24'
_cell_volume   1085.15523140
_cell_formula_units_Z   12
loop_
 _symmetry_equiv_pos_site_id
 _symmetry_equiv_pos_as_xyz
  1  'x, y, z'
loop_
 _atom_site_type_symbol
 _atom_site_label
 _atom_site_symmetry_multiplicity
 _atom_site_fract_x
 _atom_site_fract_y
 _atom_site_fract_z
 _atom_site_occupancy
  Y  Y0  1  0.17059045  0.54726118  0.75504950  1.0
  Y  Y1  1  0.17059045  0.54726118  0.24495050  1.0
  Y  Y2  1  0.67059045  0.95273882  0.75504950  1.0
  Y  Y3  1  0.67059045  0.95273882  0.24495050  1.0
  Y  Y4  1  0.82940955  0.45273882  0.75504950  1.0
  Y  Y5  1  0.82940955  0.45273882  0.24495050  1.0
  Y  Y6  1  0.32940955  0.04726118  0.75504950  1.0
  Y  Y7  1  0.32940955  0.04726118  0.24495050  1.0
  Y  Y8  1  0.16444761  0.81977517  0.00000000  1.0
  Y  Y9  1  0.66444761  0.68022483  -0.00000000  1.0
  Y  Y10  1  0.83555239  0.18022483  0.00000000  1.0
  Y  Y11  1  0.33555239  0.31977517  -0.00000000  1.0
  Mn  Mn12  1  0.41337375  0.74396005  0.75314922  1.0
  Mn  Mn13  1  0.41337375  0.74396005  0.24685078  1.0
  Mn  Mn14  1  0.91337375  0.75603995  0.75314922  1.0
  Mn  Mn15  1  0.91337375  0.75603995  0.24685078  1.0
  Mn  Mn16  1  0.58662625  0.25603995  0.75314922  1.0
  Mn  Mn17  1  0.58662625  0.25603995  0.24685078  1.0
  Mn  Mn18  1  0.08662625  0.24396005  0.75314922  1.0
  Mn  Mn19  1  0.08662625  0.24396005  0.24685078  1.0
  Mn  Mn20  1  0.50000000  0.50000000  0.75768835  1.0
  Mn  Mn21  1  0.50000000  0.50000000  0.24231165  1.0
  Mn  Mn22  1  0.00000000  0.00000000  0.75768835  1.0
  Mn  Mn23  1  0.00000000  0.00000000  0.24231165  1.0
  Sn  Sn24  1  0.16382821  0.81887334  0.66204093  1.0
  Sn  Sn25  1  0.16382821  0.81887334  0.33795907  1.0
  Sn  Sn26  1  0.66382821  0.68112666  0.66204093  1.0
  Sn  Sn27  1  0.66382821  0.68112666  0.33795907  1.0
  Sn  Sn28  1  0.83617179  0.18112666  0.66204093  1.0
  Sn  Sn29  1  0.83617179  0.18112666  0.33795907  1.0
  Sn  Sn30  1  0.33617179  0.31887334  0.66204093  1.0
  Sn  Sn31  1  0.33617179  0.31887334  0.33795907  1.0
  Sn  Sn32  1  0.45840710  0.87385391  0.50000000  1.0
  Sn  Sn33  1  0.95840710  0.62614609  0.50000000  1.0
  Sn  Sn34  1  0.54159290  0.12614609  0.50000000  1.0
  Sn  Sn35  1  0.04159290  0.37385391  0.50000000  1.0
  Sn  Sn36  1  0.37704243  0.59316448  0.50000000  1.0
  Sn  Sn37  1  0.87704243  0.90683552  0.50000000  1.0
  Sn  Sn38  1  0.62295757  0.40683552  0.50000000  1.0
  Sn  Sn39  1  0.12295757  0.09316448  0.50000000  1.0
  Sn  Sn40  1  0.45863771  0.87812577  -0.00000000  1.0
  Sn  Sn41  1  0.95863771  0.62187423  -0.00000000  1.0
  Sn  Sn42  1  0.54136229  0.12187423  0.00000000  1.0
  Sn  Sn43  1  0.04136229  0.37812577  -0.00000000  1.0
  Sn  Sn44  1  0.37049975  0.59939064  0.00000000  1.0
  Sn  Sn45  1  0.87049975  0.90060936  0.00000000  1.0
  Sn  Sn46  1  0.62950025  0.40060936  0.00000000  1.0
  Sn  Sn47  1  0.12950025  0.09939064  0.00000000  1.0
