# generated using pymatgen
data_Mn6Si7
_symmetry_space_group_name_H-M   'P 1'
_cell_length_a   8.42864532
_cell_length_b   8.42864532
_cell_length_c   8.42864532
_cell_angle_alpha   33.24054387
_cell_angle_beta   33.24054387
_cell_angle_gamma   33.24054387
_symmetry_Int_Tables_number   1
_chemical_formula_structural   Mn6Si7
_chemical_formula_sum   'Mn6 Si7'
_cell_volume   160.17623901
_cell_formula_units_Z   1
loop_
 _symmetry_equiv_pos_site_id
 _symmetry_equiv_pos_as_xyz
  1  'x, y, z'
loop_
 _atom_site_type_symbol
 _atom_site_label
 _atom_site_symmetry_multiplicity
 _atom_site_fract_x
 _atom_site_fract_y
 _atom_site_fract_z
 _atom_site_occupancy
  Mn  Mn0  1  0.83473227  -0.16526773  -0.16526773  1.0
  Mn  Mn1  1  0.16526773  0.16526773  0.16526773  1.0
  Mn  Mn2  1  0.66167096  0.66167096  -0.33832904  1.0
  Mn  Mn3  1  0.33832904  0.33832904  -0.66167096  1.0
  Mn  Mn4  1  0.54883538  0.54883538  -0.45116462  1.0
  Mn  Mn5  1  0.45116462  0.45116462  -0.54883538  1.0
  Si  Si6  1  0.00000000  0.00000000  0.00000000  1.0
  Si  Si7  1  0.42252806  -0.08587848  -0.08587848  1.0
  Si  Si8  1  0.91412152  -0.08587848  -0.57747194  1.0
  Si  Si9  1  0.91412152  -0.57747194  -0.08587848  1.0
  Si  Si10  1  0.57747194  0.08587848  0.08587848  1.0
  Si  Si11  1  1.08587848  0.08587848  -0.42252806  1.0
  Si  Si12  1  1.08587848  -0.42252806  0.08587848  1.0
