# generated using pymatgen
data_Hf7Au10
_symmetry_space_group_name_H-M   'P 1'
_cell_length_a   8.31391046
_cell_length_b   8.31391046
_cell_length_c   9.88439945
_cell_angle_alpha   90.00000000
_cell_angle_beta   90.00000000
_cell_angle_gamma   72.80299891
_symmetry_Int_Tables_number   1
_chemical_formula_structural   Hf7Au10
_chemical_formula_sum   'Hf14 Au20'
_cell_volume   652.67646156
_cell_formula_units_Z   2
loop_
 _symmetry_equiv_pos_site_id
 _symmetry_equiv_pos_as_xyz
  1  'x, y, z'
loop_
 _atom_site_type_symbol
 _atom_site_label
 _atom_site_symmetry_multiplicity
 _atom_site_fract_x
 _atom_site_fract_y
 _atom_site_fract_z
 _atom_site_occupancy
  Hf  Hf0  1  -0.18721454  1.18721454  0.31123931  1.0
  Hf  Hf1  1  0.31278546  0.68721454  0.18876069  1.0
  Hf  Hf2  1  0.18721454  0.81278546  0.68876069  1.0
  Hf  Hf3  1  -0.31278546  1.31278546  0.81123931  1.0
  Hf  Hf4  1  -0.49442222  0.99442222  0.25000000  1.0
  Hf  Hf5  1  0.00557778  1.49442222  0.25000000  1.0
  Hf  Hf6  1  -0.00557778  0.50557778  0.75000000  1.0
  Hf  Hf7  1  0.49442222  1.00557778  0.75000000  1.0
  Hf  Hf8  1  0.18980260  1.18980260  0.50000000  1.0
  Hf  Hf9  1  -0.31019740  0.68980260  0.00000000  1.0
  Hf  Hf10  1  -0.18980260  0.81019740  0.50000000  1.0
  Hf  Hf11  1  0.31019740  1.31019740  0.00000000  1.0
  Hf  Hf12  1  -0.50000000  0.50000000  0.50000000  1.0
  Hf  Hf13  1  -0.00000000  1.00000000  0.00000000  1.0
  Au  Au14  1  0.35766847  1.35023086  0.29210312  1.0
  Au  Au15  1  -0.14233153  0.85023086  0.20789688  1.0
  Au  Au16  1  0.35023086  1.35766847  0.70789688  1.0
  Au  Au17  1  -0.14976914  0.85766847  0.79210312  1.0
  Au  Au18  1  -0.35023086  0.64233153  0.29210312  1.0
  Au  Au19  1  0.14976914  1.14233153  0.20789688  1.0
  Au  Au20  1  -0.35766847  0.64976914  0.70789688  1.0
  Au  Au21  1  0.14233153  1.14976914  0.79210312  1.0
  Au  Au22  1  0.44094761  0.85264183  0.49913032  1.0
  Au  Au23  1  -0.05905239  1.35264183  0.00086968  1.0
  Au  Au24  1  -0.14735817  1.44094761  0.50086968  1.0
  Au  Au25  1  0.35264183  0.94094761  0.99913032  1.0
  Au  Au26  1  0.14735817  0.55905239  0.49913032  1.0
  Au  Au27  1  -0.35264183  1.05905239  0.00086968  1.0
  Au  Au28  1  -0.44094761  1.14735817  0.50086968  1.0
  Au  Au29  1  0.05905239  0.64735817  0.99913032  1.0
  Au  Au30  1  -0.39480870  1.39480870  0.10230056  1.0
  Au  Au31  1  0.10519130  0.89480870  0.39769944  1.0
  Au  Au32  1  0.39480870  0.60519130  0.89769944  1.0
  Au  Au33  1  -0.10519130  1.10519130  0.60230056  1.0
