# generated using pymatgen
data_AgClO2
_symmetry_space_group_name_H-M   'P 1'
_cell_length_a   4.29620152
_cell_length_b   7.02796618
_cell_length_c   4.37604687
_cell_angle_alpha   97.90311193
_cell_angle_beta   119.14493259
_cell_angle_gamma   90.08662578
_symmetry_Int_Tables_number   1
_chemical_formula_structural   AgClO2
_chemical_formula_sum   'Ag1 Cl1 O2'
_cell_volume   113.94500949
_cell_formula_units_Z   1
loop_
 _symmetry_equiv_pos_site_id
 _symmetry_equiv_pos_as_xyz
  1  'x, y, z'
loop_
 _atom_site_type_symbol
 _atom_site_label
 _atom_site_symmetry_multiplicity
 _atom_site_fract_x
 _atom_site_fract_y
 _atom_site_fract_z
 _atom_site_occupancy
  Ag  Ag0  1  -0.85854844  -0.04332027  -0.45304686  1.0
  Cl  Cl1  1  -0.52937821  -0.04300885  -0.79810044  1.0
  O  O2  1  -0.16785898  -0.59156324  -0.12454037  1.0
  O  O3  1  -0.29922438  -0.48095764  -0.33963233  1.0
