# generated using pymatgen
data_RbCr2In3(H3O7)2
_symmetry_space_group_name_H-M   'P 1'
_cell_length_a   7.68656498
_cell_length_b   7.68656498
_cell_length_c   7.68656498
_cell_angle_alpha   62.10068218
_cell_angle_beta   62.10068218
_cell_angle_gamma   62.10068218
_symmetry_Int_Tables_number   1
_chemical_formula_structural   RbCr2In3(H3O7)2
_chemical_formula_sum   'Rb1 Cr2 In3 H6 O14'
_cell_volume   336.20873463
_cell_formula_units_Z   1
loop_
 _symmetry_equiv_pos_site_id
 _symmetry_equiv_pos_as_xyz
  1  'x, y, z'
loop_
 _atom_site_type_symbol
 _atom_site_label
 _atom_site_symmetry_multiplicity
 _atom_site_fract_x
 _atom_site_fract_y
 _atom_site_fract_z
 _atom_site_occupancy
  Rb  Rb0  1  0.50000000  0.50000000  -0.50000000  1.0
  Cr  Cr1  1  0.81186081  0.81186081  -0.18813919  1.0
  Cr  Cr2  1  1.18813919  1.18813919  0.18813919  1.0
  In  In3  1  0.50000000  1.00000000  -0.50000000  1.0
  In  In4  1  0.50000000  -0.50000000  0.00000000  1.0
  In  In5  1  -0.00000000  0.50000000  -0.50000000  1.0
  H  H6  1  0.19099365  0.19099365  -0.22643191  1.0
  H  H7  1  0.19099365  0.77356809  -0.80900635  1.0
  H  H8  1  1.22643191  -0.19099365  -0.19099365  1.0
  H  H9  1  0.80900635  0.22643191  -0.19099365  1.0
  H  H10  1  0.80900635  -0.19099365  0.22643191  1.0
  H  H11  1  0.77356809  0.19099365  -0.80900635  1.0
  O  O12  1  0.23817594  0.23817594  -0.37880750  1.0
  O  O13  1  0.23817594  0.62119250  -0.76182406  1.0
  O  O14  1  0.37880750  0.76182406  -0.23817594  1.0
  O  O15  1  0.76182406  0.37880750  -0.23817594  1.0
  O  O16  1  0.76182406  0.76182406  -0.62119250  1.0
  O  O17  1  0.62119250  0.23817594  -0.76182406  1.0
  O  O18  1  0.33322948  0.33322948  -0.00661438  1.0
  O  O19  1  0.33322948  0.99338562  -0.66677052  1.0
  O  O20  1  1.00661438  -0.33322948  -0.33322948  1.0
  O  O21  1  0.66677052  0.00661438  -0.33322948  1.0
  O  O22  1  0.66677052  -0.33322948  0.00661438  1.0
  O  O23  1  0.99338562  0.33322948  -0.66677052  1.0
  O  O24  1  0.90013576  0.90013576  -0.09986424  1.0
  O  O25  1  1.09986424  1.09986424  0.09986424  1.0
