# generated using pymatgen
data_Nb2Co12P7
_symmetry_space_group_name_H-M   'P 1'
_cell_length_a   8.82951246
_cell_length_b   8.82951246
_cell_length_c   3.52120630
_cell_angle_alpha   90.00000000
_cell_angle_beta   90.00000000
_cell_angle_gamma   120.00000000
_symmetry_Int_Tables_number   1
_chemical_formula_structural   Nb2Co12P7
_chemical_formula_sum   'Nb2 Co12 P7'
_cell_volume   237.73632732
_cell_formula_units_Z   1
loop_
 _symmetry_equiv_pos_site_id
 _symmetry_equiv_pos_as_xyz
  1  'x, y, z'
loop_
 _atom_site_type_symbol
 _atom_site_label
 _atom_site_symmetry_multiplicity
 _atom_site_fract_x
 _atom_site_fract_y
 _atom_site_fract_z
 _atom_site_occupancy
  Nb  Nb0  1  0.00000000  0.00000000  0.50000000  1.0
  Nb  Nb1  1  0.66666667  0.33333333  0.00000000  1.0
  Co  Co2  1  0.72364320  0.61672567  0.50000000  1.0
  Co  Co3  1  0.89308247  0.27635680  0.50000000  1.0
  Co  Co4  1  0.38327433  0.10691753  0.50000000  1.0
  Co  Co5  1  0.24433846  0.45072925  0.50000000  1.0
  Co  Co6  1  0.20639079  0.75566154  0.50000000  1.0
  Co  Co7  1  0.54927075  0.79360921  0.50000000  1.0
  Co  Co8  1  0.49750861  0.54953293  0.00000000  1.0
  Co  Co9  1  0.05202431  0.50249139  0.00000000  1.0
  Co  Co10  1  0.45046707  0.94797569  0.00000000  1.0
  Co  Co11  1  0.26915382  0.22717673  0.00000000  1.0
  Co  Co12  1  0.95802291  0.73084618  0.00000000  1.0
  Co  Co13  1  0.77282327  0.04197709  0.00000000  1.0
  P  P14  1  0.45404886  0.37975684  0.50000000  1.0
  P  P15  1  0.92570798  0.54595114  0.50000000  1.0
  P  P16  1  0.62024316  0.07429202  0.50000000  1.0
  P  P17  1  0.04251492  0.25426907  0.00000000  1.0
  P  P18  1  0.21175416  0.95748508  0.00000000  1.0
  P  P19  1  0.74573093  0.78824584  0.00000000  1.0
  P  P20  1  0.33333333  0.66666667  0.00000000  1.0
