# generated using pymatgen
data_LaSi3Rh
_symmetry_space_group_name_H-M   'P 1'
_cell_length_a   5.79945036
_cell_length_b   5.79945036
_cell_length_c   5.79945036
_cell_angle_alpha   136.65452851
_cell_angle_beta   136.65452851
_cell_angle_gamma   62.97003078
_symmetry_Int_Tables_number   1
_chemical_formula_structural   LaSi3Rh
_chemical_formula_sum   'La1 Si3 Rh1'
_cell_volume   90.74553613
_cell_formula_units_Z   1
loop_
 _symmetry_equiv_pos_site_id
 _symmetry_equiv_pos_as_xyz
  1  'x, y, z'
loop_
 _atom_site_type_symbol
 _atom_site_label
 _atom_site_symmetry_multiplicity
 _atom_site_fract_x
 _atom_site_fract_y
 _atom_site_fract_z
 _atom_site_occupancy
  La  La0  1  0.57326481  0.57326481  1.00000000  1.0
  Si  Si1  1  0.83576023  0.33576023  0.50000000  1.0
  Si  Si2  1  0.33576023  0.83576023  0.50000000  1.0
  Si  Si3  1  -0.01489071  -0.01489071  0.00000000  1.0
  Rh  Rh4  1  0.22790544  0.22790544  -0.00000000  1.0
