# generated using pymatgen
data_IF3
_symmetry_space_group_name_H-M   'P 1'
_cell_length_a   9.57163167
_cell_length_b   6.77212193
_cell_length_c   4.72478239
_cell_angle_alpha   90.00000000
_cell_angle_beta   90.00000000
_cell_angle_gamma   90.00000000
_symmetry_Int_Tables_number   1
_chemical_formula_structural   IF3
_chemical_formula_sum   'I4 F12'
_cell_volume   306.26160771
_cell_formula_units_Z   4
loop_
 _symmetry_equiv_pos_site_id
 _symmetry_equiv_pos_as_xyz
  1  'x, y, z'
loop_
 _atom_site_type_symbol
 _atom_site_label
 _atom_site_symmetry_multiplicity
 _atom_site_fract_x
 _atom_site_fract_y
 _atom_site_fract_z
 _atom_site_occupancy
  I  I0  1  0.80757291  0.25000000  0.03802728  1.0
  I  I1  1  0.30757291  0.25000000  0.46197272  1.0
  I  I2  1  0.19242709  0.75000000  0.96197272  1.0
  I  I3  1  0.69242709  0.75000000  0.53802728  1.0
  F  F4  1  0.82572668  0.95240903  0.10149916  1.0
  F  F5  1  0.82572668  0.54759097  0.10149916  1.0
  F  F6  1  0.32572668  0.95240903  0.39850084  1.0
  F  F7  1  0.32572668  0.54759097  0.39850084  1.0
  F  F8  1  0.17427332  0.45240903  0.89850084  1.0
  F  F9  1  0.17427332  0.04759097  0.89850084  1.0
  F  F10  1  0.67427332  0.45240903  0.60149916  1.0
  F  F11  1  0.67427332  0.04759097  0.60149916  1.0
  F  F12  1  0.92875773  0.25000000  0.37034243  1.0
  F  F13  1  0.42875773  0.25000000  0.12965757  1.0
  F  F14  1  0.07124227  0.75000000  0.62965757  1.0
  F  F15  1  0.57124227  0.75000000  0.87034243  1.0
