# generated using pymatgen
data_CsSO4
_symmetry_space_group_name_H-M   'P 1'
_cell_length_a   6.10643906
_cell_length_b   10.26601368
_cell_length_c   9.49866276
_cell_angle_alpha   90.00000000
_cell_angle_beta   121.35818137
_cell_angle_gamma   90.00000000
_symmetry_Int_Tables_number   1
_chemical_formula_structural   CsSO4
_chemical_formula_sum   'Cs4 S4 O16'
_cell_volume   508.48135638
_cell_formula_units_Z   4
loop_
 _symmetry_equiv_pos_site_id
 _symmetry_equiv_pos_as_xyz
  1  'x, y, z'
loop_
 _atom_site_type_symbol
 _atom_site_label
 _atom_site_symmetry_multiplicity
 _atom_site_fract_x
 _atom_site_fract_y
 _atom_site_fract_z
 _atom_site_occupancy
  Cs  Cs0  1  0.95711908  0.83537145  0.17733684  1.0
  Cs  Cs1  1  0.95711908  0.66462855  0.67733684  1.0
  Cs  Cs2  1  0.04288092  0.33537145  0.32266316  1.0
  Cs  Cs3  1  0.04288092  0.16462855  0.82266316  1.0
  S  S4  1  0.54209016  0.10342871  0.33208071  1.0
  S  S5  1  0.54209016  0.39657129  0.83208071  1.0
  S  S6  1  0.45790984  0.60342871  0.16791929  1.0
  S  S7  1  0.45790984  0.89657129  0.66791929  1.0
  O  O8  1  0.71722760  0.05326289  0.28362447  1.0
  O  O9  1  0.71722760  0.44673711  0.78362447  1.0
  O  O10  1  0.28277240  0.55326289  0.21637553  1.0
  O  O11  1  0.28277240  0.94673711  0.71637553  1.0
  O  O12  1  0.62382443  0.22404648  0.42874635  1.0
  O  O13  1  0.62382443  0.27595352  0.92874635  1.0
  O  O14  1  0.37617557  0.72404648  0.07125365  1.0
  O  O15  1  0.37617557  0.77595352  0.57125365  1.0
  O  O16  1  0.58293150  -0.01649617  0.46483969  1.0
  O  O17  1  0.58293150  0.51649617  0.96483969  1.0
  O  O18  1  0.41706850  0.48350383  0.03516031  1.0
  O  O19  1  0.41706850  0.01649617  0.53516031  1.0
  O  O20  1  0.26889398  0.10159827  0.20330380  1.0
  O  O21  1  0.26889398  0.39840173  0.70330380  1.0
  O  O22  1  0.73110602  0.60159827  0.29669620  1.0
  O  O23  1  0.73110602  0.89840173  0.79669620  1.0
