# generated using pymatgen
data_BaGe3
_symmetry_space_group_name_H-M   'P 1'
_cell_length_a   6.86277232
_cell_length_b   6.86277232
_cell_length_c   5.18799844
_cell_angle_alpha   90.00000000
_cell_angle_beta   90.00000000
_cell_angle_gamma   120.00000000
_symmetry_Int_Tables_number   1
_chemical_formula_structural   BaGe3
_chemical_formula_sum   'Ba2 Ge6'
_cell_volume   211.60681468
_cell_formula_units_Z   2
loop_
 _symmetry_equiv_pos_site_id
 _symmetry_equiv_pos_as_xyz
  1  'x, y, z'
loop_
 _atom_site_type_symbol
 _atom_site_label
 _atom_site_symmetry_multiplicity
 _atom_site_fract_x
 _atom_site_fract_y
 _atom_site_fract_z
 _atom_site_occupancy
  Ba  Ba0  1  0.33333333  0.66666667  0.75000000  1.0
  Ba  Ba1  1  0.66666667  0.33333333  0.25000000  1.0
  Ge  Ge2  1  0.12683980  0.87316020  0.25000000  1.0
  Ge  Ge3  1  0.12683980  0.25367960  0.25000000  1.0
  Ge  Ge4  1  0.87316020  0.12683980  0.75000000  1.0
  Ge  Ge5  1  0.87316020  0.74632040  0.75000000  1.0
  Ge  Ge6  1  0.74632040  0.87316020  0.25000000  1.0
  Ge  Ge7  1  0.25367960  0.12683980  0.75000000  1.0
