# generated using pymatgen
data_LiMn3H6(SeO3)8
_symmetry_space_group_name_H-M   'P 1'
_cell_length_a   8.28393995
_cell_length_b   8.28393995
_cell_length_c   8.28393995
_cell_angle_alpha   85.66880069
_cell_angle_beta   85.66880069
_cell_angle_gamma   85.66880069
_symmetry_Int_Tables_number   1
_chemical_formula_structural   LiMn3H6(SeO3)8
_chemical_formula_sum   'Li1 Mn3 H6 Se8 O24'
_cell_volume   563.83677284
_cell_formula_units_Z   1
loop_
 _symmetry_equiv_pos_site_id
 _symmetry_equiv_pos_as_xyz
  1  'x, y, z'
loop_
 _atom_site_type_symbol
 _atom_site_label
 _atom_site_symmetry_multiplicity
 _atom_site_fract_x
 _atom_site_fract_y
 _atom_site_fract_z
 _atom_site_occupancy
  Li  Li0  1  -0.00000000  -0.00000000  0.00000000  1.0
  Mn  Mn1  1  0.50000000  -0.50000000  -0.00000000  1.0
  Mn  Mn2  1  0.50000000  1.00000000  -0.50000000  1.0
  Mn  Mn3  1  0.00000000  0.50000000  -0.50000000  1.0
  H  H4  1  0.65118422  -0.00162407  0.07594432  1.0
  H  H5  1  1.00162407  -0.07594432  -0.65118422  1.0
  H  H6  1  0.92405568  -0.65118422  0.00162407  1.0
  H  H7  1  0.34881578  0.00162407  -0.07594432  1.0
  H  H8  1  0.99837593  0.07594432  -0.34881578  1.0
  H  H9  1  1.07594432  -0.34881578  -0.00162407  1.0
  Se  Se10  1  0.84265471  -0.37379831  0.16960066  1.0
  Se  Se11  1  0.37379831  0.83039934  -0.84265471  1.0
  Se  Se12  1  0.83039934  0.15734529  -0.62620169  1.0
  Se  Se13  1  0.15734529  0.37379831  -0.16960066  1.0
  Se  Se14  1  0.62620169  0.16960066  -0.15734529  1.0
  Se  Se15  1  1.16960066  -0.15734529  -0.37379831  1.0
  Se  Se16  1  0.67408273  0.67408273  -0.32591727  1.0
  Se  Se17  1  1.32591727  1.32591727  0.32591727  1.0
  O  O18  1  0.77805103  -0.51164917  0.05353172  1.0
  O  O19  1  0.51164917  0.94646828  -0.77805103  1.0
  O  O20  1  0.94646828  0.22194897  -0.48835083  1.0
  O  O21  1  0.22194897  0.51164917  -0.05353172  1.0
  O  O22  1  0.48835083  0.05353172  -0.22194897  1.0
  O  O23  1  1.05353172  -0.22194897  -0.51164917  1.0
  O  O24  1  0.56730461  0.51860427  -0.22756459  1.0
  O  O25  1  0.48139573  0.22756459  -0.56730461  1.0
  O  O26  1  0.22756459  0.43269539  -0.51860427  1.0
  O  O27  1  0.43269539  0.48139573  -0.77243541  1.0
  O  O28  1  0.51860427  0.77243541  -0.43269539  1.0
  O  O29  1  0.77243541  0.56730461  -0.48139573  1.0
  O  O30  1  0.73402109  0.03456020  -0.01389935  1.0
  O  O31  1  0.96543980  0.01389935  -0.73402109  1.0
  O  O32  1  1.01389935  -0.73402109  -0.03456020  1.0
  O  O33  1  0.26597891  -0.03456020  0.01389935  1.0
  O  O34  1  1.03456020  -0.01389935  -0.26597891  1.0
  O  O35  1  0.98610065  -0.26597891  0.03456020  1.0
  O  O36  1  0.50266274  0.27186528  -0.01399012  1.0
  O  O37  1  0.72813472  0.01399012  -0.50266274  1.0
  O  O38  1  1.01399012  -0.50266274  -0.27186528  1.0
  O  O39  1  0.49733726  -0.27186528  0.01399012  1.0
  O  O40  1  0.27186528  0.98600988  -0.49733726  1.0
  O  O41  1  0.98600988  0.50266274  -0.72813472  1.0
