# generated using pymatgen
data_Cu(BiO2)2
_symmetry_space_group_name_H-M   'P 1'
_cell_length_a   8.51200480
_cell_length_b   8.51200480
_cell_length_c   6.03723384
_cell_angle_alpha   90.00000000
_cell_angle_beta   90.00000000
_cell_angle_gamma   90.00000000
_symmetry_Int_Tables_number   1
_chemical_formula_structural   Cu(BiO2)2
_chemical_formula_sum   'Cu4 Bi8 O16'
_cell_volume   437.42310333
_cell_formula_units_Z   4
loop_
 _symmetry_equiv_pos_site_id
 _symmetry_equiv_pos_as_xyz
  1  'x, y, z'
loop_
 _atom_site_type_symbol
 _atom_site_label
 _atom_site_symmetry_multiplicity
 _atom_site_fract_x
 _atom_site_fract_y
 _atom_site_fract_z
 _atom_site_occupancy
  Cu  Cu0  1  0.00000000  0.50000000  0.42385648  1.0
  Cu  Cu1  1  0.00000000  0.50000000  0.92385648  1.0
  Cu  Cu2  1  0.50000000  0.00000000  0.57614352  1.0
  Cu  Cu3  1  0.50000000  0.00000000  0.07614352  1.0
  Bi  Bi4  1  0.67075983  0.32924017  0.75000000  1.0
  Bi  Bi5  1  0.32924017  0.32924017  0.25000000  1.0
  Bi  Bi6  1  0.67075983  0.67075983  0.25000000  1.0
  Bi  Bi7  1  0.32924017  0.67075983  0.75000000  1.0
  Bi  Bi8  1  0.82924017  0.17075983  0.25000000  1.0
  Bi  Bi9  1  0.17075983  0.17075983  0.75000000  1.0
  Bi  Bi10  1  0.82924017  0.82924017  0.75000000  1.0
  Bi  Bi11  1  0.17075983  0.82924017  0.25000000  1.0
  O  O12  1  0.60069106  0.79318317  0.58919654  1.0
  O  O13  1  0.39930894  0.79318317  0.08919654  1.0
  O  O14  1  0.60069106  0.20681683  0.08919654  1.0
  O  O15  1  0.39930894  0.20681683  0.58919654  1.0
  O  O16  1  0.29318317  0.10069106  0.08919654  1.0
  O  O17  1  0.70681683  0.10069106  0.58919654  1.0
  O  O18  1  0.29318317  0.89930894  0.58919654  1.0
  O  O19  1  0.70681683  0.89930894  0.08919654  1.0
  O  O20  1  0.89930894  0.70681683  0.41080346  1.0
  O  O21  1  0.10069106  0.70681683  0.91080346  1.0
  O  O22  1  0.89930894  0.29318317  0.91080346  1.0
  O  O23  1  0.10069106  0.29318317  0.41080346  1.0
  O  O24  1  0.20681683  0.39930894  0.91080346  1.0
  O  O25  1  0.79318317  0.39930894  0.41080346  1.0
  O  O26  1  0.20681683  0.60069106  0.41080346  1.0
  O  O27  1  0.79318317  0.60069106  0.91080346  1.0
