# generated using pymatgen
data_As2PHO6
_symmetry_space_group_name_H-M   'P 1'
_cell_length_a   4.60811722
_cell_length_b   12.46426494
_cell_length_c   10.55443894
_cell_angle_alpha   90.00000000
_cell_angle_beta   102.71394123
_cell_angle_gamma   90.00000000
_symmetry_Int_Tables_number   1
_chemical_formula_structural   As2PHO6
_chemical_formula_sum   'As8 P4 H4 O24'
_cell_volume   591.34940725
_cell_formula_units_Z   4
loop_
 _symmetry_equiv_pos_site_id
 _symmetry_equiv_pos_as_xyz
  1  'x, y, z'
loop_
 _atom_site_type_symbol
 _atom_site_label
 _atom_site_symmetry_multiplicity
 _atom_site_fract_x
 _atom_site_fract_y
 _atom_site_fract_z
 _atom_site_occupancy
  As  As0  1  0.95698975  0.37407821  0.37111954  1.0
  As  As1  1  0.95698975  0.12592179  0.87111954  1.0
  As  As2  1  0.04301025  0.87407821  0.12888046  1.0
  As  As3  1  0.04301025  0.62592179  0.62888046  1.0
  As  As4  1  0.64807452  0.89066726  0.34537536  1.0
  As  As5  1  0.64807452  0.60933274  0.84537536  1.0
  As  As6  1  0.35192548  0.39066726  0.15462464  1.0
  As  As7  1  0.35192548  0.10933274  0.65462464  1.0
  P  P8  1  0.74162452  0.14014681  0.28712484  1.0
  P  P9  1  0.74162452  0.35985319  0.78712484  1.0
  P  P10  1  0.25837548  0.64014681  0.21287516  1.0
  P  P11  1  0.25837548  0.85985319  0.71287516  1.0
  H  H12  1  0.84447128  0.63725987  0.29373532  1.0
  H  H13  1  0.84447128  0.86274013  0.79373532  1.0
  H  H14  1  0.15552872  0.13725987  0.20626468  1.0
  H  H15  1  0.15552872  0.36274013  0.70626468  1.0
  O  O16  1  1.00219082  0.86952545  0.29818057  1.0
  O  O17  1  1.00219082  0.63047455  0.79818057  1.0
  O  O18  1  -0.00219082  0.36952545  0.20181943  1.0
  O  O19  1  -0.00219082  0.13047455  0.70181943  1.0
  O  O20  1  0.94406484  0.10291703  0.19251615  1.0
  O  O21  1  0.94406484  0.39708297  0.69251615  1.0
  O  O22  1  0.05593516  0.60291703  0.30748385  1.0
  O  O23  1  0.05593516  0.89708297  0.80748385  1.0
  O  O24  1  0.92547945  0.22265363  0.38824543  1.0
  O  O25  1  0.92547945  0.27734637  0.88824543  1.0
  O  O26  1  0.07452055  0.72265363  0.11175457  1.0
  O  O27  1  0.07452055  0.77734637  0.61175457  1.0
  O  O28  1  0.69263038  0.04313752  0.37513136  1.0
  O  O29  1  0.69263038  0.45686248  0.87513136  1.0
  O  O30  1  0.30736962  0.54313752  0.12486864  1.0
  O  O31  1  0.30736962  0.95686248  0.62486864  1.0
  O  O32  1  0.56292918  0.40685732  0.32475192  1.0
  O  O33  1  0.56292918  0.09314268  0.82475192  1.0
  O  O34  1  0.43707082  0.90685732  0.17524808  1.0
  O  O35  1  0.43707082  0.59314268  0.67524808  1.0
  O  O36  1  0.44925466  0.18656460  0.21129881  1.0
  O  O37  1  0.44925466  0.31343540  0.71129881  1.0
  O  O38  1  0.55074534  0.68656460  0.28870119  1.0
  O  O39  1  0.55074534  0.81343540  0.78870119  1.0
