# generated using pymatgen
data_GdAsS
_symmetry_space_group_name_H-M   'P 1'
_cell_length_a   3.85941077
_cell_length_b   17.16284783
_cell_length_c   5.48572594
_cell_angle_alpha   90.00000000
_cell_angle_beta   134.69294677
_cell_angle_gamma   90.00000000
_symmetry_Int_Tables_number   1
_chemical_formula_structural   GdAsS
_chemical_formula_sum   'Gd4 As4 S4'
_cell_volume   258.31192737
_cell_formula_units_Z   4
loop_
 _symmetry_equiv_pos_site_id
 _symmetry_equiv_pos_as_xyz
  1  'x, y, z'
loop_
 _atom_site_type_symbol
 _atom_site_label
 _atom_site_symmetry_multiplicity
 _atom_site_fract_x
 _atom_site_fract_y
 _atom_site_fract_z
 _atom_site_occupancy
  Gd  Gd0  1  0.98782639  0.14644233  0.23767302  1.0
  Gd  Gd1  1  0.98782639  0.35355767  0.73767302  1.0
  Gd  Gd2  1  0.01217361  0.64644233  0.26232698  1.0
  Gd  Gd3  1  0.01217361  0.85355767  0.76232698  1.0
  As  As4  1  0.46638680  0.49842608  0.21699591  1.0
  As  As5  1  0.46638680  0.00157392  0.71699591  1.0
  As  As6  1  0.53361320  0.99842608  0.28300409  1.0
  As  As7  1  0.53361320  0.50157392  0.78300409  1.0
  S  S8  1  0.98980477  0.31372686  0.23970145  1.0
  S  S9  1  0.98980477  0.18627314  0.73970145  1.0
  S  S10  1  0.01019523  0.81372686  0.26029855  1.0
  S  S11  1  0.01019523  0.68627314  0.76029855  1.0
