# generated using pymatgen
data_CoSb2
_symmetry_space_group_name_H-M   'P 1'
_cell_length_a   6.53272187
_cell_length_b   6.41271703
_cell_length_c   6.57040169
_cell_angle_alpha   90.00000000
_cell_angle_beta   117.10978642
_cell_angle_gamma   90.00000000
_symmetry_Int_Tables_number   1
_chemical_formula_structural   CoSb2
_chemical_formula_sum   'Co4 Sb8'
_cell_volume   245.01012720
_cell_formula_units_Z   4
loop_
 _symmetry_equiv_pos_site_id
 _symmetry_equiv_pos_as_xyz
  1  'x, y, z'
loop_
 _atom_site_type_symbol
 _atom_site_label
 _atom_site_symmetry_multiplicity
 _atom_site_fract_x
 _atom_site_fract_y
 _atom_site_fract_z
 _atom_site_occupancy
  Co  Co0  1  0.77020193  0.49922108  0.28222824  1.0
  Co  Co1  1  0.77020193  0.00077892  0.78222824  1.0
  Co  Co2  1  0.22979807  -0.00077892  0.21777176  1.0
  Co  Co3  1  0.22979807  0.50077892  0.71777176  1.0
  Sb  Sb4  1  0.84844593  0.85567627  0.16647573  1.0
  Sb  Sb5  1  0.84844593  0.64432373  0.66647573  1.0
  Sb  Sb6  1  0.15155407  0.35567627  0.33352427  1.0
  Sb  Sb7  1  0.15155407  0.14432373  0.83352427  1.0
  Sb  Sb8  1  0.64694059  0.14029202  0.36965221  1.0
  Sb  Sb9  1  0.64694059  0.35970798  0.86965221  1.0
  Sb  Sb10  1  0.35305941  0.64029202  0.13034779  1.0
  Sb  Sb11  1  0.35305941  0.85970798  0.63034779  1.0
