# generated using pymatgen
data_MnO2
_symmetry_space_group_name_H-M   'P 1'
_cell_length_a   6.92745925
_cell_length_b   6.92745925
_cell_length_c   4.60452211
_cell_angle_alpha   93.48994888
_cell_angle_beta   86.51005112
_cell_angle_gamma   156.06764721
_symmetry_Int_Tables_number   1
_chemical_formula_structural   MnO2
_chemical_formula_sum   'Mn3 O6'
_cell_volume   89.46432440
_cell_formula_units_Z   3
loop_
 _symmetry_equiv_pos_site_id
 _symmetry_equiv_pos_as_xyz
  1  'x, y, z'
loop_
 _atom_site_type_symbol
 _atom_site_label
 _atom_site_symmetry_multiplicity
 _atom_site_fract_x
 _atom_site_fract_y
 _atom_site_fract_z
 _atom_site_occupancy
  Mn  Mn0  1  0.00000000  0.00000000  0.00000000  1.0
  Mn  Mn1  1  1.34161960  -0.34161960  0.53009982  1.0
  Mn  Mn2  1  0.65838040  -0.65838040  0.46990018  1.0
  O  O3  1  0.56952642  -0.56952642  0.16170514  1.0
  O  O4  1  1.43047358  -0.43047358  0.83829486  1.0
  O  O5  1  1.09288267  -0.09288267  0.66585158  1.0
  O  O6  1  0.90711733  -0.90711733  0.33414842  1.0
  O  O7  1  1.23227570  -0.23227570  0.28730442  1.0
  O  O8  1  0.76772430  -0.76772430  0.71269558  1.0
