# generated using pymatgen
data_Gd3AlNiS7
_symmetry_space_group_name_H-M   'P 1'
_cell_length_a   9.65653005
_cell_length_b   9.65653005
_cell_length_c   6.21398676
_cell_angle_alpha   90.00000000
_cell_angle_beta   90.00000000
_cell_angle_gamma   120.00000000
_symmetry_Int_Tables_number   1
_chemical_formula_structural   Gd3AlNiS7
_chemical_formula_sum   'Gd6 Al2 Ni2 S14'
_cell_volume   501.81443313
_cell_formula_units_Z   2
loop_
 _symmetry_equiv_pos_site_id
 _symmetry_equiv_pos_as_xyz
  1  'x, y, z'
loop_
 _atom_site_type_symbol
 _atom_site_label
 _atom_site_symmetry_multiplicity
 _atom_site_fract_x
 _atom_site_fract_y
 _atom_site_fract_z
 _atom_site_occupancy
  Gd  Gd0  1  0.77897231  0.62404827  0.20714787  1.0
  Gd  Gd1  1  0.62404827  0.84507596  0.70714787  1.0
  Gd  Gd2  1  0.84507596  0.22102769  0.20714787  1.0
  Gd  Gd3  1  0.37595173  0.15492404  0.20714787  1.0
  Gd  Gd4  1  0.22102769  0.37595173  0.70714787  1.0
  Gd  Gd5  1  0.15492404  0.77897231  0.70714787  1.0
  Ni  Ni6  1  -0.00000000  -0.00000000  0.03946337  1.0
  Ni  Ni7  1  -0.00000000  -0.00000000  0.53946337  1.0
  S  S8  1  0.43154901  0.90988442  -0.01935495  1.0
  S  S9  1  0.90988442  0.47833541  0.48064505  1.0
  S  S10  1  0.47833541  0.56845099  -0.01935495  1.0
  S  S11  1  0.09011558  0.52166459  -0.01935495  1.0
  S  S12  1  0.56845099  0.09011558  0.48064505  1.0
  S  S13  1  0.52166459  0.43154901  0.48064505  1.0
  S  S14  1  0.33333333  0.66666667  0.49376326  1.0
  S  S15  1  0.66666667  0.33333333  -0.00623674  1.0
  S  S16  1  0.09790162  0.86970188  0.30061915  1.0
  S  S17  1  0.86970188  0.77180025  0.80061915  1.0
  S  S18  1  0.77180025  0.90209838  0.30061915  1.0
  S  S19  1  0.13029812  0.22819975  0.30061915  1.0
  S  S20  1  0.90209838  0.13029812  0.80061915  1.0
  S  S21  1  0.22819975  0.09790162  0.80061915  1.0
  Al  Al22  1  0.33333333  0.66666667  0.13253718  1.0
  Al  Al23  1  0.66666667  0.33333333  0.63253718  1.0
