# generated using pymatgen
data_Ti2SiNi3
_symmetry_space_group_name_H-M   'P 1'
_cell_length_a   4.82414278
_cell_length_b   4.82414278
_cell_length_c   7.54197813
_cell_angle_alpha   90.00000000
_cell_angle_beta   90.00000000
_cell_angle_gamma   120.00000000
_symmetry_Int_Tables_number   1
_chemical_formula_structural   Ti2SiNi3
_chemical_formula_sum   'Ti4 Si2 Ni6'
_cell_volume   152.00441676
_cell_formula_units_Z   2
loop_
 _symmetry_equiv_pos_site_id
 _symmetry_equiv_pos_as_xyz
  1  'x, y, z'
loop_
 _atom_site_type_symbol
 _atom_site_label
 _atom_site_symmetry_multiplicity
 _atom_site_fract_x
 _atom_site_fract_y
 _atom_site_fract_z
 _atom_site_occupancy
  Ti  Ti0  1  0.33333333  0.66666667  0.94634379  1.0
  Ti  Ti1  1  0.33333333  0.66666667  0.55365621  1.0
  Ti  Ti2  1  0.66666667  0.33333333  0.44634379  1.0
  Ti  Ti3  1  0.66666667  0.33333333  0.05365621  1.0
  Si  Si4  1  0.00000000  0.00000000  0.50000000  1.0
  Si  Si5  1  -0.00000000  -0.00000000  0.00000000  1.0
  Ni  Ni6  1  0.16940443  0.83059557  0.25000000  1.0
  Ni  Ni7  1  0.16940443  0.33880885  0.25000000  1.0
  Ni  Ni8  1  0.83059557  0.16940443  0.75000000  1.0
  Ni  Ni9  1  0.83059557  0.66119115  0.75000000  1.0
  Ni  Ni10  1  0.66119115  0.83059557  0.25000000  1.0
  Ni  Ni11  1  0.33880885  0.16940443  0.75000000  1.0
