# generated using pymatgen
data_Zn3P2Pb3WO14
_symmetry_space_group_name_H-M   'P 1'
_cell_length_a   8.54015791
_cell_length_b   8.54015791
_cell_length_c   5.22046767
_cell_angle_alpha   90.00000000
_cell_angle_beta   90.00000000
_cell_angle_gamma   120.00000000
_symmetry_Int_Tables_number   1
_chemical_formula_structural   Zn3P2Pb3WO14
_chemical_formula_sum   'Zn3 P2 Pb3 W1 O14'
_cell_volume   329.74015974
_cell_formula_units_Z   1
loop_
 _symmetry_equiv_pos_site_id
 _symmetry_equiv_pos_as_xyz
  1  'x, y, z'
loop_
 _atom_site_type_symbol
 _atom_site_label
 _atom_site_symmetry_multiplicity
 _atom_site_fract_x
 _atom_site_fract_y
 _atom_site_fract_z
 _atom_site_occupancy
  Zn  Zn0  1  0.74667000  0.00000000  0.50000000  1.0
  Zn  Zn1  1  0.25333000  0.25333000  0.50000000  1.0
  Zn  Zn2  1  0.00000000  0.74667000  0.50000000  1.0
  P  P3  1  0.66666667  0.33333333  0.44461471  1.0
  P  P4  1  0.33333333  0.66666667  0.55538529  1.0
  Pb  Pb5  1  0.59778530  0.59778530  -0.00000000  1.0
  Pb  Pb6  1  -0.00000000  0.40221470  0.00000000  1.0
  Pb  Pb7  1  0.40221470  0.00000000  0.00000000  1.0
  W  W8  1  0.00000000  0.00000000  -0.00000000  1.0
  O  O9  1  0.78642143  0.87778233  0.21386351  1.0
  O  O10  1  0.09136090  0.21357857  0.21386351  1.0
  O  O11  1  0.12221767  0.90863910  0.21386351  1.0
  O  O12  1  0.21357857  0.09136090  0.78613649  1.0
  O  O13  1  0.87778233  0.78642143  0.78613649  1.0
  O  O14  1  0.90863910  0.12221767  0.78613649  1.0
  O  O15  1  0.66666667  0.33333333  0.73930067  1.0
  O  O16  1  0.33333333  0.66666667  0.26069933  1.0
  O  O17  1  0.71328485  0.19151668  0.32736369  1.0
  O  O18  1  0.47823183  0.28671515  0.32736369  1.0
  O  O19  1  0.80848332  0.52176817  0.32736369  1.0
  O  O20  1  0.28671515  0.47823183  0.67263631  1.0
  O  O21  1  0.19151668  0.71328485  0.67263631  1.0
  O  O22  1  0.52176817  0.80848332  0.67263631  1.0
