# generated using pymatgen
data_CsTlO
_symmetry_space_group_name_H-M   'P 1'
_cell_length_a   7.47042834
_cell_length_b   7.47042834
_cell_length_c   6.69992749
_cell_angle_alpha   74.50151212
_cell_angle_beta   105.49848788
_cell_angle_gamma   149.93971371
_symmetry_Int_Tables_number   1
_chemical_formula_structural   CsTlO
_chemical_formula_sum   'Cs2 Tl2 O2'
_cell_volume   179.98160898
_cell_formula_units_Z   2
loop_
 _symmetry_equiv_pos_site_id
 _symmetry_equiv_pos_as_xyz
  1  'x, y, z'
loop_
 _atom_site_type_symbol
 _atom_site_label
 _atom_site_symmetry_multiplicity
 _atom_site_fract_x
 _atom_site_fract_y
 _atom_site_fract_z
 _atom_site_occupancy
  Cs  Cs0  1  0.87606636  -0.87606636  0.65662640  1.0
  Cs  Cs1  1  1.12393364  -0.12393364  0.34337360  1.0
  Tl  Tl2  1  0.65124611  -0.65124611  0.85931569  1.0
  Tl  Tl3  1  1.34875389  -0.34875389  0.14068431  1.0
  O  O4  1  1.24995342  -0.24995342  0.79270051  1.0
  O  O5  1  0.75004658  -0.75004658  0.20729949  1.0
