# generated using pymatgen
data_RbAg3S2
_symmetry_space_group_name_H-M   'P 1'
_cell_length_a   8.37973515
_cell_length_b   8.37973515
_cell_length_c   9.00668838
_cell_angle_alpha   65.97445343
_cell_angle_beta   114.02554657
_cell_angle_gamma   149.93990785
_symmetry_Int_Tables_number   1
_chemical_formula_structural   RbAg3S2
_chemical_formula_sum   'Rb2 Ag6 S4'
_cell_volume   287.27259069
_cell_formula_units_Z   2
loop_
 _symmetry_equiv_pos_site_id
 _symmetry_equiv_pos_as_xyz
  1  'x, y, z'
loop_
 _atom_site_type_symbol
 _atom_site_label
 _atom_site_symmetry_multiplicity
 _atom_site_fract_x
 _atom_site_fract_y
 _atom_site_fract_z
 _atom_site_occupancy
  Rb  Rb0  1  0.13374247  -0.13374247  0.03937024  1.0
  Rb  Rb1  1  0.86625753  0.13374247  0.96062976  1.0
  Ag  Ag2  1  0.68860594  0.31139406  0.40551897  1.0
  Ag  Ag3  1  0.31139406  -0.31139406  0.59448103  1.0
  Ag  Ag4  1  0.59800174  0.40199826  0.64993410  1.0
  Ag  Ag5  1  0.40199826  -0.40199826  0.35006590  1.0
  Ag  Ag6  1  0.06139335  -0.06139335  0.40424003  1.0
  Ag  Ag7  1  0.93860665  0.06139335  0.59575997  1.0
  S  S8  1  0.19516340  -0.19516340  0.70281944  1.0
  S  S9  1  0.80483660  0.19516340  0.29718056  1.0
  S  S10  1  0.51854384  0.48145616  0.22899927  1.0
  S  S11  1  0.48145616  -0.48145616  0.77100073  1.0
