# generated using pymatgen
data_Na4Fe2(PO4)3
_symmetry_space_group_name_H-M   'P 1'
_cell_length_a   8.86376364
_cell_length_b   8.86376364
_cell_length_c   8.86376364
_cell_angle_alpha   61.65808947
_cell_angle_beta   61.65808947
_cell_angle_gamma   61.65808947
_symmetry_Int_Tables_number   1
_chemical_formula_structural   Na4Fe2(PO4)3
_chemical_formula_sum   'Na8 Fe4 P6 O24'
_cell_volume   510.73188906
_cell_formula_units_Z   2
loop_
 _symmetry_equiv_pos_site_id
 _symmetry_equiv_pos_as_xyz
  1  'x, y, z'
loop_
 _atom_site_type_symbol
 _atom_site_label
 _atom_site_symmetry_multiplicity
 _atom_site_fract_x
 _atom_site_fract_y
 _atom_site_fract_z
 _atom_site_occupancy
  Na  Na0  1  0.61709207  0.25000000  -0.11709207  1.0
  Na  Na1  1  0.11709207  0.38290793  -0.25000000  1.0
  Na  Na2  1  0.75000000  0.11709207  -0.61709207  1.0
  Na  Na3  1  0.25000000  0.88290793  -0.38290793  1.0
  Na  Na4  1  0.38290793  0.75000000  -0.88290793  1.0
  Na  Na5  1  0.88290793  -0.38290793  0.25000000  1.0
  Na  Na6  1  0.50000000  0.50000000  -0.50000000  1.0
  Na  Na7  1  0.00000000  0.00000000  0.00000000  1.0
  Fe  Fe8  1  0.34942304  0.34942304  -0.65057696  1.0
  Fe  Fe9  1  0.84942304  0.84942304  -0.15057696  1.0
  Fe  Fe10  1  1.15057696  1.15057696  0.15057696  1.0
  Fe  Fe11  1  0.65057696  0.65057696  -0.34942304  1.0
  P  P12  1  0.95285628  0.25000000  -0.45285628  1.0
  P  P13  1  0.45285628  0.04714372  -0.25000000  1.0
  P  P14  1  0.75000000  -0.54714372  0.04714372  1.0
  P  P15  1  0.25000000  0.54714372  -0.04714372  1.0
  P  P16  1  1.04714372  -0.25000000  -0.54714372  1.0
  P  P17  1  0.54714372  -0.04714372  0.25000000  1.0
  O  O18  1  1.29789254  1.51467500  0.11592204  1.0
  O  O19  1  0.79789254  -0.38407796  0.01467500  1.0
  O  O20  1  0.38407796  0.98532500  -0.79789254  1.0
  O  O21  1  0.88407796  0.70210746  -0.51467500  1.0
  O  O22  1  0.48532500  0.88407796  -0.29789254  1.0
  O  O23  1  0.98532500  0.20210746  -0.61592204  1.0
  O  O24  1  0.70210746  0.48532500  -0.11592204  1.0
  O  O25  1  0.20210746  0.38407796  -0.01467500  1.0
  O  O26  1  1.11592204  1.29789254  0.51467500  1.0
  O  O27  1  0.61592204  0.01467500  -0.20210746  1.0
  O  O28  1  1.01467500  -0.20210746  -0.38407796  1.0
  O  O29  1  1.51467500  1.11592204  0.29789254  1.0
  O  O30  1  0.22738048  0.58780571  -0.56489148  1.0
  O  O31  1  0.72738048  -0.06489148  0.08780571  1.0
  O  O32  1  1.06489148  -0.08780571  -0.72738048  1.0
  O  O33  1  0.56489148  0.77261952  -0.58780571  1.0
  O  O34  1  0.41219429  0.56489148  -0.22738048  1.0
  O  O35  1  0.91219429  -0.72738048  0.06489148  1.0
  O  O36  1  0.77261952  0.41219429  -0.43510852  1.0
  O  O37  1  0.27261952  0.06489148  -0.08780571  1.0
  O  O38  1  0.43510852  0.22738048  -0.41219429  1.0
  O  O39  1  0.93510852  0.08780571  -0.27261952  1.0
  O  O40  1  1.08780571  -0.27261952  -0.06489148  1.0
  O  O41  1  0.58780571  0.43510852  -0.77261952  1.0
