# generated using pymatgen
data_CaAl2SiO6
_symmetry_space_group_name_H-M   'P 1'
_cell_length_a   9.69072578
_cell_length_b   8.76752972
_cell_length_c   5.34284298
_cell_angle_alpha   90.00000000
_cell_angle_beta   104.84764573
_cell_angle_gamma   90.00000000
_symmetry_Int_Tables_number   1
_chemical_formula_structural   CaAl2SiO6
_chemical_formula_sum   'Ca4 Al8 Si4 O24'
_cell_volume   438.79081688
_cell_formula_units_Z   4
loop_
 _symmetry_equiv_pos_site_id
 _symmetry_equiv_pos_as_xyz
  1  'x, y, z'
loop_
 _atom_site_type_symbol
 _atom_site_label
 _atom_site_symmetry_multiplicity
 _atom_site_fract_x
 _atom_site_fract_y
 _atom_site_fract_z
 _atom_site_occupancy
  Ca  Ca0  1  0.73033673  0.43957613  -0.01885418  1.0
  Ca  Ca1  1  0.26966327  0.93957613  0.51885418  1.0
  Ca  Ca2  1  0.73033673  0.06042387  0.48114582  1.0
  Ca  Ca3  1  0.26966327  0.56042387  0.01885418  1.0
  Al  Al4  1  0.46141397  0.65325016  0.66738088  1.0
  Al  Al5  1  0.53858603  0.15325016  0.83261912  1.0
  Al  Al6  1  0.53858603  0.34674984  0.33261912  1.0
  Al  Al7  1  0.46141397  0.84674984  0.16738088  1.0
  Al  Al8  1  0.74352111  0.84095170  -0.01792614  1.0
  Al  Al9  1  0.25647889  0.34095170  0.51792614  1.0
  Al  Al10  1  0.74352111  0.65904830  0.48207386  1.0
  Al  Al11  1  0.25647889  0.15904830  0.01792614  1.0
  Si  Si12  1  0.96393314  0.15375676  0.19039140  1.0
  Si  Si13  1  0.03606686  0.65375676  0.30960860  1.0
  Si  Si14  1  0.03606686  0.84624324  0.80960860  1.0
  Si  Si15  1  0.96393314  0.34624324  0.69039140  1.0
  O  O16  1  0.65338993  0.67005791  0.76069239  1.0
  O  O17  1  0.38360849  0.47700380  0.70666953  1.0
  O  O18  1  0.38439526  0.72748584  0.36088684  1.0
  O  O19  1  0.13894941  0.16494112  0.27531531  1.0
  O  O20  1  0.88527846  0.99041217  0.17823310  1.0
  O  O21  1  0.90525977  0.24739611  0.91226106  1.0
  O  O22  1  0.86105059  0.66494112  0.22468469  1.0
  O  O23  1  0.11472154  0.49041217  0.32176690  1.0
  O  O24  1  0.09474023  0.74739611  0.58773894  1.0
  O  O25  1  0.34661007  0.17005791  0.73930761  1.0
  O  O26  1  0.61639151  0.97700380  0.79333047  1.0
  O  O27  1  0.61560474  0.22748584  0.13911316  1.0
  O  O28  1  0.86105059  0.83505888  0.72468469  1.0
  O  O29  1  0.11472154  0.00958783  0.82176690  1.0
  O  O30  1  0.09474023  0.75260389  0.08773894  1.0
  O  O31  1  0.34661007  0.32994209  0.23930761  1.0
  O  O32  1  0.61639151  0.52299620  0.29333047  1.0
  O  O33  1  0.61560474  0.27251416  0.63911316  1.0
  O  O34  1  0.65338993  0.82994209  0.26069239  1.0
  O  O35  1  0.38360849  0.02299620  0.20666953  1.0
  O  O36  1  0.38439526  0.77251416  0.86088684  1.0
  O  O37  1  0.13894941  0.33505888  0.77531531  1.0
  O  O38  1  0.88527846  0.50958783  0.67823310  1.0
  O  O39  1  0.90525977  0.25260389  0.41226106  1.0
