# generated using pymatgen
data_KLu(WO4)2
_symmetry_space_group_name_H-M   'P 1'
_cell_length_a   7.51018163
_cell_length_b   7.51018163
_cell_length_c   7.56405690
_cell_angle_alpha   61.57748604
_cell_angle_beta   118.42251396
_cell_angle_gamma   92.59222343
_symmetry_Int_Tables_number   1
_chemical_formula_structural   KLu(WO4)2
_chemical_formula_sum   'K2 Lu2 W4 O16'
_cell_volume   320.78586325
_cell_formula_units_Z   2
loop_
 _symmetry_equiv_pos_site_id
 _symmetry_equiv_pos_as_xyz
  1  'x, y, z'
loop_
 _atom_site_type_symbol
 _atom_site_label
 _atom_site_symmetry_multiplicity
 _atom_site_fract_x
 _atom_site_fract_y
 _atom_site_fract_z
 _atom_site_occupancy
  K  K0  1  0.20357550  0.20357550  0.25000000  1.0
  K  K1  1  0.79642450  0.79642450  0.75000000  1.0
  Lu  Lu2  1  0.77432208  0.77432208  0.25000000  1.0
  Lu  Lu3  1  0.22567792  0.22567792  0.75000000  1.0
  W  W4  1  0.69604193  0.30188971  0.23306710  1.0
  W  W5  1  0.69811029  0.30395807  0.73306710  1.0
  W  W6  1  1.30188971  -0.30395807  0.26693290  1.0
  W  W7  1  1.30395807  -0.30188971  0.76693290  1.0
  O  O8  1  1.59133057  -0.37166417  0.03684243  1.0
  O  O9  1  1.37166417  -0.59133057  0.53684243  1.0
  O  O10  1  0.62833583  0.59133057  0.46315757  1.0
  O  O11  1  0.40866943  0.37166417  0.96315757  1.0
  O  O12  1  0.77748769  0.04081286  0.30684712  1.0
  O  O13  1  0.95918714  0.22251231  0.80684712  1.0
  O  O14  1  1.04081286  -0.22251231  0.19315288  1.0
  O  O15  1  1.22251231  -0.04081286  0.69315288  1.0
  O  O16  1  1.36691749  -0.05923353  0.11761494  1.0
  O  O17  1  1.05923353  -0.36691749  0.61761494  1.0
  O  O18  1  0.94076647  0.36691749  0.38238506  1.0
  O  O19  1  0.63308251  0.05923353  0.88238506  1.0
  O  O20  1  0.61764785  0.23457793  0.44500420  1.0
  O  O21  1  0.76542207  0.38235215  0.94500420  1.0
  O  O22  1  1.23457793  -0.38235215  0.05499580  1.0
  O  O23  1  1.38235215  -0.23457793  0.55499580  1.0
