# generated using pymatgen
data_K3Bi2(PO4)3
_symmetry_space_group_name_H-M   'P 1'
_cell_length_a   9.76073766
_cell_length_b   9.76073766
_cell_length_c   6.95982161
_cell_angle_alpha   72.19327334
_cell_angle_beta   107.80672666
_cell_angle_gamma   91.28138191
_symmetry_Int_Tables_number   1
_chemical_formula_structural   K3Bi2(PO4)3
_chemical_formula_sum   'K6 Bi4 P6 O24'
_cell_volume   599.21193798
_cell_formula_units_Z   2
loop_
 _symmetry_equiv_pos_site_id
 _symmetry_equiv_pos_as_xyz
  1  'x, y, z'
loop_
 _atom_site_type_symbol
 _atom_site_label
 _atom_site_symmetry_multiplicity
 _atom_site_fract_x
 _atom_site_fract_y
 _atom_site_fract_z
 _atom_site_occupancy
  K  K0  1  0.77474861  0.77474861  0.25000000  1.0
  K  K1  1  0.22525139  0.22525139  0.75000000  1.0
  K  K2  1  0.50814151  0.50814151  0.25000000  1.0
  K  K3  1  0.49185849  0.49185849  0.75000000  1.0
  K  K4  1  -0.00000000  0.00000000  0.50000000  1.0
  K  K5  1  0.00000000  -0.00000000  0.00000000  1.0
  Bi  Bi6  1  1.41220611  -0.11347270  0.32890669  1.0
  Bi  Bi7  1  1.11347270  -0.41220611  0.82890669  1.0
  Bi  Bi8  1  0.88652730  0.41220611  0.17109331  1.0
  Bi  Bi9  1  0.58779389  0.11347270  0.67109331  1.0
  P  P10  1  0.63736808  0.15482557  0.13369406  1.0
  P  P11  1  0.84517443  0.36263192  0.63369406  1.0
  P  P12  1  1.15482557  -0.36263192  0.36630594  1.0
  P  P13  1  1.36263192  -0.15482557  0.86630594  1.0
  P  P14  1  0.25091924  0.25091924  0.25000000  1.0
  P  P15  1  0.74908076  0.74908076  0.75000000  1.0
  O  O16  1  0.77604082  0.08416568  0.12997076  1.0
  O  O17  1  0.91583432  0.22395918  0.62997076  1.0
  O  O18  1  1.08416568  -0.22395918  0.37002924  1.0
  O  O19  1  1.22395918  -0.08416568  0.87002924  1.0
  O  O20  1  1.48788876  -0.16759981  0.07985703  1.0
  O  O21  1  1.16759981  -0.48788876  0.57985703  1.0
  O  O22  1  0.83240019  0.48788876  0.42014297  1.0
  O  O23  1  0.51211124  0.16759981  0.92014297  1.0
  O  O24  1  0.58749355  0.06116167  0.32630775  1.0
  O  O25  1  0.93883833  0.41250645  0.82630775  1.0
  O  O26  1  1.06116167  -0.41250645  0.17369225  1.0
  O  O27  1  1.41250645  -0.06116167  0.67369225  1.0
  O  O28  1  0.65759715  0.31014190  0.15189541  1.0
  O  O29  1  0.68985810  0.34240285  0.65189541  1.0
  O  O30  1  1.31014190  -0.34240285  0.34810459  1.0
  O  O31  1  1.34240285  -0.31014190  0.84810459  1.0
  O  O32  1  0.25516751  0.11448446  0.18130071  1.0
  O  O33  1  0.88551554  0.74483249  0.68130071  1.0
  O  O34  1  1.11448446  -0.74483249  0.31869929  1.0
  O  O35  1  1.74483249  -0.11448446  0.81869929  1.0
  O  O36  1  0.38713053  0.25603361  0.44150190  1.0
  O  O37  1  0.74396639  0.61286947  0.94150190  1.0
  O  O38  1  1.25603361  -0.61286947  0.05849810  1.0
  O  O39  1  1.61286947  -0.25603361  0.55849810  1.0
