# generated using pymatgen
data_ZnCu3H6(ClO3)2
_symmetry_space_group_name_H-M   'P 1'
_cell_length_a   6.37430209
_cell_length_b   6.37430209
_cell_length_c   5.77940845
_cell_angle_alpha   90.00000000
_cell_angle_beta   90.00000000
_cell_angle_gamma   120.00000000
_symmetry_Int_Tables_number   1
_chemical_formula_structural   ZnCu3H6(ClO3)2
_chemical_formula_sum   'Zn1 Cu3 H6 Cl2 O6'
_cell_volume   203.36644802
_cell_formula_units_Z   1
loop_
 _symmetry_equiv_pos_site_id
 _symmetry_equiv_pos_as_xyz
  1  'x, y, z'
loop_
 _atom_site_type_symbol
 _atom_site_label
 _atom_site_symmetry_multiplicity
 _atom_site_fract_x
 _atom_site_fract_y
 _atom_site_fract_z
 _atom_site_occupancy
  Zn  Zn0  1  0.00000000  0.00000000  0.00000000  1.0
  Cu  Cu1  1  0.50000000  0.50000000  0.00000000  1.0
  Cu  Cu2  1  0.50000000  0.00000000  0.00000000  1.0
  Cu  Cu3  1  -0.00000000  0.50000000  0.00000000  1.0
  H  H4  1  0.40032398  0.20016199  0.31817006  1.0
  H  H5  1  0.20016199  0.40032398  0.68182994  1.0
  H  H6  1  0.20016199  0.79983801  0.68182994  1.0
  H  H7  1  0.79983801  0.20016199  0.31817006  1.0
  H  H8  1  0.79983801  0.59967602  0.31817006  1.0
  H  H9  1  0.59967602  0.79983801  0.68182994  1.0
  Cl  Cl10  1  0.33333333  0.66666667  0.38214043  1.0
  Cl  Cl11  1  0.66666667  0.33333333  0.61785957  1.0
  O  O12  1  0.35529241  0.17764620  0.15280075  1.0
  O  O13  1  0.17764620  0.35529241  0.84719925  1.0
  O  O14  1  0.17764620  0.82235380  0.84719925  1.0
  O  O15  1  0.82235380  0.17764620  0.15280075  1.0
  O  O16  1  0.82235380  0.64470759  0.15280075  1.0
  O  O17  1  0.64470759  0.82235380  0.84719925  1.0
