# generated using pymatgen
data_KZrSnF7
_symmetry_space_group_name_H-M   'P 1'
_cell_length_a   8.53742966
_cell_length_b   6.05578705
_cell_length_c   12.67205352
_cell_angle_alpha   90.00000000
_cell_angle_beta   90.00000000
_cell_angle_gamma   90.00000000
_symmetry_Int_Tables_number   1
_chemical_formula_structural   KZrSnF7
_chemical_formula_sum   'K4 Zr4 Sn4 F28'
_cell_volume   655.15601313
_cell_formula_units_Z   4
loop_
 _symmetry_equiv_pos_site_id
 _symmetry_equiv_pos_as_xyz
  1  'x, y, z'
loop_
 _atom_site_type_symbol
 _atom_site_label
 _atom_site_symmetry_multiplicity
 _atom_site_fract_x
 _atom_site_fract_y
 _atom_site_fract_z
 _atom_site_occupancy
  K  K0  1  0.75000000  0.28730030  0.25000000  1.0
  K  K1  1  0.75000000  0.71269970  0.75000000  1.0
  K  K2  1  0.25000000  0.28730030  0.25000000  1.0
  K  K3  1  0.25000000  0.71269970  0.75000000  1.0
  Zr  Zr4  1  0.00000000  0.75143465  0.08434138  1.0
  Zr  Zr5  1  0.00000000  0.24856535  0.91565862  1.0
  Zr  Zr6  1  0.50000000  0.75143465  0.41565862  1.0
  Zr  Zr7  1  0.50000000  0.24856535  0.58434138  1.0
  Sn  Sn8  1  0.00000000  0.73317133  0.40510317  1.0
  Sn  Sn9  1  0.00000000  0.26682867  0.59489683  1.0
  Sn  Sn10  1  0.50000000  0.73317133  0.09489683  1.0
  Sn  Sn11  1  0.50000000  0.26682867  0.90510317  1.0
  F  F12  1  0.76896055  0.66082663  0.10885404  1.0
  F  F13  1  0.76896055  0.33917337  0.89114596  1.0
  F  F14  1  0.26896055  0.66082663  0.39114596  1.0
  F  F15  1  0.26896055  0.33917337  0.60885404  1.0
  F  F16  1  0.23103945  0.66082663  0.10885404  1.0
  F  F17  1  0.23103945  0.33917337  0.89114596  1.0
  F  F18  1  0.73103945  0.66082663  0.39114596  1.0
  F  F19  1  0.73103945  0.33917337  0.60885404  1.0
  F  F20  1  0.00000000  0.99707388  0.19285307  1.0
  F  F21  1  0.00000000  0.00292612  0.80714693  1.0
  F  F22  1  0.50000000  0.99707388  0.30714693  1.0
  F  F23  1  0.50000000  0.00292612  0.69285307  1.0
  F  F24  1  0.00000000  0.62277632  0.58419824  1.0
  F  F25  1  0.00000000  0.37722368  0.41580176  1.0
  F  F26  1  0.50000000  0.62277632  0.91580176  1.0
  F  F27  1  0.50000000  0.37722368  0.08419824  1.0
  F  F28  1  0.00000000  0.59382637  0.23895050  1.0
  F  F29  1  0.00000000  0.40617363  0.76104950  1.0
  F  F30  1  0.50000000  0.59382637  0.26104950  1.0
  F  F31  1  0.50000000  0.40617363  0.73895050  1.0
  F  F32  1  0.00000000  0.37300480  0.07063972  1.0
  F  F33  1  0.00000000  0.62699520  0.92936028  1.0
  F  F34  1  0.50000000  0.37300480  0.42936028  1.0
  F  F35  1  0.50000000  0.62699520  0.57063972  1.0
  F  F36  1  0.85891793  -0.00000000  0.00000000  1.0
  F  F37  1  0.35891793  0.00000000  0.50000000  1.0
  F  F38  1  0.14108207  0.00000000  0.00000000  1.0
  F  F39  1  0.64108207  0.00000000  0.50000000  1.0
