# generated using pymatgen
data_CoAsS
_symmetry_space_group_name_H-M   'P 1'
_cell_length_a   5.58323513
_cell_length_b   5.58323513
_cell_length_c   5.58323513
_cell_angle_alpha   90.00000000
_cell_angle_beta   90.00000000
_cell_angle_gamma   90.00000000
_symmetry_Int_Tables_number   1
_chemical_formula_structural   CoAsS
_chemical_formula_sum   'Co4 As4 S4'
_cell_volume   174.04347808
_cell_formula_units_Z   4
loop_
 _symmetry_equiv_pos_site_id
 _symmetry_equiv_pos_as_xyz
  1  'x, y, z'
loop_
 _atom_site_type_symbol
 _atom_site_label
 _atom_site_symmetry_multiplicity
 _atom_site_fract_x
 _atom_site_fract_y
 _atom_site_fract_z
 _atom_site_occupancy
  Co  Co0  1  0.49119535  0.99119535  0.50880465  1.0
  Co  Co1  1  0.99119535  0.50880465  0.49119535  1.0
  Co  Co2  1  0.50880465  0.49119535  0.99119535  1.0
  Co  Co3  1  0.00880465  0.00880465  0.00880465  1.0
  As  As4  1  0.12173601  0.62173601  0.87826399  1.0
  As  As5  1  0.62173601  0.87826399  0.12173601  1.0
  As  As6  1  0.87826399  0.12173601  0.62173601  1.0
  As  As7  1  0.37826399  0.37826399  0.37826399  1.0
  S  S8  1  0.88116264  0.38116264  0.11883736  1.0
  S  S9  1  0.38116264  0.11883736  0.88116264  1.0
  S  S10  1  0.11883736  0.88116264  0.38116264  1.0
  S  S11  1  0.61883736  0.61883736  0.61883736  1.0
