# generated using pymatgen
data_Y(Fe2Si)2
_symmetry_space_group_name_H-M   'P 1'
_cell_length_a   7.08433440
_cell_length_b   7.08433440
_cell_length_c   3.73581890
_cell_angle_alpha   90.00000000
_cell_angle_beta   90.00000000
_cell_angle_gamma   90.00000000
_symmetry_Int_Tables_number   1
_chemical_formula_structural   Y(Fe2Si)2
_chemical_formula_sum   'Y2 Fe8 Si4'
_cell_volume   187.49250891
_cell_formula_units_Z   2
loop_
 _symmetry_equiv_pos_site_id
 _symmetry_equiv_pos_as_xyz
  1  'x, y, z'
loop_
 _atom_site_type_symbol
 _atom_site_label
 _atom_site_symmetry_multiplicity
 _atom_site_fract_x
 _atom_site_fract_y
 _atom_site_fract_z
 _atom_site_occupancy
  Y  Y0  1  0.50000000  0.50000000  0.50000000  1.0
  Y  Y1  1  0.00000000  0.00000000  0.00000000  1.0
  Fe  Fe2  1  0.35346678  0.08476398  0.50000000  1.0
  Fe  Fe3  1  0.85346678  0.41523602  0.00000000  1.0
  Fe  Fe4  1  0.91523602  0.64653322  0.50000000  1.0
  Fe  Fe5  1  0.41523602  0.85346678  0.00000000  1.0
  Fe  Fe6  1  0.64653322  0.91523602  0.50000000  1.0
  Fe  Fe7  1  0.14653322  0.58476398  0.00000000  1.0
  Fe  Fe8  1  0.08476398  0.35346678  0.50000000  1.0
  Fe  Fe9  1  0.58476398  0.14653322  0.00000000  1.0
  Si  Si10  1  0.21952148  0.78047852  0.50000000  1.0
  Si  Si11  1  0.71952148  0.71952148  0.00000000  1.0
  Si  Si12  1  0.78047852  0.21952148  0.50000000  1.0
  Si  Si13  1  0.28047852  0.28047852  0.00000000  1.0
