# generated using pymatgen
data_ZnAg2(PS3)2
_symmetry_space_group_name_H-M   'P 1'
_cell_length_a   6.31774714
_cell_length_b   6.31774714
_cell_length_c   29.05334904
_cell_angle_alpha   87.63261482
_cell_angle_beta   92.36738518
_cell_angle_gamma   60.02758409
_symmetry_Int_Tables_number   1
_chemical_formula_structural   ZnAg2(PS3)2
_chemical_formula_sum   'Zn4 Ag8 P8 S24'
_cell_volume   1001.11987702
_cell_formula_units_Z   4
loop_
 _symmetry_equiv_pos_site_id
 _symmetry_equiv_pos_as_xyz
  1  'x, y, z'
loop_
 _atom_site_type_symbol
 _atom_site_label
 _atom_site_symmetry_multiplicity
 _atom_site_fract_x
 _atom_site_fract_y
 _atom_site_fract_z
 _atom_site_occupancy
  Zn  Zn0  1  1.80356831  0.05947541  0.87510410  1.0
  Zn  Zn1  1  0.94052459  -0.80356831  0.37510410  1.0
  Zn  Zn2  1  1.05947541  0.80356831  0.62489590  1.0
  Zn  Zn3  1  0.19643169  -0.05947541  0.12489590  1.0
  Ag  Ag4  1  1.54324758  0.25363529  0.17776044  1.0
  Ag  Ag5  1  0.74636471  -0.54324758  0.67776044  1.0
  Ag  Ag6  1  1.25363529  0.54324758  0.32223956  1.0
  Ag  Ag7  1  0.45675242  -0.25363529  0.82223956  1.0
  Ag  Ag8  1  1.51684114  0.29381261  0.07179824  1.0
  Ag  Ag9  1  0.70618739  -0.51684114  0.57179824  1.0
  Ag  Ag10  1  1.29381261  0.51684114  0.42820176  1.0
  Ag  Ag11  1  0.48315886  -0.29381261  0.92820176  1.0
  P  P12  1  0.59036225  -0.12522610  0.33593478  1.0
  P  P13  1  1.12522610  0.40963775  0.83593478  1.0
  P  P14  1  0.87477390  -0.40963775  0.16406522  1.0
  P  P15  1  1.40963775  0.12522610  0.66406522  1.0
  P  P16  1  0.62027498  -0.14612413  0.41434563  1.0
  P  P17  1  1.14612413  0.37972502  0.91434563  1.0
  P  P18  1  0.85387587  -0.37972502  0.08565437  1.0
  P  P19  1  1.37972502  0.14612413  0.58565437  1.0
  S  S20  1  0.90622759  -0.09215720  0.43391763  1.0
  S  S21  1  1.09215720  0.09377241  0.93391763  1.0
  S  S22  1  0.90784280  -0.09377241  0.06608237  1.0
  S  S23  1  1.09377241  0.09215720  0.56608237  1.0
  S  S24  1  0.51004118  -0.31077529  0.06397926  1.0
  S  S25  1  1.31077529  0.48995882  0.56397926  1.0
  S  S26  1  0.68922471  -0.48995882  0.43602074  1.0
  S  S27  1  1.48995882  0.31077529  0.93602074  1.0
  S  S28  1  0.54244365  -0.13861630  0.18363728  1.0
  S  S29  1  1.13861630  0.45755635  0.68363728  1.0
  S  S30  1  0.86138370  -0.45755635  0.31636272  1.0
  S  S31  1  1.45755635  0.13861630  0.81636272  1.0
  S  S32  1  1.64290304  0.15800933  0.31429595  1.0
  S  S33  1  0.84199067  -0.64290304  0.81429595  1.0
  S  S34  1  1.15800933  0.64290304  0.18570405  1.0
  S  S35  1  0.35709696  -0.15800933  0.68570405  1.0
  S  S36  1  0.24561942  -0.06077884  0.31614520  1.0
  S  S37  1  1.06077884  0.75438058  0.81614520  1.0
  S  S38  1  0.93922116  -0.75438058  0.18385480  1.0
  S  S39  1  1.75438058  0.06077884  0.68385480  1.0
  S  S40  1  1.29038327  0.12663351  0.43405615  1.0
  S  S41  1  0.87336649  -0.29038327  0.93405615  1.0
  S  S42  1  1.12663351  0.29038327  0.06594385  1.0
  S  S43  1  0.70961673  -0.12663351  0.56594385  1.0
