# generated using pymatgen
data_CdGeO3
_symmetry_space_group_name_H-M   'P 1'
_cell_length_a   5.35312909
_cell_length_b   7.56993112
_cell_length_c   5.30111128
_cell_angle_alpha   90.00000000
_cell_angle_beta   90.00000000
_cell_angle_gamma   90.00000000
_symmetry_Int_Tables_number   1
_chemical_formula_structural   CdGeO3
_chemical_formula_sum   'Cd4 Ge4 O12'
_cell_volume   214.81597010
_cell_formula_units_Z   4
loop_
 _symmetry_equiv_pos_site_id
 _symmetry_equiv_pos_as_xyz
  1  'x, y, z'
loop_
 _atom_site_type_symbol
 _atom_site_label
 _atom_site_symmetry_multiplicity
 _atom_site_fract_x
 _atom_site_fract_y
 _atom_site_fract_z
 _atom_site_occupancy
  Cd  Cd0  1  0.03514564  0.75000000  0.50820386  1.0
  Cd  Cd1  1  0.53514564  0.75000000  0.99179614  1.0
  Cd  Cd2  1  0.96485436  0.25000000  0.49179614  1.0
  Cd  Cd3  1  0.46485436  0.25000000  0.00820386  1.0
  Ge  Ge4  1  0.50000000  0.00000000  0.50000000  1.0
  Ge  Ge5  1  0.50000000  0.50000000  0.50000000  1.0
  Ge  Ge6  1  0.00000000  0.00000000  0.00000000  1.0
  Ge  Ge7  1  0.00000000  0.50000000  0.00000000  1.0
  O  O8  1  0.28949323  0.95183737  0.79444082  1.0
  O  O9  1  0.28949323  0.54816263  0.79444082  1.0
  O  O10  1  0.78949323  0.95183737  0.70555918  1.0
  O  O11  1  0.78949323  0.54816263  0.70555918  1.0
  O  O12  1  0.71050677  0.45183737  0.20555918  1.0
  O  O13  1  0.71050677  0.04816263  0.20555918  1.0
  O  O14  1  0.21050677  0.45183737  0.29444082  1.0
  O  O15  1  0.21050677  0.04816263  0.29444082  1.0
  O  O16  1  0.97067298  0.75000000  0.09087070  1.0
  O  O17  1  0.47067298  0.75000000  0.40912930  1.0
  O  O18  1  0.02932702  0.25000000  0.90912930  1.0
  O  O19  1  0.52932702  0.25000000  0.59087070  1.0
