# generated using pymatgen
data_W3Br8
_symmetry_space_group_name_H-M   'P 1'
_cell_length_a   9.98950582
_cell_length_b   9.98950582
_cell_length_c   14.85834169
_cell_angle_alpha   90.00000000
_cell_angle_beta   90.00000000
_cell_angle_gamma   100.41500707
_symmetry_Int_Tables_number   1
_chemical_formula_structural   W3Br8
_chemical_formula_sum   'W12 Br32'
_cell_volume   1458.28826277
_cell_formula_units_Z   4
loop_
 _symmetry_equiv_pos_site_id
 _symmetry_equiv_pos_as_xyz
  1  'x, y, z'
loop_
 _atom_site_type_symbol
 _atom_site_label
 _atom_site_symmetry_multiplicity
 _atom_site_fract_x
 _atom_site_fract_y
 _atom_site_fract_z
 _atom_site_occupancy
  W  W0  1  -0.47022259  0.67529077  0.45248056  1.0
  W  W1  1  0.02977741  1.17529077  0.04751944  1.0
  W  W2  1  -0.32470923  0.52977741  0.54751944  1.0
  W  W3  1  0.17529077  1.02977741  0.95248056  1.0
  W  W4  1  0.32470923  1.47022259  0.45248056  1.0
  W  W5  1  -0.17529077  0.97022259  0.04751944  1.0
  W  W6  1  0.47022259  1.32470923  0.54751944  1.0
  W  W7  1  -0.02977741  0.82470923  0.95248056  1.0
  W  W8  1  -0.43227217  1.43227217  0.38741750  1.0
  W  W9  1  0.06772783  0.93227217  0.11258250  1.0
  W  W10  1  0.43227217  0.56772783  0.61258250  1.0
  W  W11  1  -0.06772783  1.06772783  0.88741750  1.0
  Br  Br12  1  0.36297023  1.22840585  0.39132236  1.0
  Br  Br13  1  -0.13702977  0.72840585  0.10867764  1.0
  Br  Br14  1  0.22840585  1.36297023  0.60867764  1.0
  Br  Br15  1  -0.27159415  0.86297023  0.89132236  1.0
  Br  Br16  1  -0.22840585  0.63702977  0.39132236  1.0
  Br  Br17  1  0.27159415  1.13702977  0.10867764  1.0
  Br  Br18  1  -0.36297023  0.77159415  0.60867764  1.0
  Br  Br19  1  0.13702977  1.27159415  0.89132236  1.0
  Br  Br20  1  -0.42900383  0.91298509  0.38548842  1.0
  Br  Br21  1  0.07099617  1.41298509  0.11451158  1.0
  Br  Br22  1  -0.08701491  0.57099617  0.61451158  1.0
  Br  Br23  1  0.41298509  1.07099617  0.88548842  1.0
  Br  Br24  1  0.08701491  1.42900383  0.38548842  1.0
  Br  Br25  1  -0.41298509  0.92900383  0.11451158  1.0
  Br  Br26  1  0.42900383  1.08701491  0.61451158  1.0
  Br  Br27  1  -0.07099617  0.58701491  0.88548842  1.0
  Br  Br28  1  -0.45797613  1.45797613  0.06895092  1.0
  Br  Br29  1  0.04202387  0.95797613  0.43104908  1.0
  Br  Br30  1  0.45797613  0.54202387  0.93104908  1.0
  Br  Br31  1  -0.04202387  1.04202387  0.56895092  1.0
  Br  Br32  1  -0.34365428  1.34365428  0.23940336  1.0
  Br  Br33  1  0.15634572  0.84365428  0.26059664  1.0
  Br  Br34  1  0.34365428  0.65634572  0.76059664  1.0
  Br  Br35  1  -0.15634572  1.15634572  0.73940336  1.0
  Br  Br36  1  -0.28959113  1.28959113  0.48275716  1.0
  Br  Br37  1  0.21040887  0.78959113  0.01724284  1.0
  Br  Br38  1  0.28959113  0.71040887  0.51724284  1.0
  Br  Br39  1  -0.21040887  1.21040887  0.98275716  1.0
  Br  Br40  1  -0.07706144  1.07706144  0.20364921  1.0
  Br  Br41  1  0.42293856  0.57706144  0.29635079  1.0
  Br  Br42  1  0.07706144  0.92293856  0.79635079  1.0
  Br  Br43  1  -0.42293856  1.42293856  0.70364921  1.0
