# generated using pymatgen
data_Tl2Te3O7
_symmetry_space_group_name_H-M   'P 1'
_cell_length_a   10.41344515
_cell_length_b   7.73055743
_cell_length_c   6.96093023
_cell_angle_alpha   68.62226666
_cell_angle_beta   69.88145905
_cell_angle_gamma   72.22958438
_symmetry_Int_Tables_number   1
_chemical_formula_structural   Tl2Te3O7
_chemical_formula_sum   'Tl4 Te6 O14'
_cell_volume   479.49912330
_cell_formula_units_Z   2
loop_
 _symmetry_equiv_pos_site_id
 _symmetry_equiv_pos_as_xyz
  1  'x, y, z'
loop_
 _atom_site_type_symbol
 _atom_site_label
 _atom_site_symmetry_multiplicity
 _atom_site_fract_x
 _atom_site_fract_y
 _atom_site_fract_z
 _atom_site_occupancy
  Tl  Tl0  1  0.83151241  -0.14984427  0.05479558  1.0
  Tl  Tl1  1  0.16848759  -0.85015573  -0.05479558  1.0
  Tl  Tl2  1  0.43113699  -0.94373507  0.26321525  1.0
  Tl  Tl3  1  0.56886301  -0.05626493  -0.26321525  1.0
  Te  Te4  1  0.76118375  -0.65096990  0.08836706  1.0
  Te  Te5  1  0.23881625  -0.34903010  -0.08836706  1.0
  Te  Te6  1  0.33956402  -0.49660810  0.41819095  1.0
  Te  Te7  1  0.66043598  -0.50339190  -0.41819095  1.0
  Te  Te8  1  0.99131641  -0.21059795  -0.50062854  1.0
  Te  Te9  1  0.00868359  -0.78940205  0.50062854  1.0
  O  O10  1  0.61793787  -0.53011192  0.30589049  1.0
  O  O11  1  0.38206213  -0.46988808  -0.30589049  1.0
  O  O12  1  0.36905627  -0.76688446  0.54045848  1.0
  O  O13  1  0.63094373  -0.23311554  -0.54045848  1.0
  O  O14  1  0.67137856  -0.85056149  0.13418716  1.0
  O  O15  1  0.32862144  -0.14943851  -0.13418716  1.0
  O  O16  1  0.95240831  -0.82992761  -0.19401413  1.0
  O  O17  1  0.04759169  -0.17007239  0.19401413  1.0
  O  O18  1  0.69290002  -0.45171385  -0.15071878  1.0
  O  O19  1  0.30709998  -0.54828615  0.15071878  1.0
  O  O20  1  0.87916208  -0.90542835  -0.54580022  1.0
  O  O21  1  0.12083792  -0.09457165  0.54580022  1.0
  O  O22  1  0.86705892  -0.53210423  -0.56875968  1.0
  O  O23  1  0.13294108  -0.46789577  0.56875968  1.0
