# generated using pymatgen
data_Ba3GeO
_symmetry_space_group_name_H-M   'P 1'
_cell_length_a   7.72215369
_cell_length_b   10.85168965
_cell_length_c   7.58687041
_cell_angle_alpha   90.00000000
_cell_angle_beta   90.00000000
_cell_angle_gamma   90.00000000
_symmetry_Int_Tables_number   1
_chemical_formula_structural   Ba3GeO
_chemical_formula_sum   'Ba12 Ge4 O4'
_cell_volume   635.76771768
_cell_formula_units_Z   4
loop_
 _symmetry_equiv_pos_site_id
 _symmetry_equiv_pos_as_xyz
  1  'x, y, z'
loop_
 _atom_site_type_symbol
 _atom_site_label
 _atom_site_symmetry_multiplicity
 _atom_site_fract_x
 _atom_site_fract_y
 _atom_site_fract_z
 _atom_site_occupancy
  Ba  Ba0  1  0.28801274  0.95975659  0.78854156  1.0
  Ba  Ba1  1  0.28801274  0.54024341  0.78854156  1.0
  Ba  Ba2  1  0.78801274  0.95975659  0.71145844  1.0
  Ba  Ba3  1  0.78801274  0.54024341  0.71145844  1.0
  Ba  Ba4  1  0.71198726  0.45975659  0.21145844  1.0
  Ba  Ba5  1  0.71198726  0.04024341  0.21145844  1.0
  Ba  Ba6  1  0.21198726  0.45975659  0.28854156  1.0
  Ba  Ba7  1  0.21198726  0.04024341  0.28854156  1.0
  Ba  Ba8  1  0.98158356  0.75000000  0.07717661  1.0
  Ba  Ba9  1  0.48158356  0.75000000  0.42282339  1.0
  Ba  Ba10  1  0.01841644  0.25000000  0.92282339  1.0
  Ba  Ba11  1  0.51841644  0.25000000  0.57717661  1.0
  Ge  Ge12  1  0.03736913  0.75000000  0.51225488  1.0
  Ge  Ge13  1  0.53736913  0.75000000  0.98774512  1.0
  Ge  Ge14  1  0.96263087  0.25000000  0.48774512  1.0
  Ge  Ge15  1  0.46263087  0.25000000  0.01225488  1.0
  O  O16  1  0.50000000  0.00000000  0.50000000  1.0
  O  O17  1  0.50000000  0.50000000  0.50000000  1.0
  O  O18  1  0.00000000  0.00000000  0.00000000  1.0
  O  O19  1  0.00000000  0.50000000  0.00000000  1.0
