# generated using pymatgen
data_YH2C4O9
_symmetry_space_group_name_H-M   'P 1'
_cell_length_a   8.75475579
_cell_length_b   8.75475579
_cell_length_c   12.46348490
_cell_angle_alpha   90.00000000
_cell_angle_beta   90.00000000
_cell_angle_gamma   90.00000000
_symmetry_Int_Tables_number   1
_chemical_formula_structural   YH2C4O9
_chemical_formula_sum   'Y4 H8 C16 O36'
_cell_volume   955.27313421
_cell_formula_units_Z   4
loop_
 _symmetry_equiv_pos_site_id
 _symmetry_equiv_pos_as_xyz
  1  'x, y, z'
loop_
 _atom_site_type_symbol
 _atom_site_label
 _atom_site_symmetry_multiplicity
 _atom_site_fract_x
 _atom_site_fract_y
 _atom_site_fract_z
 _atom_site_occupancy
  O  O0  1  0.41546773  0.20640171  0.93215178  1.0
  O  O1  1  0.58453227  0.79359829  0.93215178  1.0
  O  O2  1  0.70640171  0.08453227  0.43215178  1.0
  O  O3  1  0.29359829  0.91546773  0.43215178  1.0
  O  O4  1  0.08453227  0.29359829  0.56784822  1.0
  O  O5  1  0.91546773  0.70640171  0.56784822  1.0
  O  O6  1  0.79359829  0.41546773  0.06784822  1.0
  O  O7  1  0.20640171  0.58453227  0.06784822  1.0
  O  O8  1  0.08463566  0.29961519  0.07746705  1.0
  O  O9  1  0.91536434  0.70038481  0.07746705  1.0
  O  O10  1  0.79961519  0.41536434  0.57746705  1.0
  O  O11  1  0.20038481  0.58463566  0.57746705  1.0
  O  O12  1  0.41536434  0.20038481  0.42253295  1.0
  O  O13  1  0.58463566  0.79961519  0.42253295  1.0
  O  O14  1  0.70038481  0.08463566  0.92253295  1.0
  O  O15  1  0.29961519  0.91536434  0.92253295  1.0
  O  O16  1  0.00000000  0.50000000  0.76291054  1.0
  O  O17  1  0.00000000  0.50000000  0.26291054  1.0
  O  O18  1  0.50000000  0.00000000  0.73708946  1.0
  O  O19  1  0.50000000  0.00000000  0.23708946  1.0
  O  O20  1  0.27143360  0.12617523  0.11197196  1.0
  O  O21  1  0.72856640  0.87382477  0.11197196  1.0
  O  O22  1  0.62617523  0.22856640  0.61197196  1.0
  O  O23  1  0.37382477  0.77143360  0.61197196  1.0
  O  O24  1  0.22856640  0.37382477  0.38802804  1.0
  O  O25  1  0.77143360  0.62617523  0.38802804  1.0
  O  O26  1  0.87382477  0.27143360  0.88802804  1.0
  O  O27  1  0.12617523  0.72856640  0.88802804  1.0
  O  O28  1  0.22533640  0.37361614  0.89290373  1.0
  O  O29  1  0.77466360  0.62638386  0.89290373  1.0
  O  O30  1  0.87361614  0.27466360  0.39290373  1.0
  O  O31  1  0.12638386  0.72533640  0.39290373  1.0
  O  O32  1  0.27466360  0.12638386  0.60709627  1.0
  O  O33  1  0.72533640  0.87361614  0.60709627  1.0
  O  O34  1  0.62638386  0.22533640  0.10709627  1.0
  O  O35  1  0.37361614  0.77466360  0.10709627  1.0
  H  H36  1  0.08378586  0.53267244  0.71645538  1.0
  H  H37  1  0.91621414  0.46732756  0.71645538  1.0
  H  H38  1  1.03267244  0.41621414  0.21645538  1.0
  H  H39  1  -0.03267244  0.58378586  0.21645538  1.0
  H  H40  1  0.41621414  -0.03267244  0.78354462  1.0
  H  H41  1  0.58378586  1.03267244  0.78354462  1.0
  H  H42  1  0.46732756  0.08378586  0.28354462  1.0
  H  H43  1  0.53267244  0.91621414  0.28354462  1.0
  Y  Y44  1  0.00000000  0.50000000  0.95184888  1.0
  Y  Y45  1  0.00000000  0.50000000  0.45184888  1.0
  Y  Y46  1  0.50000000  0.00000000  0.54815112  1.0
  Y  Y47  1  0.50000000  0.00000000  0.04815112  1.0
  C  C48  1  0.29287675  0.27496294  0.94702956  1.0
  C  C49  1  0.70712325  0.72503706  0.94702956  1.0
  C  C50  1  0.77496294  0.20712325  0.44702956  1.0
  C  C51  1  0.22503706  0.79287675  0.44702956  1.0
  C  C52  1  0.20712325  0.22503706  0.55297044  1.0
  C  C53  1  0.79287675  0.77496294  0.55297044  1.0
  C  C54  1  0.72503706  0.29287675  0.05297044  1.0
  C  C55  1  0.27496294  0.70712325  0.05297044  1.0
  C  C56  1  0.20528149  0.22753999  0.05961701  1.0
  C  C57  1  0.79471851  0.77246001  0.05961701  1.0
  C  C58  1  0.72753999  0.29471851  0.55961701  1.0
  C  C59  1  0.27246001  0.70528149  0.55961701  1.0
  C  C60  1  0.29471851  0.27246001  0.44038299  1.0
  C  C61  1  0.70528149  0.72753999  0.44038299  1.0
  C  C62  1  0.77246001  0.20528149  0.94038299  1.0
  C  C63  1  0.22753999  0.79471851  0.94038299  1.0
