# generated using pymatgen
data_V2CuO6
_symmetry_space_group_name_H-M   'P 1'
_cell_length_a   5.14814941
_cell_length_b   5.14814941
_cell_length_c   6.79363698
_cell_angle_alpha   80.04786820
_cell_angle_beta   99.95213180
_cell_angle_gamma   139.22006825
_symmetry_Int_Tables_number   1
_chemical_formula_structural   V2CuO6
_chemical_formula_sum   'V2 Cu1 O6'
_cell_volume   115.58748000
_cell_formula_units_Z   1
loop_
 _symmetry_equiv_pos_site_id
 _symmetry_equiv_pos_as_xyz
  1  'x, y, z'
loop_
 _atom_site_type_symbol
 _atom_site_label
 _atom_site_symmetry_multiplicity
 _atom_site_fract_x
 _atom_site_fract_y
 _atom_site_fract_z
 _atom_site_occupancy
  V  V0  1  0.76960500  0.23439398  0.31494710  1.0
  V  V1  1  0.23439398  -0.23039500  0.68505290  1.0
  O  O2  1  0.92172578  0.08225870  0.22928838  1.0
  O  O3  1  1.08225870  0.92172578  0.77071162  1.0
  O  O4  1  0.73950854  0.26448946  0.60257412  1.0
  O  O5  1  1.26448946  0.73950854  0.39742588  1.0
  O  O6  1  0.63438218  0.36964881  0.12292169  1.0
  O  O7  1  1.36964881  0.63438218  0.87707831  1.0
  Cu  Cu8  1  0.00198756  0.00198756  -0.00000000  1.0
