# generated using pymatgen
data_SO3
_symmetry_space_group_name_H-M   'P 1'
_cell_length_a   6.65906734
_cell_length_b   4.19579481
_cell_length_c   10.31256672
_cell_angle_alpha   90.00000000
_cell_angle_beta   109.94569461
_cell_angle_gamma   90.00000000
_symmetry_Int_Tables_number   1
_chemical_formula_structural   SO3
_chemical_formula_sum   'S4 O12'
_cell_volume   270.85062114
_cell_formula_units_Z   4
loop_
 _symmetry_equiv_pos_site_id
 _symmetry_equiv_pos_as_xyz
  1  'x, y, z'
loop_
 _atom_site_type_symbol
 _atom_site_label
 _atom_site_symmetry_multiplicity
 _atom_site_fract_x
 _atom_site_fract_y
 _atom_site_fract_z
 _atom_site_occupancy
  S  S0  1  0.83424331  0.47537844  0.20904752  1.0
  S  S1  1  0.83424331  0.02462156  0.70904752  1.0
  S  S2  1  0.16575669  0.97537844  0.29095248  1.0
  S  S3  1  0.16575669  0.52462156  0.79095248  1.0
  O  O4  1  0.99473064  0.22570815  0.32173082  1.0
  O  O5  1  0.99473064  0.27429185  0.82173082  1.0
  O  O6  1  0.00526936  0.72570815  0.17826918  1.0
  O  O7  1  0.00526936  0.77429185  0.67826918  1.0
  O  O8  1  0.73894042  0.31993942  0.07971864  1.0
  O  O9  1  0.73894042  0.18006058  0.57971864  1.0
  O  O10  1  0.26105958  0.81993942  0.42028136  1.0
  O  O11  1  0.26105958  0.68006058  0.92028136  1.0
  O  O12  1  0.27691059  0.13085771  0.21283364  1.0
  O  O13  1  0.27691059  0.36914229  0.71283364  1.0
  O  O14  1  0.72308941  0.63085771  0.28716636  1.0
  O  O15  1  0.72308941  0.86914229  0.78716636  1.0
