# generated using pymatgen
data_GdSiPt2
_symmetry_space_group_name_H-M   'P 1'
_cell_length_a   7.41086251
_cell_length_b   6.96502398
_cell_length_c   5.56910574
_cell_angle_alpha   90.00000000
_cell_angle_beta   90.00000000
_cell_angle_gamma   90.00000000
_symmetry_Int_Tables_number   1
_chemical_formula_structural   GdSiPt2
_chemical_formula_sum   'Gd4 Si4 Pt8'
_cell_volume   287.45961292
_cell_formula_units_Z   4
loop_
 _symmetry_equiv_pos_site_id
 _symmetry_equiv_pos_as_xyz
  1  'x, y, z'
loop_
 _atom_site_type_symbol
 _atom_site_label
 _atom_site_symmetry_multiplicity
 _atom_site_fract_x
 _atom_site_fract_y
 _atom_site_fract_z
 _atom_site_occupancy
  Gd  Gd0  1  0.97339555  0.25000000  0.63574009  1.0
  Gd  Gd1  1  0.47339555  0.25000000  0.86425991  1.0
  Gd  Gd2  1  0.02660445  0.75000000  0.36425991  1.0
  Gd  Gd3  1  0.52660445  0.75000000  0.13574009  1.0
  Si  Si4  1  0.62204328  0.25000000  0.36270460  1.0
  Si  Si5  1  0.12204328  0.25000000  0.13729540  1.0
  Si  Si6  1  0.37795672  0.75000000  0.63729540  1.0
  Si  Si7  1  0.87795672  0.75000000  0.86270460  1.0
  Pt  Pt8  1  0.82089345  0.44871727  0.09189577  1.0
  Pt  Pt9  1  0.82089345  0.05128273  0.09189577  1.0
  Pt  Pt10  1  0.32089345  0.44871727  0.40810423  1.0
  Pt  Pt11  1  0.32089345  0.05128273  0.40810423  1.0
  Pt  Pt12  1  0.17910655  0.94871727  0.90810423  1.0
  Pt  Pt13  1  0.17910655  0.55128273  0.90810423  1.0
  Pt  Pt14  1  0.67910655  0.94871727  0.59189577  1.0
  Pt  Pt15  1  0.67910655  0.55128273  0.59189577  1.0
