# generated using pymatgen
data_ZrSiO4
_symmetry_space_group_name_H-M   'P 1'
_cell_length_a   5.60010108
_cell_length_b   5.60010108
_cell_length_c   5.60010108
_cell_angle_alpha   106.83759693
_cell_angle_beta   106.83759693
_cell_angle_gamma   114.87753650
_symmetry_Int_Tables_number   1
_chemical_formula_structural   ZrSiO4
_chemical_formula_sum   'Zr2 Si2 O8'
_cell_volume   134.28518914
_cell_formula_units_Z   2
loop_
 _symmetry_equiv_pos_site_id
 _symmetry_equiv_pos_as_xyz
  1  'x, y, z'
loop_
 _atom_site_type_symbol
 _atom_site_label
 _atom_site_symmetry_multiplicity
 _atom_site_fract_x
 _atom_site_fract_y
 _atom_site_fract_z
 _atom_site_occupancy
  Zr  Zr0  1  0.25000000  0.75000000  0.50000000  1.0
  Zr  Zr1  1  0.50000000  0.50000000  0.00000000  1.0
  Si  Si2  1  0.00000000  0.00000000  0.00000000  1.0
  Si  Si3  1  0.75000000  1.25000000  0.50000000  1.0
  O  O4  1  0.18044251  0.99647067  0.81602816  1.0
  O  O5  1  0.74647067  0.43044251  0.31602816  1.0
  O  O6  1  1.11441434  1.43044251  0.68397184  1.0
  O  O7  1  0.18044251  0.36441434  0.18397184  1.0
  O  O8  1  0.56955749  1.25352933  0.68397184  1.0
  O  O9  1  1.00352933  0.81955749  1.18397184  1.0
  O  O10  1  1.63558566  0.81955749  0.81602816  1.0
  O  O11  1  0.56955749  0.88558566  0.31602816  1.0
