# generated using pymatgen
data_Nb4Ni2C
_symmetry_space_group_name_H-M   'P 1'
_cell_length_a   8.27042022
_cell_length_b   8.27042022
_cell_length_c   8.27042022
_cell_angle_alpha   60.00000000
_cell_angle_beta   60.00000000
_cell_angle_gamma   60.00000000
_symmetry_Int_Tables_number   1
_chemical_formula_structural   Nb4Ni2C
_chemical_formula_sum   'Nb16 Ni8 C4'
_cell_volume   400.00712930
_cell_formula_units_Z   4
loop_
 _symmetry_equiv_pos_site_id
 _symmetry_equiv_pos_as_xyz
  1  'x, y, z'
loop_
 _atom_site_type_symbol
 _atom_site_label
 _atom_site_symmetry_multiplicity
 _atom_site_fract_x
 _atom_site_fract_y
 _atom_site_fract_z
 _atom_site_occupancy
  Nb  Nb0  1  1.12500000  0.62500000  0.62500000  1.0
  Nb  Nb1  1  0.62500000  1.12500000  -0.37500000  1.0
  Nb  Nb2  1  -0.37500000  0.62500000  1.12500000  1.0
  Nb  Nb3  1  -0.37500000  0.62500000  0.62500000  1.0
  Nb  Nb4  1  0.81641353  0.81641353  -0.81641353  1.0
  Nb  Nb5  1  0.18358647  1.18358647  -0.18358647  1.0
  Nb  Nb6  1  0.81641353  -0.81641353  0.81641353  1.0
  Nb  Nb7  1  0.18358647  -0.18358647  0.18358647  1.0
  Nb  Nb8  1  -0.81641353  0.81641353  0.81641353  1.0
  Nb  Nb9  1  -0.18358647  0.18358647  0.18358647  1.0
  Nb  Nb10  1  0.43358647  1.43358647  0.06641353  1.0
  Nb  Nb11  1  0.06641353  0.06641353  0.43358647  1.0
  Nb  Nb12  1  0.43358647  1.06641353  0.43358647  1.0
  Nb  Nb13  1  0.06641353  1.43358647  0.06641353  1.0
  Nb  Nb14  1  0.06641353  1.43358647  0.43358647  1.0
  Nb  Nb15  1  0.43358647  1.06641353  0.06641353  1.0
  Ni  Ni16  1  -0.26116249  0.42038750  0.42038750  1.0
  Ni  Ni17  1  0.42038750  -0.26116249  0.42038750  1.0
  Ni  Ni18  1  0.42038750  1.42038750  -0.26116249  1.0
  Ni  Ni19  1  0.42038750  1.42038750  0.42038750  1.0
  Ni  Ni20  1  0.51116249  0.82961250  -0.17038750  1.0
  Ni  Ni21  1  0.82961250  0.51116249  0.82961250  1.0
  Ni  Ni22  1  0.82961250  0.82961250  -0.48883751  1.0
  Ni  Ni23  1  0.82961250  0.82961250  0.82961250  1.0
  C  C24  1  0.62500000  1.12500000  0.12500000  1.0
  C  C25  1  0.12500000  1.62500000  0.12500000  1.0
  C  C26  1  0.12500000  0.12500000  1.62500000  1.0
  C  C27  1  0.12500000  0.12500000  0.12500000  1.0
