# generated using pymatgen
data_Rb3B12Br
_symmetry_space_group_name_H-M   'P 1'
_cell_length_a   6.80016141
_cell_length_b   6.80016141
_cell_length_c   6.80016140
_cell_angle_alpha   90.21592661
_cell_angle_beta   90.21592661
_cell_angle_gamma   90.21592660
_symmetry_Int_Tables_number   1
_chemical_formula_structural   Rb3B12Br
_chemical_formula_sum   'Rb3 B12 Br1'
_cell_volume   314.44767467
_cell_formula_units_Z   1
loop_
 _symmetry_equiv_pos_site_id
 _symmetry_equiv_pos_as_xyz
  1  'x, y, z'
loop_
 _atom_site_type_symbol
 _atom_site_label
 _atom_site_symmetry_multiplicity
 _atom_site_fract_x
 _atom_site_fract_y
 _atom_site_fract_z
 _atom_site_occupancy
  Rb  Rb0  1  1.00000000  -0.50000000  0.00000000  1.0
  Rb  Rb1  1  1.00000000  0.00000000  -0.50000000  1.0
  Rb  Rb2  1  0.50000000  -0.00000000  0.00000000  1.0
  B  B3  1  1.55067811  0.55067811  -0.26964385  1.0
  B  B4  1  1.55067811  -0.26964385  0.55067811  1.0
  B  B5  1  1.26964385  0.44932189  -0.55067811  1.0
  B  B6  1  0.44932189  1.26964385  -0.55067811  1.0
  B  B7  1  0.44932189  0.44932189  0.26964385  1.0
  B  B8  1  0.73035615  0.55067811  0.55067811  1.0
  B  B9  1  1.37604501  0.37604501  -0.33107138  1.0
  B  B10  1  1.37604501  -0.33107138  0.37604501  1.0
  B  B11  1  1.33107138  0.62395499  -0.37604501  1.0
  B  B12  1  0.62395499  1.33107138  -0.37604501  1.0
  B  B13  1  0.62395499  0.62395499  0.33107138  1.0
  B  B14  1  0.66892862  0.37604501  0.37604501  1.0
  Br  Br15  1  -0.00000000  -0.00000000  -0.00000000  1.0
