# generated using pymatgen
data_Ba4Al
_symmetry_space_group_name_H-M   'P 1'
_cell_length_a   9.55526739
_cell_length_b   9.55526739
_cell_length_c   9.55526739
_cell_angle_alpha   60.00000000
_cell_angle_beta   60.00000000
_cell_angle_gamma   60.00000000
_symmetry_Int_Tables_number   1
_chemical_formula_structural   Ba4Al
_chemical_formula_sum   'Ba8 Al2'
_cell_volume   616.89824693
_cell_formula_units_Z   2
loop_
 _symmetry_equiv_pos_site_id
 _symmetry_equiv_pos_as_xyz
  1  'x, y, z'
loop_
 _atom_site_type_symbol
 _atom_site_label
 _atom_site_symmetry_multiplicity
 _atom_site_fract_x
 _atom_site_fract_y
 _atom_site_fract_z
 _atom_site_occupancy
  Ba  Ba0  1  -0.11329626  0.88670374  0.33988879  1.0
  Ba  Ba1  1  0.88670374  -0.66011121  0.88670374  1.0
  Ba  Ba2  1  0.36329626  0.36329626  0.36329626  1.0
  Ba  Ba3  1  -0.08988879  0.36329626  0.36329626  1.0
  Ba  Ba4  1  -0.66011121  0.88670374  0.88670374  1.0
  Ba  Ba5  1  0.88670374  -0.11329626  0.88670374  1.0
  Ba  Ba6  1  0.36329626  -0.08988879  0.36329626  1.0
  Ba  Ba7  1  0.36329626  0.36329626  -0.08988879  1.0
  Al  Al8  1  0.50000000  0.50000000  -0.50000000  1.0
  Al  Al9  1  0.75000000  -0.25000000  0.75000000  1.0
