# generated using pymatgen
data_Sr2ZnSi2O7
_symmetry_space_group_name_H-M   'P 1'
_cell_length_a   8.08684964
_cell_length_b   8.08684964
_cell_length_c   5.22455766
_cell_angle_alpha   90.00000000
_cell_angle_beta   90.00000000
_cell_angle_gamma   90.00000000
_symmetry_Int_Tables_number   1
_chemical_formula_structural   Sr2ZnSi2O7
_chemical_formula_sum   'Sr4 Zn2 Si4 O14'
_cell_volume   341.67111395
_cell_formula_units_Z   2
loop_
 _symmetry_equiv_pos_site_id
 _symmetry_equiv_pos_as_xyz
  1  'x, y, z'
loop_
 _atom_site_type_symbol
 _atom_site_label
 _atom_site_symmetry_multiplicity
 _atom_site_fract_x
 _atom_site_fract_y
 _atom_site_fract_z
 _atom_site_occupancy
  Sr  Sr0  1  0.83358555  0.33358555  0.49322642  1.0
  Sr  Sr1  1  0.66641445  0.83358555  0.50677358  1.0
  Sr  Sr2  1  0.16641445  0.66641445  0.49322642  1.0
  Sr  Sr3  1  0.33358555  0.16641445  0.50677358  1.0
  Zn  Zn4  1  0.50000000  0.50000000  0.00000000  1.0
  Zn  Zn5  1  0.00000000  0.00000000  0.00000000  1.0
  Si  Si6  1  0.36136451  0.86136451  0.05328287  1.0
  Si  Si7  1  0.13863549  0.36136451  0.94671713  1.0
  Si  Si8  1  0.63863549  0.13863549  0.05328287  1.0
  Si  Si9  1  0.86136451  0.63863549  0.94671713  1.0
  O  O10  1  0.00000000  0.50000000  0.83668499  1.0
  O  O11  1  0.50000000  0.00000000  0.16331501  1.0
  O  O12  1  0.30949099  0.41976839  0.79971604  1.0
  O  O13  1  0.19050901  0.91976839  0.20028396  1.0
  O  O14  1  0.58023161  0.30949099  0.20028396  1.0
  O  O15  1  0.91976839  0.80949099  0.79971604  1.0
  O  O16  1  0.69050901  0.58023161  0.79971604  1.0
  O  O17  1  0.80949099  0.08023161  0.20028396  1.0
  O  O18  1  0.41976839  0.69050901  0.20028396  1.0
  O  O19  1  0.08023161  0.19050901  0.79971604  1.0
  O  O20  1  0.36035481  0.86035481  0.74399546  1.0
  O  O21  1  0.13964519  0.36035481  0.25600454  1.0
  O  O22  1  0.63964519  0.13964519  0.74399546  1.0
  O  O23  1  0.86035481  0.63964519  0.25600454  1.0
