# generated using pymatgen
data_InOF2
_symmetry_space_group_name_H-M   'P 1'
_cell_length_a   4.23668369
_cell_length_b   4.23668369
_cell_length_c   4.24630631
_cell_angle_alpha   90.00314506
_cell_angle_beta   89.99685494
_cell_angle_gamma   90.06337408
_symmetry_Int_Tables_number   1
_chemical_formula_structural   InOF2
_chemical_formula_sum   'In1 O1 F2'
_cell_volume   76.21898009
_cell_formula_units_Z   1
loop_
 _symmetry_equiv_pos_site_id
 _symmetry_equiv_pos_as_xyz
  1  'x, y, z'
loop_
 _atom_site_type_symbol
 _atom_site_label
 _atom_site_symmetry_multiplicity
 _atom_site_fract_x
 _atom_site_fract_y
 _atom_site_fract_z
 _atom_site_occupancy
  In  In0  1  0.00224469  0.00224469  0.00000000  1.0
  O  O1  1  0.00220841  0.00220841  0.50000000  1.0
  F  F2  1  1.00231943  0.50222747  0.99920618  1.0
  F  F3  1  1.50222747  0.00231943  0.00079382  1.0
