# generated using pymatgen
data_Y2Al3Fe14
_symmetry_space_group_name_H-M   'P 1'
_cell_length_a   8.55685154
_cell_length_b   8.55685154
_cell_length_c   8.19578752
_cell_angle_alpha   90.00000000
_cell_angle_beta   90.00000000
_cell_angle_gamma   120.00000000
_symmetry_Int_Tables_number   1
_chemical_formula_structural   Y2Al3Fe14
_chemical_formula_sum   'Y4 Al6 Fe28'
_cell_volume   519.69593101
_cell_formula_units_Z   2
loop_
 _symmetry_equiv_pos_site_id
 _symmetry_equiv_pos_as_xyz
  1  'x, y, z'
loop_
 _atom_site_type_symbol
 _atom_site_label
 _atom_site_symmetry_multiplicity
 _atom_site_fract_x
 _atom_site_fract_y
 _atom_site_fract_z
 _atom_site_occupancy
  Y  Y0  1  -0.00000000  -0.00000000  0.25000000  1.0
  Y  Y1  1  0.00000000  0.00000000  0.75000000  1.0
  Y  Y2  1  0.33333333  0.66666667  0.75000000  1.0
  Y  Y3  1  0.66666667  0.33333333  0.25000000  1.0
  Al  Al4  1  0.50000000  0.50000000  0.50000000  1.0
  Al  Al5  1  0.50000000  0.00000000  0.50000000  1.0
  Al  Al6  1  -0.00000000  0.50000000  0.50000000  1.0
  Al  Al7  1  0.50000000  0.50000000  -0.00000000  1.0
  Al  Al8  1  0.50000000  -0.00000000  -0.00000000  1.0
  Al  Al9  1  -0.00000000  0.50000000  0.00000000  1.0
  Fe  Fe10  1  0.33333333  0.66666667  0.38868446  1.0
  Fe  Fe11  1  0.66666667  0.33333333  0.61131554  1.0
  Fe  Fe12  1  0.66666667  0.33333333  0.88868446  1.0
  Fe  Fe13  1  0.33333333  0.66666667  0.11131554  1.0
  Fe  Fe14  1  0.32153631  0.35065100  0.25000000  1.0
  Fe  Fe15  1  0.64934900  0.97088531  0.25000000  1.0
  Fe  Fe16  1  0.02911469  0.67846369  0.25000000  1.0
  Fe  Fe17  1  0.64934900  0.67846369  0.25000000  1.0
  Fe  Fe18  1  0.02911469  0.35065100  0.25000000  1.0
  Fe  Fe19  1  0.32153631  0.97088531  0.25000000  1.0
  Fe  Fe20  1  0.67846369  0.64934900  0.75000000  1.0
  Fe  Fe21  1  0.35065100  0.02911469  0.75000000  1.0
  Fe  Fe22  1  0.97088531  0.32153631  0.75000000  1.0
  Fe  Fe23  1  0.35065100  0.32153631  0.75000000  1.0
  Fe  Fe24  1  0.97088531  0.64934900  0.75000000  1.0
  Fe  Fe25  1  0.67846369  0.02911469  0.75000000  1.0
  Fe  Fe26  1  0.16629246  0.83370754  0.51322246  1.0
  Fe  Fe27  1  0.16629246  0.33258493  0.51322246  1.0
  Fe  Fe28  1  0.66741507  0.83370754  0.51322246  1.0
  Fe  Fe29  1  0.83370754  0.16629246  0.48677754  1.0
  Fe  Fe30  1  0.83370754  0.66741507  0.48677754  1.0
  Fe  Fe31  1  0.33258493  0.16629246  0.48677754  1.0
  Fe  Fe32  1  0.83370754  0.16629246  0.01322246  1.0
  Fe  Fe33  1  0.83370754  0.66741507  0.01322246  1.0
  Fe  Fe34  1  0.33258493  0.16629246  0.01322246  1.0
  Fe  Fe35  1  0.16629246  0.83370754  -0.01322246  1.0
  Fe  Fe36  1  0.16629246  0.33258493  -0.01322246  1.0
  Fe  Fe37  1  0.66741507  0.83370754  -0.01322246  1.0
