# generated using pymatgen
data_PI3
_symmetry_space_group_name_H-M   'P 1'
_cell_length_a   7.47469592
_cell_length_b   7.47469592
_cell_length_c   8.18088273
_cell_angle_alpha   90.00000000
_cell_angle_beta   90.00000000
_cell_angle_gamma   120.00000000
_symmetry_Int_Tables_number   1
_chemical_formula_structural   PI3
_chemical_formula_sum   'P2 I6'
_cell_volume   395.83834190
_cell_formula_units_Z   2
loop_
 _symmetry_equiv_pos_site_id
 _symmetry_equiv_pos_as_xyz
  1  'x, y, z'
loop_
 _atom_site_type_symbol
 _atom_site_label
 _atom_site_symmetry_multiplicity
 _atom_site_fract_x
 _atom_site_fract_y
 _atom_site_fract_z
 _atom_site_occupancy
  P  P0  1  0.33333333  0.66666667  0.01313433  1.0
  P  P1  1  0.66666667  0.33333333  0.51313433  1.0
  I  I2  1  0.28984474  0.94502266  0.14162189  1.0
  I  I3  1  0.94502266  0.65517792  0.64162189  1.0
  I  I4  1  0.65517792  0.71015526  0.14162189  1.0
  I  I5  1  0.05497734  0.34482208  0.14162189  1.0
  I  I6  1  0.71015526  0.05497734  0.64162189  1.0
  I  I7  1  0.34482208  0.28984474  0.64162189  1.0
