# generated using pymatgen
data_K2TeCl6
_symmetry_space_group_name_H-M   'P 1'
_cell_length_a   8.66631730
_cell_length_b   7.16869169
_cell_length_c   12.10819284
_cell_angle_alpha   90.00000000
_cell_angle_beta   90.00000000
_cell_angle_gamma   90.00000000
_symmetry_Int_Tables_number   1
_chemical_formula_structural   K2TeCl6
_chemical_formula_sum   'K2 Te1 Cl6'
_cell_volume   752.23548773
_cell_formula_units_Z   1
loop_
 _symmetry_equiv_pos_site_id
 _symmetry_equiv_pos_as_xyz
  1  'x, y, z'
loop_
 _atom_site_type_symbol
 _atom_site_label
 _atom_site_symmetry_multiplicity
 _atom_site_fract_x
 _atom_site_fract_y
 _atom_site_fract_z
 _atom_site_occupancy
  K  K0  1  0.00000000  0.50000000  0.83483896  1.0
  K  K1  1  0.00000000  0.50000000  0.16516104  1.0
  Te  Te2  1  0.00000000  0.00000000  0.00000000  1.0
  Cl  Cl3  1  0.79267730  0.74225361  0.00000000  1.0
  Cl  Cl4  1  0.20732270  0.74225361  0.00000000  1.0
  Cl  Cl5  1  0.79267730  0.25774639  0.00000000  1.0
  Cl  Cl6  1  0.20732270  0.25774639  0.00000000  1.0
  Cl  Cl7  1  0.00000000  0.00000000  0.78609740  1.0
  Cl  Cl8  1  0.00000000  0.00000000  0.21390260  1.0
