# generated using pymatgen
data_CoAs2
_symmetry_space_group_name_H-M   'P 1'
_cell_length_a   5.12671153
_cell_length_b   5.91217469
_cell_length_c   3.11466682
_cell_angle_alpha   90.00000000
_cell_angle_beta   90.00000000
_cell_angle_gamma   90.00000000
_symmetry_Int_Tables_number   1
_chemical_formula_structural   CoAs2
_chemical_formula_sum   'Co2 As4'
_cell_volume   94.40559548
_cell_formula_units_Z   2
loop_
 _symmetry_equiv_pos_site_id
 _symmetry_equiv_pos_as_xyz
  1  'x, y, z'
loop_
 _atom_site_type_symbol
 _atom_site_label
 _atom_site_symmetry_multiplicity
 _atom_site_fract_x
 _atom_site_fract_y
 _atom_site_fract_z
 _atom_site_occupancy
  Co  Co0  1  0.50000000  0.50000000  0.50000000  1.0
  Co  Co1  1  0.00000000  0.00000000  0.00000000  1.0
  As  As2  1  0.68759818  0.13595236  0.50000000  1.0
  As  As3  1  0.31240182  0.86404764  0.50000000  1.0
  As  As4  1  0.18759818  0.36404764  0.00000000  1.0
  As  As5  1  0.81240182  0.63595236  0.00000000  1.0
