# generated using pymatgen
data_Cr5Te8
_symmetry_space_group_name_H-M   'P 1'
_cell_length_a   7.29808563
_cell_length_b   7.29808563
_cell_length_c   9.13125811
_cell_angle_alpha   56.17243123
_cell_angle_beta   123.82756877
_cell_angle_gamma   114.38909956
_symmetry_Int_Tables_number   1
_chemical_formula_structural   Cr5Te8
_chemical_formula_sum   'Cr5 Te8'
_cell_volume   331.86404680
_cell_formula_units_Z   1
loop_
 _symmetry_equiv_pos_site_id
 _symmetry_equiv_pos_as_xyz
  1  'x, y, z'
loop_
 _atom_site_type_symbol
 _atom_site_label
 _atom_site_symmetry_multiplicity
 _atom_site_fract_x
 _atom_site_fract_y
 _atom_site_fract_z
 _atom_site_occupancy
  Cr  Cr0  1  0.73402989  -0.73402989  0.98800677  1.0
  Cr  Cr1  1  1.26597011  -0.26597011  0.01199323  1.0
  Cr  Cr2  1  0.73099964  0.73099964  0.50000000  1.0
  Cr  Cr3  1  1.26900036  0.26900036  0.50000000  1.0
  Cr  Cr4  1  0.00000000  0.00000000  0.00000000  1.0
  Te  Te5  1  0.54230798  -0.03613403  0.83028179  1.0
  Te  Te6  1  1.03613403  0.45769202  0.83028179  1.0
  Te  Te7  1  0.96386597  0.54230798  0.16971821  1.0
  Te  Te8  1  0.45769202  0.03613403  0.16971821  1.0
  Te  Te9  1  0.97180866  0.02819134  0.67194023  1.0
  Te  Te10  1  0.02819134  -0.02819134  0.32805977  1.0
  Te  Te11  1  0.45056245  -0.45056245  0.66601425  1.0
  Te  Te12  1  0.54943755  0.45056245  0.33398575  1.0
