# generated using pymatgen
data_H2S
_symmetry_space_group_name_H-M   'P 1'
_cell_length_a   8.26622408
_cell_length_b   8.26622408
_cell_length_c   8.26622408
_cell_angle_alpha   110.92751118
_cell_angle_beta   111.88927320
_cell_angle_gamma   105.66423146
_symmetry_Int_Tables_number   1
_chemical_formula_structural   H2S
_chemical_formula_sum   'H16 S8'
_cell_volume   433.34996600
_cell_formula_units_Z   8
loop_
 _symmetry_equiv_pos_site_id
 _symmetry_equiv_pos_as_xyz
  1  'x, y, z'
loop_
 _atom_site_type_symbol
 _atom_site_label
 _atom_site_symmetry_multiplicity
 _atom_site_fract_x
 _atom_site_fract_y
 _atom_site_fract_z
 _atom_site_occupancy
  H  H0  1  1.60398360  1.08239999  1.31719663  1.0
  H  H1  1  1.23479664  1.41760001  1.02158361  1.0
  H  H2  1  0.89601640  1.21321303  1.47841639  1.0
  H  H3  1  1.26520336  1.28678697  1.18280337  1.0
  H  H4  1  0.39601640  0.91760001  0.68280337  1.0
  H  H5  1  0.76520336  0.58239999  0.97841639  1.0
  H  H6  1  1.10398360  0.78678697  0.52158361  1.0
  H  H7  1  0.73479664  0.71321303  0.81719663  1.0
  H  H8  1  1.76051847  1.27384808  1.15421877  1.0
  H  H9  1  0.88037069  0.22615192  0.98667039  1.0
  H  H10  1  0.73948153  0.89370030  1.51332961  1.0
  H  H11  1  1.61962931  1.60629970  1.34578123  1.0
  H  H12  1  0.23948153  0.72615192  0.84578123  1.0
  H  H13  1  1.11962931  1.77384808  1.01332961  1.0
  H  H14  1  1.26051847  1.10629970  0.48667039  1.0
  H  H15  1  0.38037069  0.39370030  0.65421877  1.0
  S  S16  1  0.28009998  0.75000000  1.03009998  1.0
  S  S17  1  1.21990002  1.25000000  1.46990002  1.0
  S  S18  1  0.71990002  0.25000000  0.96990002  1.0
  S  S19  1  0.78009998  0.75000000  0.53009998  1.0
  S  S20  1  1.25000000  1.75287449  1.50287449  1.0
  S  S21  1  0.75000000  0.74712551  0.99712551  1.0
  S  S22  1  0.75000000  0.24712551  0.49712551  1.0
  S  S23  1  1.25000000  1.25287449  1.00287449  1.0
