# generated using pymatgen
data_PbINO6
_symmetry_space_group_name_H-M   'P 1'
_cell_length_a   5.08034803
_cell_length_b   5.08034803
_cell_length_c   11.17954739
_cell_angle_alpha   90.00000000
_cell_angle_beta   90.00000000
_cell_angle_gamma   120.00000000
_symmetry_Int_Tables_number   1
_chemical_formula_structural   PbINO6
_chemical_formula_sum   'Pb2 I2 N2 O12'
_cell_volume   249.88591778
_cell_formula_units_Z   2
loop_
 _symmetry_equiv_pos_site_id
 _symmetry_equiv_pos_as_xyz
  1  'x, y, z'
loop_
 _atom_site_type_symbol
 _atom_site_label
 _atom_site_symmetry_multiplicity
 _atom_site_fract_x
 _atom_site_fract_y
 _atom_site_fract_z
 _atom_site_occupancy
  Pb  Pb0  1  -0.00000000  -0.00000000  0.00000000  1.0
  Pb  Pb1  1  0.00000000  0.00000000  0.50000000  1.0
  I  I2  1  0.33333333  0.66666667  0.25000000  1.0
  I  I3  1  0.66666667  0.33333333  0.75000000  1.0
  N  N4  1  0.33333333  0.66666667  0.75000000  1.0
  N  N5  1  0.66666667  0.33333333  0.25000000  1.0
  O  O6  1  0.38201536  1.00413217  0.14889359  1.0
  O  O7  1  0.38201536  0.37788319  0.35110641  1.0
  O  O8  1  1.00413217  0.38201536  0.85110641  1.0
  O  O9  1  1.00413217  0.62211681  0.64889359  1.0
  O  O10  1  0.62211681  1.00413217  0.35110641  1.0
  O  O11  1  0.62211681  0.61798464  0.14889359  1.0
  O  O12  1  -0.00413217  0.61798464  0.35110641  1.0
  O  O13  1  -0.00413217  0.37788319  0.14889359  1.0
  O  O14  1  0.61798464  0.62211681  0.85110641  1.0
  O  O15  1  0.61798464  -0.00413217  0.64889359  1.0
  O  O16  1  0.37788319  0.38201536  0.64889359  1.0
  O  O17  1  0.37788319  -0.00413217  0.85110641  1.0
