# generated using pymatgen
data_Sc6Ga16Rh7
_symmetry_space_group_name_H-M   'P 1'
_cell_length_a   8.79056071
_cell_length_b   8.79056071
_cell_length_c   8.79056071
_cell_angle_alpha   60.00000000
_cell_angle_beta   60.00000000
_cell_angle_gamma   60.00000000
_symmetry_Int_Tables_number   1
_chemical_formula_structural   Sc6Ga16Rh7
_chemical_formula_sum   'Sc6 Ga16 Rh7'
_cell_volume   480.32449520
_cell_formula_units_Z   1
loop_
 _symmetry_equiv_pos_site_id
 _symmetry_equiv_pos_as_xyz
  1  'x, y, z'
loop_
 _atom_site_type_symbol
 _atom_site_label
 _atom_site_symmetry_multiplicity
 _atom_site_fract_x
 _atom_site_fract_y
 _atom_site_fract_z
 _atom_site_occupancy
  Sc  Sc0  1  -0.71538640  0.71538640  0.71538640  1.0
  Sc  Sc1  1  -0.28461360  0.28461360  0.71538640  1.0
  Sc  Sc2  1  0.71538640  0.71538640  -0.71538640  1.0
  Sc  Sc3  1  0.28461360  1.28461360  -0.28461360  1.0
  Sc  Sc4  1  0.28461360  -0.28461360  1.28461360  1.0
  Sc  Sc5  1  -0.28461360  0.28461360  0.28461360  1.0
  Ga  Ga6  1  0.87671060  0.87671060  -0.12328940  1.0
  Ga  Ga7  1  1.12328940  0.12328940  0.63013180  1.0
  Ga  Ga8  1  1.12328940  0.63013180  0.12328940  1.0
  Ga  Ga9  1  0.36986820  0.87671060  -0.12328940  1.0
  Ga  Ga10  1  1.63013180  0.12328940  0.12328940  1.0
  Ga  Ga11  1  0.87671060  0.36986820  -0.12328940  1.0
  Ga  Ga12  1  0.87671060  0.87671060  -0.63013180  1.0
  Ga  Ga13  1  1.12328940  0.12328940  0.12328940  1.0
  Ga  Ga14  1  0.65673579  0.65673579  -0.34326421  1.0
  Ga  Ga15  1  1.34326421  0.34326421  -0.02979263  1.0
  Ga  Ga16  1  1.34326421  -0.02979263  0.34326421  1.0
  Ga  Ga17  1  1.02979263  0.65673579  -0.34326421  1.0
  Ga  Ga18  1  0.97020737  0.34326421  0.34326421  1.0
  Ga  Ga19  1  0.65673579  1.02979263  -0.34326421  1.0
  Ga  Ga20  1  0.65673579  0.65673579  0.02979263  1.0
  Ga  Ga21  1  1.34326421  0.34326421  0.34326421  1.0
  Rh  Rh22  1  1.50000000  0.00000000  -0.00000000  1.0
  Rh  Rh23  1  1.00000000  0.50000000  -0.50000000  1.0
  Rh  Rh24  1  0.00000000  1.50000000  -0.00000000  1.0
  Rh  Rh25  1  0.50000000  1.00000000  -0.50000000  1.0
  Rh  Rh26  1  0.00000000  -0.00000000  0.50000000  1.0
  Rh  Rh27  1  0.50000000  -0.50000000  1.00000000  1.0
  Rh  Rh28  1  -0.00000000  0.00000000  -0.00000000  1.0
