# generated using pymatgen
data_H6C2N5O4
_symmetry_space_group_name_H-M   'P 1'
_cell_length_a   8.33465572
_cell_length_b   6.83340991
_cell_length_c   6.84020253
_cell_angle_alpha   109.44757537
_cell_angle_beta   110.71929727
_cell_angle_gamma   83.15398436
_symmetry_Int_Tables_number   1
_chemical_formula_structural   H6C2N5O4
_chemical_formula_sum   'H12 C4 N10 O8'
_cell_volume   343.59205904
_cell_formula_units_Z   2
loop_
 _symmetry_equiv_pos_site_id
 _symmetry_equiv_pos_as_xyz
  1  'x, y, z'
loop_
 _atom_site_type_symbol
 _atom_site_label
 _atom_site_symmetry_multiplicity
 _atom_site_fract_x
 _atom_site_fract_y
 _atom_site_fract_z
 _atom_site_occupancy
  H  H0  1  -0.60275603  -0.88316150  0.68721597  1.0
  H  H1  1  -0.39724397  -0.11683850  0.31278403  1.0
  H  H2  1  -0.44801743  -0.79070925  0.66664556  1.0
  H  H3  1  -0.55198257  -0.20929075  0.33335444  1.0
  H  H4  1  -0.63362971  -0.51804802  0.74942800  1.0
  H  H5  1  -0.36637029  -0.48195198  0.25057200  1.0
  H  H6  1  -0.80418954  -0.36656650  0.78664210  1.0
  H  H7  1  -0.19581046  -0.63343350  0.21335790  1.0
  H  H8  1  -0.67272861  -0.28874083  0.68829174  1.0
  H  H9  1  -0.32727139  -0.71125917  0.31170826  1.0
  H  H10  1  -0.60370751  -0.29081450  0.95645219  1.0
  H  H11  1  -0.39629249  -0.70918550  0.04354781  1.0
  C  C12  1  -1.00048824  -0.94013139  0.60821566  1.0
  C  C13  1  0.00048824  -0.05986861  0.39178434  1.0
  C  C14  1  -0.93846783  -0.78704555  0.94487931  1.0
  C  C15  1  -0.06153217  -0.21295445  0.05512069  1.0
  N  N16  1  -0.86607220  -0.89694892  0.79535485  1.0
  N  N17  1  -0.13392780  -0.10305108  0.20464515  1.0
  N  N18  1  -0.14803685  -0.85195217  0.65379677  1.0
  N  N19  1  -0.85196315  -0.14804783  0.34620323  1.0
  N  N20  1  -0.10861848  -0.75497631  0.86969638  1.0
  N  N21  1  -0.89138152  -0.24502369  0.13030362  1.0
  N  N22  1  -0.84311182  -0.70575317  0.17459516  1.0
  N  N23  1  -0.15688818  -0.29424683  0.82540484  1.0
  N  N24  1  -0.67870713  -0.36531987  0.79362430  1.0
  N  N25  1  -0.32129287  -0.63468013  0.20637570  1.0
  O  O26  1  -0.30295417  -0.85429175  0.51712952  1.0
  O  O27  1  -0.69704583  -0.14570825  0.48287048  1.0
  O  O28  1  -0.52566112  -0.76231326  0.75486318  1.0
  O  O29  1  -0.47433888  -0.23768674  0.24513682  1.0
  O  O30  1  -0.68515751  -0.71782974  0.23443980  1.0
  O  O31  1  -0.31484249  -0.28217026  0.76556020  1.0
  O  O32  1  -0.92663577  -0.62624851  0.30253648  1.0
  O  O33  1  -0.07336423  -0.37375149  0.69746352  1.0
