# generated using pymatgen
data_La(Al2Re)4
_symmetry_space_group_name_H-M   'P 1'
_cell_length_a   6.97020049
_cell_length_b   6.97020049
_cell_length_c   6.97020049
_cell_angle_alpha   98.07221990
_cell_angle_beta   98.07221990
_cell_angle_gamma   135.98497435
_symmetry_Int_Tables_number   1
_chemical_formula_structural   La(Al2Re)4
_chemical_formula_sum   'La1 Al8 Re4'
_cell_volume   218.15634073
_cell_formula_units_Z   1
loop_
 _symmetry_equiv_pos_site_id
 _symmetry_equiv_pos_as_xyz
  1  'x, y, z'
loop_
 _atom_site_type_symbol
 _atom_site_label
 _atom_site_symmetry_multiplicity
 _atom_site_fract_x
 _atom_site_fract_y
 _atom_site_fract_z
 _atom_site_occupancy
  La  La0  1  0.00000000  0.00000000  0.00000000  1.0
  Al  Al1  1  0.50000000  0.71826160  0.21826160  1.0
  Al  Al2  1  0.71826160  0.50000000  1.21826160  1.0
  Al  Al3  1  0.28173840  0.50000000  0.78173840  1.0
  Al  Al4  1  0.50000000  1.28173840  0.78173840  1.0
  Al  Al5  1  -0.00000000  0.65226356  0.65226356  1.0
  Al  Al6  1  0.65226356  1.00000000  0.65226356  1.0
  Al  Al7  1  1.34773644  1.00000000  1.34773644  1.0
  Al  Al8  1  -0.00000000  0.34773644  0.34773644  1.0
  Re  Re9  1  0.50000000  0.50000000  0.50000000  1.0
  Re  Re10  1  1.00000000  1.00000000  0.50000000  1.0
  Re  Re11  1  1.00000000  0.50000000  1.00000000  1.0
  Re  Re12  1  1.50000000  1.00000000  1.00000000  1.0
