# generated using pymatgen
data_NaVPO5
_symmetry_space_group_name_H-M   'P 1'
_cell_length_a   6.63513687
_cell_length_b   8.54308659
_cell_length_c   7.15152501
_cell_angle_alpha   90.00000000
_cell_angle_beta   115.28401852
_cell_angle_gamma   90.00000000
_symmetry_Int_Tables_number   1
_chemical_formula_structural   NaVPO5
_chemical_formula_sum   'Na4 V4 P4 O20'
_cell_volume   366.54616776
_cell_formula_units_Z   4
loop_
 _symmetry_equiv_pos_site_id
 _symmetry_equiv_pos_as_xyz
  1  'x, y, z'
loop_
 _atom_site_type_symbol
 _atom_site_label
 _atom_site_symmetry_multiplicity
 _atom_site_fract_x
 _atom_site_fract_y
 _atom_site_fract_z
 _atom_site_occupancy
  Na  Na0  1  0.74504919  0.91724966  0.22214790  1.0
  Na  Na1  1  0.74504919  0.58275034  0.72214790  1.0
  Na  Na2  1  0.25495081  0.41724966  0.27785210  1.0
  Na  Na3  1  0.25495081  0.08275034  0.77785210  1.0
  V  V4  1  0.75356495  0.23912947  0.47646970  1.0
  V  V5  1  0.75356495  0.26087053  0.97646970  1.0
  V  V6  1  0.24643505  0.73912947  0.02353030  1.0
  V  V7  1  0.24643505  0.76087053  0.52353030  1.0
  P  P8  1  0.25001949  0.06701280  0.25117331  1.0
  P  P9  1  0.25001949  0.43298720  0.75117331  1.0
  P  P10  1  0.74998051  0.56701280  0.24882669  1.0
  P  P11  1  0.74998051  0.93298720  0.74882669  1.0
  O  O12  1  0.92998870  0.68238461  0.39508232  1.0
  O  O13  1  0.92998870  0.81761539  0.89508232  1.0
  O  O14  1  0.07001130  0.18238461  0.10491768  1.0
  O  O15  1  0.07001130  0.31761539  0.60491768  1.0
  O  O16  1  0.85232365  0.46354939  0.13034991  1.0
  O  O17  1  0.85232365  0.03645061  0.63034991  1.0
  O  O18  1  0.14767635  0.96354939  0.36965009  1.0
  O  O19  1  0.14767635  0.53645061  0.86965009  1.0
  O  O20  1  0.74866429  0.18545926  0.25159802  1.0
  O  O21  1  0.74866429  0.31454074  0.75159802  1.0
  O  O22  1  0.25133571  0.68545926  0.24840198  1.0
  O  O23  1  0.25133571  0.81454074  0.74840198  1.0
  O  O24  1  0.65888583  0.46273576  0.37631247  1.0
  O  O25  1  0.65888583  0.03726424  0.87631247  1.0
  O  O26  1  0.34111417  0.96273576  0.12368753  1.0
  O  O27  1  0.34111417  0.53726424  0.62368753  1.0
  O  O28  1  0.43916639  0.17310728  0.40527536  1.0
  O  O29  1  0.43916639  0.32689272  0.90527536  1.0
  O  O30  1  0.56083361  0.67310728  0.09472464  1.0
  O  O31  1  0.56083361  0.82689272  0.59472464  1.0
