# generated using pymatgen
data_ZrTlCdF7
_symmetry_space_group_name_H-M   'P 1'
_cell_length_a   6.63248731
_cell_length_b   6.63248731
_cell_length_c   8.62522504
_cell_angle_alpha   90.00000000
_cell_angle_beta   90.00000000
_cell_angle_gamma   117.03518604
_symmetry_Int_Tables_number   1
_chemical_formula_structural   ZrTlCdF7
_chemical_formula_sum   'Zr2 Tl2 Cd2 F14'
_cell_volume   337.96223823
_cell_formula_units_Z   2
loop_
 _symmetry_equiv_pos_site_id
 _symmetry_equiv_pos_as_xyz
  1  'x, y, z'
loop_
 _atom_site_type_symbol
 _atom_site_label
 _atom_site_symmetry_multiplicity
 _atom_site_fract_x
 _atom_site_fract_y
 _atom_site_fract_z
 _atom_site_occupancy
  Zr  Zr0  1  0.30860171  0.69139829  0.25000000  1.0
  Zr  Zr1  1  -0.30860171  1.30860171  0.75000000  1.0
  Tl  Tl2  1  0.00000000  0.00000000  0.50000000  1.0
  Tl  Tl3  1  0.00000000  0.00000000  0.00000000  1.0
  Cd  Cd4  1  -0.30849561  1.30849561  0.25000000  1.0
  Cd  Cd5  1  0.30849561  0.69150439  0.75000000  1.0
  F  F6  1  -0.02245828  1.66981447  0.25000000  1.0
  F  F7  1  0.66981447  0.97754172  0.75000000  1.0
  F  F8  1  -0.66981447  1.02245828  0.25000000  1.0
  F  F9  1  0.02245828  0.33018553  0.75000000  1.0
  F  F10  1  0.06410092  0.34714203  0.25000000  1.0
  F  F11  1  -0.65285797  1.06410092  0.75000000  1.0
  F  F12  1  0.65285797  0.93589908  0.25000000  1.0
  F  F13  1  -0.06410092  1.65285797  0.75000000  1.0
  F  F14  1  0.30004367  0.69995633  0.48499113  1.0
  F  F15  1  0.30004367  0.69995633  0.01500887  1.0
  F  F16  1  -0.30004367  1.30004367  0.98499113  1.0
  F  F17  1  -0.30004367  1.30004367  0.51500887  1.0
  F  F18  1  0.48957226  0.51042774  0.25000000  1.0
  F  F19  1  -0.48957226  1.48957226  0.75000000  1.0
