# generated using pymatgen
data_CN2ClO2
_symmetry_space_group_name_H-M   'P 1'
_cell_length_a   8.15137292
_cell_length_b   7.48618960
_cell_length_c   14.41620323
_cell_angle_alpha   90.00000000
_cell_angle_beta   112.63915168
_cell_angle_gamma   90.00000000
_symmetry_Int_Tables_number   1
_chemical_formula_structural   CN2ClO2
_chemical_formula_sum   'C8 N16 Cl8 O16'
_cell_volume   811.93157785
_cell_formula_units_Z   8
loop_
 _symmetry_equiv_pos_site_id
 _symmetry_equiv_pos_as_xyz
  1  'x, y, z'
loop_
 _atom_site_type_symbol
 _atom_site_label
 _atom_site_symmetry_multiplicity
 _atom_site_fract_x
 _atom_site_fract_y
 _atom_site_fract_z
 _atom_site_occupancy
  C  C0  1  0.66176562  0.28170210  0.42541765  1.0
  C  C1  1  0.66176562  0.21829790  0.92541765  1.0
  C  C2  1  0.33823438  0.78170210  0.07458235  1.0
  C  C3  1  0.33823438  0.71829790  0.57458235  1.0
  C  C4  1  0.47298628  0.32030101  0.41649296  1.0
  C  C5  1  0.47298628  0.17969899  0.91649296  1.0
  C  C6  1  0.52701372  0.82030101  0.08350704  1.0
  C  C7  1  0.52701372  0.67969899  0.58350704  1.0
  N  N8  1  0.43319884  0.45854442  0.46982932  1.0
  N  N9  1  0.43319884  0.04145558  0.96982932  1.0
  N  N10  1  0.56680116  0.95854442  0.03017068  1.0
  N  N11  1  0.56680116  0.54145558  0.53017068  1.0
  N  N12  1  0.78500713  0.27104399  0.03684791  1.0
  N  N13  1  0.78500713  0.22895601  0.53684791  1.0
  N  N14  1  0.21499287  0.77104399  0.46315209  1.0
  N  N15  1  0.21499287  0.72895601  0.96315209  1.0
  N  N16  1  0.66234621  0.10075179  0.36442028  1.0
  N  N17  1  0.66234621  0.39924821  0.86442028  1.0
  N  N18  1  0.33765379  0.60075179  0.13557972  1.0
  N  N19  1  0.33765379  0.89924821  0.63557972  1.0
  N  N20  1  0.35235960  0.22196169  0.35171010  1.0
  N  N21  1  0.35235960  0.27803831  0.85171010  1.0
  N  N22  1  0.64764040  0.72196169  0.14828990  1.0
  N  N23  1  0.64764040  0.77803831  0.64828990  1.0
  Cl  Cl24  1  0.86250998  0.76189462  0.16843459  1.0
  Cl  Cl25  1  0.86250998  0.73810538  0.66843459  1.0
  Cl  Cl26  1  0.13749002  0.26189462  0.33156541  1.0
  Cl  Cl27  1  0.13749002  0.23810538  0.83156541  1.0
  Cl  Cl28  1  0.75250390  0.45491109  0.38203553  1.0
  Cl  Cl29  1  0.75250390  0.04508891  0.88203553  1.0
  Cl  Cl30  1  0.24749610  0.95491109  0.11796447  1.0
  Cl  Cl31  1  0.24749610  0.54508891  0.61796447  1.0
  O  O32  1  0.94458681  0.26514267  0.05765820  1.0
  O  O33  1  0.94458681  0.23485733  0.55765820  1.0
  O  O34  1  0.05541319  0.76514267  0.44234180  1.0
  O  O35  1  0.05541319  0.73485733  0.94234180  1.0
  O  O36  1  0.70736971  0.31904818  0.08988257  1.0
  O  O37  1  0.70736971  0.18095182  0.58988257  1.0
  O  O38  1  0.29263029  0.81904818  0.41011743  1.0
  O  O39  1  0.29263029  0.68095182  0.91011743  1.0
  O  O40  1  0.66362998  0.11997352  0.28110794  1.0
  O  O41  1  0.66362998  0.38002648  0.78110794  1.0
  O  O42  1  0.33637002  0.61997352  0.21889206  1.0
  O  O43  1  0.33637002  0.88002648  0.71889206  1.0
  O  O44  1  0.66157082  0.96255444  0.40874420  1.0
  O  O45  1  0.66157082  0.53744556  0.90874420  1.0
  O  O46  1  0.33842918  0.46255444  0.09125580  1.0
  O  O47  1  0.33842918  0.03744556  0.59125580  1.0
