# generated using pymatgen
data_HN2
_symmetry_space_group_name_H-M   'P 1'
_cell_length_a   3.56436385
_cell_length_b   8.05769711
_cell_length_c   4.76410185
_cell_angle_alpha   90.00000000
_cell_angle_beta   126.52864169
_cell_angle_gamma   90.00000000
_symmetry_Int_Tables_number   1
_chemical_formula_structural   HN2
_chemical_formula_sum   'H4 N8'
_cell_volume   109.94918099
_cell_formula_units_Z   4
loop_
 _symmetry_equiv_pos_site_id
 _symmetry_equiv_pos_as_xyz
  1  'x, y, z'
loop_
 _atom_site_type_symbol
 _atom_site_label
 _atom_site_symmetry_multiplicity
 _atom_site_fract_x
 _atom_site_fract_y
 _atom_site_fract_z
 _atom_site_occupancy
  H  H0  1  0.59701602  0.82712215  0.49467377  1.0
  H  H1  1  0.40298398  0.32712215  1.00532623  1.0
  H  H2  1  0.40298398  0.17287785  0.50532623  1.0
  H  H3  1  0.59701602  0.67287785  -0.00532623  1.0
  N  N4  1  0.62718222  0.42536998  0.08111538  1.0
  N  N5  1  0.37281778  0.92536998  0.41888462  1.0
  N  N6  1  0.37281778  0.57463002  0.91888462  1.0
  N  N7  1  0.62718222  0.07463002  0.58111538  1.0
  N  N8  1  0.94126465  0.07235222  0.93540637  1.0
  N  N9  1  0.05873535  0.57235222  0.56459363  1.0
  N  N10  1  0.05873535  0.92764778  0.06459363  1.0
  N  N11  1  0.94126465  0.42764778  0.43540637  1.0
