# generated using pymatgen
data_Ni3H2Se3O10
_symmetry_space_group_name_H-M   'P 1'
_cell_length_a   8.17978269
_cell_length_b   8.47687499
_cell_length_c   8.05900310
_cell_angle_alpha   63.06192255
_cell_angle_beta   68.28740088
_cell_angle_gamma   69.84730428
_symmetry_Int_Tables_number   1
_chemical_formula_structural   Ni3H2Se3O10
_chemical_formula_sum   'Ni6 H4 Se6 O20'
_cell_volume   452.14359913
_cell_formula_units_Z   2
loop_
 _symmetry_equiv_pos_site_id
 _symmetry_equiv_pos_as_xyz
  1  'x, y, z'
loop_
 _atom_site_type_symbol
 _atom_site_label
 _atom_site_symmetry_multiplicity
 _atom_site_fract_x
 _atom_site_fract_y
 _atom_site_fract_z
 _atom_site_occupancy
  O  O0  1  0.98780228  0.75377734  0.79577851  1.0
  O  O1  1  0.01219772  0.24622266  0.20422149  1.0
  O  O2  1  0.63197634  0.30188903  0.59108769  1.0
  O  O3  1  0.36802366  0.69811097  0.40891231  1.0
  O  O4  1  0.77091077  0.54544981  0.55974073  1.0
  O  O5  1  0.22908923  0.45455019  0.44025927  1.0
  O  O6  1  0.55290517  0.32900207  0.96593866  1.0
  O  O7  1  0.44709483  0.67099793  0.03406134  1.0
  O  O8  1  0.71107263  0.85122951  0.63536681  1.0
  O  O9  1  0.28892737  0.14877049  0.36463319  1.0
  O  O10  1  0.64097864  0.88157143  0.30342365  1.0
  O  O11  1  0.35902136  0.11842857  0.69657635  1.0
  O  O12  1  0.78323394  0.61144865  0.19950401  1.0
  O  O13  1  0.21676606  0.38855135  0.80049599  1.0
  O  O14  1  0.67176167  0.97483481  0.90907564  1.0
  O  O15  1  0.32823833  0.02516519  0.09092436  1.0
  O  O16  1  0.39850737  0.75787376  0.70427303  1.0
  O  O17  1  0.60149263  0.24212624  0.29572697  1.0
  O  O18  1  0.81162854  0.43983416  0.94613171  1.0
  O  O19  1  0.18837146  0.56016584  0.05386829  1.0
  Se  Se20  1  0.26154500  0.76416486  0.92878446  1.0
  Se  Se21  1  0.73845500  0.23583514  0.07121554  1.0
  Se  Se22  1  0.83071061  0.93692984  0.70633635  1.0
  Se  Se23  1  0.16928939  0.06307016  0.29366365  1.0
  Se  Se24  1  0.83025028  0.70018378  0.32888686  1.0
  Se  Se25  1  0.16974972  0.29981622  0.67111314  1.0
  Ni  Ni26  1  0.50000000  -0.00000000  0.50000000  1.0
  Ni  Ni27  1  0.46323880  0.19560634  0.84763621  1.0
  Ni  Ni28  1  0.53676120  0.80439366  0.15236379  1.0
  Ni  Ni29  1  0.63177472  0.60980659  0.79233164  1.0
  Ni  Ni30  1  0.36822528  0.39019341  0.20766836  1.0
  Ni  Ni31  1  -0.00000000  0.50000000  -0.00000000  1.0
  H  H32  1  0.68613687  0.40356733  0.56568842  1.0
  H  H33  1  0.31386313  0.59643267  0.43431158  1.0
  H  H34  1  0.38042095  0.68742515  0.53076897  1.0
  H  H35  1  0.61957905  0.31257485  0.46923103  1.0
