# generated using pymatgen
data_ScSi7Rh3
_symmetry_space_group_name_H-M   'P 1'
_cell_length_a   7.90012833
_cell_length_b   7.90012833
_cell_length_c   7.90012833
_cell_angle_alpha   57.16119243
_cell_angle_beta   57.16119243
_cell_angle_gamma   57.16119243
_symmetry_Int_Tables_number   1
_chemical_formula_structural   ScSi7Rh3
_chemical_formula_sum   'Sc2 Si14 Rh6'
_cell_volume   325.84528398
_cell_formula_units_Z   2
loop_
 _symmetry_equiv_pos_site_id
 _symmetry_equiv_pos_as_xyz
  1  'x, y, z'
loop_
 _atom_site_type_symbol
 _atom_site_label
 _atom_site_symmetry_multiplicity
 _atom_site_fract_x
 _atom_site_fract_y
 _atom_site_fract_z
 _atom_site_occupancy
  Sc  Sc0  1  1.00000000  0.00000000  0.00000000  1.0
  Sc  Sc1  1  0.50000000  0.50000000  0.50000000  1.0
  Si  Si2  1  0.85162749  0.06732624  -0.32813535  1.0
  Si  Si3  1  1.35162749  0.17186465  -0.43267376  1.0
  Si  Si4  1  0.82813535  0.43267376  -0.35162749  1.0
  Si  Si5  1  1.32813535  0.14837251  -0.06732624  1.0
  Si  Si6  1  0.93267376  0.32813535  0.14837251  1.0
  Si  Si7  1  0.43267376  0.64837251  -0.17186465  1.0
  Si  Si8  1  1.14837251  -0.06732624  0.32813535  1.0
  Si  Si9  1  0.64837251  0.82813535  -0.56732624  1.0
  Si  Si10  1  0.67186465  -0.14837251  0.06732624  1.0
  Si  Si11  1  1.17186465  -0.43267376  0.35162749  1.0
  Si  Si12  1  0.56732624  0.35162749  0.17186465  1.0
  Si  Si13  1  1.06732624  -0.32813535  -0.14837251  1.0
  Si  Si14  1  0.75000000  0.75000000  -0.25000000  1.0
  Si  Si15  1  0.25000000  0.25000000  0.25000000  1.0
  Rh  Rh16  1  0.42804719  0.75000000  0.07195281  1.0
  Rh  Rh17  1  0.92804719  -0.42804719  0.25000000  1.0
  Rh  Rh18  1  0.25000000  0.92804719  -0.42804719  1.0
  Rh  Rh19  1  0.75000000  1.07195281  -0.57195281  1.0
  Rh  Rh20  1  0.57195281  0.25000000  -0.07195281  1.0
  Rh  Rh21  1  1.07195281  0.42804719  -0.25000000  1.0
