# generated using pymatgen
data_Na3H5(CO4)2
_symmetry_space_group_name_H-M   'P 1'
_cell_length_a   10.25029371
_cell_length_b   10.25029371
_cell_length_c   10.47238043
_cell_angle_alpha   73.41886969
_cell_angle_beta   106.58113031
_cell_angle_gamma   159.77348208
_symmetry_Int_Tables_number   1
_chemical_formula_structural   Na3H5(CO4)2
_chemical_formula_sum   'Na6 H10 C4 O16'
_cell_volume   364.08203125
_cell_formula_units_Z   2
loop_
 _symmetry_equiv_pos_site_id
 _symmetry_equiv_pos_as_xyz
  1  'x, y, z'
loop_
 _atom_site_type_symbol
 _atom_site_label
 _atom_site_symmetry_multiplicity
 _atom_site_fract_x
 _atom_site_fract_y
 _atom_site_fract_z
 _atom_site_occupancy
  Na  Na0  1  1.51076095  -0.18399502  0.57236432  1.0
  Na  Na1  1  1.18399502  -0.51076095  0.07236432  1.0
  Na  Na2  1  0.81600498  -0.48923905  0.92763568  1.0
  Na  Na3  1  1.48923905  0.18399502  0.42763568  1.0
  Na  Na4  1  0.24575100  0.24575100  0.75000000  1.0
  Na  Na5  1  0.75424900  0.75424900  0.25000000  1.0
  H  H6  1  1.49360894  -0.02734592  0.86290571  1.0
  H  H7  1  1.02734592  -0.49360894  0.36290571  1.0
  H  H8  1  0.97265408  -0.50639106  0.63709429  1.0
  H  H9  1  1.50639106  0.02734592  0.13709429  1.0
  H  H10  1  1.27933866  -0.10314205  0.75878664  1.0
  H  H11  1  1.10314205  -0.27933866  0.25878664  1.0
  H  H12  1  0.89685795  -0.72066134  0.74121336  1.0
  H  H13  1  1.72066134  0.10314205  0.24121336  1.0
  H  H14  1  0.50000000  0.50000000  0.00000000  1.0
  H  H15  1  0.50000000  0.50000000  0.50000000  1.0
  C  C16  1  1.67258576  -0.14097152  0.89426253  1.0
  C  C17  1  1.14097152  -0.67258576  0.39426253  1.0
  C  C18  1  0.85902848  -0.32741424  0.60573747  1.0
  C  C19  1  1.32741424  0.14097152  0.10573747  1.0
  O  O20  1  1.67838046  -0.17688684  0.79045391  1.0
  O  O21  1  1.17688684  -0.67838046  0.29045391  1.0
  O  O22  1  0.82311316  -0.32161954  0.70954609  1.0
  O  O23  1  1.32161954  0.17688684  0.20954609  1.0
  O  O24  1  1.75672963  0.06056228  0.89490115  1.0
  O  O25  1  0.93943772  -0.75672963  0.39490115  1.0
  O  O26  1  1.06056228  -0.24327037  0.60509885  1.0
  O  O27  1  1.24327037  -0.06056228  0.10509885  1.0
  O  O28  1  1.37545612  -0.04891948  0.85420614  1.0
  O  O29  1  1.04891948  -0.37545612  0.35420614  1.0
  O  O30  1  0.95108052  -0.62454388  0.64579386  1.0
  O  O31  1  1.62454388  0.04891948  0.14579386  1.0
  O  O32  1  1.42621393  0.31758638  0.99056976  1.0
  O  O33  1  0.68241362  -0.42621393  0.49056976  1.0
  O  O34  1  1.31758638  -0.57378607  0.50943024  1.0
  O  O35  1  1.57378607  -0.31758638  0.00943024  1.0
