# generated using pymatgen
data_MnCoAs
_symmetry_space_group_name_H-M   'P 1'
_cell_length_a   6.14708912
_cell_length_b   3.62458134
_cell_length_c   6.97456688
_cell_angle_alpha   90.00000000
_cell_angle_beta   90.00000000
_cell_angle_gamma   90.00000000
_symmetry_Int_Tables_number   1
_chemical_formula_structural   MnCoAs
_chemical_formula_sum   'Mn4 Co4 As4'
_cell_volume   155.39770614
_cell_formula_units_Z   4
loop_
 _symmetry_equiv_pos_site_id
 _symmetry_equiv_pos_as_xyz
  1  'x, y, z'
loop_
 _atom_site_type_symbol
 _atom_site_label
 _atom_site_symmetry_multiplicity
 _atom_site_fract_x
 _atom_site_fract_y
 _atom_site_fract_z
 _atom_site_occupancy
  Mn  Mn0  1  0.97011177  0.75000000  0.67185491  1.0
  Mn  Mn1  1  0.47011177  0.75000000  0.82814509  1.0
  Mn  Mn2  1  0.02988823  0.25000000  0.32814509  1.0
  Mn  Mn3  1  0.52988823  0.25000000  0.17185491  1.0
  Co  Co4  1  0.85936521  0.75000000  0.06395825  1.0
  Co  Co5  1  0.35936521  0.75000000  0.43604175  1.0
  Co  Co6  1  0.14063479  0.25000000  0.93604175  1.0
  Co  Co7  1  0.64063479  0.25000000  0.56395825  1.0
  As  As8  1  0.73761191  0.75000000  0.37444864  1.0
  As  As9  1  0.23761191  0.75000000  0.12555136  1.0
  As  As10  1  0.26238809  0.25000000  0.62555136  1.0
  As  As11  1  0.76238809  0.25000000  0.87444864  1.0
