# generated using pymatgen
data_Ti4Fe(PO4)6
_symmetry_space_group_name_H-M   'P 1'
_cell_length_a   8.53444201
_cell_length_b   8.53444201
_cell_length_c   8.53444201
_cell_angle_alpha   61.16312164
_cell_angle_beta   61.16312164
_cell_angle_gamma   61.16312164
_symmetry_Int_Tables_number   1
_chemical_formula_structural   Ti4Fe(PO4)6
_chemical_formula_sum   'Ti4 Fe1 P6 O24'
_cell_volume   451.05525936
_cell_formula_units_Z   1
loop_
 _symmetry_equiv_pos_site_id
 _symmetry_equiv_pos_as_xyz
  1  'x, y, z'
loop_
 _atom_site_type_symbol
 _atom_site_label
 _atom_site_symmetry_multiplicity
 _atom_site_fract_x
 _atom_site_fract_y
 _atom_site_fract_z
 _atom_site_occupancy
  Ti  Ti0  1  0.14458818  0.14458818  0.14458818  1.0
  Ti  Ti1  1  0.85541182  -0.14458818  -0.14458818  1.0
  Ti  Ti2  1  0.36864055  0.36864055  -0.63135945  1.0
  Ti  Ti3  1  0.63135945  0.63135945  -0.36864055  1.0
  Fe  Fe4  1  0.00000000  0.00000000  0.00000000  1.0
  P  P5  1  0.54339151  0.24772220  -0.03015843  1.0
  P  P6  1  1.03015843  -0.54339151  -0.24772220  1.0
  P  P7  1  0.75227780  0.03015843  -0.54339151  1.0
  P  P8  1  0.45660849  -0.24772220  0.03015843  1.0
  P  P9  1  0.96984157  -0.45660849  0.24772220  1.0
  P  P10  1  1.24772220  -0.03015843  -0.45660849  1.0
  O  O11  1  1.18191747  0.01099169  -0.61854916  1.0
  O  O12  1  0.61854916  -0.18191747  -0.01099169  1.0
  O  O13  1  0.98900831  -0.38145084  -0.18191747  1.0
  O  O14  1  0.81808253  -0.01099169  -0.38145084  1.0
  O  O15  1  0.38145084  0.18191747  0.01099169  1.0
  O  O16  1  1.01099169  -0.61854916  0.18191747  1.0
  O  O17  1  0.59283192  0.22261707  -0.55922175  1.0
  O  O18  1  0.55922175  0.40716808  -0.22261707  1.0
  O  O19  1  0.77738293  0.55922175  -0.59283192  1.0
  O  O20  1  0.40716808  0.77738293  -0.44077825  1.0
  O  O21  1  0.44077825  0.59283192  -0.77738293  1.0
  O  O22  1  0.22261707  0.44077825  -0.40716808  1.0
  O  O23  1  0.26269179  -0.08149023  0.04778061  1.0
  O  O24  1  0.95221939  -0.26269179  0.08149023  1.0
  O  O25  1  1.08149023  -0.04778061  -0.26269179  1.0
  O  O26  1  0.73730821  0.08149023  -0.04778061  1.0
  O  O27  1  1.04778061  -0.73730821  -0.08149023  1.0
  O  O28  1  0.91850977  0.04778061  -0.73730821  1.0
  O  O29  1  0.50218591  0.30522023  0.13308527  1.0
  O  O30  1  0.86691473  -0.50218591  -0.30522023  1.0
  O  O31  1  0.69477977  -0.13308527  -0.50218591  1.0
  O  O32  1  0.49781409  -0.30522023  -0.13308527  1.0
  O  O33  1  1.13308527  -0.49781409  0.30522023  1.0
  O  O34  1  1.30522023  0.13308527  -0.49781409  1.0
