# generated using pymatgen
data_Tl2S
_symmetry_space_group_name_H-M   'P 1'
_cell_length_a   9.70878308
_cell_length_b   9.70878308
_cell_length_c   9.70878308
_cell_angle_alpha   81.45404865
_cell_angle_beta   81.45404865
_cell_angle_gamma   81.45404865
_symmetry_Int_Tables_number   1
_chemical_formula_structural   Tl2S
_chemical_formula_sum   'Tl18 S9'
_cell_volume   887.42377774
_cell_formula_units_Z   9
loop_
 _symmetry_equiv_pos_site_id
 _symmetry_equiv_pos_as_xyz
  1  'x, y, z'
loop_
 _atom_site_type_symbol
 _atom_site_label
 _atom_site_symmetry_multiplicity
 _atom_site_fract_x
 _atom_site_fract_y
 _atom_site_fract_z
 _atom_site_occupancy
  Tl  Tl0  1  0.16630577  0.82952344  -0.80735631  1.0
  Tl  Tl1  1  0.82952344  0.19264369  -0.83369423  1.0
  Tl  Tl2  1  0.19264369  0.16630577  -0.17047656  1.0
  Tl  Tl3  1  0.49959178  0.16286781  -0.47399977  1.0
  Tl  Tl4  1  0.16286781  0.52600023  -0.50040822  1.0
  Tl  Tl5  1  0.52600023  0.49959178  -0.83713219  1.0
  Tl  Tl6  1  1.10569950  1.12996201  0.43505534  1.0
  Tl  Tl7  1  1.12996201  1.43505534  0.10569950  1.0
  Tl  Tl8  1  1.43505534  1.10569950  0.12996201  1.0
  Tl  Tl9  1  0.46315913  0.76836106  -0.56091967  1.0
  Tl  Tl10  1  0.76836106  0.43908033  -0.53684087  1.0
  Tl  Tl11  1  0.43908033  0.46315913  -0.23163894  1.0
  Tl  Tl12  1  0.85923774  0.83286074  -0.50379655  1.0
  Tl  Tl13  1  0.83286074  0.49620345  -0.14076226  1.0
  Tl  Tl14  1  0.49620345  0.85923774  -0.16713926  1.0
  Tl  Tl15  1  0.79652409  0.10171372  -0.22755166  1.0
  Tl  Tl16  1  1.10171372  -0.22755166  -0.20347591  1.0
  Tl  Tl17  1  0.77244834  -0.20347591  0.10171372  1.0
  S  S18  1  0.28910083  0.95579928  -0.37758114  1.0
  S  S19  1  0.95579928  0.62241886  -0.71089917  1.0
  S  S20  1  0.62241886  0.28910083  -0.04420072  1.0
  S  S21  1  0.65130884  0.98461663  -0.68201020  1.0
  S  S22  1  0.98461663  0.31798980  -0.34869116  1.0
  S  S23  1  0.31798980  0.65130884  -0.01538337  1.0
  S  S24  1  -0.01116437  -0.01116437  -0.01116437  1.0
  S  S25  1  0.32224368  0.32224368  -0.67775632  1.0
  S  S26  1  0.65544825  0.65544825  -0.34455175  1.0
