# generated using pymatgen
data_RhCl3
_symmetry_space_group_name_H-M   'P 1'
_cell_length_a   6.07902651
_cell_length_b   6.07902651
_cell_length_c   6.62990700
_cell_angle_alpha   81.39062453
_cell_angle_beta   98.60937547
_cell_angle_gamma   60.03287855
_symmetry_Int_Tables_number   1
_chemical_formula_structural   RhCl3
_chemical_formula_sum   'Rh2 Cl6'
_cell_volume   202.52492507
_cell_formula_units_Z   2
loop_
 _symmetry_equiv_pos_site_id
 _symmetry_equiv_pos_as_xyz
  1  'x, y, z'
loop_
 _atom_site_type_symbol
 _atom_site_label
 _atom_site_symmetry_multiplicity
 _atom_site_fract_x
 _atom_site_fract_y
 _atom_site_fract_z
 _atom_site_occupancy
  Rh  Rh0  1  0.83326956  -0.16673044  0.00000000  1.0
  Rh  Rh1  1  1.16673044  0.16673044  0.00000000  1.0
  Cl  Cl2  1  0.43241717  -0.07740399  0.79310580  1.0
  Cl  Cl3  1  1.07740399  0.56758283  0.79310580  1.0
  Cl  Cl4  1  0.92259601  -0.56758283  0.20689420  1.0
  Cl  Cl5  1  1.56758283  0.07740399  0.20689420  1.0
  Cl  Cl6  1  0.78752335  -0.78752335  0.79293691  1.0
  Cl  Cl7  1  0.21247665  -0.21247665  0.20706309  1.0
