# generated using pymatgen
data_BaH6C4O7
_symmetry_space_group_name_H-M   'P 1'
_cell_length_a   8.39156246
_cell_length_b   6.76854192
_cell_length_c   8.95764848
_cell_angle_alpha   64.39278630
_cell_angle_beta   62.28723630
_cell_angle_gamma   71.46927067
_symmetry_Int_Tables_number   1
_chemical_formula_structural   BaH6C4O7
_chemical_formula_sum   'Ba2 H12 C8 O14'
_cell_volume   401.80637798
_cell_formula_units_Z   2
loop_
 _symmetry_equiv_pos_site_id
 _symmetry_equiv_pos_as_xyz
  1  'x, y, z'
loop_
 _atom_site_type_symbol
 _atom_site_label
 _atom_site_symmetry_multiplicity
 _atom_site_fract_x
 _atom_site_fract_y
 _atom_site_fract_z
 _atom_site_occupancy
  Ba  Ba0  1  -0.07177974  -0.10418481  0.81654372  1.0
  Ba  Ba1  1  -0.92822026  0.10418481  0.18345628  1.0
  H  H2  1  -0.65274950  0.61037813  0.20403339  1.0
  H  H3  1  -0.34725050  -0.61037813  0.79596661  1.0
  H  H4  1  -0.88642933  0.31674400  0.45149252  1.0
  H  H5  1  -0.11357067  -0.31674400  0.54850748  1.0
  H  H6  1  -0.24288927  -0.58525552  0.97456303  1.0
  H  H7  1  -0.75711073  0.58525552  0.02543697  1.0
  H  H8  1  -0.73751757  -0.42784993  0.84598476  1.0
  H  H9  1  -0.26248243  0.42784993  0.15401524  1.0
  H  H10  1  -0.42996458  -0.78297376  0.99646313  1.0
  H  H11  1  -0.57003542  0.78297376  0.00353687  1.0
  H  H12  1  -0.90499152  -0.36834027  0.51162017  1.0
  H  H13  1  -0.09500848  0.36834027  0.48837983  1.0
  C  C14  1  -0.68560647  0.15433732  0.71514466  1.0
  C  C15  1  -0.31439353  -0.15433732  0.28485534  1.0
  C  C16  1  -0.62683851  0.29663775  0.52675984  1.0
  C  C17  1  -0.37316149  -0.29663775  0.47324016  1.0
  C  C18  1  -0.49248097  0.07773452  0.69565538  1.0
  C  C19  1  -0.50751903  -0.07773452  0.30434462  1.0
  C  C20  1  -0.43536062  0.21823681  0.50354475  1.0
  C  C21  1  -0.56463938  -0.21823681  0.49645525  1.0
  O  O22  1  -0.83843367  0.11325221  0.83888436  1.0
  O  O23  1  -0.16156633  -0.11325221  0.16111564  1.0
  O  O24  1  -0.71101691  0.42999694  0.42597776  1.0
  O  O25  1  -0.28898309  -0.42999694  0.57402224  1.0
  O  O26  1  -0.68254432  0.72312813  0.10081943  1.0
  O  O27  1  -0.31745568  -0.72312813  0.89918057  1.0
  O  O28  1  -0.41202440  -0.05363654  0.79814638  1.0
  O  O29  1  -0.58797560  0.05363654  0.20185362  1.0
  O  O30  1  -0.98835655  0.25141189  0.47147835  1.0
  O  O31  1  -0.01164345  -0.25141189  0.52852165  1.0
  O  O32  1  -0.80061581  -0.48771426  0.97816971  1.0
  O  O33  1  -0.19938419  0.48771426  0.02183029  1.0
  O  O34  1  -0.71437560  -0.25173199  0.62677843  1.0
  O  O35  1  -0.28562440  0.25173199  0.37322157  1.0
