# generated using pymatgen
data_KAgF4
_symmetry_space_group_name_H-M   'P 1'
_cell_length_a   7.23932455
_cell_length_b   7.23932455
_cell_length_c   7.23932455
_cell_angle_alpha   130.57703011
_cell_angle_beta   130.57703011
_cell_angle_gamma   72.48595685
_symmetry_Int_Tables_number   1
_chemical_formula_structural   KAgF4
_chemical_formula_sum   'K2 Ag2 F8'
_cell_volume   213.90573903
_cell_formula_units_Z   2
loop_
 _symmetry_equiv_pos_site_id
 _symmetry_equiv_pos_as_xyz
  1  'x, y, z'
loop_
 _atom_site_type_symbol
 _atom_site_label
 _atom_site_symmetry_multiplicity
 _atom_site_fract_x
 _atom_site_fract_y
 _atom_site_fract_z
 _atom_site_occupancy
  K  K0  1  0.75000000  0.75000000  1.00000000  1.0
  K  K1  1  0.25000000  0.25000000  -0.00000000  1.0
  Ag  Ag2  1  0.50000000  0.00000000  0.50000000  1.0
  Ag  Ag3  1  0.00000000  0.50000000  0.50000000  1.0
  F  F4  1  1.22071491  0.72071491  1.17411598  1.0
  F  F5  1  0.45340106  0.95340106  1.17411598  1.0
  F  F6  1  1.04659894  1.22071491  1.50000000  1.0
  F  F7  1  0.27928509  0.45340106  0.50000000  1.0
  F  F8  1  0.72071491  0.54659894  0.50000000  1.0
  F  F9  1  0.95340106  0.77928509  1.50000000  1.0
  F  F10  1  0.54659894  1.04659894  0.82588402  1.0
  F  F11  1  0.77928509  0.27928509  0.82588402  1.0
