# generated using pymatgen
data_CeF4
_symmetry_space_group_name_H-M   'P 1'
_cell_length_a   8.38095608
_cell_length_b   8.38095608
_cell_length_c   8.39997855
_cell_angle_alpha   63.34932487
_cell_angle_beta   116.65067513
_cell_angle_gamma   99.92349866
_symmetry_Int_Tables_number   1
_chemical_formula_structural   CeF4
_chemical_formula_sum   'Ce6 F24'
_cell_volume   471.00049039
_cell_formula_units_Z   6
loop_
 _symmetry_equiv_pos_site_id
 _symmetry_equiv_pos_as_xyz
  1  'x, y, z'
loop_
 _atom_site_type_symbol
 _atom_site_label
 _atom_site_symmetry_multiplicity
 _atom_site_fract_x
 _atom_site_fract_y
 _atom_site_fract_z
 _atom_site_occupancy
  Ce  Ce0  1  0.63094755  0.22462391  0.32858081  1.0
  Ce  Ce1  1  0.77537609  0.36905245  0.82858081  1.0
  Ce  Ce2  1  1.22462391  -0.36905245  0.17141919  1.0
  Ce  Ce3  1  1.36905245  -0.22462391  0.67141919  1.0
  Ce  Ce4  1  0.78839626  0.78839626  0.25000000  1.0
  Ce  Ce5  1  0.21160374  0.21160374  0.75000000  1.0
  F  F6  1  1.50423714  -0.25932304  0.21673902  1.0
  F  F7  1  1.25932304  -0.50423714  0.71673902  1.0
  F  F8  1  0.74067696  0.50423714  0.28326098  1.0
  F  F9  1  0.49576286  0.25932304  0.78326098  1.0
  F  F10  1  0.82250061  0.06487993  0.04378482  1.0
  F  F11  1  0.93512007  0.17749939  0.54378482  1.0
  F  F12  1  1.06487993  -0.17749939  0.45621518  1.0
  F  F13  1  1.17749939  -0.06487993  0.95621518  1.0
  F  F14  1  1.72675715  -0.02828943  0.35008590  1.0
  F  F15  1  1.02828943  -0.72675715  0.85008590  1.0
  F  F16  1  0.97171057  0.72675715  0.14991410  1.0
  F  F17  1  0.27324285  0.02828943  0.64991410  1.0
  F  F18  1  1.31823784  -0.25969590  0.39542950  1.0
  F  F19  1  1.25969590  -0.31823784  0.89542950  1.0
  F  F20  1  0.74030410  0.31823784  0.10457050  1.0
  F  F21  1  0.68176216  0.25969590  0.60457050  1.0
  F  F22  1  0.40538570  0.18811697  0.07434601  1.0
  F  F23  1  0.81188303  0.59461430  0.57434601  1.0
  F  F24  1  1.18811697  -0.59461430  0.42565399  1.0
  F  F25  1  1.59461430  -0.18811697  0.92565399  1.0
  F  F26  1  0.39845552  0.39845552  0.25000000  1.0
  F  F27  1  0.60154448  0.60154448  0.75000000  1.0
  F  F28  1  1.50000000  -0.00000000  0.50000000  1.0
  F  F29  1  1.00000000  0.50000000  0.00000000  1.0
