# generated using pymatgen
data_KNb(CuS2)2
_symmetry_space_group_name_H-M   'P 1'
_cell_length_a   9.73445022
_cell_length_b   9.73445022
_cell_length_c   7.56431821
_cell_angle_alpha   90.00000000
_cell_angle_beta   90.00000000
_cell_angle_gamma   33.12837816
_symmetry_Int_Tables_number   1
_chemical_formula_structural   KNb(CuS2)2
_chemical_formula_sum   'K2 Nb2 Cu4 S8'
_cell_volume   391.73842381
_cell_formula_units_Z   2
loop_
 _symmetry_equiv_pos_site_id
 _symmetry_equiv_pos_as_xyz
  1  'x, y, z'
loop_
 _atom_site_type_symbol
 _atom_site_label
 _atom_site_symmetry_multiplicity
 _atom_site_fract_x
 _atom_site_fract_y
 _atom_site_fract_z
 _atom_site_occupancy
  K  K0  1  0.55394286  1.08674014  0.25000000  1.0
  K  K1  1  -0.08674014  1.44605714  0.75000000  1.0
  Nb  Nb2  1  0.08941838  1.13036862  0.25000000  1.0
  Nb  Nb3  1  0.86963138  0.91058162  0.75000000  1.0
  Cu  Cu4  1  0.58358705  0.62448631  0.25000000  1.0
  Cu  Cu5  1  0.37551369  1.41641295  0.75000000  1.0
  Cu  Cu6  1  -0.00242170  0.00242170  0.50000000  1.0
  Cu  Cu7  1  -0.00242170  0.00242170  0.00000000  1.0
  S  S8  1  0.12003472  1.67022092  0.50311792  1.0
  S  S9  1  0.32977908  0.87996528  1.00311792  1.0
  S  S10  1  0.32977908  0.87996528  0.49688208  1.0
  S  S11  1  0.12003472  1.67022092  -0.00311792  1.0
  S  S12  1  -0.24934188  1.26076507  0.25000000  1.0
  S  S13  1  0.73923493  1.24934188  0.75000000  1.0
  S  S14  1  -0.06962608  1.48260439  0.25000000  1.0
  S  S15  1  0.51739561  1.06962608  0.75000000  1.0
