# generated using pymatgen
data_SrH2I2O7
_symmetry_space_group_name_H-M   'P 1'
_cell_length_a   8.08692150
_cell_length_b   8.08692150
_cell_length_c   8.98861123
_cell_angle_alpha   52.79443260
_cell_angle_beta   127.20556740
_cell_angle_gamma   120.63700868
_symmetry_Int_Tables_number   1
_chemical_formula_structural   SrH2I2O7
_chemical_formula_sum   'Sr2 H4 I4 O14'
_cell_volume   363.17617323
_cell_formula_units_Z   2
loop_
 _symmetry_equiv_pos_site_id
 _symmetry_equiv_pos_as_xyz
  1  'x, y, z'
loop_
 _atom_site_type_symbol
 _atom_site_label
 _atom_site_symmetry_multiplicity
 _atom_site_fract_x
 _atom_site_fract_y
 _atom_site_fract_z
 _atom_site_occupancy
  Sr  Sr0  1  1.32798068  0.32798068  0.75000000  1.0
  Sr  Sr1  1  0.67201932  0.67201932  0.25000000  1.0
  H  H2  1  1.69330572  -0.26461856  0.64190377  1.0
  H  H3  1  1.26461856  -0.69330572  0.14190377  1.0
  H  H4  1  0.73538144  -0.30669428  0.85809623  1.0
  H  H5  1  1.30669428  0.26461856  0.35809623  1.0
  I  I6  1  1.80039809  0.16202089  0.80843573  1.0
  I  I7  1  0.83797911  0.19960191  0.30843573  1.0
  I  I8  1  1.16202089  0.80039809  0.69156427  1.0
  I  I9  1  1.19960191  -0.16202089  0.19156427  1.0
  O  O10  1  0.43584602  -0.25008278  0.86662292  1.0
  O  O11  1  1.25008278  0.56415398  0.36662292  1.0
  O  O12  1  0.74991722  0.43584602  0.63337708  1.0
  O  O13  1  0.56415398  0.25008278  0.13337708  1.0
  O  O14  1  1.75109700  0.09229309  1.02202004  1.0
  O  O15  1  0.90770691  0.24890300  0.52202004  1.0
  O  O16  1  1.09229309  0.75109700  0.47797996  1.0
  O  O17  1  1.24890300  -0.09229309  -0.02202004  1.0
  O  O18  1  1.23039035  0.10532419  0.56800126  1.0
  O  O19  1  0.89467581  0.76960965  0.06800126  1.0
  O  O20  1  1.10532419  0.23039035  0.93199874  1.0
  O  O21  1  1.76960965  -0.10532419  0.43199874  1.0
  O  O22  1  0.64165760  -0.35834240  0.75000000  1.0
  O  O23  1  0.35834240  0.35834240  0.25000000  1.0
