# generated using pymatgen
data_Li2H2BrN
_symmetry_space_group_name_H-M   'P 1'
_cell_length_a   12.65820117
_cell_length_b   7.93883971
_cell_length_c   6.48107753
_cell_angle_alpha   90.00000000
_cell_angle_beta   90.00000000
_cell_angle_gamma   90.00000000
_symmetry_Int_Tables_number   1
_chemical_formula_structural   Li2H2BrN
_chemical_formula_sum   'Li16 H16 Br8 N8'
_cell_volume   651.29274947
_cell_formula_units_Z   8
loop_
 _symmetry_equiv_pos_site_id
 _symmetry_equiv_pos_as_xyz
  1  'x, y, z'
loop_
 _atom_site_type_symbol
 _atom_site_label
 _atom_site_symmetry_multiplicity
 _atom_site_fract_x
 _atom_site_fract_y
 _atom_site_fract_z
 _atom_site_occupancy
  Li  Li0  1  0.55969499  0.98850116  0.36140724  1.0
  Li  Li1  1  0.55969499  0.51149884  0.36140724  1.0
  Li  Li2  1  0.05969499  0.98850116  0.13859276  1.0
  Li  Li3  1  0.05969499  0.51149884  0.13859276  1.0
  Li  Li4  1  0.44030501  0.48850116  0.63859276  1.0
  Li  Li5  1  0.44030501  0.01149884  0.63859276  1.0
  Li  Li6  1  0.94030501  0.48850116  0.86140724  1.0
  Li  Li7  1  0.94030501  0.01149884  0.86140724  1.0
  Li  Li8  1  0.92725357  0.25000000  0.27747468  1.0
  Li  Li9  1  0.42725357  0.25000000  0.22252532  1.0
  Li  Li10  1  0.07274643  0.75000000  0.72252532  1.0
  Li  Li11  1  0.57274643  0.75000000  0.77747468  1.0
  Li  Li12  1  0.65268867  0.25000000  0.59278091  1.0
  Li  Li13  1  0.15268867  0.25000000  0.90721909  1.0
  Li  Li14  1  0.34731133  0.75000000  0.40721909  1.0
  Li  Li15  1  0.84731133  0.75000000  0.09278091  1.0
  H  H16  1  0.89860797  0.95701524  0.31251486  1.0
  H  H17  1  0.89860797  0.54298476  0.31251486  1.0
  H  H18  1  0.39860797  0.95701524  0.18748514  1.0
  H  H19  1  0.39860797  0.54298476  0.18748514  1.0
  H  H20  1  0.10139203  0.45701524  0.68748514  1.0
  H  H21  1  0.10139203  0.04298476  0.68748514  1.0
  H  H22  1  0.60139203  0.45701524  0.81251486  1.0
  H  H23  1  0.60139203  0.04298476  0.81251486  1.0
  H  H24  1  0.82461910  1.04293390  0.14151077  1.0
  H  H25  1  0.82461910  0.45706610  0.14151077  1.0
  H  H26  1  0.32461910  1.04293390  0.35848923  1.0
  H  H27  1  0.32461910  0.45706610  0.35848923  1.0
  H  H28  1  0.17538090  0.54293390  0.85848923  1.0
  H  H29  1  0.17538090  -0.04293390  0.85848923  1.0
  H  H30  1  0.67538090  0.54293390  0.64151077  1.0
  H  H31  1  0.67538090  -0.04293390  0.64151077  1.0
  Br  Br32  1  0.85828542  0.25000000  0.65883960  1.0
  Br  Br33  1  0.35828542  0.25000000  0.84116040  1.0
  Br  Br34  1  0.14171458  0.75000000  0.34116040  1.0
  Br  Br35  1  0.64171458  0.75000000  0.15883960  1.0
  Br  Br36  1  0.63617475  0.25000000  0.18282433  1.0
  Br  Br37  1  0.13617475  0.25000000  0.31717567  1.0
  Br  Br38  1  0.36382525  0.75000000  0.81717567  1.0
  Br  Br39  1  0.86382525  0.75000000  0.68282433  1.0
  N  N40  1  0.90055591  0.50016762  0.16264383  1.0
  N  N41  1  0.90055591  -0.00016762  0.16264383  1.0
  N  N42  1  0.40055591  0.50016762  0.33735617  1.0
  N  N43  1  0.40055591  -0.00016762  0.33735617  1.0
  N  N44  1  0.09944409  1.00016762  0.83735617  1.0
  N  N45  1  0.09944409  0.49983238  0.83735617  1.0
  N  N46  1  0.59944409  1.00016762  0.66264383  1.0
  N  N47  1  0.59944409  0.49983238  0.66264383  1.0
