# generated using pymatgen
data_KOsF6
_symmetry_space_group_name_H-M   'P 1'
_cell_length_a   5.16059870
_cell_length_b   5.16059870
_cell_length_c   5.16059870
_cell_angle_alpha   97.40493450
_cell_angle_beta   97.40493450
_cell_angle_gamma   97.40493450
_symmetry_Int_Tables_number   1
_chemical_formula_structural   KOsF6
_chemical_formula_sum   'K1 Os1 F6'
_cell_volume   133.66571368
_cell_formula_units_Z   1
loop_
 _symmetry_equiv_pos_site_id
 _symmetry_equiv_pos_as_xyz
  1  'x, y, z'
loop_
 _atom_site_type_symbol
 _atom_site_label
 _atom_site_symmetry_multiplicity
 _atom_site_fract_x
 _atom_site_fract_y
 _atom_site_fract_z
 _atom_site_occupancy
  K  K0  1  0.50000000  0.50000000  0.50000000  1.0
  Os  Os1  1  0.00000000  0.00000000  0.00000000  1.0
  F  F2  1  0.75075503  0.72733205  0.08214976  1.0
  F  F3  1  1.27266795  -0.08214976  0.24924497  1.0
  F  F4  1  0.91785024  0.24924497  0.27266795  1.0
  F  F5  1  1.24924497  0.27266795  -0.08214976  1.0
  F  F6  1  0.72733205  1.08214976  -0.24924497  1.0
  F  F7  1  1.08214976  0.75075503  -0.27266795  1.0
