# generated using pymatgen
data_Zr13Rh4
_symmetry_space_group_name_H-M   'P 1'
_cell_length_a   11.44691971
_cell_length_b   11.44691971
_cell_length_c   11.44691971
_cell_angle_alpha   60.00000000
_cell_angle_beta   60.00000000
_cell_angle_gamma   60.00000000
_symmetry_Int_Tables_number   1
_chemical_formula_structural   Zr13Rh4
_chemical_formula_sum   'Zr26 Rh8'
_cell_volume   1060.59826516
_cell_formula_units_Z   2
loop_
 _symmetry_equiv_pos_site_id
 _symmetry_equiv_pos_as_xyz
  1  'x, y, z'
loop_
 _atom_site_type_symbol
 _atom_site_label
 _atom_site_symmetry_multiplicity
 _atom_site_fract_x
 _atom_site_fract_y
 _atom_site_fract_z
 _atom_site_occupancy
  Zr  Zr0  1  0.93853841  -0.56146323  0.68438640  1.0
  Zr  Zr1  1  -0.06146159  0.68438640  0.43853677  1.0
  Zr  Zr2  1  -0.18853677  0.31146159  0.31146159  1.0
  Zr  Zr3  1  0.56561360  0.31146159  0.31146159  1.0
  Zr  Zr4  1  -0.56146323  0.93853841  0.68438640  1.0
  Zr  Zr5  1  0.93853841  -0.06146159  0.68438640  1.0
  Zr  Zr6  1  0.93853841  -0.31561360  0.93853841  1.0
  Zr  Zr7  1  -0.56146323  0.68438640  0.93853841  1.0
  Zr  Zr8  1  0.31146159  -0.18853677  0.31146159  1.0
  Zr  Zr9  1  0.31146159  0.31146159  -0.18853677  1.0
  Zr  Zr10  1  0.56561360  0.31146159  -0.18853677  1.0
  Zr  Zr11  1  0.56561360  -0.18853677  0.31146159  1.0
  Zr  Zr12  1  0.68438640  -0.06146159  0.93853841  1.0
  Zr  Zr13  1  -0.56146323  0.93853841  0.93853841  1.0
  Zr  Zr14  1  0.31146159  0.56561360  -0.18853677  1.0
  Zr  Zr15  1  0.31146159  -0.18853677  0.56561360  1.0
  Zr  Zr16  1  -0.31561360  0.93853841  0.43853677  1.0
  Zr  Zr17  1  0.68438640  -0.56146323  0.93853841  1.0
  Zr  Zr18  1  0.93853841  -0.56146323  0.93853841  1.0
  Zr  Zr19  1  -0.06146159  0.93853841  0.43853677  1.0
  Zr  Zr20  1  0.31146159  0.56561360  0.31146159  1.0
  Zr  Zr21  1  -0.18853677  0.56561360  0.31146159  1.0
  Zr  Zr22  1  -0.18853677  0.31146159  0.56561360  1.0
  Zr  Zr23  1  0.31146159  0.31146159  0.56561360  1.0
  Zr  Zr24  1  0.50000000  0.50000000  -0.50000000  1.0
  Zr  Zr25  1  0.75000000  -0.25000000  0.75000000  1.0
  Rh  Rh26  1  0.66493236  -0.33506764  1.00520293  1.0
  Rh  Rh27  1  0.66493236  0.00520293  0.66493236  1.0
  Rh  Rh28  1  0.58506764  -0.41493236  0.58506764  1.0
  Rh  Rh29  1  1.24479707  -0.41493236  0.58506764  1.0
  Rh  Rh30  1  1.00520293  -0.33506764  0.66493236  1.0
  Rh  Rh31  1  0.66493236  -0.33506764  0.66493236  1.0
  Rh  Rh32  1  0.58506764  0.24479707  0.58506764  1.0
  Rh  Rh33  1  0.58506764  -0.41493236  1.24479707  1.0
