# generated using pymatgen
data_K2VCuS2
_symmetry_space_group_name_H-M   'P 1'
_cell_length_a   17.98692250
_cell_length_b   17.12774835
_cell_length_c   6.79151718
_cell_angle_alpha   86.06752663
_cell_angle_beta   71.80355551
_cell_angle_gamma   22.12891785
_symmetry_Int_Tables_number   1
_chemical_formula_structural   K2VCuS2
_chemical_formula_sum   'K8 V4 Cu4 S8'
_cell_volume   589.39869481
_cell_formula_units_Z   4
loop_
 _symmetry_equiv_pos_site_id
 _symmetry_equiv_pos_as_xyz
  1  'x, y, z'
loop_
 _atom_site_type_symbol
 _atom_site_label
 _atom_site_symmetry_multiplicity
 _atom_site_fract_x
 _atom_site_fract_y
 _atom_site_fract_z
 _atom_site_occupancy
  K  K0  1  1.13139319  0.44183084  0.60487323  1.0
  K  K1  1  0.82190274  0.60487323  0.44183084  1.0
  K  K2  1  0.80816916  1.11860681  0.42809726  1.0
  K  K3  1  0.64512677  0.42809726  1.11860681  1.0
  K  K4  1  1.60487323  -0.17809726  0.13139319  1.0
  K  K5  1  1.44183084  0.13139319  -0.17809726  1.0
  K  K6  1  0.42809726  0.64512677  0.80816916  1.0
  K  K7  1  1.11860681  0.80816916  0.64512677  1.0
  V  V8  1  1.12500000  0.12500000  0.62500000  1.0
  V  V9  1  1.12500000  0.62500000  0.12500000  1.0
  V  V10  1  1.12500000  0.12500000  0.12500000  1.0
  V  V11  1  1.62500000  0.12500000  0.12500000  1.0
  Cu  Cu12  1  0.62500000  0.62500000  1.12500000  1.0
  Cu  Cu13  1  0.62500000  1.12500000  0.62500000  1.0
  Cu  Cu14  1  0.62500000  0.62500000  0.62500000  1.0
  Cu  Cu15  1  1.12500000  0.62500000  0.62500000  1.0
  S  S16  1  1.16793205  -0.04416074  0.60097665  1.0
  S  S17  1  1.27525203  0.60097665  -0.04416074  1.0
  S  S18  1  0.29416074  1.08206795  0.97474797  1.0
  S  S19  1  0.64902335  0.97474797  1.08206795  1.0
  S  S20  1  1.60097665  0.27525203  0.16793205  1.0
  S  S21  1  0.95583926  0.16793205  0.27525203  1.0
  S  S22  1  0.97474797  0.64902335  0.29416074  1.0
  S  S23  1  1.08206795  0.29416074  0.64902335  1.0
