# generated using pymatgen
data_Rb2Nb6VCl18
_symmetry_space_group_name_H-M   'P 1'
_cell_length_a   10.07703499
_cell_length_b   10.07703499
_cell_length_c   10.07703499
_cell_angle_alpha   55.46830283
_cell_angle_beta   55.46830283
_cell_angle_gamma   55.46830283
_symmetry_Int_Tables_number   1
_chemical_formula_structural   Rb2Nb6VCl18
_chemical_formula_sum   'Rb2 Nb6 V1 Cl18'
_cell_volume   647.43123594
_cell_formula_units_Z   1
loop_
 _symmetry_equiv_pos_site_id
 _symmetry_equiv_pos_as_xyz
  1  'x, y, z'
loop_
 _atom_site_type_symbol
 _atom_site_label
 _atom_site_symmetry_multiplicity
 _atom_site_fract_x
 _atom_site_fract_y
 _atom_site_fract_z
 _atom_site_occupancy
  Rb  Rb0  1  0.27577433  0.27577433  0.27577433  1.0
  Rb  Rb1  1  0.72422567  -0.27577433  -0.27577433  1.0
  Nb  Nb2  1  0.65337569  0.40439493  -0.69889225  1.0
  Nb  Nb3  1  0.69889226  0.34662431  -0.40439493  1.0
  Nb  Nb4  1  0.59560507  0.69889226  -0.65337569  1.0
  Nb  Nb5  1  0.34662431  0.59560507  -0.30110774  1.0
  Nb  Nb6  1  0.30110774  0.65337569  -0.59560507  1.0
  Nb  Nb7  1  0.40439493  0.30110774  -0.34662431  1.0
  V  V8  1  0.00000000  0.00000000  0.00000000  1.0
  Cl  Cl9  1  0.56886603  0.15409523  -0.55446246  1.0
  Cl  Cl10  1  0.55446246  0.43113397  -0.15409523  1.0
  Cl  Cl11  1  0.84590477  0.55446246  -0.56886603  1.0
  Cl  Cl12  1  0.43113397  0.84590477  -0.44553754  1.0
  Cl  Cl13  1  0.44553754  0.56886603  -0.84590477  1.0
  Cl  Cl14  1  0.15409523  0.44553754  -0.43113397  1.0
  Cl  Cl15  1  0.37574081  0.91417815  -0.78816398  1.0
  Cl  Cl16  1  0.78816398  -0.37574081  0.08582185  1.0
  Cl  Cl17  1  1.08582185  -0.21183602  -0.37574081  1.0
  Cl  Cl18  1  0.62425919  0.08582185  -0.21183602  1.0
  Cl  Cl19  1  0.21183602  0.37574081  -0.08582185  1.0
  Cl  Cl20  1  0.91417815  0.21183602  -0.62425919  1.0
  Cl  Cl21  1  0.28683078  0.04180370  -0.15575360  1.0
  Cl  Cl22  1  1.15575360  -0.28683078  -0.04180370  1.0
  Cl  Cl23  1  0.95819630  0.15575360  -0.28683078  1.0
  Cl  Cl24  1  0.71316922  -0.04180370  0.15575360  1.0
  Cl  Cl25  1  0.84424640  -0.71316922  0.04180370  1.0
  Cl  Cl26  1  1.04180370  -0.15575360  -0.71316922  1.0
