# generated using pymatgen
data_Y(Al2Mo)2
_symmetry_space_group_name_H-M   'P 1'
_cell_length_a   5.46414445
_cell_length_b   5.46414445
_cell_length_c   5.46414445
_cell_angle_alpha   103.91018387
_cell_angle_beta   103.91018387
_cell_angle_gamma   121.27852716
_symmetry_Int_Tables_number   1
_chemical_formula_structural   Y(Al2Mo)2
_chemical_formula_sum   'Y1 Al4 Mo2'
_cell_volume   121.52031576
_cell_formula_units_Z   1
loop_
 _symmetry_equiv_pos_site_id
 _symmetry_equiv_pos_as_xyz
  1  'x, y, z'
loop_
 _atom_site_type_symbol
 _atom_site_label
 _atom_site_symmetry_multiplicity
 _atom_site_fract_x
 _atom_site_fract_y
 _atom_site_fract_z
 _atom_site_occupancy
  Y  Y0  1  0.00000000  0.00000000  0.00000000  1.0
  Al  Al1  1  0.69450948  0.69450948  0.38901897  1.0
  Al  Al2  1  1.30549052  0.69450948  1.00000000  1.0
  Al  Al3  1  0.69450948  0.30549052  1.00000000  1.0
  Al  Al4  1  0.30549052  0.30549052  0.61098103  1.0
  Mo  Mo5  1  0.25000000  0.75000000  0.50000000  1.0
  Mo  Mo6  1  0.75000000  1.25000000  0.50000000  1.0
