# generated using pymatgen
data_YP5
_symmetry_space_group_name_H-M   'P 1'
_cell_length_a   4.95551498
_cell_length_b   9.43999900
_cell_length_c   5.36517127
_cell_angle_alpha   90.00000000
_cell_angle_beta   102.18762058
_cell_angle_gamma   90.00000000
_symmetry_Int_Tables_number   1
_chemical_formula_structural   YP5
_chemical_formula_sum   'Y2 P10'
_cell_volume   245.32624206
_cell_formula_units_Z   2
loop_
 _symmetry_equiv_pos_site_id
 _symmetry_equiv_pos_as_xyz
  1  'x, y, z'
loop_
 _atom_site_type_symbol
 _atom_site_label
 _atom_site_symmetry_multiplicity
 _atom_site_fract_x
 _atom_site_fract_y
 _atom_site_fract_z
 _atom_site_occupancy
  Y  Y0  1  0.50380585  0.25000000  0.84681223  1.0
  Y  Y1  1  0.49619415  0.75000000  0.15318777  1.0
  P  P2  1  0.88369978  0.90725845  0.54462879  1.0
  P  P3  1  0.88369978  0.59274155  0.54462879  1.0
  P  P4  1  0.11630022  0.40725845  0.45537121  1.0
  P  P5  1  0.11630022  0.09274155  0.45537121  1.0
  P  P6  1  0.78524957  0.97160045  0.90504892  1.0
  P  P7  1  0.78524957  0.52839955  0.90504892  1.0
  P  P8  1  0.21475043  0.47160045  0.09495108  1.0
  P  P9  1  0.21475043  0.02839955  0.09495108  1.0
  P  P10  1  0.77524508  0.25000000  0.39226063  1.0
  P  P11  1  0.22475492  0.75000000  0.60773937  1.0
