# generated using pymatgen
data_Na6Sn2S7
_symmetry_space_group_name_H-M   'P 1'
_cell_length_a   7.22858462
_cell_length_b   7.22858462
_cell_length_c   15.36088293
_cell_angle_alpha   80.12654812
_cell_angle_beta   99.87345188
_cell_angle_gamma   82.97347015
_symmetry_Int_Tables_number   1
_chemical_formula_structural   Na6Sn2S7
_chemical_formula_sum   'Na12 Sn4 S14'
_cell_volume   769.46530750
_cell_formula_units_Z   2
loop_
 _symmetry_equiv_pos_site_id
 _symmetry_equiv_pos_as_xyz
  1  'x, y, z'
loop_
 _atom_site_type_symbol
 _atom_site_label
 _atom_site_symmetry_multiplicity
 _atom_site_fract_x
 _atom_site_fract_y
 _atom_site_fract_z
 _atom_site_occupancy
  Na  Na0  1  1.46181202  -0.00370341  0.36349920  1.0
  Na  Na1  1  1.00370341  -0.46181202  0.86349920  1.0
  Na  Na2  1  0.99629659  0.46181202  0.13650080  1.0
  Na  Na3  1  0.53818798  0.00370341  0.63650080  1.0
  Na  Na4  1  1.45135431  0.26130787  0.07281099  1.0
  Na  Na5  1  0.73869213  -0.45135431  0.57281099  1.0
  Na  Na6  1  1.26130787  0.45135431  0.42718901  1.0
  Na  Na7  1  0.54864569  -0.26130787  0.92718901  1.0
  Na  Na8  1  0.93154361  -0.06845639  0.25000000  1.0
  Na  Na9  1  1.06845639  0.06845639  0.75000000  1.0
  Na  Na10  1  -0.00000000  0.00000000  0.50000000  1.0
  Na  Na11  1  0.00000000  0.00000000  0.00000000  1.0
  Sn  Sn12  1  0.42960603  -0.25199105  0.13742277  1.0
  Sn  Sn13  1  1.25199105  0.57039397  0.63742277  1.0
  Sn  Sn14  1  0.74800895  -0.57039397  0.36257723  1.0
  Sn  Sn15  1  1.57039397  0.25199105  0.86257723  1.0
  S  S16  1  0.72927248  -0.18888031  0.10362804  1.0
  S  S17  1  1.18888031  0.27072752  0.60362804  1.0
  S  S18  1  0.81111969  -0.27072752  0.39637196  1.0
  S  S19  1  1.27072752  0.18888031  0.89637196  1.0
  S  S20  1  1.64283479  0.23365700  0.48302911  1.0
  S  S21  1  0.76634300  -0.64283479  0.98302911  1.0
  S  S22  1  1.23365700  0.64283479  0.01697089  1.0
  S  S23  1  0.35716521  -0.23365700  0.51697089  1.0
  S  S24  1  1.25989872  0.01167864  0.18128160  1.0
  S  S25  1  0.98832136  -0.25989872  0.68128160  1.0
  S  S26  1  1.01167864  0.25989872  0.31871840  1.0
  S  S27  1  0.74010128  -0.01167864  0.81871840  1.0
  S  S28  1  1.45383214  0.45383214  0.25000000  1.0
  S  S29  1  0.54616786  -0.45383214  0.75000000  1.0
