# generated using pymatgen
data_SnH14C4(NCl2)2
_symmetry_space_group_name_H-M   'P 1'
_cell_length_a   6.36877372
_cell_length_b   8.75630840
_cell_length_c   13.32265060
_cell_angle_alpha   90.00000000
_cell_angle_beta   111.63530893
_cell_angle_gamma   90.00000000
_symmetry_Int_Tables_number   1
_chemical_formula_structural   SnH14C4(NCl2)2
_chemical_formula_sum   'Sn2 H28 C8 N4 Cl8'
_cell_volume   690.62135648
_cell_formula_units_Z   2
loop_
 _symmetry_equiv_pos_site_id
 _symmetry_equiv_pos_as_xyz
  1  'x, y, z'
loop_
 _atom_site_type_symbol
 _atom_site_label
 _atom_site_symmetry_multiplicity
 _atom_site_fract_x
 _atom_site_fract_y
 _atom_site_fract_z
 _atom_site_occupancy
  Sn  Sn0  1  0.50000000  0.00000000  0.50000000  1.0
  Sn  Sn1  1  0.50000000  0.50000000  -0.00000000  1.0
  H  H2  1  0.89190414  0.14169325  0.53083344  1.0
  H  H3  1  0.89190414  0.35830675  0.03083344  1.0
  H  H4  1  0.10809586  0.85830675  0.46916656  1.0
  H  H5  1  0.10809586  0.64169325  0.96916656  1.0
  H  H6  1  0.07515621  0.22625325  0.71163176  1.0
  H  H7  1  0.07515621  0.27374675  0.21163176  1.0
  H  H8  1  0.92484379  0.77374675  0.28836824  1.0
  H  H9  1  0.92484379  0.72625325  0.78836824  1.0
  H  H10  1  0.97194186  0.03524024  0.70589666  1.0
  H  H11  1  0.97194186  0.46475976  0.20589666  1.0
  H  H12  1  0.02805814  0.96475976  0.29410334  1.0
  H  H13  1  0.02805814  0.53524024  0.79410334  1.0
  H  H14  1  0.81995611  0.18995262  0.73512580  1.0
  H  H15  1  0.81995611  0.31004738  0.23512580  1.0
  H  H16  1  0.18004389  0.81004738  0.26487420  1.0
  H  H17  1  0.18004389  0.68995262  0.76487420  1.0
  H  H18  1  0.61661520  0.37263029  0.58693255  1.0
  H  H19  1  0.61661520  0.12736971  0.08693255  1.0
  H  H20  1  0.38338480  0.62736971  0.41306745  1.0
  H  H21  1  0.38338480  0.87263029  0.91306745  1.0
  H  H22  1  0.63062967  0.34407656  0.45658110  1.0
  H  H23  1  0.63062967  0.15592344  0.95658110  1.0
  H  H24  1  0.36937033  0.65592344  0.54341890  1.0
  H  H25  1  0.36937033  0.84407656  0.04341890  1.0
  H  H26  1  0.87637059  0.40581724  0.56721994  1.0
  H  H27  1  0.87637059  0.09418276  0.06721994  1.0
  H  H28  1  0.12362941  0.59418276  0.43278006  1.0
  H  H29  1  0.12362941  0.90581724  0.93278006  1.0
  C  C30  1  0.92256607  0.15500855  0.68882776  1.0
  C  C31  1  0.92256607  0.34499145  0.18882776  1.0
  C  C32  1  0.07743393  0.84499145  0.31117224  1.0
  C  C33  1  0.07743393  0.65500855  0.81117224  1.0
  C  C34  1  0.72378910  0.33444425  0.54373010  1.0
  C  C35  1  0.72378910  0.16555575  0.04373010  1.0
  C  C36  1  0.27621090  0.66555575  0.45626990  1.0
  C  C37  1  0.27621090  0.83444425  0.95626990  1.0
  N  N38  1  0.78931292  0.17319638  0.57192820  1.0
  N  N39  1  0.78931292  0.32680362  0.07192820  1.0
  N  N40  1  0.21068708  0.82680362  0.42807180  1.0
  N  N41  1  0.21068708  0.67319638  0.92807180  1.0
  Cl  Cl42  1  0.48204488  0.93543501  0.67535197  1.0
  Cl  Cl43  1  0.48204488  0.56456499  0.17535197  1.0
  Cl  Cl44  1  0.51795512  0.06456499  0.32464803  1.0
  Cl  Cl45  1  0.51795512  0.43543501  0.82464803  1.0
  Cl  Cl46  1  0.79882645  0.80553611  0.52806523  1.0
  Cl  Cl47  1  0.79882645  0.69446389  0.02806523  1.0
  Cl  Cl48  1  0.20117355  0.19446389  0.47193477  1.0
  Cl  Cl49  1  0.20117355  0.30553611  0.97193477  1.0
