# generated using pymatgen
data_P4WC5S3O5
_symmetry_space_group_name_H-M   'P 1'
_cell_length_a   12.00509896
_cell_length_b   10.05829990
_cell_length_c   7.68776215
_cell_angle_alpha   82.98369537
_cell_angle_beta   83.79034241
_cell_angle_gamma   88.22742853
_symmetry_Int_Tables_number   1
_chemical_formula_structural   P4WC5S3O5
_chemical_formula_sum   'P8 W2 C10 S6 O10'
_cell_volume   915.79889742
_cell_formula_units_Z   2
loop_
 _symmetry_equiv_pos_site_id
 _symmetry_equiv_pos_as_xyz
  1  'x, y, z'
loop_
 _atom_site_type_symbol
 _atom_site_label
 _atom_site_symmetry_multiplicity
 _atom_site_fract_x
 _atom_site_fract_y
 _atom_site_fract_z
 _atom_site_occupancy
  P  P0  1  -0.41562845  -0.69765557  -0.17158062  1.0
  P  P1  1  -0.58437155  -0.30234443  -0.82841938  1.0
  P  P2  1  -0.39815384  -0.71738868  -0.46534786  1.0
  P  P3  1  -0.60184616  -0.28261132  -0.53465214  1.0
  P  P4  1  -0.41086228  -0.90422677  -0.26572749  1.0
  P  P5  1  -0.58913772  -0.09577323  -0.73427251  1.0
  P  P6  1  -0.65963949  -0.76230287  -0.29640140  1.0
  P  P7  1  -0.34036051  -0.23769713  -0.70359860  1.0
  W  W8  1  -0.86767247  -0.75339628  -0.28839562  1.0
  W  W9  1  -0.13232753  -0.24660372  -0.71160438  1.0
  C  C10  1  -0.86618722  -0.93872080  -0.37422534  1.0
  C  C11  1  -0.13381278  -0.06127920  -0.62577466  1.0
  C  C12  1  -0.87983466  -0.84301351  -0.03293953  1.0
  C  C13  1  -0.12016534  -0.15698649  -0.96706047  1.0
  C  C14  1  -0.87196252  -0.56728334  -0.20325253  1.0
  C  C15  1  -0.12803748  -0.43271666  -0.79674747  1.0
  C  C16  1  -0.85833272  -0.66541239  -0.54458996  1.0
  C  C17  1  -0.14166728  -0.33458761  -0.45541004  1.0
  C  C18  1  -0.03569198  -0.74722519  -0.27734905  1.0
  C  C19  1  -0.96430802  -0.25277481  -0.72265095  1.0
  S  S20  1  -0.58083452  -0.95361261  -0.24667557  1.0
  S  S21  1  -0.41916548  -0.04638739  -0.75332443  1.0
  S  S22  1  -0.56243329  -0.68669726  -0.53367970  1.0
  S  S23  1  -0.43756671  -0.31330274  -0.46632030  1.0
  S  S24  1  -0.58747312  -0.65815343  -0.11300018  1.0
  S  S25  1  -0.41252688  -0.34184657  -0.88699982  1.0
  O  O26  1  -0.86689131  -0.04341760  -0.42174885  1.0
  O  O27  1  -0.13310869  -0.95658240  -0.57825115  1.0
  O  O28  1  -0.88861831  -0.89493957  -0.88939947  1.0
  O  O29  1  -0.11138169  -0.10506043  -0.11060053  1.0
  O  O30  1  -0.87617576  -0.46216727  -0.15630360  1.0
  O  O31  1  -0.12382424  -0.53783273  -0.84369640  1.0
  O  O32  1  -0.85501960  -0.61554887  -0.68887376  1.0
  O  O33  1  -0.14498040  -0.38445113  -0.31112624  1.0
  O  O34  1  -0.13278224  -0.74369603  -0.27043024  1.0
  O  O35  1  -0.86721776  -0.25630397  -0.72956976  1.0
