# generated using pymatgen
data_K3NbSe4
_symmetry_space_group_name_H-M   'P 1'
_cell_length_a   9.75498771
_cell_length_b   11.29809011
_cell_length_c   9.89917876
_cell_angle_alpha   90.00000000
_cell_angle_beta   90.00000000
_cell_angle_gamma   90.00000000
_symmetry_Int_Tables_number   1
_chemical_formula_structural   K3NbSe4
_chemical_formula_sum   'K12 Nb4 Se16'
_cell_volume   1091.01551841
_cell_formula_units_Z   4
loop_
 _symmetry_equiv_pos_site_id
 _symmetry_equiv_pos_as_xyz
  1  'x, y, z'
loop_
 _atom_site_type_symbol
 _atom_site_label
 _atom_site_symmetry_multiplicity
 _atom_site_fract_x
 _atom_site_fract_y
 _atom_site_fract_z
 _atom_site_occupancy
  K  K0  1  0.44044645  0.45221239  0.79156554  1.0
  K  K1  1  0.44044645  0.04778761  0.79156554  1.0
  K  K2  1  0.94044645  0.45221239  0.70843446  1.0
  K  K3  1  0.94044645  0.04778761  0.70843446  1.0
  K  K4  1  0.55955355  0.95221239  0.20843446  1.0
  K  K5  1  0.55955355  0.54778761  0.20843446  1.0
  K  K6  1  0.05955355  0.95221239  0.29156554  1.0
  K  K7  1  0.05955355  0.54778761  0.29156554  1.0
  K  K8  1  0.12769299  0.25000000  0.08200617  1.0
  K  K9  1  0.62769299  0.25000000  0.41799383  1.0
  K  K10  1  0.87230701  0.75000000  0.91799383  1.0
  K  K11  1  0.37230701  0.75000000  0.58200617  1.0
  Nb  Nb12  1  0.21283691  0.25000000  0.51339740  1.0
  Nb  Nb13  1  0.71283691  0.25000000  0.98660260  1.0
  Nb  Nb14  1  0.78716309  0.75000000  0.48660260  1.0
  Nb  Nb15  1  0.28716309  0.75000000  0.01339740  1.0
  Se  Se16  1  0.16499816  0.92644404  0.94783143  1.0
  Se  Se17  1  0.16499816  0.57355596  0.94783143  1.0
  Se  Se18  1  0.66499816  0.92644404  0.55216857  1.0
  Se  Se19  1  0.66499816  0.57355596  0.55216857  1.0
  Se  Se20  1  0.83500184  0.42644404  0.05216857  1.0
  Se  Se21  1  0.83500184  0.07355596  0.05216857  1.0
  Se  Se22  1  0.33500184  0.42644404  0.44783143  1.0
  Se  Se23  1  0.33500184  0.07355596  0.44783143  1.0
  Se  Se24  1  0.48697805  0.25000000  0.08773610  1.0
  Se  Se25  1  0.98697805  0.25000000  0.41226390  1.0
  Se  Se26  1  0.51302195  0.75000000  0.91226390  1.0
  Se  Se27  1  0.01302195  0.75000000  0.58773610  1.0
  Se  Se28  1  0.18864484  0.25000000  0.75636161  1.0
  Se  Se29  1  0.68864484  0.25000000  0.74363839  1.0
  Se  Se30  1  0.81135516  0.75000000  0.24363839  1.0
  Se  Se31  1  0.31135516  0.75000000  0.25636161  1.0
