# generated using pymatgen
data_LuSBr
_symmetry_space_group_name_H-M   'P 1'
_cell_length_a   5.28639417
_cell_length_b   3.96006193
_cell_length_c   9.14643968
_cell_angle_alpha   90.00000000
_cell_angle_beta   90.00000000
_cell_angle_gamma   90.00000000
_symmetry_Int_Tables_number   1
_chemical_formula_structural   LuSBr
_chemical_formula_sum   'Lu2 S2 Br2'
_cell_volume   191.47566876
_cell_formula_units_Z   2
loop_
 _symmetry_equiv_pos_site_id
 _symmetry_equiv_pos_as_xyz
  1  'x, y, z'
loop_
 _atom_site_type_symbol
 _atom_site_label
 _atom_site_symmetry_multiplicity
 _atom_site_fract_x
 _atom_site_fract_y
 _atom_site_fract_z
 _atom_site_occupancy
  Lu  Lu0  1  0.50000000  0.50000000  0.62147637  1.0
  Lu  Lu1  1  0.00000000  0.00000000  0.37852363  1.0
  S  S2  1  0.00000000  0.50000000  0.57788672  1.0
  S  S3  1  0.50000000  0.00000000  0.42211328  1.0
  Br  Br4  1  0.00000000  0.50000000  0.16560717  1.0
  Br  Br5  1  0.50000000  0.00000000  0.83439283  1.0
