# generated using pymatgen
data_Ca3GeO
_symmetry_space_group_name_H-M   'P 1'
_cell_length_a   6.68946619
_cell_length_b   9.46296316
_cell_length_c   6.71782205
_cell_angle_alpha   90.00000000
_cell_angle_beta   90.00000000
_cell_angle_gamma   90.00000000
_symmetry_Int_Tables_number   1
_chemical_formula_structural   Ca3GeO
_chemical_formula_sum   'Ca12 Ge4 O4'
_cell_volume   425.25272772
_cell_formula_units_Z   4
loop_
 _symmetry_equiv_pos_site_id
 _symmetry_equiv_pos_as_xyz
  1  'x, y, z'
loop_
 _atom_site_type_symbol
 _atom_site_label
 _atom_site_symmetry_multiplicity
 _atom_site_fract_x
 _atom_site_fract_y
 _atom_site_fract_z
 _atom_site_occupancy
  Ca  Ca0  1  0.24992738  0.97859086  0.75005551  1.0
  Ca  Ca1  1  0.24992738  0.52140914  0.75005551  1.0
  Ca  Ca2  1  0.74992738  0.97859086  0.74994449  1.0
  Ca  Ca3  1  0.74992738  0.52140914  0.74994449  1.0
  Ca  Ca4  1  0.75007262  0.47859086  0.24994449  1.0
  Ca  Ca5  1  0.75007262  0.02140914  0.24994449  1.0
  Ca  Ca6  1  0.25007262  0.47859086  0.25005551  1.0
  Ca  Ca7  1  0.25007262  0.02140914  0.25005551  1.0
  Ca  Ca8  1  0.99999406  0.75000000  0.04193115  1.0
  Ca  Ca9  1  0.49999406  0.75000000  0.45806885  1.0
  Ca  Ca10  1  0.00000594  0.25000000  0.95806885  1.0
  Ca  Ca11  1  0.50000594  0.25000000  0.54193115  1.0
  Ge  Ge12  1  -0.00014361  0.75000000  0.50119769  1.0
  Ge  Ge13  1  0.49985639  0.75000000  -0.00119769  1.0
  Ge  Ge14  1  1.00014361  0.25000000  0.49880231  1.0
  Ge  Ge15  1  0.50014361  0.25000000  1.00119769  1.0
  O  O16  1  0.50000000  0.00000000  0.50000000  1.0
  O  O17  1  0.50000000  0.50000000  0.50000000  1.0
  O  O18  1  0.00000000  0.00000000  0.00000000  1.0
  O  O19  1  0.00000000  0.50000000  0.00000000  1.0
