# generated using pymatgen
data_P2W5O19
_symmetry_space_group_name_H-M   'P 1'
_cell_length_a   6.66996389
_cell_length_b   5.38659593
_cell_length_c   20.88617155
_cell_angle_alpha   90.00000000
_cell_angle_beta   96.13120679
_cell_angle_gamma   90.00000000
_symmetry_Int_Tables_number   1
_chemical_formula_structural   P2W5O19
_chemical_formula_sum   'P4 W10 O38'
_cell_volume   746.11434542
_cell_formula_units_Z   2
loop_
 _symmetry_equiv_pos_site_id
 _symmetry_equiv_pos_as_xyz
  1  'x, y, z'
loop_
 _atom_site_type_symbol
 _atom_site_label
 _atom_site_symmetry_multiplicity
 _atom_site_fract_x
 _atom_site_fract_y
 _atom_site_fract_z
 _atom_site_occupancy
  P  P0  1  0.78494718  0.28227654  0.76553238  1.0
  P  P1  1  0.21505282  0.78227654  0.23446762  1.0
  P  P2  1  0.75149065  0.28271468  0.34115791  1.0
  P  P3  1  0.24850935  0.78271468  0.65884209  1.0
  W  W4  1  0.89220926  0.28217409  0.18332114  1.0
  W  W5  1  0.10779074  0.78217409  0.81667886  1.0
  W  W6  1  0.84885983  0.78271763  0.53717485  1.0
  W  W7  1  0.15114017  0.28271763  0.46282515  1.0
  W  W8  1  0.82150649  0.78208387  0.96447362  1.0
  W  W9  1  0.17849351  0.28208387  0.03552638  1.0
  W  W10  1  0.53920692  0.28269694  0.60889433  1.0
  W  W11  1  0.46079308  0.78269694  0.39110567  1.0
  W  W12  1  0.46935990  0.28206187  0.88901695  1.0
  W  W13  1  0.53064010  0.78206187  0.11098305  1.0
  O  O14  1  0.99997972  0.03277765  0.50001825  1.0
  O  O15  1  0.00002028  0.53277765  0.49998175  1.0
  O  O16  1  0.99988966  0.03216578  1.00002212  1.0
  O  O17  1  0.00011034  0.53216578  -0.00002212  1.0
  O  O18  1  0.96771181  0.78226737  0.88753279  1.0
  O  O19  1  0.03228819  0.28226737  0.11246721  1.0
  O  O20  1  0.95766430  0.28267525  0.38343245  1.0
  O  O21  1  0.04233570  0.78267525  0.61656755  1.0
  O  O22  1  0.91182311  0.51974416  0.77673206  1.0
  O  O23  1  0.08817689  1.01974416  0.22326794  1.0
  O  O24  1  0.91198222  0.04495768  0.77669662  1.0
  O  O25  1  0.08801778  0.54495768  0.22330338  1.0
  O  O26  1  0.78651674  0.28236583  0.26965202  1.0
  O  O27  1  0.21348326  0.78236583  0.73034798  1.0
  O  O28  1  0.69478214  0.52964417  0.57820582  1.0
  O  O29  1  0.30521786  0.02964417  0.42179418  1.0
  O  O30  1  0.69663253  0.28246037  0.69343525  1.0
  O  O31  1  0.30336747  0.78246037  0.30656475  1.0
  O  O32  1  0.69462162  0.03554005  0.57822144  1.0
  O  O33  1  0.30537838  0.53554005  0.42177856  1.0
  O  O34  1  0.64085080  0.53183651  0.92384934  1.0
  O  O35  1  0.35914920  1.03183651  0.07615066  1.0
  O  O36  1  0.63469472  0.04547335  0.35516436  1.0
  O  O37  1  0.36530528  0.54547335  0.64483564  1.0
  O  O38  1  0.64075016  0.03213571  0.92381507  1.0
  O  O39  1  0.35924984  0.53213571  0.07618493  1.0
  O  O40  1  0.60779258  0.28208880  0.80740377  1.0
  O  O41  1  0.39220742  0.78208880  0.19259623  1.0
  O  O42  1  0.36502542  0.02023183  0.64488991  1.0
  O  O43  1  0.63497458  0.52023183  0.35511009  1.0
  O  O44  1  0.35163796  0.28276786  0.53428780  1.0
  O  O45  1  0.64836204  0.78276786  0.46571220  1.0
  O  O46  1  0.32125997  0.28201730  0.96034068  1.0
  O  O47  1  0.67874003  0.78201730  0.03965932  1.0
  O  O48  1  0.28289398  0.53419509  0.84614054  1.0
  O  O49  1  0.71710602  0.03419509  0.15385946  1.0
  O  O50  1  0.28292269  0.03012963  0.84612743  1.0
  O  O51  1  0.71707731  0.53012963  0.15387257  1.0
