# generated using pymatgen
data_CrSbS3
_symmetry_space_group_name_H-M   'P 1'
_cell_length_a   8.88001634
_cell_length_b   3.66376120
_cell_length_c   12.84782822
_cell_angle_alpha   90.00000000
_cell_angle_beta   90.00000000
_cell_angle_gamma   90.00000000
_symmetry_Int_Tables_number   1
_chemical_formula_structural   CrSbS3
_chemical_formula_sum   'Cr4 Sb4 S12'
_cell_volume   417.99457448
_cell_formula_units_Z   4
loop_
 _symmetry_equiv_pos_site_id
 _symmetry_equiv_pos_as_xyz
  1  'x, y, z'
loop_
 _atom_site_type_symbol
 _atom_site_label
 _atom_site_symmetry_multiplicity
 _atom_site_fract_x
 _atom_site_fract_y
 _atom_site_fract_z
 _atom_site_occupancy
  S  S0  1  0.82598412  0.75000000  0.48672791  1.0
  S  S1  1  0.32598412  0.75000000  0.01327209  1.0
  S  S2  1  0.17401588  0.25000000  0.51327209  1.0
  S  S3  1  0.67401588  0.25000000  0.98672791  1.0
  S  S4  1  0.71228175  0.75000000  0.20884823  1.0
  S  S5  1  0.21228175  0.75000000  0.29115177  1.0
  S  S6  1  0.28771825  0.25000000  0.79115177  1.0
  S  S7  1  0.78771825  0.25000000  0.70884823  1.0
  S  S8  1  0.50355463  0.75000000  0.60426736  1.0
  S  S9  1  1.00355463  0.75000000  0.89573264  1.0
  S  S10  1  0.49644537  0.25000000  0.39573264  1.0
  S  S11  1  -0.00355463  0.25000000  0.10426736  1.0
  Cr  Cr12  1  0.84340789  0.75000000  0.04360725  1.0
  Cr  Cr13  1  0.34340789  0.75000000  0.45639275  1.0
  Cr  Cr14  1  0.15659211  0.25000000  0.95639275  1.0
  Cr  Cr15  1  0.65659211  0.25000000  0.54360725  1.0
  Sb  Sb16  1  0.97398706  0.75000000  0.65977154  1.0
  Sb  Sb17  1  0.47398706  0.75000000  0.84022846  1.0
  Sb  Sb18  1  0.02601294  0.25000000  0.34022846  1.0
  Sb  Sb19  1  0.52601294  0.25000000  0.15977154  1.0
