# generated using pymatgen
data_KIO3
_symmetry_space_group_name_H-M   'P 1'
_cell_length_a   4.54211247
_cell_length_b   4.54211247
_cell_length_c   4.54211247
_cell_angle_alpha   87.69732441
_cell_angle_beta   87.69732441
_cell_angle_gamma   87.69732441
_symmetry_Int_Tables_number   1
_chemical_formula_structural   KIO3
_chemical_formula_sum   'K1 I1 O3'
_cell_volume   93.48625711
_cell_formula_units_Z   1
loop_
 _symmetry_equiv_pos_site_id
 _symmetry_equiv_pos_as_xyz
  1  'x, y, z'
loop_
 _atom_site_type_symbol
 _atom_site_label
 _atom_site_symmetry_multiplicity
 _atom_site_fract_x
 _atom_site_fract_y
 _atom_site_fract_z
 _atom_site_occupancy
  K  K0  1  -0.00725570  -0.00725570  -0.00725570  1.0
  I  I1  1  0.50182244  0.50182244  -0.49817756  1.0
  O  O2  1  0.08768715  0.55122305  -0.44877695  1.0
  O  O3  1  0.55122305  0.08768715  -0.44877695  1.0
  O  O4  1  0.55122305  0.55122305  -0.91231285  1.0
