# generated using pymatgen
data_LuWO5
_symmetry_space_group_name_H-M   'P 1'
_cell_length_a   5.24247932
_cell_length_b   12.51790880
_cell_length_c   6.84837977
_cell_angle_alpha   90.00000000
_cell_angle_beta   116.60996887
_cell_angle_gamma   90.00000000
_symmetry_Int_Tables_number   1
_chemical_formula_structural   LuWO5
_chemical_formula_sum   'Lu4 W4 O20'
_cell_volume   401.81943249
_cell_formula_units_Z   4
loop_
 _symmetry_equiv_pos_site_id
 _symmetry_equiv_pos_as_xyz
  1  'x, y, z'
loop_
 _atom_site_type_symbol
 _atom_site_label
 _atom_site_symmetry_multiplicity
 _atom_site_fract_x
 _atom_site_fract_y
 _atom_site_fract_z
 _atom_site_occupancy
  W  W0  1  0.88974246  0.36163630  0.34764937  1.0
  W  W1  1  0.88974246  0.13836370  0.84764937  1.0
  W  W2  1  0.11025754  0.86163630  0.15235063  1.0
  W  W3  1  0.11025754  0.63836370  0.65235063  1.0
  O  O4  1  0.99013336  0.92857776  0.34304251  1.0
  O  O5  1  0.99013336  0.57142224  0.84304251  1.0
  O  O6  1  0.00986664  0.42857776  0.15695749  1.0
  O  O7  1  0.00986664  0.07142224  0.65695749  1.0
  O  O8  1  0.78917906  0.22547042  0.28863054  1.0
  O  O9  1  0.78917906  0.27452958  0.78863054  1.0
  O  O10  1  0.21082094  0.72547042  0.21136946  1.0
  O  O11  1  0.21082094  0.77452958  0.71136946  1.0
  O  O12  1  0.77468725  0.64471303  0.41667563  1.0
  O  O13  1  0.77468725  0.85528697  0.91667563  1.0
  O  O14  1  0.22531275  0.14471303  0.08332437  1.0
  O  O15  1  0.22531275  0.35528697  0.58332437  1.0
  O  O16  1  0.68224766  0.43296890  0.46465033  1.0
  O  O17  1  0.68224766  0.06703110  0.96465033  1.0
  O  O18  1  0.31775234  0.93296890  0.03534967  1.0
  O  O19  1  0.31775234  0.56703110  0.53534967  1.0
  O  O20  1  0.50054956  0.41559587  0.05065234  1.0
  O  O21  1  0.50054956  0.08440413  0.55065234  1.0
  O  O22  1  0.49945044  0.91559587  0.44934766  1.0
  O  O23  1  0.49945044  0.58440413  0.94934766  1.0
  Lu  Lu24  1  0.64212324  0.05495588  0.28728378  1.0
  Lu  Lu25  1  0.64212324  0.44504412  0.78728378  1.0
  Lu  Lu26  1  0.35787676  0.55495588  0.21271622  1.0
  Lu  Lu27  1  0.35787676  0.94504412  0.71271622  1.0
