# generated using pymatgen
data_Mn6Si7Ni16
_symmetry_space_group_name_H-M   'P 1'
_cell_length_a   7.85027352
_cell_length_b   7.85027352
_cell_length_c   7.85027352
_cell_angle_alpha   60.00000000
_cell_angle_beta   60.00000000
_cell_angle_gamma   60.00000000
_symmetry_Int_Tables_number   1
_chemical_formula_structural   Mn6Si7Ni16
_chemical_formula_sum   'Mn6 Si7 Ni16'
_cell_volume   342.08920345
_cell_formula_units_Z   1
loop_
 _symmetry_equiv_pos_site_id
 _symmetry_equiv_pos_as_xyz
  1  'x, y, z'
loop_
 _atom_site_type_symbol
 _atom_site_label
 _atom_site_symmetry_multiplicity
 _atom_site_fract_x
 _atom_site_fract_y
 _atom_site_fract_z
 _atom_site_occupancy
  Si  Si0  1  0.00000000  0.00000000  0.00000000  1.0
  Si  Si1  1  1.50000000  0.00000000  -0.00000000  1.0
  Si  Si2  1  1.00000000  0.50000000  -0.50000000  1.0
  Si  Si3  1  0.00000000  1.50000000  -0.00000000  1.0
  Si  Si4  1  0.50000000  1.00000000  -0.50000000  1.0
  Si  Si5  1  -0.00000000  0.00000000  0.50000000  1.0
  Si  Si6  1  0.50000000  -0.50000000  1.00000000  1.0
  Mn  Mn7  1  -0.69351427  0.69351427  0.69351427  1.0
  Mn  Mn8  1  -0.30648573  0.30648573  0.69351427  1.0
  Mn  Mn9  1  0.69351427  0.69351427  -0.69351427  1.0
  Mn  Mn10  1  0.30648573  1.30648573  -0.30648573  1.0
  Mn  Mn11  1  0.30648573  -0.30648573  1.30648573  1.0
  Mn  Mn12  1  -0.30648573  0.30648573  0.30648573  1.0
  Ni  Ni13  1  0.88237252  0.88237252  -0.11762748  1.0
  Ni  Ni14  1  1.11762748  0.11762748  0.64711757  1.0
  Ni  Ni15  1  1.11762748  0.64711757  0.11762748  1.0
  Ni  Ni16  1  0.35288243  0.88237252  -0.11762748  1.0
  Ni  Ni17  1  1.64711757  0.11762748  0.11762748  1.0
  Ni  Ni18  1  0.88237252  0.35288243  -0.11762748  1.0
  Ni  Ni19  1  0.88237252  0.88237252  -0.64711757  1.0
  Ni  Ni20  1  1.11762748  0.11762748  0.11762748  1.0
  Ni  Ni21  1  0.66540972  0.66540972  -0.33459028  1.0
  Ni  Ni22  1  1.33459028  0.33459028  -0.00377085  1.0
  Ni  Ni23  1  1.33459028  -0.00377085  0.33459028  1.0
  Ni  Ni24  1  1.00377085  0.66540972  -0.33459028  1.0
  Ni  Ni25  1  0.99622915  0.33459028  0.33459028  1.0
  Ni  Ni26  1  0.66540972  1.00377085  -0.33459028  1.0
  Ni  Ni27  1  0.66540972  0.66540972  0.00377085  1.0
  Ni  Ni28  1  1.33459028  0.33459028  0.33459028  1.0
