# generated using pymatgen
data_K5Mo4O14F
_symmetry_space_group_name_H-M   'P 1'
_cell_length_a   10.57416949
_cell_length_b   10.57416949
_cell_length_c   8.65204351
_cell_angle_alpha   83.09200215
_cell_angle_beta   96.90799785
_cell_angle_gamma   117.90094404
_symmetry_Int_Tables_number   1
_chemical_formula_structural   K5Mo4O14F
_chemical_formula_sum   'K10 Mo8 O28 F2'
_cell_volume   846.49024939
_cell_formula_units_Z   2
loop_
 _symmetry_equiv_pos_site_id
 _symmetry_equiv_pos_as_xyz
  1  'x, y, z'
loop_
 _atom_site_type_symbol
 _atom_site_label
 _atom_site_symmetry_multiplicity
 _atom_site_fract_x
 _atom_site_fract_y
 _atom_site_fract_z
 _atom_site_occupancy
  K  K0  1  1.59452741  0.16118894  0.14923631  1.0
  K  K1  1  0.83881106  -0.59452741  0.64923631  1.0
  K  K2  1  1.16118894  0.59452741  0.35076369  1.0
  K  K3  1  0.40547259  -0.16118894  0.85076369  1.0
  K  K4  1  0.17723252  -0.04853341  0.27749859  1.0
  K  K5  1  1.04853341  0.82276748  0.77749859  1.0
  K  K6  1  0.95146659  -0.82276748  0.22250141  1.0
  K  K7  1  1.82276748  0.04853341  0.72250141  1.0
  K  K8  1  1.44242038  0.44242038  0.25000000  1.0
  K  K9  1  0.55757962  -0.44242038  0.75000000  1.0
  Mo  Mo10  1  0.70292907  -0.19579562  0.07289139  1.0
  Mo  Mo11  1  1.19579562  0.29707093  0.57289139  1.0
  Mo  Mo12  1  0.80420438  -0.29707093  0.42710861  1.0
  Mo  Mo13  1  1.29707093  0.19579562  0.92710861  1.0
  Mo  Mo14  1  0.56927079  -0.13790670  0.40763131  1.0
  Mo  Mo15  1  1.13790670  0.43072921  0.90763131  1.0
  Mo  Mo16  1  0.86209330  -0.43072921  0.09236869  1.0
  Mo  Mo17  1  1.43072921  0.13790670  0.59236869  1.0
  O  O18  1  0.62766051  -0.25202354  0.31029034  1.0
  O  O19  1  1.25202354  0.37233949  0.81029034  1.0
  O  O20  1  0.74797646  -0.37233949  0.18970966  1.0
  O  O21  1  1.37233949  0.25202354  0.68970966  1.0
  O  O22  1  0.69170370  -0.03329879  0.05551734  1.0
  O  O23  1  1.03329879  0.30829630  0.55551734  1.0
  O  O24  1  0.96670121  -0.30829630  0.44448266  1.0
  O  O25  1  1.30829630  0.03329879  0.94448266  1.0
  O  O26  1  1.70232722  0.04136904  0.40163888  1.0
  O  O27  1  0.95863096  -0.70232722  0.90163888  1.0
  O  O28  1  1.04136904  0.70232722  0.09836112  1.0
  O  O29  1  0.29767278  -0.04136904  0.59836112  1.0
  O  O30  1  0.41376662  -0.14427595  0.30253338  1.0
  O  O31  1  1.14427595  0.58623338  0.80253338  1.0
  O  O32  1  0.85572405  -0.58623338  0.19746662  1.0
  O  O33  1  1.58623338  0.14427595  0.69746662  1.0
  O  O34  1  1.46637859  0.19833244  0.39666181  1.0
  O  O35  1  0.80166756  -0.46637859  0.89666181  1.0
  O  O36  1  1.19833244  0.46637859  0.10333819  1.0
  O  O37  1  0.53362141  -0.19833244  0.60333819  1.0
  O  O38  1  1.17164748  0.17818063  0.43418743  1.0
  O  O39  1  0.82181937  -0.17164748  0.93418743  1.0
  O  O40  1  1.17818063  0.17164748  0.06581257  1.0
  O  O41  1  0.82835252  -0.17818063  0.56581257  1.0
  O  O42  1  1.31915011  0.46515149  0.49435074  1.0
  O  O43  1  0.53484851  -0.31915011  0.99435074  1.0
  O  O44  1  1.46515149  0.31915011  0.00564926  1.0
  O  O45  1  0.68084989  -0.46515149  0.50564926  1.0
  F  F46  1  0.89079066  -0.10920934  0.25000000  1.0
  F  F47  1  1.10920934  0.10920934  0.75000000  1.0
