# generated using pymatgen
data_K3Sn5Cl3F10
_symmetry_space_group_name_H-M   'P 1'
_cell_length_a   10.38282476
_cell_length_b   10.38282476
_cell_length_c   20.94727041
_cell_angle_alpha   90.00000000
_cell_angle_beta   90.00000000
_cell_angle_gamma   155.62519247
_symmetry_Int_Tables_number   1
_chemical_formula_structural   K3Sn5Cl3F10
_chemical_formula_sum   'K6 Sn10 Cl6 F20'
_cell_volume   931.95970146
_cell_formula_units_Z   2
loop_
 _symmetry_equiv_pos_site_id
 _symmetry_equiv_pos_as_xyz
  1  'x, y, z'
loop_
 _atom_site_type_symbol
 _atom_site_label
 _atom_site_symmetry_multiplicity
 _atom_site_fract_x
 _atom_site_fract_y
 _atom_site_fract_z
 _atom_site_occupancy
  K  K0  1  -0.44462379  0.44462379  0.83788665  1.0
  K  K1  1  -0.44462379  0.44462379  0.66211335  1.0
  K  K2  1  0.44462379  0.55537621  0.33788665  1.0
  K  K3  1  0.44462379  0.55537621  0.16211335  1.0
  K  K4  1  0.00000000  0.00000000  0.00000000  1.0
  K  K5  1  0.00000000  0.00000000  0.50000000  1.0
  Sn  Sn6  1  0.12480779  0.87519221  0.35166066  1.0
  Sn  Sn7  1  0.12480779  0.87519221  0.14833934  1.0
  Sn  Sn8  1  -0.12480779  0.12480779  0.85166066  1.0
  Sn  Sn9  1  -0.12480779  0.12480779  0.64833934  1.0
  Sn  Sn10  1  0.33172908  0.66827092  1.00124163  1.0
  Sn  Sn11  1  0.33172908  0.66827092  0.49875837  1.0
  Sn  Sn12  1  -0.33172908  0.33172908  0.50124163  1.0
  Sn  Sn13  1  -0.33172908  0.33172908  -0.00124163  1.0
  Sn  Sn14  1  0.19223776  0.80776224  0.75000000  1.0
  Sn  Sn15  1  -0.19223776  0.19223776  0.25000000  1.0
  Cl  Cl16  1  0.17640329  0.82359671  0.88692769  1.0
  Cl  Cl17  1  0.17640329  0.82359671  0.61307231  1.0
  Cl  Cl18  1  -0.17640329  0.17640329  0.38692769  1.0
  Cl  Cl19  1  -0.17640329  0.17640329  0.11307231  1.0
  Cl  Cl20  1  0.42116648  0.57883352  0.75000000  1.0
  Cl  Cl21  1  -0.42116648  0.42116648  0.25000000  1.0
  F  F22  1  0.02569214  0.97430786  0.37379659  1.0
  F  F23  1  0.02569214  0.97430786  0.12620341  1.0
  F  F24  1  -0.02569214  0.02569214  0.87379659  1.0
  F  F25  1  -0.02569214  0.02569214  0.62620341  1.0
  F  F26  1  0.14119224  0.85880776  0.46227964  1.0
  F  F27  1  0.14119224  0.85880776  0.03772036  1.0
  F  F28  1  -0.14119224  0.14119224  0.96227964  1.0
  F  F29  1  -0.14119224  0.14119224  0.53772036  1.0
  F  F30  1  0.37407585  0.62592415  0.89855048  1.0
  F  F31  1  0.37407585  0.62592415  0.60144952  1.0
  F  F32  1  -0.37407585  0.37407585  0.39855048  1.0
  F  F33  1  -0.37407585  0.37407585  0.10144952  1.0
  F  F34  1  -0.42820181  0.42820181  0.96755141  1.0
  F  F35  1  -0.42820181  0.42820181  0.53244859  1.0
  F  F36  1  0.42820181  0.57179819  0.46755141  1.0
  F  F37  1  0.42820181  0.57179819  0.03244859  1.0
  F  F38  1  0.08890861  0.91109139  0.75000000  1.0
  F  F39  1  -0.08890861  0.08890861  0.25000000  1.0
  F  F40  1  -0.33492589  0.33492589  0.75000000  1.0
  F  F41  1  0.33492589  0.66507411  0.25000000  1.0
