# generated using pymatgen
data_YSn2
_symmetry_space_group_name_H-M   'P 1'
_cell_length_a   8.52247058
_cell_length_b   8.52247058
_cell_length_c   4.36122175
_cell_angle_alpha   90.00000000
_cell_angle_beta   90.00000000
_cell_angle_gamma   149.82804309
_symmetry_Int_Tables_number   1
_chemical_formula_structural   YSn2
_chemical_formula_sum   'Y2 Sn4'
_cell_volume   159.20583171
_cell_formula_units_Z   2
loop_
 _symmetry_equiv_pos_site_id
 _symmetry_equiv_pos_as_xyz
  1  'x, y, z'
loop_
 _atom_site_type_symbol
 _atom_site_label
 _atom_site_symmetry_multiplicity
 _atom_site_fract_x
 _atom_site_fract_y
 _atom_site_fract_z
 _atom_site_occupancy
  Y  Y0  1  0.40122561  0.59877439  0.75000000  1.0
  Y  Y1  1  -0.40122561  0.40122561  0.25000000  1.0
  Sn  Sn2  1  0.06338022  0.93661978  0.75000000  1.0
  Sn  Sn3  1  -0.06338022  0.06338022  0.25000000  1.0
  Sn  Sn4  1  -0.24960473  0.24960473  0.75000000  1.0
  Sn  Sn5  1  0.24960473  0.75039527  0.25000000  1.0
