# generated using pymatgen
data_ZnS
_symmetry_space_group_name_H-M   'P 1'
_cell_length_a   3.84952186
_cell_length_b   3.84952186
_cell_length_c   56.63294124
_cell_angle_alpha   90.00000000
_cell_angle_beta   90.00000000
_cell_angle_gamma   120.00000000
_symmetry_Int_Tables_number   1
_chemical_formula_structural   ZnS
_chemical_formula_sum   'Zn18 S18'
_cell_volume   726.79734087
_cell_formula_units_Z   18
loop_
 _symmetry_equiv_pos_site_id
 _symmetry_equiv_pos_as_xyz
  1  'x, y, z'
loop_
 _atom_site_type_symbol
 _atom_site_label
 _atom_site_symmetry_multiplicity
 _atom_site_fract_x
 _atom_site_fract_y
 _atom_site_fract_z
 _atom_site_occupancy
  Zn  Zn0  1  0.00000000  0.00000000  0.05554912  1.0
  Zn  Zn1  1  0.00000000  0.00000000  0.72226072  1.0
  Zn  Zn2  1  0.00000000  0.00000000  0.22222498  1.0
  Zn  Zn3  1  0.00000000  0.00000000  0.88887671  1.0
  Zn  Zn4  1  0.00000000  0.00000000  0.38887132  1.0
  Zn  Zn5  1  0.66666667  0.33333333  0.16667296  1.0
  Zn  Zn6  1  0.00000000  0.00000000  0.61107691  1.0
  Zn  Zn7  1  0.66666667  0.33333333  0.33332574  1.0
  Zn  Zn8  1  0.66666667  0.33333333  0.49998978  1.0
  Zn  Zn9  1  0.66666667  0.33333333  0.66666719  1.0
  Zn  Zn10  1  0.66666667  0.33333333  0.83328632  1.0
  Zn  Zn11  1  0.66666667  0.33333333  0.94446258  1.0
  Zn  Zn12  1  0.33333333  0.66666667  -0.00004383  1.0
  Zn  Zn13  1  0.33333333  0.66666667  0.11114738  1.0
  Zn  Zn14  1  0.33333333  0.66666667  0.27777567  1.0
  Zn  Zn15  1  0.33333333  0.66666667  0.44439018  1.0
  Zn  Zn16  1  0.33333333  0.66666667  0.55557925  1.0
  Zn  Zn17  1  0.33333333  0.66666667  0.77777774  1.0
  S  S18  1  0.00000000  0.00000000  0.68062412  1.0
  S  S19  1  0.00000000  0.00000000  0.01384080  1.0
  S  S20  1  0.00000000  0.00000000  0.18057171  1.0
  S  S21  1  0.00000000  0.00000000  0.84717017  1.0
  S  S22  1  0.00000000  0.00000000  0.34722112  1.0
  S  S23  1  0.66666667  0.33333333  0.12502674  1.0
  S  S24  1  0.00000000  0.00000000  0.56945132  1.0
  S  S25  1  0.66666667  0.33333333  0.29167307  1.0
  S  S26  1  0.66666667  0.33333333  0.45828009  1.0
  S  S27  1  0.66666667  0.33333333  0.62496019  1.0
  S  S28  1  0.66666667  0.33333333  0.79165908  1.0
  S  S29  1  0.66666667  0.33333333  0.90282955  1.0
  S  S30  1  0.33333333  0.66666667  0.06950770  1.0
  S  S31  1  0.33333333  0.66666667  0.23612193  1.0
  S  S32  1  0.33333333  0.66666667  0.40275878  1.0
  S  S33  1  0.33333333  0.66666667  0.51394389  1.0
  S  S34  1  0.33333333  0.66666667  0.73613673  1.0
  S  S35  1  0.33333333  0.66666667  0.95833231  1.0
