# generated using pymatgen
data_Zr3(NiGe)4
_symmetry_space_group_name_H-M   'P 1'
_cell_length_a   7.54529849
_cell_length_b   7.54529849
_cell_length_c   7.54529849
_cell_angle_alpha   149.72522208
_cell_angle_beta   128.54314734
_cell_angle_gamma   60.87468593
_symmetry_Int_Tables_number   1
_chemical_formula_structural   Zr3(NiGe)4
_chemical_formula_sum   'Zr3 Ni4 Ge4'
_cell_volume   167.93807030
_cell_formula_units_Z   1
loop_
 _symmetry_equiv_pos_site_id
 _symmetry_equiv_pos_as_xyz
  1  'x, y, z'
loop_
 _atom_site_type_symbol
 _atom_site_label
 _atom_site_symmetry_multiplicity
 _atom_site_fract_x
 _atom_site_fract_y
 _atom_site_fract_z
 _atom_site_occupancy
  Zr  Zr0  1  0.62751437  0.12751437  0.50000000  1.0
  Zr  Zr1  1  0.37248563  0.87248563  0.50000000  1.0
  Zr  Zr2  1  0.00000000  0.00000000  0.00000000  1.0
  Ni  Ni3  1  0.37628256  0.67705800  0.69922457  1.0
  Ni  Ni4  1  1.02216657  0.32294200  0.69922457  1.0
  Ni  Ni5  1  0.97783343  0.67705800  1.30077543  1.0
  Ni  Ni6  1  0.62371744  0.32294200  0.30077543  1.0
  Ge  Ge7  1  0.78643939  0.78643939  1.00000000  1.0
  Ge  Ge8  1  0.21356061  0.21356061  0.00000000  1.0
  Ge  Ge9  1  0.30031534  0.50000000  0.80031534  1.0
  Ge  Ge10  1  0.69968466  0.50000000  1.19968466  1.0
