# generated using pymatgen
data_LiB2H11N2
_symmetry_space_group_name_H-M   'P 1'
_cell_length_a   6.79386861
_cell_length_b   15.62005896
_cell_length_c   5.21505605
_cell_angle_alpha   90.00000000
_cell_angle_beta   96.72949805
_cell_angle_gamma   90.00000000
_symmetry_Int_Tables_number   1
_chemical_formula_structural   LiB2H11N2
_chemical_formula_sum   'Li4 B8 H44 N8'
_cell_volume   549.61217570
_cell_formula_units_Z   4
loop_
 _symmetry_equiv_pos_site_id
 _symmetry_equiv_pos_as_xyz
  1  'x, y, z'
loop_
 _atom_site_type_symbol
 _atom_site_label
 _atom_site_symmetry_multiplicity
 _atom_site_fract_x
 _atom_site_fract_y
 _atom_site_fract_z
 _atom_site_occupancy
  Li  Li0  1  0.08332668  0.07920697  0.70763576  1.0
  Li  Li1  1  0.91667332  0.57920697  0.79236424  1.0
  Li  Li2  1  0.91667332  0.92079303  0.29236424  1.0
  Li  Li3  1  0.08332668  0.42079303  0.20763576  1.0
  B  B4  1  0.58630764  0.65101045  0.87571384  1.0
  B  B5  1  0.41369236  0.15101045  0.62428616  1.0
  B  B6  1  0.41369236  0.34898955  0.12428616  1.0
  B  B7  1  0.58630764  0.84898955  0.37571384  1.0
  B  B8  1  0.06054024  0.58190697  0.25717738  1.0
  B  B9  1  0.93945976  0.08190697  0.24282262  1.0
  B  B10  1  0.93945976  0.41809303  0.74282262  1.0
  B  B11  1  0.06054024  0.91809303  0.75717738  1.0
  H  H12  1  0.74116944  0.69156291  0.88832855  1.0
  H  H13  1  0.25883056  0.19156291  0.61167145  1.0
  H  H14  1  0.25883056  0.30843709  0.11167145  1.0
  H  H15  1  0.74116944  0.80843709  0.38832855  1.0
  H  H16  1  0.44970290  0.69139583  0.76028289  1.0
  H  H17  1  0.55029710  0.19139583  0.73971711  1.0
  H  H18  1  0.55029710  0.30860417  0.23971711  1.0
  H  H19  1  0.44970290  0.80860417  0.26028289  1.0
  H  H20  1  0.60135872  0.58182821  0.77045436  1.0
  H  H21  1  0.39864128  0.08182821  0.72954564  1.0
  H  H22  1  0.39864128  0.41817179  0.22954564  1.0
  H  H23  1  0.60135872  0.91817179  0.27045436  1.0
  H  H24  1  0.15106494  0.66337751  0.57542067  1.0
  H  H25  1  0.84893506  0.16337751  0.92457933  1.0
  H  H26  1  0.84893506  0.33662249  0.42457933  1.0
  H  H27  1  0.15106494  0.83662249  0.07542067  1.0
  H  H28  1  0.93834287  0.69165829  0.43026809  1.0
  H  H29  1  0.06165713  0.19165829  0.06973191  1.0
  H  H30  1  0.06165713  0.30834171  0.56973191  1.0
  H  H31  1  0.93834287  0.80834171  0.93026809  1.0
  H  H32  1  0.39938546  0.60684313  0.16876699  1.0
  H  H33  1  0.60061454  0.10684313  0.33123301  1.0
  H  H34  1  0.60061454  0.39315687  0.83123301  1.0
  H  H35  1  0.39938546  0.89315687  0.66876699  1.0
  H  H36  1  0.64063596  0.59639639  0.26450516  1.0
  H  H37  1  0.35936404  0.09639639  0.23549484  1.0
  H  H38  1  0.35936404  0.40360361  0.73549484  1.0
  H  H39  1  0.64063596  0.90360361  0.76450516  1.0
  H  H40  1  0.53411858  0.69196592  0.26106207  1.0
  H  H41  1  0.46588142  0.19196592  0.23893793  1.0
  H  H42  1  0.46588142  0.30803408  0.73893793  1.0
  H  H43  1  0.53411858  0.80803408  0.76106207  1.0
  H  H44  1  0.91171115  0.53889980  0.17629192  1.0
  H  H45  1  0.08828885  0.03889980  0.32370808  1.0
  H  H46  1  0.08828885  0.46110020  0.82370808  1.0
  H  H47  1  0.91171115  0.96110020  0.67629192  1.0
  H  H48  1  0.19567305  0.53136814  0.32761884  1.0
  H  H49  1  0.80432695  0.03136814  0.17238116  1.0
  H  H50  1  0.80432695  0.46863186  0.67238116  1.0
  H  H51  1  0.19567305  0.96863186  0.82761884  1.0
  H  H52  1  0.11210757  0.62236203  0.07023381  1.0
  H  H53  1  0.88789243  0.12236203  0.42976619  1.0
  H  H54  1  0.88789243  0.37763797  0.92976619  1.0
  H  H55  1  0.11210757  0.87763797  0.57023381  1.0
  N  N56  1  0.53651345  0.63478171  0.16293376  1.0
  N  N57  1  0.46348655  0.13478171  0.33706624  1.0
  N  N58  1  0.46348655  0.36521829  0.83706624  1.0
  N  N59  1  0.53651345  0.86521829  0.66293376  1.0
  N  N60  1  0.02027481  0.63871116  0.48864211  1.0
  N  N61  1  0.97972519  0.13871116  0.01135789  1.0
  N  N62  1  0.97972519  0.36128884  0.51135789  1.0
  N  N63  1  0.02027481  0.86128884  0.98864211  1.0
