# generated using pymatgen
data_K2In3CuSe6
_symmetry_space_group_name_H-M   'P 1'
_cell_length_a   8.24436803
_cell_length_b   8.24436803
_cell_length_c   21.82882238
_cell_angle_alpha   84.42568584
_cell_angle_beta   95.57431416
_cell_angle_gamma   89.93913030
_symmetry_Int_Tables_number   1
_chemical_formula_structural   K2In3CuSe6
_chemical_formula_sum   'K8 In12 Cu4 Se24'
_cell_volume   1469.61439708
_cell_formula_units_Z   4
loop_
 _symmetry_equiv_pos_site_id
 _symmetry_equiv_pos_as_xyz
  1  'x, y, z'
loop_
 _atom_site_type_symbol
 _atom_site_label
 _atom_site_symmetry_multiplicity
 _atom_site_fract_x
 _atom_site_fract_y
 _atom_site_fract_z
 _atom_site_occupancy
  K  K0  1  0.18411169  -0.10630073  0.41910950  1.0
  K  K1  1  1.10630073  0.81588831  0.91910950  1.0
  K  K2  1  0.89369927  -0.81588831  0.08089050  1.0
  K  K3  1  1.81588831  0.10630073  0.58089050  1.0
  K  K4  1  1.27642391  0.39269671  0.41918891  1.0
  K  K5  1  0.60730329  -0.27642391  0.91918891  1.0
  K  K6  1  1.39269671  0.27642391  0.08081109  1.0
  K  K7  1  0.72357609  -0.39269671  0.58081109  1.0
  In  In8  1  0.65189774  -0.27819580  0.11620100  1.0
  In  In9  1  1.27819580  0.34810226  0.61620100  1.0
  In  In10  1  0.72180420  -0.34810226  0.38379900  1.0
  In  In11  1  1.34810226  0.27819580  0.88379900  1.0
  In  In12  1  1.72031171  0.15186497  0.38385276  1.0
  In  In13  1  0.84813503  -0.72031171  0.88385276  1.0
  In  In14  1  1.15186497  0.72031171  0.11614724  1.0
  In  In15  1  0.27968829  -0.15186497  0.61614724  1.0
  In  In16  1  0.93482443  -0.06517557  0.25000000  1.0
  In  In17  1  1.06517557  0.06517557  0.75000000  1.0
  In  In18  1  1.43863707  0.43863707  0.25000000  1.0
  In  In19  1  0.56136293  -0.43863707  0.75000000  1.0
  Cu  Cu20  1  0.43686823  -0.06394450  0.24998299  1.0
  Cu  Cu21  1  1.06394450  0.56313177  0.74998299  1.0
  Cu  Cu22  1  0.93605550  -0.56313177  0.25001701  1.0
  Cu  Cu23  1  1.56313177  0.06394450  0.75001701  1.0
  Se  Se24  1  0.76530462  -0.11747330  0.45860823  1.0
  Se  Se25  1  1.11747330  0.23469538  0.95860823  1.0
  Se  Se26  1  0.88252670  -0.23469538  0.04139177  1.0
  Se  Se27  1  1.23469538  0.11747330  0.54139177  1.0
  Se  Se28  1  0.43535374  -0.31498680  0.31914505  1.0
  Se  Se29  1  1.31498680  0.56464626  0.81914505  1.0
  Se  Se30  1  0.68501320  -0.56464626  0.18085495  1.0
  Se  Se31  1  1.56464626  0.31498680  0.68085495  1.0
  Se  Se32  1  0.65263516  -0.02552321  0.18097108  1.0
  Se  Se33  1  1.02552321  0.34736484  0.68097108  1.0
  Se  Se34  1  0.97447679  -0.34736484  0.31902892  1.0
  Se  Se35  1  1.34736484  0.02552321  0.81902892  1.0
  Se  Se36  1  1.61700758  0.28478583  0.95861643  1.0
  Se  Se37  1  0.71521417  -0.61700758  0.45861643  1.0
  Se  Se38  1  1.28478583  0.61700758  0.54138357  1.0
  Se  Se39  1  0.38299242  -0.28478583  0.04138357  1.0
  Se  Se40  1  1.43476789  0.15454590  0.31923314  1.0
  Se  Se41  1  0.84545410  -0.43476789  0.81923314  1.0
  Se  Se42  1  1.15454590  0.43476789  0.18076686  1.0
  Se  Se43  1  0.56523211  -0.15454590  0.68076686  1.0
  Se  Se44  1  0.18297824  -0.02688971  0.18061720  1.0
  Se  Se45  1  1.02688971  0.81702176  0.68061720  1.0
  Se  Se46  1  0.97311029  -0.81702176  0.31938280  1.0
  Se  Se47  1  1.81702176  0.02688971  0.81938280  1.0
