# generated using pymatgen
data_Cu2H3ClO3
_symmetry_space_group_name_H-M   'P 1'
_cell_length_a   6.12046973
_cell_length_b   7.01542934
_cell_length_c   9.17282639
_cell_angle_alpha   90.00000000
_cell_angle_beta   90.00000000
_cell_angle_gamma   90.00000000
_symmetry_Int_Tables_number   1
_chemical_formula_structural   Cu2H3ClO3
_chemical_formula_sum   'Cu8 H12 Cl4 O12'
_cell_volume   393.86027776
_cell_formula_units_Z   4
loop_
 _symmetry_equiv_pos_site_id
 _symmetry_equiv_pos_as_xyz
  1  'x, y, z'
loop_
 _atom_site_type_symbol
 _atom_site_label
 _atom_site_symmetry_multiplicity
 _atom_site_fract_x
 _atom_site_fract_y
 _atom_site_fract_z
 _atom_site_occupancy
  Cu  Cu0  1  0.32227371  0.75000000  0.24126871  1.0
  Cu  Cu1  1  0.82227371  0.75000000  0.25873129  1.0
  Cu  Cu2  1  0.67772629  0.25000000  0.75873129  1.0
  Cu  Cu3  1  0.17772629  0.25000000  0.74126871  1.0
  Cu  Cu4  1  0.50000000  0.00000000  0.50000000  1.0
  Cu  Cu5  1  0.50000000  0.50000000  0.50000000  1.0
  Cu  Cu6  1  0.00000000  0.00000000  -0.00000000  1.0
  Cu  Cu7  1  0.00000000  0.50000000  0.00000000  1.0
  H  H8  1  0.41534108  0.95537036  0.76866403  1.0
  H  H9  1  0.41534108  0.54462964  0.76866403  1.0
  H  H10  1  0.91534108  0.95537036  0.73133597  1.0
  H  H11  1  0.91534108  0.54462964  0.73133597  1.0
  H  H12  1  0.58465892  0.45537036  0.23133597  1.0
  H  H13  1  0.58465892  0.04462964  0.23133597  1.0
  H  H14  1  0.08465892  0.45537036  0.26866403  1.0
  H  H15  1  0.08465892  0.04462964  0.26866403  1.0
  H  H16  1  0.21370083  0.75000000  0.54719978  1.0
  H  H17  1  0.71370083  0.75000000  0.95280022  1.0
  H  H18  1  0.78629917  0.25000000  0.45280022  1.0
  H  H19  1  0.28629917  0.25000000  0.04719978  1.0
  Cl  Cl20  1  0.37662175  0.75000000  0.92619066  1.0
  Cl  Cl21  1  0.87662175  0.75000000  0.57380934  1.0
  Cl  Cl22  1  0.62337825  0.25000000  0.07380934  1.0
  Cl  Cl23  1  0.12337825  0.25000000  0.42619066  1.0
  O  O24  1  0.42793528  0.42936607  0.70494514  1.0
  O  O25  1  0.42793528  0.07063393  0.70494514  1.0
  O  O26  1  0.92793528  0.42936607  0.79505486  1.0
  O  O27  1  0.92793528  0.07063393  0.79505486  1.0
  O  O28  1  0.57206472  0.92936607  0.29505486  1.0
  O  O29  1  0.57206472  0.57063393  0.29505486  1.0
  O  O30  1  0.07206472  0.92936607  0.20494514  1.0
  O  O31  1  0.07206472  0.57063393  0.20494514  1.0
  O  O32  1  0.36393294  0.75000000  0.50682488  1.0
  O  O33  1  0.86393294  0.75000000  0.99317512  1.0
  O  O34  1  0.63606706  0.25000000  0.49317512  1.0
  O  O35  1  0.13606706  0.25000000  0.00682488  1.0
