# generated using pymatgen
data_SrC2(SN)2
_symmetry_space_group_name_H-M   'P 1'
_cell_length_a   6.11516266
_cell_length_b   6.11516266
_cell_length_c   8.24218809
_cell_angle_alpha   91.48939538
_cell_angle_beta   88.51060462
_cell_angle_gamma   114.44701031
_symmetry_Int_Tables_number   1
_chemical_formula_structural   SrC2(SN)2
_chemical_formula_sum   'Sr2 C4 S4 N4'
_cell_volume   280.45078449
_cell_formula_units_Z   2
loop_
 _symmetry_equiv_pos_site_id
 _symmetry_equiv_pos_as_xyz
  1  'x, y, z'
loop_
 _atom_site_type_symbol
 _atom_site_label
 _atom_site_symmetry_multiplicity
 _atom_site_fract_x
 _atom_site_fract_y
 _atom_site_fract_z
 _atom_site_occupancy
  Sr  Sr0  1  0.90598882  -0.09401118  0.25000000  1.0
  Sr  Sr1  1  1.09401118  0.09401118  0.75000000  1.0
  C  C2  1  1.47627828  0.23982557  0.39467000  1.0
  C  C3  1  0.76017443  -0.47627828  0.89467000  1.0
  C  C4  1  1.23982557  0.47627828  0.10533000  1.0
  C  C5  1  0.52372172  -0.23982557  0.60533000  1.0
  S  S6  1  0.34937395  -0.25058875  0.17913471  1.0
  S  S7  1  1.25058875  0.65062605  0.67913471  1.0
  S  S8  1  0.74941125  -0.65062605  0.32086529  1.0
  S  S9  1  1.65062605  0.25058875  0.82086529  1.0
  N  N10  1  1.27567445  0.15561144  0.44658485  1.0
  N  N11  1  0.84438856  -0.27567445  0.94658485  1.0
  N  N12  1  1.15561144  0.27567445  0.05341515  1.0
  N  N13  1  0.72432555  -0.15561144  0.55341515  1.0
