# generated using pymatgen
data_Ba3LiRu2O9
_symmetry_space_group_name_H-M   'P 1'
_cell_length_a   5.83985694
_cell_length_b   5.83985694
_cell_length_c   14.35745596
_cell_angle_alpha   90.00000000
_cell_angle_beta   90.00000000
_cell_angle_gamma   120.00000000
_symmetry_Int_Tables_number   1
_chemical_formula_structural   Ba3LiRu2O9
_chemical_formula_sum   'Ba6 Li2 Ru4 O18'
_cell_volume   424.04557990
_cell_formula_units_Z   2
loop_
 _symmetry_equiv_pos_site_id
 _symmetry_equiv_pos_as_xyz
  1  'x, y, z'
loop_
 _atom_site_type_symbol
 _atom_site_label
 _atom_site_symmetry_multiplicity
 _atom_site_fract_x
 _atom_site_fract_y
 _atom_site_fract_z
 _atom_site_occupancy
  O  O0  1  0.51688793  0.48311207  0.25000000  1.0
  O  O1  1  0.51688793  0.03377587  0.25000000  1.0
  O  O2  1  0.48311207  0.51688793  0.75000000  1.0
  O  O3  1  0.48311207  0.96622413  0.75000000  1.0
  O  O4  1  0.96622413  0.48311207  0.25000000  1.0
  O  O5  1  0.03377587  0.51688793  0.75000000  1.0
  O  O6  1  0.17419135  0.82580865  0.91411036  1.0
  O  O7  1  0.17419135  0.82580865  0.58588964  1.0
  O  O8  1  0.17419135  0.34838270  0.91411036  1.0
  O  O9  1  0.17419135  0.34838270  0.58588964  1.0
  O  O10  1  0.82580865  0.17419135  0.41411036  1.0
  O  O11  1  0.82580865  0.17419135  0.08588964  1.0
  O  O12  1  0.82580865  0.65161730  0.41411036  1.0
  O  O13  1  0.82580865  0.65161730  0.08588964  1.0
  O  O14  1  0.65161730  0.82580865  0.91411036  1.0
  O  O15  1  0.65161730  0.82580865  0.58588964  1.0
  O  O16  1  0.34838270  0.17419135  0.41411036  1.0
  O  O17  1  0.34838270  0.17419135  0.08588964  1.0
  Ba  Ba18  1  0.33333333  0.66666667  0.41087452  1.0
  Ba  Ba19  1  0.33333333  0.66666667  0.08912548  1.0
  Ba  Ba20  1  0.66666667  0.33333333  0.91087452  1.0
  Ba  Ba21  1  0.66666667  0.33333333  0.58912548  1.0
  Ba  Ba22  1  0.00000000  0.00000000  0.25000000  1.0
  Ba  Ba23  1  0.00000000  0.00000000  0.75000000  1.0
  Ru  Ru24  1  0.33333333  0.66666667  0.84745660  1.0
  Ru  Ru25  1  0.33333333  0.66666667  0.65254340  1.0
  Ru  Ru26  1  0.66666667  0.33333333  0.34745660  1.0
  Ru  Ru27  1  0.66666667  0.33333333  0.15254340  1.0
  Li  Li28  1  0.00000000  0.00000000  0.50000000  1.0
  Li  Li29  1  0.00000000  0.00000000  0.00000000  1.0
