# generated using pymatgen
data_Na2Si2O5
_symmetry_space_group_name_H-M   'P 1'
_cell_length_a   9.51761674
_cell_length_b   9.51761674
_cell_length_c   9.51761674
_cell_angle_alpha   99.00363530
_cell_angle_beta   99.00363530
_cell_angle_gamma   133.39355186
_symmetry_Int_Tables_number   1
_chemical_formula_structural   Na2Si2O5
_chemical_formula_sum   'Na8 Si8 O20'
_cell_volume   575.37950358
_cell_formula_units_Z   4
loop_
 _symmetry_equiv_pos_site_id
 _symmetry_equiv_pos_as_xyz
  1  'x, y, z'
loop_
 _atom_site_type_symbol
 _atom_site_label
 _atom_site_symmetry_multiplicity
 _atom_site_fract_x
 _atom_site_fract_y
 _atom_site_fract_z
 _atom_site_occupancy
  Na  Na0  1  1.26163823  1.24180745  1.81710009  1.0
  Na  Na1  1  0.42470737  0.44453815  0.18289991  1.0
  Na  Na2  1  0.99180745  0.67470737  1.48016922  1.0
  Na  Na3  1  0.19453815  0.51163823  0.51983078  1.0
  Na  Na4  1  0.48836177  1.00819255  0.68289991  1.0
  Na  Na5  1  1.32529263  0.80546185  1.31710009  1.0
  Na  Na6  1  0.75819255  1.57529263  1.01983078  1.0
  Na  Na7  1  1.55546185  0.73836177  0.98016922  1.0
  Si  Si8  1  0.41520024  1.09735027  1.09146306  1.0
  Si  Si9  1  1.00588721  1.32373718  0.90853694  1.0
  Si  Si10  1  0.84735027  1.25588721  1.18215003  1.0
  Si  Si11  1  1.07373718  1.66520024  0.81784997  1.0
  Si  Si12  1  1.33479976  1.15264973  1.40853694  1.0
  Si  Si13  1  0.74411279  0.92626282  1.59146306  1.0
  Si  Si14  1  0.90264973  0.99411279  1.31784997  1.0
  Si  Si15  1  1.67626282  1.58479976  1.68215003  1.0
  O  O16  1  0.59921413  1.11133008  1.14208550  1.0
  O  O17  1  0.96924458  1.45712863  0.85791450  1.0
  O  O18  1  0.86133008  1.21924458  1.01211595  1.0
  O  O19  1  0.20712863  0.84921413  0.98788405  1.0
  O  O20  1  1.15078587  1.13866992  1.35791450  1.0
  O  O21  1  1.78075542  1.79287137  1.64208550  1.0
  O  O22  1  0.88866992  1.03075542  1.48788405  1.0
  O  O23  1  1.54287137  1.40078587  1.51211595  1.0
  O  O24  1  0.45852902  1.25615933  1.01556801  1.0
  O  O25  1  1.24059132  0.44296101  0.98443199  1.0
  O  O26  1  1.00615933  0.49059132  1.29763031  1.0
  O  O27  1  0.19296101  0.70852902  0.70236969  1.0
  O  O28  1  1.29147098  0.99384067  1.48443199  1.0
  O  O29  1  0.50940868  0.80703899  0.51556801  1.0
  O  O30  1  0.74384067  0.75940868  0.20236969  1.0
  O  O31  1  1.55703899  1.54147098  1.79763031  1.0
  O  O32  1  1.37500000  1.12500000  1.25000000  1.0
  O  O33  1  0.87500000  0.12500000  0.75000000  1.0
  O  O34  1  0.87500000  1.12500000  1.25000000  1.0
  O  O35  1  0.87500000  1.62500000  0.75000000  1.0
