# generated using pymatgen
data_YCrGeO5
_symmetry_space_group_name_H-M   'P 1'
_cell_length_a   7.38058094
_cell_length_b   8.47118872
_cell_length_c   5.78235252
_cell_angle_alpha   90.00000000
_cell_angle_beta   90.00000000
_cell_angle_gamma   90.00000000
_symmetry_Int_Tables_number   1
_chemical_formula_structural   YCrGeO5
_chemical_formula_sum   'Y4 Cr4 Ge4 O20'
_cell_volume   361.52594435
_cell_formula_units_Z   4
loop_
 _symmetry_equiv_pos_site_id
 _symmetry_equiv_pos_as_xyz
  1  'x, y, z'
loop_
 _atom_site_type_symbol
 _atom_site_label
 _atom_site_symmetry_multiplicity
 _atom_site_fract_x
 _atom_site_fract_y
 _atom_site_fract_z
 _atom_site_occupancy
  Y  Y0  1  0.14417944  0.82571858  0.50000000  1.0
  Y  Y1  1  0.64417944  0.67428142  0.50000000  1.0
  Y  Y2  1  0.85582056  0.17428142  0.50000000  1.0
  Y  Y3  1  0.35582056  0.32571858  0.50000000  1.0
  Cr  Cr4  1  0.50000000  0.00000000  0.74966422  1.0
  Cr  Cr5  1  0.50000000  0.00000000  0.25033578  1.0
  Cr  Cr6  1  0.00000000  0.50000000  0.74966422  1.0
  Cr  Cr7  1  0.00000000  0.50000000  0.25033578  1.0
  Ge  Ge8  1  0.38478920  0.64472351  0.00000000  1.0
  Ge  Ge9  1  0.88478920  0.85527649  0.00000000  1.0
  Ge  Ge10  1  0.61521080  0.35527649  0.00000000  1.0
  Ge  Ge11  1  0.11521080  0.14472351  0.00000000  1.0
  O  O12  1  0.50000000  0.50000000  0.78663043  1.0
  O  O13  1  0.50000000  0.50000000  0.21336957  1.0
  O  O14  1  0.00000000  0.00000000  0.78663043  1.0
  O  O15  1  0.00000000  0.00000000  0.21336957  1.0
  O  O16  1  0.39251898  0.78348703  0.74965334  1.0
  O  O17  1  0.39251898  0.78348703  0.25034666  1.0
  O  O18  1  0.89251898  0.71651297  0.74965334  1.0
  O  O19  1  0.89251898  0.71651297  0.25034666  1.0
  O  O20  1  0.60748102  0.21651297  0.74965334  1.0
  O  O21  1  0.60748102  0.21651297  0.25034666  1.0
  O  O22  1  0.10748102  0.28348703  0.74965334  1.0
  O  O23  1  0.10748102  0.28348703  0.25034666  1.0
  O  O24  1  0.16821998  0.55587364  0.50000000  1.0
  O  O25  1  0.66821998  0.94412636  0.50000000  1.0
  O  O26  1  0.83178002  0.44412636  0.50000000  1.0
  O  O27  1  0.33178002  0.05587364  0.50000000  1.0
  O  O28  1  0.15778528  0.57618072  0.00000000  1.0
  O  O29  1  0.65778528  0.92381928  0.00000000  1.0
  O  O30  1  0.84221472  0.42381928  0.00000000  1.0
  O  O31  1  0.34221472  0.07618072  0.00000000  1.0
