# generated using pymatgen
data_SrH2Br2O7
_symmetry_space_group_name_H-M   'P 1'
_cell_length_a   7.79369865
_cell_length_b   7.79369865
_cell_length_c   9.05648497
_cell_angle_alpha   52.85269236
_cell_angle_beta   127.14730764
_cell_angle_gamma   120.07518750
_symmetry_Int_Tables_number   1
_chemical_formula_structural   SrH2Br2O7
_chemical_formula_sum   'Sr2 H4 Br4 O14'
_cell_volume   341.34844454
_cell_formula_units_Z   2
loop_
 _symmetry_equiv_pos_site_id
 _symmetry_equiv_pos_as_xyz
  1  'x, y, z'
loop_
 _atom_site_type_symbol
 _atom_site_label
 _atom_site_symmetry_multiplicity
 _atom_site_fract_x
 _atom_site_fract_y
 _atom_site_fract_z
 _atom_site_occupancy
  Sr  Sr0  1  1.33324178  0.33324178  0.75000000  1.0
  Sr  Sr1  1  0.66675822  0.66675822  0.25000000  1.0
  H  H2  1  1.69844695  -0.24359951  0.63757527  1.0
  H  H3  1  1.24359951  -0.69844695  0.13757527  1.0
  H  H4  1  0.75640049  -0.30155305  0.86242473  1.0
  H  H5  1  1.30155305  0.24359951  0.36242473  1.0
  Br  Br6  1  1.79801781  0.17974948  0.80769395  1.0
  Br  Br7  1  0.82025052  0.20198219  0.30769395  1.0
  Br  Br8  1  1.17974948  0.79801781  0.69230605  1.0
  Br  Br9  1  1.20198219  -0.17974948  0.19230605  1.0
  O  O10  1  0.41871043  -0.28623119  0.87301499  1.0
  O  O11  1  1.28623119  0.58128957  0.37301499  1.0
  O  O12  1  0.71376881  0.41871043  0.62698501  1.0
  O  O13  1  0.58128957  0.28623119  0.12698501  1.0
  O  O14  1  1.74263587  0.10319618  0.99710838  1.0
  O  O15  1  0.89680382  0.25736413  0.49710838  1.0
  O  O16  1  1.10319618  0.74263587  0.50289162  1.0
  O  O17  1  1.25736413  -0.10319618  0.00289162  1.0
  O  O18  1  1.25523430  0.07992523  0.59394811  1.0
  O  O19  1  0.92007477  0.74476570  0.09394811  1.0
  O  O20  1  1.07992523  0.25523430  0.90605189  1.0
  O  O21  1  1.74476570  -0.07992523  0.40605189  1.0
  O  O22  1  0.65367723  -0.34632277  0.75000000  1.0
  O  O23  1  0.34632277  0.34632277  0.25000000  1.0
