# generated using pymatgen
data_B2H10C2NClO3
_symmetry_space_group_name_H-M   'P 1'
_cell_length_a   8.71817981
_cell_length_b   5.56431533
_cell_length_c   9.98736868
_cell_angle_alpha   97.09324770
_cell_angle_beta   118.92517952
_cell_angle_gamma   85.91876577
_symmetry_Int_Tables_number   1
_chemical_formula_structural   B2H10C2NClO3
_chemical_formula_sum   'B4 H20 C4 N2 Cl2 O6'
_cell_volume   420.77255822
_cell_formula_units_Z   2
loop_
 _symmetry_equiv_pos_site_id
 _symmetry_equiv_pos_as_xyz
  1  'x, y, z'
loop_
 _atom_site_type_symbol
 _atom_site_label
 _atom_site_symmetry_multiplicity
 _atom_site_fract_x
 _atom_site_fract_y
 _atom_site_fract_z
 _atom_site_occupancy
  B  B0  1  -0.06189286  0.91429793  0.60029423  1.0
  B  B1  1  0.06189286  0.08570207  0.39970577  1.0
  B  B2  1  0.12926076  0.81996278  0.59596581  1.0
  B  B3  1  -0.12926076  0.18003722  0.40403419  1.0
  H  H4  1  -0.03884237  0.71609488  0.76257848  1.0
  H  H5  1  0.03884237  0.28390512  0.23742152  1.0
  H  H6  1  0.21425213  0.58433777  0.75132076  1.0
  H  H7  1  -0.21425213  0.41566223  0.24867924  1.0
  H  H8  1  -0.79014346  0.92105802  0.21625549  1.0
  H  H9  1  0.79014346  0.07894198  0.78374451  1.0
  H  H10  1  -0.79049263  0.68584636  0.08886251  1.0
  H  H11  1  0.79049263  0.31415364  0.91113749  1.0
  H  H12  1  -0.69545640  1.05918979  0.05212419  1.0
  H  H13  1  0.69545640  -0.05918979  0.94787581  1.0
  H  H14  1  -0.51516661  0.06190204  0.24378471  1.0
  H  H15  1  0.51516661  0.93809796  0.75621529  1.0
  H  H16  1  -0.53253904  0.82120513  0.10100897  1.0
  H  H17  1  0.53253904  0.17879487  0.89899103  1.0
  H  H18  1  0.31356969  0.55647148  0.33920076  1.0
  H  H19  1  -0.31356969  0.44352852  0.66079924  1.0
  H  H20  1  -0.51502457  0.53552155  0.28590030  1.0
  H  H21  1  0.51502457  0.46447845  0.71409970  1.0
  H  H22  1  -0.51938269  0.78076841  0.41741427  1.0
  H  H23  1  0.51938269  0.21923159  0.58258573  1.0
  C  C24  1  -0.60635371  0.94693056  0.14267483  1.0
  C  C25  1  0.60635371  0.05306944  0.85732517  1.0
  C  C26  1  -0.60028554  0.65777894  0.31597486  1.0
  C  C27  1  0.60028554  0.34222106  0.68402514  1.0
  N  N28  1  -0.71059469  0.80363188  0.18586669  1.0
  N  N29  1  0.71059469  0.19636812  0.81413331  1.0
  Cl  Cl30  1  -0.12538959  0.55438171  0.11543839  1.0
  Cl  Cl31  1  0.12538959  0.44561829  0.88456161  1.0
  O  O32  1  -0.17298903  0.07940696  0.50217990  1.0
  O  O33  1  0.17298903  0.92059304  0.49782010  1.0
  O  O34  1  -0.11708871  0.84182305  0.69666974  1.0
  O  O35  1  0.11708871  0.15817695  0.30333026  1.0
  O  O36  1  0.24814778  0.65597149  0.68296032  1.0
  O  O37  1  -0.24814778  0.34402851  0.31703968  1.0
