# generated using pymatgen
data_ZnH4(BrO)2
_symmetry_space_group_name_H-M   'P 1'
_cell_length_a   8.49124406
_cell_length_b   8.49124406
_cell_length_c   8.49124406
_cell_angle_alpha   125.03374124
_cell_angle_beta   99.81579469
_cell_angle_gamma   104.80085164
_symmetry_Int_Tables_number   1
_chemical_formula_structural   ZnH4(BrO)2
_chemical_formula_sum   'Zn3 H12 Br6 O6'
_cell_volume   444.07972073
_cell_formula_units_Z   3
loop_
 _symmetry_equiv_pos_site_id
 _symmetry_equiv_pos_as_xyz
  1  'x, y, z'
loop_
 _atom_site_type_symbol
 _atom_site_label
 _atom_site_symmetry_multiplicity
 _atom_site_fract_x
 _atom_site_fract_y
 _atom_site_fract_z
 _atom_site_occupancy
  Zn  Zn0  1  0.34728888  0.50000000  0.84728888  1.0
  Zn  Zn1  1  0.65271112  0.50000000  1.15271112  1.0
  Zn  Zn2  1  0.00000000  0.00000000  0.00000000  1.0
  H  H3  1  0.77624006  0.58216642  0.66354281  1.0
  H  H4  1  1.08137639  0.88730275  0.66354281  1.0
  H  H5  1  0.91862361  0.58216642  0.80592636  1.0
  H  H6  1  1.22375994  0.88730275  0.80592636  1.0
  H  H7  1  0.77624006  1.11269725  1.19407364  1.0
  H  H8  1  1.08137639  1.41783358  1.19407364  1.0
  H  H9  1  0.91862361  1.11269725  1.33645719  1.0
  H  H10  1  1.22375994  1.41783358  1.33645719  1.0
  H  H11  1  1.67766025  0.92229489  0.75536536  1.0
  H  H12  1  0.83307046  0.07770511  0.75536536  1.0
  H  H13  1  1.16692954  0.92229489  0.24463464  1.0
  H  H14  1  0.32233975  0.07770511  0.24463464  1.0
  Br  Br15  1  0.39802896  0.68589858  0.71213038  1.0
  Br  Br16  1  1.02623179  1.31410142  0.71213038  1.0
  Br  Br17  1  0.97376821  0.68589858  1.28786962  1.0
  Br  Br18  1  1.60197104  1.31410142  1.28786962  1.0
  Br  Br19  1  0.50000000  0.73516682  1.23516682  1.0
  Br  Br20  1  0.50000000  0.26483318  0.76483318  1.0
  O  O21  1  0.85414458  0.66509403  0.81094945  1.0
  O  O22  1  1.14585542  0.95680488  0.81094945  1.0
  O  O23  1  0.85414458  1.04319512  1.18905055  1.0
  O  O24  1  1.14585542  1.33490597  1.18905055  1.0
  O  O25  1  0.80634074  -0.00000000  0.80634074  1.0
  O  O26  1  0.19365926  -0.00000000  0.19365926  1.0
