# generated using pymatgen
data_H8C2N10O3
_symmetry_space_group_name_H-M   'P 1'
_cell_length_a   3.97749030
_cell_length_b   14.56426154
_cell_length_c   8.39360411
_cell_angle_alpha   104.39911372
_cell_angle_beta   103.93947677
_cell_angle_gamma   89.28997925
_symmetry_Int_Tables_number   1
_chemical_formula_structural   H8C2N10O3
_chemical_formula_sum   'H16 C4 N20 O6'
_cell_volume   456.50710407
_cell_formula_units_Z   2
loop_
 _symmetry_equiv_pos_site_id
 _symmetry_equiv_pos_as_xyz
  1  'x, y, z'
loop_
 _atom_site_type_symbol
 _atom_site_label
 _atom_site_symmetry_multiplicity
 _atom_site_fract_x
 _atom_site_fract_y
 _atom_site_fract_z
 _atom_site_occupancy
  H  H0  1  -1.00363668  -0.07613332  -0.76555330  1.0
  H  H1  1  0.00363668  -0.92386668  -0.23444670  1.0
  H  H2  1  -0.90863426  -0.81484323  -0.08188516  1.0
  H  H3  1  -0.09136574  -0.18515677  -0.91811484  1.0
  H  H4  1  -0.82403772  -0.59511426  -0.06706597  1.0
  H  H5  1  -0.17596228  -0.40488574  -0.93293403  1.0
  H  H6  1  -0.91101996  -0.38628578  -0.58590993  1.0
  H  H7  1  -0.08898004  -0.61371422  -0.41409007  1.0
  H  H8  1  -0.74723547  -0.53297937  -0.30289248  1.0
  H  H9  1  -0.25276453  -0.46702063  -0.69710752  1.0
  H  H10  1  -0.70939550  -0.65445714  -0.31740794  1.0
  H  H11  1  -0.29060450  -0.34554286  -0.68259206  1.0
  H  H12  1  -0.75425015  -0.17335720  -0.74419452  1.0
  H  H13  1  -0.24574984  -0.82664280  -0.25580548  1.0
  H  H14  1  -0.17347237  -0.89138499  -0.96820937  1.0
  H  H15  1  -0.82652763  -0.10861501  -0.03179063  1.0
  C  C16  1  -0.72708963  -0.80072079  -0.67310918  1.0
  C  C17  1  -0.27291037  -0.19927921  -0.32689082  1.0
  C  C18  1  -0.62891387  -0.72022209  -0.72658178  1.0
  C  C19  1  -0.37108613  -0.27977791  -0.27341822  1.0
  N  N20  1  -0.95596420  -0.93459324  -0.67561361  1.0
  N  N21  1  -0.04403580  -0.06540676  -0.32438639  1.0
  N  N22  1  -0.91814627  -0.87804723  -0.77443381  1.0
  N  N23  1  -0.08185373  -0.12195277  -0.22556619  1.0
  N  N24  1  -0.87617726  -0.59725654  -0.30788114  1.0
  N  N25  1  -0.12382274  -0.40274346  -0.69211886  1.0
  N  N26  1  -0.90114759  -0.13661265  -0.82917594  1.0
  N  N27  1  -0.09885241  -0.86338735  -0.17082406  1.0
  N  N28  1  -0.79982016  -0.89627922  -0.51681596  1.0
  N  N29  1  -0.20017984  -0.10372078  -0.48318404  1.0
  N  N30  1  -0.73299378  -0.71552955  -0.88914208  1.0
  N  N31  1  -0.26700622  -0.28447045  -0.11085792  1.0
  N  N32  1  -0.65416977  -0.81215148  -0.51292903  1.0
  N  N33  1  -0.34583023  -0.18784852  -0.48707097  1.0
  N  N34  1  -0.60873561  -0.63138575  -0.89012625  1.0
  N  N35  1  -0.39126439  -0.36861425  -0.10987375  1.0
  N  N36  1  -0.43564084  -0.58664649  -0.73563758  1.0
  N  N37  1  -0.56435916  -0.41335351  -0.26436242  1.0
  N  N38  1  -0.44128412  -0.64078715  -0.62837289  1.0
  N  N39  1  -0.55871588  -0.35921285  -0.37162711  1.0
  O  O40  1  -0.98514087  -0.41618566  -0.83615315  1.0
  O  O41  1  -0.01485913  -0.58381434  -0.16384685  1.0
  O  O42  1  -0.67148476  -0.10854216  -0.91549255  1.0
  O  O43  1  -0.32851524  -0.89145784  -0.08450745  1.0
  O  O44  1  -0.47597461  -0.75527419  -0.37201600  1.0
  O  O45  1  -0.52402539  -0.24472581  -0.62798400  1.0
