# generated using pymatgen
data_Na5LiN2
_symmetry_space_group_name_H-M   'P 1'
_cell_length_a   5.01135228
_cell_length_b   5.01135228
_cell_length_c   6.64631723
_cell_angle_alpha   87.77346855
_cell_angle_beta   92.22653145
_cell_angle_gamma   67.90680826
_symmetry_Int_Tables_number   1
_chemical_formula_structural   Na5LiN2
_chemical_formula_sum   'Na5 Li1 N2'
_cell_volume   154.28279292
_cell_formula_units_Z   1
loop_
 _symmetry_equiv_pos_site_id
 _symmetry_equiv_pos_as_xyz
  1  'x, y, z'
loop_
 _atom_site_type_symbol
 _atom_site_label
 _atom_site_symmetry_multiplicity
 _atom_site_fract_x
 _atom_site_fract_y
 _atom_site_fract_z
 _atom_site_occupancy
  Na  Na0  1  0.58248219  -0.41053636  0.23388627  1.0
  Na  Na1  1  0.58946364  -0.41751781  0.76611373  1.0
  Na  Na2  1  0.91451406  -0.08548594  0.50000000  1.0
  Na  Na3  1  1.26891641  0.26891641  0.50000000  1.0
  Na  Na4  1  1.24070566  0.24070566  -0.00000000  1.0
  Li  Li5  1  0.88577941  -0.11422059  0.00000000  1.0
  N  N6  1  0.62099536  0.07614327  0.77211622  1.0
  N  N7  1  1.07614327  -0.37900464  0.22788378  1.0
