# generated using pymatgen
data_Li9Al4
_symmetry_space_group_name_H-M   'P 1'
_cell_length_a   9.70698369
_cell_length_b   9.70698369
_cell_length_c   5.35441771
_cell_angle_alpha   107.10567461
_cell_angle_beta   72.89432539
_cell_angle_gamma   153.37157128
_symmetry_Int_Tables_number   1
_chemical_formula_structural   Li9Al4
_chemical_formula_sum   'Li9 Al4'
_cell_volume   215.55151822
_cell_formula_units_Z   1
loop_
 _symmetry_equiv_pos_site_id
 _symmetry_equiv_pos_as_xyz
  1  'x, y, z'
loop_
 _atom_site_type_symbol
 _atom_site_label
 _atom_site_symmetry_multiplicity
 _atom_site_fract_x
 _atom_site_fract_y
 _atom_site_fract_z
 _atom_site_occupancy
  Li  Li0  1  0.00000000  0.00000000  0.00000000  1.0
  Li  Li1  1  0.08499449  -0.08499449  0.46833641  1.0
  Li  Li2  1  0.91500551  0.08499449  0.53166359  1.0
  Li  Li3  1  0.23277637  -0.23277637  0.37532216  1.0
  Li  Li4  1  0.76722363  0.23277637  0.62467784  1.0
  Li  Li5  1  0.30811854  -0.30811854  0.85756749  1.0
  Li  Li6  1  0.69188146  0.30811854  0.14243251  1.0
  Li  Li7  1  0.45651466  -0.45651466  0.76093180  1.0
  Li  Li8  1  0.54348534  0.45651466  0.23906820  1.0
  Al  Al9  1  0.15123218  -0.15123218  0.91473296  1.0
  Al  Al10  1  0.84876782  0.15123218  0.08526704  1.0
  Al  Al11  1  0.38605590  -0.38605590  0.29595985  1.0
  Al  Al12  1  0.61394410  0.38605590  0.70404015  1.0
