# generated using pymatgen
data_YH3
_symmetry_space_group_name_H-M   'P 1'
_cell_length_a   6.33211448
_cell_length_b   6.33211448
_cell_length_c   6.60363313
_cell_angle_alpha   90.00000000
_cell_angle_beta   90.00000000
_cell_angle_gamma   120.00000000
_symmetry_Int_Tables_number   1
_chemical_formula_structural   YH3
_chemical_formula_sum   'Y6 H18'
_cell_volume   229.30371195
_cell_formula_units_Z   6
loop_
 _symmetry_equiv_pos_site_id
 _symmetry_equiv_pos_as_xyz
  1  'x, y, z'
loop_
 _atom_site_type_symbol
 _atom_site_label
 _atom_site_symmetry_multiplicity
 _atom_site_fract_x
 _atom_site_fract_y
 _atom_site_fract_z
 _atom_site_occupancy
  Y  Y0  1  0.66306630  0.66306630  0.25000000  1.0
  Y  Y1  1  0.66306630  0.00000000  0.75000000  1.0
  Y  Y2  1  -0.00000000  0.66306630  0.75000000  1.0
  Y  Y3  1  0.00000000  0.33693370  0.25000000  1.0
  Y  Y4  1  0.33693370  0.33693370  0.75000000  1.0
  Y  Y5  1  0.33693370  0.00000000  0.25000000  1.0
  H  H6  1  0.33333333  0.66666667  0.18732435  1.0
  H  H7  1  0.33333333  0.66666667  0.68732435  1.0
  H  H8  1  0.66666667  0.33333333  0.31267565  1.0
  H  H9  1  0.66666667  0.33333333  0.81267565  1.0
  H  H10  1  0.97099596  0.64910717  0.09208516  1.0
  H  H11  1  0.97099596  0.32188879  0.59208516  1.0
  H  H12  1  0.64910717  0.97099596  0.40791484  1.0
  H  H13  1  0.64910717  0.67811121  0.90791484  1.0
  H  H14  1  0.67811121  0.64910717  0.59208516  1.0
  H  H15  1  0.67811121  0.02900404  0.09208516  1.0
  H  H16  1  0.35089283  0.02900404  0.59208516  1.0
  H  H17  1  0.35089283  0.32188879  0.09208516  1.0
  H  H18  1  0.02900404  0.67811121  0.40791484  1.0
  H  H19  1  0.02900404  0.35089283  0.90791484  1.0
  H  H20  1  0.32188879  0.97099596  0.90791484  1.0
  H  H21  1  0.32188879  0.35089283  0.40791484  1.0
  H  H22  1  0.00000000  0.00000000  0.25000000  1.0
  H  H23  1  0.00000000  0.00000000  0.75000000  1.0
