# generated using pymatgen
data_EuSnPd
_symmetry_space_group_name_H-M   'P 1'
_cell_length_a   7.50334582
_cell_length_b   4.73790254
_cell_length_c   8.05898938
_cell_angle_alpha   90.00000000
_cell_angle_beta   90.00000000
_cell_angle_gamma   90.00000000
_symmetry_Int_Tables_number   1
_chemical_formula_structural   EuSnPd
_chemical_formula_sum   'Eu4 Sn4 Pd4'
_cell_volume   286.49804944
_cell_formula_units_Z   4
loop_
 _symmetry_equiv_pos_site_id
 _symmetry_equiv_pos_as_xyz
  1  'x, y, z'
loop_
 _atom_site_type_symbol
 _atom_site_label
 _atom_site_symmetry_multiplicity
 _atom_site_fract_x
 _atom_site_fract_y
 _atom_site_fract_z
 _atom_site_occupancy
  Eu  Eu0  1  0.98131294  0.75000000  0.69198334  1.0
  Eu  Eu1  1  0.48131294  0.75000000  0.80801666  1.0
  Eu  Eu2  1  0.01868706  0.25000000  0.30801666  1.0
  Eu  Eu3  1  0.51868706  0.25000000  0.19198334  1.0
  Sn  Sn4  1  0.82573711  0.75000000  0.07968718  1.0
  Sn  Sn5  1  0.32573711  0.75000000  0.42031282  1.0
  Sn  Sn6  1  0.17426289  0.25000000  0.92031282  1.0
  Sn  Sn7  1  0.67426289  0.25000000  0.57968718  1.0
  Pd  Pd8  1  0.70558001  0.75000000  0.40399512  1.0
  Pd  Pd9  1  0.20558001  0.75000000  0.09600488  1.0
  Pd  Pd10  1  0.29441999  0.25000000  0.59600488  1.0
  Pd  Pd11  1  0.79441999  0.25000000  0.90399512  1.0
