# generated using pymatgen
data_Sr3Hg
_symmetry_space_group_name_H-M   'P 1'
_cell_length_a   8.58586491
_cell_length_b   11.15615917
_cell_length_c   7.46546574
_cell_angle_alpha   90.00000000
_cell_angle_beta   90.00000000
_cell_angle_gamma   90.00000000
_symmetry_Int_Tables_number   1
_chemical_formula_structural   Sr3Hg
_chemical_formula_sum   'Sr12 Hg4'
_cell_volume   715.08169280
_cell_formula_units_Z   4
loop_
 _symmetry_equiv_pos_site_id
 _symmetry_equiv_pos_as_xyz
  1  'x, y, z'
loop_
 _atom_site_type_symbol
 _atom_site_label
 _atom_site_symmetry_multiplicity
 _atom_site_fract_x
 _atom_site_fract_y
 _atom_site_fract_z
 _atom_site_occupancy
  Sr  Sr0  1  0.32242901  0.93557970  0.66196259  1.0
  Sr  Sr1  1  0.32242901  0.56442030  0.66196259  1.0
  Sr  Sr2  1  0.82242901  0.93557970  0.83803741  1.0
  Sr  Sr3  1  0.82242901  0.56442030  0.83803741  1.0
  Sr  Sr4  1  0.67757099  0.43557970  0.33803741  1.0
  Sr  Sr5  1  0.67757099  0.06442030  0.33803741  1.0
  Sr  Sr6  1  0.17757099  0.43557970  0.16196259  1.0
  Sr  Sr7  1  0.17757099  0.06442030  0.16196259  1.0
  Sr  Sr8  1  0.46507662  0.75000000  0.14481729  1.0
  Sr  Sr9  1  0.96507662  0.75000000  0.35518271  1.0
  Sr  Sr10  1  0.53492338  0.25000000  0.85518271  1.0
  Sr  Sr11  1  0.03492338  0.25000000  0.64481729  1.0
  Hg  Hg12  1  0.12126911  0.75000000  0.94357685  1.0
  Hg  Hg13  1  0.62126911  0.75000000  0.55642315  1.0
  Hg  Hg14  1  0.87873089  0.25000000  0.05642315  1.0
  Hg  Hg15  1  0.37873089  0.25000000  0.44357685  1.0
