# generated using pymatgen
data_LiH2CO3
_symmetry_space_group_name_H-M   'P 1'
_cell_length_a   9.49037074
_cell_length_b   6.44119218
_cell_length_c   4.80374394
_cell_angle_alpha   90.00000000
_cell_angle_beta   90.00000000
_cell_angle_gamma   90.00000000
_symmetry_Int_Tables_number   1
_chemical_formula_structural   LiH2CO3
_chemical_formula_sum   'Li4 H8 C4 O12'
_cell_volume   293.64951309
_cell_formula_units_Z   4
loop_
 _symmetry_equiv_pos_site_id
 _symmetry_equiv_pos_as_xyz
  1  'x, y, z'
loop_
 _atom_site_type_symbol
 _atom_site_label
 _atom_site_symmetry_multiplicity
 _atom_site_fract_x
 _atom_site_fract_y
 _atom_site_fract_z
 _atom_site_occupancy
  C  C0  1  0.28376122  0.43455930  0.74239536  1.0
  C  C1  1  0.71623878  0.56544070  0.24239536  1.0
  C  C2  1  0.21623878  0.93455930  0.24239536  1.0
  C  C3  1  0.78376122  0.06544070  0.74239536  1.0
  O  O4  1  0.27476064  0.43568490  0.00435646  1.0
  O  O5  1  0.72523936  0.56431510  0.50435646  1.0
  O  O6  1  0.22523936  0.93568490  0.50435646  1.0
  O  O7  1  0.77476064  0.06431510  0.00435646  1.0
  O  O8  1  0.39537519  0.45532747  0.60205550  1.0
  O  O9  1  0.60462481  0.54467253  0.10205550  1.0
  O  O10  1  0.10462481  0.95532747  0.10205550  1.0
  O  O11  1  0.89537519  0.04467253  0.60205550  1.0
  O  O12  1  0.01347081  0.41420924  0.24246758  1.0
  O  O13  1  0.98652919  0.58579076  0.74246758  1.0
  O  O14  1  0.48652919  0.91420924  0.74246758  1.0
  O  O15  1  0.51347081  0.08579076  0.24246758  1.0
  Li  Li16  1  0.44170391  0.37557274  0.22893935  1.0
  Li  Li17  1  0.55829609  0.62442726  0.72893935  1.0
  Li  Li18  1  0.05829609  0.87557274  0.72893935  1.0
  Li  Li19  1  0.94170391  0.12442726  0.22893935  1.0
  H  H20  1  0.18206377  0.41660328  0.62531088  1.0
  H  H21  1  0.81793623  0.58339672  0.12531088  1.0
  H  H22  1  0.31793623  0.91660328  0.12531088  1.0
  H  H23  1  0.68206377  0.08339672  0.62531088  1.0
  H  H24  1  0.10524104  0.44210084  0.14547486  1.0
  H  H25  1  0.89475896  0.55789916  0.64547486  1.0
  H  H26  1  0.39475896  0.94210084  0.64547486  1.0
  H  H27  1  0.60524104  0.05789916  0.14547486  1.0
