# generated using pymatgen
data_YSiNi2
_symmetry_space_group_name_H-M   'P 1'
_cell_length_a   7.06994502
_cell_length_b   6.39444850
_cell_length_c   5.42420630
_cell_angle_alpha   90.00000000
_cell_angle_beta   90.00000000
_cell_angle_gamma   90.00000000
_symmetry_Int_Tables_number   1
_chemical_formula_structural   YSiNi2
_chemical_formula_sum   'Y4 Si4 Ni8'
_cell_volume   245.21968469
_cell_formula_units_Z   4
loop_
 _symmetry_equiv_pos_site_id
 _symmetry_equiv_pos_as_xyz
  1  'x, y, z'
loop_
 _atom_site_type_symbol
 _atom_site_label
 _atom_site_symmetry_multiplicity
 _atom_site_fract_x
 _atom_site_fract_y
 _atom_site_fract_z
 _atom_site_occupancy
  Y  Y0  1  0.96904973  0.25000000  0.64906060  1.0
  Y  Y1  1  0.46904973  0.25000000  0.85093940  1.0
  Y  Y2  1  0.03095027  0.75000000  0.35093940  1.0
  Y  Y3  1  0.53095027  0.75000000  0.14906060  1.0
  Si  Si4  1  0.62431542  0.25000000  0.35034378  1.0
  Si  Si5  1  0.12431542  0.25000000  0.14965622  1.0
  Si  Si6  1  0.37568458  0.75000000  0.64965622  1.0
  Si  Si7  1  0.87568458  0.75000000  0.85034378  1.0
  Ni  Ni8  1  0.82961991  0.44240817  0.08982958  1.0
  Ni  Ni9  1  0.82961991  0.05759183  0.08982958  1.0
  Ni  Ni10  1  0.32961991  0.44240817  0.41017042  1.0
  Ni  Ni11  1  0.32961991  0.05759183  0.41017042  1.0
  Ni  Ni12  1  0.17038009  0.94240817  0.91017042  1.0
  Ni  Ni13  1  0.17038009  0.55759183  0.91017042  1.0
  Ni  Ni14  1  0.67038009  0.94240817  0.58982958  1.0
  Ni  Ni15  1  0.67038009  0.55759183  0.58982958  1.0
