# generated using pymatgen
data_CsTiI3
_symmetry_space_group_name_H-M   'P 1'
_cell_length_a   8.33263461
_cell_length_b   8.33263461
_cell_length_c   6.90610557
_cell_angle_alpha   90.00000000
_cell_angle_beta   90.00000000
_cell_angle_gamma   120.00000000
_symmetry_Int_Tables_number   1
_chemical_formula_structural   CsTiI3
_chemical_formula_sum   'Cs2 Ti2 I6'
_cell_volume   415.26805194
_cell_formula_units_Z   2
loop_
 _symmetry_equiv_pos_site_id
 _symmetry_equiv_pos_as_xyz
  1  'x, y, z'
loop_
 _atom_site_type_symbol
 _atom_site_label
 _atom_site_symmetry_multiplicity
 _atom_site_fract_x
 _atom_site_fract_y
 _atom_site_fract_z
 _atom_site_occupancy
  Cs  Cs0  1  0.33333333  0.66666667  0.75000000  1.0
  Cs  Cs1  1  0.66666667  0.33333333  0.25000000  1.0
  Ti  Ti2  1  0.00000000  0.00000000  0.50000000  1.0
  Ti  Ti3  1  -0.00000000  -0.00000000  0.00000000  1.0
  I  I4  1  0.16116200  0.83883800  0.25000000  1.0
  I  I5  1  0.16116200  0.32232400  0.25000000  1.0
  I  I6  1  0.83883800  0.16116200  0.75000000  1.0
  I  I7  1  0.83883800  0.67767600  0.75000000  1.0
  I  I8  1  0.67767600  0.83883800  0.25000000  1.0
  I  I9  1  0.32232400  0.16116200  0.75000000  1.0
