# generated using pymatgen
data_HfGeTe
_symmetry_space_group_name_H-M   'P 1'
_cell_length_a   3.89695250
_cell_length_b   3.89695250
_cell_length_c   8.54105294
_cell_angle_alpha   90.00000000
_cell_angle_beta   90.00000000
_cell_angle_gamma   90.00000000
_symmetry_Int_Tables_number   1
_chemical_formula_structural   HfGeTe
_chemical_formula_sum   'Hf2 Ge2 Te2'
_cell_volume   129.70646973
_cell_formula_units_Z   2
loop_
 _symmetry_equiv_pos_site_id
 _symmetry_equiv_pos_as_xyz
  1  'x, y, z'
loop_
 _atom_site_type_symbol
 _atom_site_label
 _atom_site_symmetry_multiplicity
 _atom_site_fract_x
 _atom_site_fract_y
 _atom_site_fract_z
 _atom_site_occupancy
  Hf  Hf0  1  0.50000000  0.00000000  0.24619094  1.0
  Hf  Hf1  1  0.00000000  0.50000000  0.75380906  1.0
  Ge  Ge2  1  0.00000000  0.00000000  0.00000000  1.0
  Ge  Ge3  1  0.50000000  0.50000000  0.00000000  1.0
  Te  Te4  1  0.50000000  0.00000000  0.62077715  1.0
  Te  Te5  1  0.00000000  0.50000000  0.37922285  1.0
