# generated using pymatgen
data_LaMg2Pt
_symmetry_space_group_name_H-M   'P 1'
_cell_length_a   5.67135631
_cell_length_b   5.67135631
_cell_length_c   8.34983213
_cell_angle_alpha   90.00000000
_cell_angle_beta   90.00000000
_cell_angle_gamma   135.29807454
_symmetry_Int_Tables_number   1
_chemical_formula_structural   LaMg2Pt
_chemical_formula_sum   'La2 Mg4 Pt2'
_cell_volume   188.91456920
_cell_formula_units_Z   2
loop_
 _symmetry_equiv_pos_site_id
 _symmetry_equiv_pos_as_xyz
  1  'x, y, z'
loop_
 _atom_site_type_symbol
 _atom_site_label
 _atom_site_symmetry_multiplicity
 _atom_site_fract_x
 _atom_site_fract_y
 _atom_site_fract_z
 _atom_site_occupancy
  La  La0  1  0.43911123  0.56088877  0.75000000  1.0
  La  La1  1  -0.43911123  0.43911123  0.25000000  1.0
  Mg  Mg2  1  0.15467873  0.84532127  0.94531725  1.0
  Mg  Mg3  1  0.15467873  0.84532127  0.55468275  1.0
  Mg  Mg4  1  -0.15467873  0.15467873  0.44531725  1.0
  Mg  Mg5  1  -0.15467873  0.15467873  0.05468275  1.0
  Pt  Pt6  1  -0.27361985  0.27361985  0.75000000  1.0
  Pt  Pt7  1  0.27361985  0.72638015  0.25000000  1.0
