# generated using pymatgen
data_VP(H2O3)2
_symmetry_space_group_name_H-M   'P 1'
_cell_length_a   5.29606413
_cell_length_b   10.13705087
_cell_length_c   9.90671159
_cell_angle_alpha   90.00000000
_cell_angle_beta   119.25014158
_cell_angle_gamma   90.00000000
_symmetry_Int_Tables_number   1
_chemical_formula_structural   VP(H2O3)2
_chemical_formula_sum   'V4 P4 H16 O24'
_cell_volume   464.04193437
_cell_formula_units_Z   4
loop_
 _symmetry_equiv_pos_site_id
 _symmetry_equiv_pos_as_xyz
  1  'x, y, z'
loop_
 _atom_site_type_symbol
 _atom_site_label
 _atom_site_symmetry_multiplicity
 _atom_site_fract_x
 _atom_site_fract_y
 _atom_site_fract_z
 _atom_site_occupancy
  V  V0  1  0.87328973  0.82670996  0.28114397  1.0
  V  V1  1  0.87328973  0.67329004  0.78114397  1.0
  V  V2  1  0.12671027  0.32670996  0.21885603  1.0
  V  V3  1  0.12671027  0.17329004  0.71885603  1.0
  P  P4  1  0.73727155  0.14059392  0.32754880  1.0
  P  P5  1  0.73727155  0.35940608  0.82754880  1.0
  P  P6  1  0.26272845  0.64059392  0.17245120  1.0
  P  P7  1  0.26272845  0.85940608  0.67245120  1.0
  H  H8  1  0.90933677  0.96142761  0.75504338  1.0
  H  H9  1  0.90933677  0.53857239  0.25504338  1.0
  H  H10  1  0.09066323  0.46142761  0.74495662  1.0
  H  H11  1  0.09066323  0.03857239  0.24495662  1.0
  H  H12  1  0.64109328  0.44106556  0.20941372  1.0
  H  H13  1  0.64109328  0.05893444  0.70941372  1.0
  H  H14  1  0.35890672  0.94106556  0.29058628  1.0
  H  H15  1  0.35890672  0.55893444  0.79058628  1.0
  H  H16  1  0.59398897  0.30307157  0.47603616  1.0
  H  H17  1  0.59398897  0.19692843  0.97603616  1.0
  H  H18  1  0.40601103  0.80307157  0.02396384  1.0
  H  H19  1  0.40601103  0.69692843  0.52396384  1.0
  H  H20  1  0.36303550  0.33913429  0.52992169  1.0
  H  H21  1  0.36303550  0.16086571  1.02992169  1.0
  H  H22  1  0.63696450  0.83913429  -0.02992169  1.0
  H  H23  1  0.63696450  0.66086571  0.47007831  1.0
  O  O24  1  0.94909133  0.17160455  0.26342235  1.0
  O  O25  1  0.94909133  0.32839545  0.76342235  1.0
  O  O26  1  0.05090867  0.67160455  0.23657765  1.0
  O  O27  1  0.05090867  0.82839545  0.73657765  1.0
  O  O28  1  0.84932894  0.20022531  0.49165782  1.0
  O  O29  1  0.84932894  0.29977469  0.99165782  1.0
  O  O30  1  0.15067106  0.70022531  0.00834218  1.0
  O  O31  1  0.15067106  0.79977469  0.50834218  1.0
  O  O32  1  0.85459815  0.44371957  0.25557992  1.0
  O  O33  1  0.85459815  0.05628043  0.75557992  1.0
  O  O34  1  0.14540185  0.94371957  0.24442008  1.0
  O  O35  1  0.14540185  0.55628043  0.74442008  1.0
  O  O36  1  0.71211142  0.98725282  0.33217005  1.0
  O  O37  1  0.71211142  0.51274718  0.83217005  1.0
  O  O38  1  0.28788858  0.48725282  0.16782995  1.0
  O  O39  1  0.28788858  0.01274718  0.66782995  1.0
  O  O40  1  0.43573460  0.20144064  0.21673188  1.0
  O  O41  1  0.43573460  0.29855936  0.71673188  1.0
  O  O42  1  0.56426540  0.70144064  0.28326812  1.0
  O  O43  1  0.56426540  0.79855936  0.78326812  1.0
  O  O44  1  0.40705303  0.35082788  0.44363487  1.0
  O  O45  1  0.40705303  0.14917212  0.94363487  1.0
  O  O46  1  0.59294697  0.85082788  0.05636513  1.0
  O  O47  1  0.59294697  0.64917212  0.55636513  1.0
