# generated using pymatgen
data_Mg(IO5)2
_symmetry_space_group_name_H-M   'P 1'
_cell_length_a   8.73738656
_cell_length_b   5.12824900
_cell_length_c   8.62987887
_cell_angle_alpha   90.00000000
_cell_angle_beta   90.48702532
_cell_angle_gamma   90.00000000
_symmetry_Int_Tables_number   1
_chemical_formula_structural   Mg(IO5)2
_chemical_formula_sum   'Mg2 I4 O20'
_cell_volume   386.66927545
_cell_formula_units_Z   2
loop_
 _symmetry_equiv_pos_site_id
 _symmetry_equiv_pos_as_xyz
  1  'x, y, z'
loop_
 _atom_site_type_symbol
 _atom_site_label
 _atom_site_symmetry_multiplicity
 _atom_site_fract_x
 _atom_site_fract_y
 _atom_site_fract_z
 _atom_site_occupancy
  O  O0  1  0.82295402  0.19525751  0.16584815  1.0
  O  O1  1  0.82295402  0.30474249  0.66584815  1.0
  O  O2  1  0.17704598  0.69525751  0.33415185  1.0
  O  O3  1  0.17704598  0.80474249  0.83415185  1.0
  O  O4  1  0.79896944  0.42020598  0.36556157  1.0
  O  O5  1  0.79896944  0.07979402  0.86556157  1.0
  O  O6  1  0.20103056  0.92020598  0.13443843  1.0
  O  O7  1  0.20103056  0.57979402  0.63443843  1.0
  O  O8  1  0.88976924  0.65970098  -0.02396383  1.0
  O  O9  1  0.88976924  0.84029902  0.47603617  1.0
  O  O10  1  0.11023076  0.15970098  0.52396383  1.0
  O  O11  1  0.11023076  0.34029902  1.02396383  1.0
  O  O12  1  0.64003575  0.34044727  0.00631203  1.0
  O  O13  1  0.64003575  0.15955273  0.50631203  1.0
  O  O14  1  0.35996425  0.84044727  0.49368797  1.0
  O  O15  1  0.35996425  0.65955273  0.99368797  1.0
  O  O16  1  0.34415152  0.39036762  0.28069422  1.0
  O  O17  1  0.34415152  0.10963238  0.78069422  1.0
  O  O18  1  0.65584848  0.89036762  0.21930578  1.0
  O  O19  1  0.65584848  0.60963238  0.71930578  1.0
  Mg  Mg20  1  0.00000000  0.50000000  0.50000000  1.0
  Mg  Mg21  1  0.00000000  0.00000000  0.00000000  1.0
  I  I22  1  0.67894041  0.80078950  0.43217652  1.0
  I  I23  1  0.67894041  0.69921050  0.93217652  1.0
  I  I24  1  0.32105959  0.30078950  0.06782348  1.0
  I  I25  1  0.32105959  0.19921050  0.56782348  1.0
