# generated using pymatgen
data_Ba3Li2V2Cl4O7
_symmetry_space_group_name_H-M   'P 1'
_cell_length_a   8.63077270
_cell_length_b   8.63077270
_cell_length_c   14.53178720
_cell_angle_alpha   89.56459281
_cell_angle_beta   90.43540719
_cell_angle_gamma   140.32665970
_symmetry_Int_Tables_number   1
_chemical_formula_structural   Ba3Li2V2Cl4O7
_chemical_formula_sum   'Ba6 Li4 V4 Cl8 O14'
_cell_volume   691.04085579
_cell_formula_units_Z   2
loop_
 _symmetry_equiv_pos_site_id
 _symmetry_equiv_pos_as_xyz
  1  'x, y, z'
loop_
 _atom_site_type_symbol
 _atom_site_label
 _atom_site_symmetry_multiplicity
 _atom_site_fract_x
 _atom_site_fract_y
 _atom_site_fract_z
 _atom_site_occupancy
  Ba  Ba0  1  0.63410546  0.36589454  0.77983833  1.0
  Ba  Ba1  1  0.36589454  -0.36589454  0.22016167  1.0
  Ba  Ba2  1  0.36448050  -0.36448050  0.77321242  1.0
  Ba  Ba3  1  0.63551950  0.36448050  0.22678758  1.0
  Ba  Ba4  1  0.00000000  -0.00000000  0.50000000  1.0
  Ba  Ba5  1  0.00000000  0.00000000  0.00000000  1.0
  Li  Li6  1  0.80189749  0.19810251  0.61611717  1.0
  Li  Li7  1  0.19810251  -0.19810251  0.38388283  1.0
  Li  Li8  1  0.50000000  0.00000000  0.00000000  1.0
  Li  Li9  1  1.00000000  0.50000000  0.00000000  1.0
  V  V10  1  0.99648499  0.00351501  0.75122431  1.0
  V  V11  1  0.00351501  -0.00351501  0.24877569  1.0
  V  V12  1  0.81128952  0.18871048  0.37279662  1.0
  V  V13  1  0.18871048  -0.18871048  0.62720338  1.0
  Cl  Cl14  1  0.81082378  0.18917622  0.87935660  1.0
  Cl  Cl15  1  0.18917622  -0.18917622  0.12064340  1.0
  Cl  Cl16  1  0.50278445  0.49721555  0.61551121  1.0
  Cl  Cl17  1  0.49721555  -0.49721555  0.38448879  1.0
  Cl  Cl18  1  0.38317728  -0.38317728  0.99855619  1.0
  Cl  Cl19  1  0.61682272  0.38317728  0.00144381  1.0
  Cl  Cl20  1  0.18538247  -0.18538247  0.88028441  1.0
  Cl  Cl21  1  0.81461753  0.18538247  0.11971559  1.0
  O  O22  1  0.76590706  -0.22886660  0.82161181  1.0
  O  O23  1  1.22886660  0.23409294  0.82161181  1.0
  O  O24  1  0.77113340  0.76590706  0.17838819  1.0
  O  O25  1  0.23409294  0.22886660  0.17838819  1.0
  O  O26  1  0.47569548  -0.00721897  0.66461238  1.0
  O  O27  1  1.00721897  0.52430452  0.66461238  1.0
  O  O28  1  0.99278103  0.47569548  0.33538762  1.0
  O  O29  1  0.52430452  0.00721897  0.33538762  1.0
  O  O30  1  0.91241366  0.08758634  0.32087896  1.0
  O  O31  1  0.08758634  -0.08758634  0.67912104  1.0
  O  O32  1  0.91260093  0.08739907  0.68171312  1.0
  O  O33  1  0.08739907  -0.08739907  0.31828688  1.0
  O  O34  1  0.83020881  0.16979119  0.48666822  1.0
  O  O35  1  0.16979119  -0.16979119  0.51333178  1.0
