# generated using pymatgen
data_V3PN
_symmetry_space_group_name_H-M   'P 1'
_cell_length_a   5.10268732
_cell_length_b   5.10268732
_cell_length_c   7.37048985
_cell_angle_alpha   90.00000000
_cell_angle_beta   90.00000000
_cell_angle_gamma   144.53829820
_symmetry_Int_Tables_number   1
_chemical_formula_structural   V3PN
_chemical_formula_sum   'V6 P2 N2'
_cell_volume   111.33738995
_cell_formula_units_Z   2
loop_
 _symmetry_equiv_pos_site_id
 _symmetry_equiv_pos_as_xyz
  1  'x, y, z'
loop_
 _atom_site_type_symbol
 _atom_site_label
 _atom_site_symmetry_multiplicity
 _atom_site_fract_x
 _atom_site_fract_y
 _atom_site_fract_z
 _atom_site_occupancy
  V  V0  1  0.36649718  0.63350282  0.94886756  1.0
  V  V1  1  0.36649718  0.63350282  0.55113244  1.0
  V  V2  1  -0.36649718  0.36649718  0.44886756  1.0
  V  V3  1  -0.36649718  0.36649718  0.05113244  1.0
  V  V4  1  0.06502670  0.93497330  0.75000000  1.0
  V  V5  1  -0.06502670  0.06502670  0.25000000  1.0
  P  P6  1  -0.25246986  0.25246986  0.75000000  1.0
  P  P7  1  0.25246986  0.74753014  0.25000000  1.0
  N  N8  1  0.00000000  0.00000000  0.00000000  1.0
  N  N9  1  0.00000000  0.00000000  0.50000000  1.0
