# generated using pymatgen
data_Ba4Si3Br2
_symmetry_space_group_name_H-M   'P 1'
_cell_length_a   15.21397161
_cell_length_b   8.94248559
_cell_length_c   8.88231930
_cell_angle_alpha   90.00000000
_cell_angle_beta   101.95577520
_cell_angle_gamma   90.00000000
_symmetry_Int_Tables_number   1
_chemical_formula_structural   Ba4Si3Br2
_chemical_formula_sum   'Ba16 Si12 Br8'
_cell_volume   1182.23208976
_cell_formula_units_Z   4
loop_
 _symmetry_equiv_pos_site_id
 _symmetry_equiv_pos_as_xyz
  1  'x, y, z'
loop_
 _atom_site_type_symbol
 _atom_site_label
 _atom_site_symmetry_multiplicity
 _atom_site_fract_x
 _atom_site_fract_y
 _atom_site_fract_z
 _atom_site_occupancy
  Ba  Ba0  1  0.83086049  0.16131606  0.26629724  1.0
  Ba  Ba1  1  0.83086049  0.33868394  0.76629724  1.0
  Ba  Ba2  1  0.16913951  0.66131606  0.23370276  1.0
  Ba  Ba3  1  0.16913951  0.83868394  0.73370276  1.0
  Ba  Ba4  1  0.64539504  0.43773950  0.37085926  1.0
  Ba  Ba5  1  0.64539504  0.06226050  0.87085926  1.0
  Ba  Ba6  1  0.35460496  0.93773950  0.12914074  1.0
  Ba  Ba7  1  0.35460496  0.56226050  0.62914074  1.0
  Ba  Ba8  1  0.45541279  0.21122761  0.47919310  1.0
  Ba  Ba9  1  0.45541279  0.28877239  0.97919310  1.0
  Ba  Ba10  1  0.54458721  0.71122761  0.02080690  1.0
  Ba  Ba11  1  0.54458721  0.78877239  0.52080690  1.0
  Ba  Ba12  1  0.15373252  0.17831154  0.38078052  1.0
  Ba  Ba13  1  0.15373252  0.32168846  0.88078052  1.0
  Ba  Ba14  1  0.84626748  0.67831154  0.11921948  1.0
  Ba  Ba15  1  0.84626748  0.82168846  0.61921948  1.0
  Si  Si16  1  0.69814030  0.86860280  0.30294129  1.0
  Si  Si17  1  0.69814030  0.63139720  0.80294129  1.0
  Si  Si18  1  0.30185970  0.36860280  0.19705871  1.0
  Si  Si19  1  0.30185970  0.13139720  0.69705871  1.0
  Si  Si20  1  0.68478557  0.06771710  0.49241345  1.0
  Si  Si21  1  0.68478557  0.43228290  0.99241345  1.0
  Si  Si22  1  0.31521443  0.56771710  0.00758655  1.0
  Si  Si23  1  0.31521443  0.93228290  0.50758655  1.0
  Si  Si24  1  0.58781349  0.06456137  0.23902377  1.0
  Si  Si25  1  0.58781349  0.43543863  0.73902377  1.0
  Si  Si26  1  0.41218651  0.56456137  0.26097623  1.0
  Si  Si27  1  0.41218651  0.93543863  0.76097623  1.0
  Br  Br28  1  0.99250083  0.35929144  0.13458253  1.0
  Br  Br29  1  0.99250083  0.14070856  0.63458253  1.0
  Br  Br30  1  0.00749917  0.85929144  0.36541747  1.0
  Br  Br31  1  0.00749917  0.64070856  0.86541747  1.0
  Br  Br32  1  0.86266324  0.49306098  0.44665379  1.0
  Br  Br33  1  0.86266324  0.00693902  0.94665379  1.0
  Br  Br34  1  0.13733676  0.99306098  0.05334621  1.0
  Br  Br35  1  0.13733676  0.50693902  0.55334621  1.0
