# generated using pymatgen
data_CoBrO
_symmetry_space_group_name_H-M   'P 1'
_cell_length_a   5.13060877
_cell_length_b   14.16585008
_cell_length_c   6.56083978
_cell_angle_alpha   90.00000000
_cell_angle_beta   90.00000000
_cell_angle_gamma   90.00000000
_symmetry_Int_Tables_number   1
_chemical_formula_structural   CoBrO
_chemical_formula_sum   'Co8 Br8 O8'
_cell_volume   476.83812589
_cell_formula_units_Z   8
loop_
 _symmetry_equiv_pos_site_id
 _symmetry_equiv_pos_as_xyz
  1  'x, y, z'
loop_
 _atom_site_type_symbol
 _atom_site_label
 _atom_site_symmetry_multiplicity
 _atom_site_fract_x
 _atom_site_fract_y
 _atom_site_fract_z
 _atom_site_occupancy
  Co  Co0  1  0.25378231  0.50074671  0.40797017  1.0
  Co  Co1  1  0.25378231  0.99925329  0.90797017  1.0
  Co  Co2  1  0.75378231  0.50074671  0.09202983  1.0
  Co  Co3  1  0.75378231  0.99925329  0.59202983  1.0
  Co  Co4  1  0.74621769  0.00074671  0.09202983  1.0
  Co  Co5  1  0.74621769  0.49925329  0.59202983  1.0
  Co  Co6  1  0.24621769  0.00074671  0.40797017  1.0
  Co  Co7  1  0.24621769  0.49925329  0.90797017  1.0
  Br  Br8  1  0.46637974  0.14096322  0.03968390  1.0
  Br  Br9  1  0.46637974  0.35903678  0.53968390  1.0
  Br  Br10  1  0.96637974  0.14096322  0.46031610  1.0
  Br  Br11  1  0.96637974  0.35903678  0.96031610  1.0
  Br  Br12  1  0.53362026  0.64096322  0.46031610  1.0
  Br  Br13  1  0.53362026  0.85903678  0.96031610  1.0
  Br  Br14  1  0.03362026  0.64096322  0.03968390  1.0
  Br  Br15  1  0.03362026  0.85903678  0.53968390  1.0
  O  O16  1  0.39952535  0.47800331  0.15793914  1.0
  O  O17  1  0.39952535  0.02199669  0.65793914  1.0
  O  O18  1  0.89952535  0.47800331  0.34206086  1.0
  O  O19  1  0.89952535  0.02199669  0.84206086  1.0
  O  O20  1  0.60047465  0.97800331  0.34206086  1.0
  O  O21  1  0.60047465  0.52199669  0.84206086  1.0
  O  O22  1  0.10047465  0.97800331  0.15793914  1.0
  O  O23  1  0.10047465  0.52199669  0.65793914  1.0
