# generated using pymatgen
data_LuH2ClO2
_symmetry_space_group_name_H-M   'P 1'
_cell_length_a   6.29943705
_cell_length_b   3.52414610
_cell_length_c   6.61228530
_cell_angle_alpha   90.00000000
_cell_angle_beta   103.65589883
_cell_angle_gamma   90.00000000
_symmetry_Int_Tables_number   1
_chemical_formula_structural   LuH2ClO2
_chemical_formula_sum   'Lu2 H4 Cl2 O4'
_cell_volume   142.64394562
_cell_formula_units_Z   2
loop_
 _symmetry_equiv_pos_site_id
 _symmetry_equiv_pos_as_xyz
  1  'x, y, z'
loop_
 _atom_site_type_symbol
 _atom_site_label
 _atom_site_symmetry_multiplicity
 _atom_site_fract_x
 _atom_site_fract_y
 _atom_site_fract_z
 _atom_site_occupancy
  Lu  Lu0  1  0.22458948  0.25000000  0.39740322  1.0
  Lu  Lu1  1  0.77541052  0.75000000  0.60259678  1.0
  H  H2  1  0.62610640  0.25000000  0.26400857  1.0
  H  H3  1  0.37389360  0.75000000  0.73599143  1.0
  H  H4  1  0.11801147  0.25000000  0.80394490  1.0
  H  H5  1  0.88198853  0.75000000  0.19605510  1.0
  Cl  Cl6  1  0.72499041  0.25000000  0.91805032  1.0
  Cl  Cl7  1  0.27500959  0.75000000  0.08194968  1.0
  O  O8  1  0.60559855  0.25000000  0.40602181  1.0
  O  O9  1  0.39440145  0.75000000  0.59397819  1.0
  O  O10  1  0.03770501  0.25000000  0.65810228  1.0
  O  O11  1  0.96229499  0.75000000  0.34189772  1.0
