# generated using pymatgen
data_CeTlSe2
_symmetry_space_group_name_H-M   'P 1'
_cell_length_a   6.68024617
_cell_length_b   6.68024617
_cell_length_c   6.68024617
_cell_angle_alpha   109.93107182
_cell_angle_beta   109.93107182
_cell_angle_gamma   108.55538181
_symmetry_Int_Tables_number   1
_chemical_formula_structural   CeTlSe2
_chemical_formula_sum   'Ce2 Tl2 Se4'
_cell_volume   229.44174613
_cell_formula_units_Z   2
loop_
 _symmetry_equiv_pos_site_id
 _symmetry_equiv_pos_as_xyz
  1  'x, y, z'
loop_
 _atom_site_type_symbol
 _atom_site_label
 _atom_site_symmetry_multiplicity
 _atom_site_fract_x
 _atom_site_fract_y
 _atom_site_fract_z
 _atom_site_occupancy
  Ce  Ce0  1  0.75000000  0.25000000  0.50000000  1.0
  Ce  Ce1  1  0.25000000  0.75000000  0.50000000  1.0
  Tl  Tl2  1  0.75000000  0.75000000  -0.00000000  1.0
  Tl  Tl3  1  0.25000000  0.25000000  -0.00000000  1.0
  Se  Se4  1  1.20155693  0.70155693  0.90311386  1.0
  Se  Se5  1  0.79844307  0.29844307  1.09688614  1.0
  Se  Se6  1  0.70155693  0.79844307  0.50000000  1.0
  Se  Se7  1  0.29844307  0.20155693  0.50000000  1.0
