# generated using pymatgen
data_BaNa2Mn(PO4)2
_symmetry_space_group_name_H-M   'P 1'
_cell_length_a   5.42352061
_cell_length_b   5.42352061
_cell_length_c   7.16981464
_cell_angle_alpha   90.00000000
_cell_angle_beta   90.00000000
_cell_angle_gamma   120.00000000
_symmetry_Int_Tables_number   1
_chemical_formula_structural   BaNa2Mn(PO4)2
_chemical_formula_sum   'Ba1 Na2 Mn1 P2 O8'
_cell_volume   182.64220836
_cell_formula_units_Z   1
loop_
 _symmetry_equiv_pos_site_id
 _symmetry_equiv_pos_as_xyz
  1  'x, y, z'
loop_
 _atom_site_type_symbol
 _atom_site_label
 _atom_site_symmetry_multiplicity
 _atom_site_fract_x
 _atom_site_fract_y
 _atom_site_fract_z
 _atom_site_occupancy
  Ba  Ba0  1  0.00000000  0.00000000  0.00000000  1.0
  Na  Na1  1  0.33333333  0.66666667  0.68636652  1.0
  Na  Na2  1  0.66666667  0.33333333  0.31363348  1.0
  Mn  Mn3  1  0.00000000  0.00000000  0.50000000  1.0
  P  P4  1  0.33333333  0.66666667  0.23796947  1.0
  P  P5  1  0.66666667  0.33333333  0.76203053  1.0
  O  O6  1  0.24013485  0.87921655  0.31420277  1.0
  O  O7  1  0.87921655  0.63908170  0.68579723  1.0
  O  O8  1  0.63908170  0.75986515  0.31420277  1.0
  O  O9  1  0.12078345  0.36091830  0.31420277  1.0
  O  O10  1  0.75986515  0.12078345  0.68579723  1.0
  O  O11  1  0.36091830  0.24013485  0.68579723  1.0
  O  O12  1  0.33333333  0.66666667  0.02294482  1.0
  O  O13  1  0.66666667  0.33333333  0.97705518  1.0
