# generated using pymatgen
data_MgNi2H3
_symmetry_space_group_name_H-M   'P 1'
_cell_length_a   4.96755955
_cell_length_b   4.96755955
_cell_length_c   4.68869325
_cell_angle_alpha   90.00000000
_cell_angle_beta   90.00000000
_cell_angle_gamma   125.81153022
_symmetry_Int_Tables_number   1
_chemical_formula_structural   MgNi2H3
_chemical_formula_sum   'Mg2 Ni4 H6'
_cell_volume   93.82746142
_cell_formula_units_Z   2
loop_
 _symmetry_equiv_pos_site_id
 _symmetry_equiv_pos_as_xyz
  1  'x, y, z'
loop_
 _atom_site_type_symbol
 _atom_site_label
 _atom_site_symmetry_multiplicity
 _atom_site_fract_x
 _atom_site_fract_y
 _atom_site_fract_z
 _atom_site_occupancy
  Mg  Mg0  1  0.00000000  1.00000000  0.50000000  1.0
  Mg  Mg1  1  -0.50000000  0.50000000  0.00000000  1.0
  Ni  Ni2  1  -0.31541557  0.31541557  0.45160399  1.0
  Ni  Ni3  1  0.18458443  0.81541557  0.04839601  1.0
  Ni  Ni4  1  0.31541557  0.68458443  0.54839601  1.0
  Ni  Ni5  1  -0.18458443  0.18458443  0.95160399  1.0
  H  H6  1  0.53664093  0.96335907  0.25000000  1.0
  H  H7  1  0.03664093  0.46335907  0.25000000  1.0
  H  H8  1  -0.03664093  0.53664093  0.75000000  1.0
  H  H9  1  0.46335907  1.03664093  0.75000000  1.0
  H  H10  1  -0.50000000  0.50000000  0.50000000  1.0
  H  H11  1  0.00000000  1.00000000  0.00000000  1.0
