# generated using pymatgen
data_La5C2I9
_symmetry_space_group_name_H-M   'P 1'
_cell_length_a   10.30450210
_cell_length_b   8.17962005
_cell_length_c   14.71614289
_cell_angle_alpha   80.58722589
_cell_angle_beta   79.97711572
_cell_angle_gamma   85.27383108
_symmetry_Int_Tables_number   1
_chemical_formula_structural   La5C2I9
_chemical_formula_sum   'La10 C4 I18'
_cell_volume   1203.14390175
_cell_formula_units_Z   2
loop_
 _symmetry_equiv_pos_site_id
 _symmetry_equiv_pos_as_xyz
  1  'x, y, z'
loop_
 _atom_site_type_symbol
 _atom_site_label
 _atom_site_symmetry_multiplicity
 _atom_site_fract_x
 _atom_site_fract_y
 _atom_site_fract_z
 _atom_site_occupancy
  La  La0  1  -0.47155119  -0.84503987  -0.69516871  1.0
  La  La1  1  -0.52844881  -0.15496013  -0.30483129  1.0
  La  La2  1  -0.85393962  -0.82997265  -0.63793154  1.0
  La  La3  1  -0.14606038  -0.17002735  -0.36206846  1.0
  La  La4  1  -0.66450109  -0.76428355  -0.91508548  1.0
  La  La5  1  -0.33549891  -0.23571645  -0.08491452  1.0
  La  La6  1  -0.63425854  -0.22495036  -0.74259728  1.0
  La  La7  1  -0.36574146  -0.77504964  -0.25740272  1.0
  La  La8  1  -0.96450415  -0.05312441  -0.82245791  1.0
  La  La9  1  -0.03549585  -0.94687559  -0.17754209  1.0
  C  C10  1  -0.77714926  -0.96193938  -0.78016915  1.0
  C  C11  1  -0.22285074  -0.03806062  -0.21983085  1.0
  C  C12  1  -0.65613229  -0.91101267  -0.75619694  1.0
  C  C13  1  -0.34386771  -0.08898733  -0.24380306  1.0
  I  I14  1  -0.35243482  -0.89930443  -0.47100305  1.0
  I  I15  1  -0.64756518  -0.10069557  -0.52899695  1.0
  I  I16  1  -0.34895398  -0.87022584  -1.01714807  1.0
  I  I17  1  -0.65104602  -0.12977416  0.01714807  1.0
  I  I18  1  -0.67956897  -0.81100601  -0.26318640  1.0
  I  I19  1  -0.32043103  -0.18899399  -0.73681360  1.0
  I  I20  1  -0.94025076  -0.75804429  0.00003928  1.0
  I  I21  1  -0.05974924  -0.24195571  -1.00003928  1.0
  I  I22  1  -0.13825396  -0.75772958  -0.72571890  1.0
  I  I23  1  -0.86174604  -0.24227042  -0.27428110  1.0
  I  I24  1  -0.65110969  -0.57755964  -0.57878392  1.0
  I  I25  1  -0.34889031  -0.42244036  -0.42121608  1.0
  I  I26  1  -0.44659826  -0.52059417  -0.86370004  1.0
  I  I27  1  -0.55340174  -0.47940583  -0.13629996  1.0
  I  I28  1  -0.85093912  -0.46491886  -0.79701266  1.0
  I  I29  1  -0.14906088  -0.53508114  -0.20298734  1.0
  I  I30  1  -0.99837982  -0.19772722  -0.58684164  1.0
  I  I31  1  -0.00162018  -0.80227278  -0.41315836  1.0
