# generated using pymatgen
data_Fe2CuC
_symmetry_space_group_name_H-M   'P 1'
_cell_length_a   5.18512486
_cell_length_b   6.77581172
_cell_length_c   4.45225639
_cell_angle_alpha   90.00000000
_cell_angle_beta   90.00000000
_cell_angle_gamma   90.00000000
_symmetry_Int_Tables_number   1
_chemical_formula_structural   Fe2CuC
_chemical_formula_sum   'Fe8 Cu4 C4'
_cell_volume   156.42303746
_cell_formula_units_Z   4
loop_
 _symmetry_equiv_pos_site_id
 _symmetry_equiv_pos_as_xyz
  1  'x, y, z'
loop_
 _atom_site_type_symbol
 _atom_site_label
 _atom_site_symmetry_multiplicity
 _atom_site_fract_x
 _atom_site_fract_y
 _atom_site_fract_z
 _atom_site_occupancy
  Fe  Fe0  1  0.67203163  0.06950487  0.17459887  1.0
  Fe  Fe1  1  0.17203163  0.43049513  0.32540113  1.0
  Fe  Fe2  1  0.32796837  0.56950487  0.82540113  1.0
  Fe  Fe3  1  0.82796837  0.93049513  0.67459887  1.0
  Fe  Fe4  1  0.32796837  0.93049513  0.82540113  1.0
  Fe  Fe5  1  0.82796837  0.56950487  0.67459887  1.0
  Fe  Fe6  1  0.67203163  0.43049513  0.17459887  1.0
  Fe  Fe7  1  0.17203163  0.06950487  0.32540113  1.0
  Cu  Cu8  1  0.54377725  0.25000000  0.66592940  1.0
  Cu  Cu9  1  0.04377725  0.25000000  0.83407060  1.0
  Cu  Cu10  1  0.45622275  0.75000000  0.33407060  1.0
  Cu  Cu11  1  0.95622275  0.75000000  0.16592940  1.0
  C  C12  1  0.88549779  0.25000000  0.41570606  1.0
  C  C13  1  0.38549779  0.25000000  0.08429394  1.0
  C  C14  1  0.11450221  0.75000000  0.58429394  1.0
  C  C15  1  0.61450221  0.75000000  0.91570606  1.0
