# generated using pymatgen
data_RbTeHOF4
_symmetry_space_group_name_H-M   'P 1'
_cell_length_a   8.53884427
_cell_length_b   8.53884427
_cell_length_c   14.34928568
_cell_angle_alpha   83.89142128
_cell_angle_beta   96.10857872
_cell_angle_gamma   146.12142285
_symmetry_Int_Tables_number   1
_chemical_formula_structural   RbTeHOF4
_chemical_formula_sum   'Rb4 Te4 H4 O4 F16'
_cell_volume   579.58710406
_cell_formula_units_Z   4
loop_
 _symmetry_equiv_pos_site_id
 _symmetry_equiv_pos_as_xyz
  1  'x, y, z'
loop_
 _atom_site_type_symbol
 _atom_site_label
 _atom_site_symmetry_multiplicity
 _atom_site_fract_x
 _atom_site_fract_y
 _atom_site_fract_z
 _atom_site_occupancy
  Rb  Rb0  1  0.36213238  -0.16474411  0.51146894  1.0
  Rb  Rb1  1  1.16474411  0.63786762  0.01146894  1.0
  Rb  Rb2  1  0.65620771  0.54166851  0.74096400  1.0
  Rb  Rb3  1  0.45833149  0.34379229  0.24096400  1.0
  Te  Te4  1  0.02075462  0.01694319  0.49232479  1.0
  Te  Te5  1  0.98305681  0.97924538  -0.00767521  1.0
  Te  Te6  1  0.83783955  0.20010848  0.76007465  1.0
  Te  Te7  1  0.79989152  0.16216045  0.26007465  1.0
  H  H8  1  0.34904211  -0.10583082  0.75789252  1.0
  H  H9  1  1.10583082  0.65095789  0.25789252  1.0
  H  H10  1  0.47192138  0.28530916  -0.00554333  1.0
  H  H11  1  0.71469084  0.52807862  0.49445667  1.0
  O  O12  1  0.52292283  0.08773853  0.73092834  1.0
  O  O13  1  0.91226147  0.47707717  0.23092834  1.0
  O  O14  1  0.90811566  0.70185314  0.52154125  1.0
  O  O15  1  0.29814686  0.09188434  0.02154125  1.0
  F  F16  1  1.04260581  0.57869001  0.79541401  1.0
  F  F17  1  0.42130999  -0.04260581  0.29541401  1.0
  F  F18  1  0.91181994  0.31490262  0.61889713  1.0
  F  F19  1  0.68509738  0.08818006  0.11889713  1.0
  F  F20  1  0.70610148  0.06353964  0.89791209  1.0
  F  F21  1  0.93646036  0.29389852  0.39791209  1.0
  F  F22  1  0.55391295  -0.20670169  0.73153380  1.0
  F  F23  1  1.20670169  0.44608705  0.23153380  1.0
  F  F24  1  0.11470096  0.11566920  0.85448811  1.0
  F  F25  1  0.88433080  0.88529904  0.35448811  1.0
  F  F26  1  0.61393025  -0.26683369  0.52078534  1.0
  F  F27  1  1.26683369  0.38606975  0.02078534  1.0
  F  F28  1  0.13585534  0.09120139  0.63349192  1.0
  F  F29  1  0.90879861  0.86414466  0.13349192  1.0
  F  F30  1  0.77840634  0.60075575  0.95682645  1.0
  F  F31  1  0.39924425  0.22159366  0.45682645  1.0
