# generated using pymatgen
data_CsTiP2O7
_symmetry_space_group_name_H-M   'P 1'
_cell_length_a   7.88752319
_cell_length_b   10.40892836
_cell_length_c   8.45940084
_cell_angle_alpha   90.00000000
_cell_angle_beta   105.10209572
_cell_angle_gamma   90.00000000
_symmetry_Int_Tables_number   1
_chemical_formula_structural   CsTiP2O7
_chemical_formula_sum   'Cs4 Ti4 P8 O28'
_cell_volume   670.53577479
_cell_formula_units_Z   4
loop_
 _symmetry_equiv_pos_site_id
 _symmetry_equiv_pos_as_xyz
  1  'x, y, z'
loop_
 _atom_site_type_symbol
 _atom_site_label
 _atom_site_symmetry_multiplicity
 _atom_site_fract_x
 _atom_site_fract_y
 _atom_site_fract_z
 _atom_site_occupancy
  Cs  Cs0  1  0.80085931  0.80238556  0.45322085  1.0
  Cs  Cs1  1  0.80085931  0.69761444  0.95322085  1.0
  Cs  Cs2  1  0.19914069  0.30238556  0.04677915  1.0
  Cs  Cs3  1  0.19914069  0.19761444  0.54677915  1.0
  Ti  Ti4  1  0.75917024  0.39763776  0.24242215  1.0
  Ti  Ti5  1  0.75917024  0.10236224  0.74242215  1.0
  Ti  Ti6  1  0.24082976  0.89763776  0.25757785  1.0
  Ti  Ti7  1  0.24082976  0.60236224  0.75757785  1.0
  P  P8  1  0.87074591  0.09704197  0.16963084  1.0
  P  P9  1  0.87074591  0.40295803  0.66963084  1.0
  P  P10  1  0.12925409  0.59704197  0.33036916  1.0
  P  P11  1  0.12925409  0.90295803  0.83036916  1.0
  P  P12  1  0.57541489  0.12796875  0.31810572  1.0
  P  P13  1  0.57541489  0.37203125  0.81810572  1.0
  P  P14  1  0.42458511  0.62796875  0.18189428  1.0
  P  P15  1  0.42458511  0.87203125  0.68189428  1.0
  O  O16  1  0.39244250  0.06766491  0.27181479  1.0
  O  O17  1  0.39244250  0.43233509  0.77181479  1.0
  O  O18  1  0.60755750  0.56766491  0.22818521  1.0
  O  O19  1  0.60755750  0.93233509  0.72818521  1.0
  O  O20  1  0.98783313  0.50460351  0.23624931  1.0
  O  O21  1  0.98783313  -0.00460351  0.73624931  1.0
  O  O22  1  0.01216687  1.00460351  0.26375069  1.0
  O  O23  1  0.01216687  0.49539649  0.76375069  1.0
  O  O24  1  0.83957922  0.41303148  0.48354093  1.0
  O  O25  1  0.83957922  0.08696852  0.98354093  1.0
  O  O26  1  0.16042078  0.91303148  0.01645907  1.0
  O  O27  1  0.16042078  0.58696852  0.51645907  1.0
  O  O28  1  0.67716597  0.10390128  0.49749467  1.0
  O  O29  1  0.67716597  0.39609872  0.99749467  1.0
  O  O30  1  0.32283403  0.60390128  0.00250533  1.0
  O  O31  1  0.32283403  0.89609872  0.50250533  1.0
  O  O32  1  0.68675768  0.05161422  0.20768722  1.0
  O  O33  1  0.68675768  0.44838578  0.70768722  1.0
  O  O34  1  0.31324232  0.55161422  0.29231278  1.0
  O  O35  1  0.31324232  0.94838578  0.79231278  1.0
  O  O36  1  0.90944257  0.23593984  0.23171482  1.0
  O  O37  1  0.90944257  0.26406016  0.73171482  1.0
  O  O38  1  0.09055743  0.73593984  0.26828518  1.0
  O  O39  1  0.09055743  0.76406016  0.76828518  1.0
  O  O40  1  0.56590150  0.27089861  0.27033721  1.0
  O  O41  1  0.56590150  0.22910139  0.77033721  1.0
  O  O42  1  0.43409850  0.77089861  0.22966279  1.0
  O  O43  1  0.43409850  0.72910139  0.72966279  1.0
