# generated using pymatgen
data_Tl5Se2Br
_symmetry_space_group_name_H-M   'P 1'
_cell_length_a   9.16617543
_cell_length_b   9.16617543
_cell_length_c   9.16617543
_cell_angle_alpha   122.64992613
_cell_angle_beta   122.64992613
_cell_angle_gamma   85.46837484
_symmetry_Int_Tables_number   1
_chemical_formula_structural   Tl5Se2Br
_chemical_formula_sum   'Tl10 Se4 Br2'
_cell_volume   520.97552780
_cell_formula_units_Z   2
loop_
 _symmetry_equiv_pos_site_id
 _symmetry_equiv_pos_as_xyz
  1  'x, y, z'
loop_
 _atom_site_type_symbol
 _atom_site_label
 _atom_site_symmetry_multiplicity
 _atom_site_fract_x
 _atom_site_fract_y
 _atom_site_fract_z
 _atom_site_occupancy
  Tl  Tl0  1  0.71189038  1.21189038  1.20634326  1.0
  Tl  Tl1  1  0.99445288  0.49445288  1.20634326  1.0
  Tl  Tl2  1  0.50554712  0.71189038  0.50000000  1.0
  Tl  Tl3  1  0.78810962  0.99445288  1.50000000  1.0
  Tl  Tl4  1  1.21189038  1.00554712  1.50000000  1.0
  Tl  Tl5  1  0.49445288  0.28810962  0.50000000  1.0
  Tl  Tl6  1  1.00554712  0.50554712  0.79365674  1.0
  Tl  Tl7  1  0.28810962  0.78810962  0.79365674  1.0
  Tl  Tl8  1  0.00000000  0.00000000  0.00000000  1.0
  Tl  Tl9  1  0.50000000  0.50000000  1.00000000  1.0
  Se  Se10  1  0.34151667  0.84151667  1.18303335  1.0
  Se  Se11  1  0.15848333  0.34151667  0.50000000  1.0
  Se  Se12  1  0.84151667  0.65848333  1.50000000  1.0
  Se  Se13  1  0.65848333  0.15848333  0.81696665  1.0
  Br  Br14  1  0.75000000  0.75000000  1.00000000  1.0
  Br  Br15  1  0.25000000  0.25000000  -0.00000000  1.0
