# generated using pymatgen
data_ScZnMo3O8
_symmetry_space_group_name_H-M   'P 1'
_cell_length_a   5.83021007
_cell_length_b   5.83021007
_cell_length_c   10.16982731
_cell_angle_alpha   90.00000000
_cell_angle_beta   90.00000000
_cell_angle_gamma   120.00000000
_symmetry_Int_Tables_number   1
_chemical_formula_structural   ScZnMo3O8
_chemical_formula_sum   'Sc2 Zn2 Mo6 O16'
_cell_volume   299.37299159
_cell_formula_units_Z   2
loop_
 _symmetry_equiv_pos_site_id
 _symmetry_equiv_pos_as_xyz
  1  'x, y, z'
loop_
 _atom_site_type_symbol
 _atom_site_label
 _atom_site_symmetry_multiplicity
 _atom_site_fract_x
 _atom_site_fract_y
 _atom_site_fract_z
 _atom_site_occupancy
  Sc  Sc0  1  0.66666667  0.33333333  0.01349183  1.0
  Sc  Sc1  1  0.33333333  0.66666667  0.51349183  1.0
  Zn  Zn2  1  0.66666667  0.33333333  0.45258953  1.0
  Zn  Zn3  1  0.33333333  0.66666667  0.95258953  1.0
  Mo  Mo4  1  0.85606969  0.71213938  0.75089975  1.0
  Mo  Mo5  1  0.28786062  0.14393031  0.75089975  1.0
  Mo  Mo6  1  0.85606969  0.14393031  0.75089975  1.0
  Mo  Mo7  1  0.14393031  0.28786062  0.25089975  1.0
  Mo  Mo8  1  0.71213938  0.85606969  0.25089975  1.0
  Mo  Mo9  1  0.14393031  0.85606969  0.25089975  1.0
  O  O10  1  0.00000000  0.00000000  0.88995202  1.0
  O  O11  1  0.00000000  0.00000000  0.38995202  1.0
  O  O12  1  0.66666667  0.33333333  0.64756192  1.0
  O  O13  1  0.33333333  0.66666667  0.14756192  1.0
  O  O14  1  0.51080464  0.02160929  0.86627245  1.0
  O  O15  1  0.97839071  0.48919536  0.86627245  1.0
  O  O16  1  0.51080464  0.48919536  0.86627245  1.0
  O  O17  1  0.48919536  0.97839071  0.36627245  1.0
  O  O18  1  0.02160929  0.51080464  0.36627245  1.0
  O  O19  1  0.48919536  0.51080464  0.36627245  1.0
  O  O20  1  0.83504332  0.67008665  0.12936269  1.0
  O  O21  1  0.32991335  0.16495668  0.12936269  1.0
  O  O22  1  0.83504332  0.16495668  0.12936269  1.0
  O  O23  1  0.16495668  0.32991335  0.62936269  1.0
  O  O24  1  0.67008665  0.83504332  0.62936269  1.0
  O  O25  1  0.16495668  0.83504332  0.62936269  1.0
