# generated using pymatgen
data_FeCo(CN2)6
_symmetry_space_group_name_H-M   'P 1'
_cell_length_a   6.76483129
_cell_length_b   6.76483129
_cell_length_c   6.76483129
_cell_angle_alpha   65.09903637
_cell_angle_beta   65.09903637
_cell_angle_gamma   65.09903637
_symmetry_Int_Tables_number   1
_chemical_formula_structural   FeCo(CN2)6
_chemical_formula_sum   'Fe1 Co1 C6 N12'
_cell_volume   243.25849774
_cell_formula_units_Z   1
loop_
 _symmetry_equiv_pos_site_id
 _symmetry_equiv_pos_as_xyz
  1  'x, y, z'
loop_
 _atom_site_type_symbol
 _atom_site_label
 _atom_site_symmetry_multiplicity
 _atom_site_fract_x
 _atom_site_fract_y
 _atom_site_fract_z
 _atom_site_occupancy
  Co  Co0  1  0.50000000  0.50000000  0.50000000  1.0
  N  N1  1  1.63308125  0.76350221  -0.15460763  1.0
  N  N2  1  1.23649779  0.15460763  -0.63308125  1.0
  N  N3  1  1.15460763  -0.63308125  0.23649779  1.0
  N  N4  1  0.36691875  0.23649779  0.15460763  1.0
  N  N5  1  0.76350221  0.84539237  0.63308125  1.0
  N  N6  1  0.84539237  1.63308125  -0.23649779  1.0
  N  N7  1  0.67479164  0.70775615  0.31783413  1.0
  N  N8  1  1.29224385  -0.31783413  0.32520836  1.0
  N  N9  1  0.68216587  0.32520836  0.29224385  1.0
  N  N10  1  1.32520836  0.29224385  -0.31783413  1.0
  N  N11  1  0.70775615  1.31783413  -0.32520836  1.0
  N  N12  1  1.31783413  0.67479164  -0.29224385  1.0
  Fe  Fe13  1  0.00000000  0.00000000  0.00000000  1.0
  C  C14  1  0.79634791  0.82020578  0.18918555  1.0
  C  C15  1  1.17979422  -0.18918555  0.20365209  1.0
  C  C16  1  0.81081445  0.20365209  0.17979422  1.0
  C  C17  1  1.20365209  0.17979422  -0.18918555  1.0
  C  C18  1  0.82020578  1.18918555  -0.20365209  1.0
  C  C19  1  1.18918555  0.79634791  -0.17979422  1.0
