# generated using pymatgen
data_FeH4Br3N
_symmetry_space_group_name_H-M   'P 1'
_cell_length_a   7.75039041
_cell_length_b   7.75039041
_cell_length_c   6.27159642
_cell_angle_alpha   90.00000000
_cell_angle_beta   90.00000000
_cell_angle_gamma   120.00000000
_symmetry_Int_Tables_number   1
_chemical_formula_structural   FeH4Br3N
_chemical_formula_sum   'Fe2 H8 Br6 N2'
_cell_volume   326.25403734
_cell_formula_units_Z   2
loop_
 _symmetry_equiv_pos_site_id
 _symmetry_equiv_pos_as_xyz
  1  'x, y, z'
loop_
 _atom_site_type_symbol
 _atom_site_label
 _atom_site_symmetry_multiplicity
 _atom_site_fract_x
 _atom_site_fract_y
 _atom_site_fract_z
 _atom_site_occupancy
  Fe  Fe0  1  0.00000000  0.00000000  0.01363779  1.0
  Fe  Fe1  1  0.00000000  0.00000000  0.51363779  1.0
  H  H2  1  0.32252551  0.78867613  0.23602041  1.0
  H  H3  1  0.78867613  0.46615063  0.73602041  1.0
  H  H4  1  0.46615063  0.67747449  0.23602041  1.0
  H  H5  1  0.21132387  0.53384937  0.23602041  1.0
  H  H6  1  0.67747449  0.21132387  0.73602041  1.0
  H  H7  1  0.53384937  0.32252551  0.73602041  1.0
  H  H8  1  0.33333333  0.66666667  0.02007363  1.0
  H  H9  1  0.66666667  0.33333333  0.52007363  1.0
  Br  Br10  1  0.77989753  0.69335760  0.26563295  1.0
  Br  Br11  1  0.69335760  0.91346007  0.76563295  1.0
  Br  Br12  1  0.91346007  0.22010247  0.26563295  1.0
  Br  Br13  1  0.30664240  0.08653993  0.26563295  1.0
  Br  Br14  1  0.22010247  0.30664240  0.76563295  1.0
  Br  Br15  1  0.08653993  0.77989753  0.76563295  1.0
  N  N16  1  0.33333333  0.66666667  0.18432851  1.0
  N  N17  1  0.66666667  0.33333333  0.68432851  1.0
