# generated using pymatgen
data_NbN2Cl5
_symmetry_space_group_name_H-M   'P 1'
_cell_length_a   7.57947974
_cell_length_b   7.57947974
_cell_length_c   14.18719179
_cell_angle_alpha   90.00000000
_cell_angle_beta   90.00000000
_cell_angle_gamma   90.00000000
_symmetry_Int_Tables_number   1
_chemical_formula_structural   NbN2Cl5
_chemical_formula_sum   'Nb4 N8 Cl20'
_cell_volume   815.03307332
_cell_formula_units_Z   4
loop_
 _symmetry_equiv_pos_site_id
 _symmetry_equiv_pos_as_xyz
  1  'x, y, z'
loop_
 _atom_site_type_symbol
 _atom_site_label
 _atom_site_symmetry_multiplicity
 _atom_site_fract_x
 _atom_site_fract_y
 _atom_site_fract_z
 _atom_site_occupancy
  N  N0  1  0.50000000  0.00000000  0.25000000  1.0
  N  N1  1  0.50000000  0.00000000  0.75000000  1.0
  N  N2  1  0.00000000  0.50000000  0.75000000  1.0
  N  N3  1  0.00000000  0.50000000  0.25000000  1.0
  N  N4  1  0.50000000  0.50000000  0.00000000  1.0
  N  N5  1  0.00000000  0.00000000  0.50000000  1.0
  N  N6  1  0.50000000  0.50000000  0.50000000  1.0
  N  N7  1  0.00000000  0.00000000  0.00000000  1.0
  Nb  Nb8  1  0.50000000  0.50000000  0.36456888  1.0
  Nb  Nb9  1  0.50000000  0.50000000  0.63543112  1.0
  Nb  Nb10  1  0.00000000  0.00000000  0.86456888  1.0
  Nb  Nb11  1  0.00000000  0.00000000  0.13543112  1.0
  Cl  Cl12  1  0.50000000  0.50000000  0.19708035  1.0
  Cl  Cl13  1  0.50000000  0.50000000  0.80291965  1.0
  Cl  Cl14  1  0.00000000  0.00000000  0.69708035  1.0
  Cl  Cl15  1  0.00000000  0.00000000  0.30291965  1.0
  Cl  Cl16  1  0.41389961  0.80972469  0.36613707  1.0
  Cl  Cl17  1  0.41389961  0.80972469  0.63386293  1.0
  Cl  Cl18  1  0.91389961  0.69027531  0.86613707  1.0
  Cl  Cl19  1  0.91389961  0.69027531  0.13386293  1.0
  Cl  Cl20  1  0.19027531  0.41389961  0.36613707  1.0
  Cl  Cl21  1  0.19027531  0.41389961  0.63386293  1.0
  Cl  Cl22  1  0.69027531  0.08610039  0.86613707  1.0
  Cl  Cl23  1  0.69027531  0.08610039  0.13386293  1.0
  Cl  Cl24  1  0.58610039  0.19027531  0.36613707  1.0
  Cl  Cl25  1  0.58610039  0.19027531  0.63386293  1.0
  Cl  Cl26  1  0.08610039  0.30972469  0.86613707  1.0
  Cl  Cl27  1  0.08610039  0.30972469  0.13386293  1.0
  Cl  Cl28  1  0.80972469  0.58610039  0.36613707  1.0
  Cl  Cl29  1  0.80972469  0.58610039  0.63386293  1.0
  Cl  Cl30  1  0.30972469  0.91389961  0.86613707  1.0
  Cl  Cl31  1  0.30972469  0.91389961  0.13386293  1.0
