# generated using pymatgen
data_C5F6
_symmetry_space_group_name_H-M   'P 1'
_cell_length_a   11.30405069
_cell_length_b   11.30405069
_cell_length_c   10.59855402
_cell_angle_alpha   78.92395337
_cell_angle_beta   101.07604663
_cell_angle_gamma   89.80675989
_symmetry_Int_Tables_number   1
_chemical_formula_structural   C5F6
_chemical_formula_sum   'C40 F48'
_cell_volume   1303.17553140
_cell_formula_units_Z   8
loop_
 _symmetry_equiv_pos_site_id
 _symmetry_equiv_pos_as_xyz
  1  'x, y, z'
loop_
 _atom_site_type_symbol
 _atom_site_label
 _atom_site_symmetry_multiplicity
 _atom_site_fract_x
 _atom_site_fract_y
 _atom_site_fract_z
 _atom_site_occupancy
  C  C0  1  1.86526278  -0.12665085  0.90336021  1.0
  C  C1  1  1.12665085  -0.86526278  0.40336021  1.0
  C  C2  1  0.87334915  0.86526278  0.59663979  1.0
  C  C3  1  0.13473722  0.12665085  0.09663979  1.0
  C  C4  1  1.77906521  -0.18445497  0.80646743  1.0
  C  C5  1  1.18445497  -0.77906521  0.30646743  1.0
  C  C6  1  0.81554503  0.77906521  0.69353257  1.0
  C  C7  1  0.22093479  0.18445497  0.19353257  1.0
  C  C8  1  1.55333343  -0.35112416  0.73225927  1.0
  C  C9  1  1.35112416  -0.55333343  0.23225927  1.0
  C  C10  1  0.64887584  0.55333343  0.76774073  1.0
  C  C11  1  0.44666657  0.35112416  0.26774073  1.0
  C  C12  1  1.66810009  -0.19281431  0.83647123  1.0
  C  C13  1  1.19281431  -0.66810009  0.33647123  1.0
  C  C14  1  0.80718569  0.66810009  0.66352877  1.0
  C  C15  1  0.33189991  0.19281431  0.16352877  1.0
  C  C16  1  1.56184971  -0.24005856  0.76210525  1.0
  C  C17  1  1.24005856  -0.56184971  0.26210525  1.0
  C  C18  1  0.75994144  0.56184971  0.73789475  1.0
  C  C19  1  0.43815029  0.24005856  0.23789475  1.0
  C  C20  1  1.66291584  -0.14134659  0.95779374  1.0
  C  C21  1  1.14134659  -0.66291584  0.45779374  1.0
  C  C22  1  0.85865341  0.66291584  0.54220626  1.0
  C  C23  1  0.33708416  0.14134659  0.04220626  1.0
  C  C24  1  1.42741584  -0.36962898  0.65929933  1.0
  C  C25  1  1.36962898  -0.42741584  0.15929933  1.0
  C  C26  1  0.63037102  0.42741584  0.84070067  1.0
  C  C27  1  0.57258416  0.36962898  0.34070067  1.0
  C  C28  1  1.44344319  -0.16663964  0.71263354  1.0
  C  C29  1  1.16663964  -0.44344319  0.21263354  1.0
  C  C30  1  0.83336036  0.44344319  0.78736646  1.0
  C  C31  1  0.55655681  0.16663964  0.28736646  1.0
  C  C32  1  1.36750118  -0.23929860  0.61572720  1.0
  C  C33  1  1.23929860  -0.36750118  0.11572720  1.0
  C  C34  1  0.76070140  0.36750118  0.88427280  1.0
  C  C35  1  0.63249882  0.23929860  0.38427280  1.0
  C  C36  1  0.20128749  0.13114618  0.97918435  1.0
  C  C37  1  0.86885382  0.79871251  0.47918435  1.0
  C  C38  1  1.13114618  -0.79871251  0.52081565  1.0
  C  C39  1  1.79871251  -0.13114618  0.02081565  1.0
  F  F40  1  1.88406027  -0.00927985  0.85046790  1.0
  F  F41  1  1.00927985  -0.88406027  0.35046790  1.0
  F  F42  1  0.99072015  0.88406027  0.64953210  1.0
  F  F43  1  0.11593973  0.00927985  0.14953210  1.0
  F  F44  1  1.81304888  -0.02499116  0.55806405  1.0
  F  F45  1  1.02499116  -0.81304888  0.05806405  1.0
  F  F46  1  0.97500884  0.81304888  0.94193595  1.0
  F  F47  1  0.18695112  0.02499116  0.44193595  1.0
  F  F48  1  1.60560249  -0.02940235  0.92483792  1.0
  F  F49  1  1.02940235  -0.60560249  0.42483792  1.0
  F  F50  1  0.97059765  0.60560249  0.57516208  1.0
  F  F51  1  0.39439751  0.02940235  0.07516208  1.0
  F  F52  1  1.38520809  -0.15883687  0.81309032  1.0
  F  F53  1  1.15883687  -0.38520809  0.31309032  1.0
  F  F54  1  0.84116313  0.38520809  0.68690968  1.0
  F  F55  1  0.61479191  0.15883687  0.18690968  1.0
  F  F56  1  0.76294566  0.24869597  0.88029881  1.0
  F  F57  1  0.75130403  0.23705434  0.38029881  1.0
  F  F58  1  1.24869597  -0.23705434  0.61970119  1.0
  F  F59  1  1.23705434  -0.24869597  0.11970119  1.0
  F  F60  1  1.46033041  -0.05183505  0.65157329  1.0
  F  F61  1  1.05183505  -0.46033041  0.15157329  1.0
  F  F62  1  0.94816495  0.46033041  0.84842671  1.0
  F  F63  1  0.53966959  0.05183505  0.34842671  1.0
  F  F64  1  0.61847108  0.19270958  0.50891464  1.0
  F  F65  1  0.80729042  0.38152892  0.00891464  1.0
  F  F66  1  1.19270958  -0.38152892  0.99108536  1.0
  F  F67  1  1.38152892  -0.19270958  0.49108536  1.0
  F  F68  1  0.39621328  0.21340256  0.95792270  1.0
  F  F69  1  0.78659744  0.60378672  0.45792270  1.0
  F  F70  1  1.21340256  -0.60378672  0.54207730  1.0
  F  F71  1  1.60378672  -0.21340256  0.04207730  1.0
  F  F72  1  0.55865933  0.36343545  0.76041869  1.0
  F  F73  1  0.63656455  0.44134067  0.26041869  1.0
  F  F74  1  1.36343545  -0.44134067  0.73958131  1.0
  F  F75  1  1.44134067  -0.36343545  0.23958131  1.0
  F  F76  1  0.57779672  0.42995963  0.94593056  1.0
  F  F77  1  0.57004037  0.42220328  0.44593056  1.0
  F  F78  1  1.42995963  -0.42220328  0.55406944  1.0
  F  F79  1  1.42220328  -0.42995963  0.05406944  1.0
  F  F80  1  0.18189438  0.03410932  0.92182606  1.0
  F  F81  1  0.96589068  0.81810562  0.42182606  1.0
  F  F82  1  1.03410932  -0.81810562  0.57817394  1.0
  F  F83  1  1.81810562  -0.03410932  0.07817394  1.0
  F  F84  1  1.16330186  -0.76682635  0.88763888  1.0
  F  F85  1  1.76682635  -0.16330186  0.38763888  1.0
  F  F86  1  0.23317365  0.16330186  0.61236112  1.0
  F  F87  1  0.83669814  0.76682635  0.11236112  1.0
