# generated using pymatgen
data_CuCSN
_symmetry_space_group_name_H-M   'P 1'
_cell_length_a   3.85366786
_cell_length_b   3.85366786
_cell_length_c   10.96532400
_cell_angle_alpha   90.00000000
_cell_angle_beta   90.00000000
_cell_angle_gamma   120.00000000
_symmetry_Int_Tables_number   1
_chemical_formula_structural   CuCSN
_chemical_formula_sum   'Cu2 C2 S2 N2'
_cell_volume   141.02647872
_cell_formula_units_Z   2
loop_
 _symmetry_equiv_pos_site_id
 _symmetry_equiv_pos_as_xyz
  1  'x, y, z'
loop_
 _atom_site_type_symbol
 _atom_site_label
 _atom_site_symmetry_multiplicity
 _atom_site_fract_x
 _atom_site_fract_y
 _atom_site_fract_z
 _atom_site_occupancy
  Cu  Cu0  1  0.33333333  0.66666667  0.43247289  1.0
  Cu  Cu1  1  0.66666667  0.33333333  0.93247289  1.0
  C  C2  1  0.33333333  0.66666667  0.15261028  1.0
  C  C3  1  0.66666667  0.33333333  0.65261028  1.0
  S  S4  1  0.33333333  0.66666667  0.00029036  1.0
  S  S5  1  0.66666667  0.33333333  0.50029036  1.0
  N  N6  1  0.33333333  0.66666667  0.25962647  1.0
  N  N7  1  0.66666667  0.33333333  0.75962647  1.0
