# generated using pymatgen
data_Fe3(PO4)2
_symmetry_space_group_name_H-M   'P 1'
_cell_length_a   6.08129911
_cell_length_b   4.86427160
_cell_length_c   10.43818728
_cell_angle_alpha   90.00000000
_cell_angle_beta   90.50482400
_cell_angle_gamma   90.00000000
_symmetry_Int_Tables_number   1
_chemical_formula_structural   Fe3(PO4)2
_chemical_formula_sum   'Fe6 P4 O16'
_cell_volume   308.76097790
_cell_formula_units_Z   2
loop_
 _symmetry_equiv_pos_site_id
 _symmetry_equiv_pos_as_xyz
  1  'x, y, z'
loop_
 _atom_site_type_symbol
 _atom_site_label
 _atom_site_symmetry_multiplicity
 _atom_site_fract_x
 _atom_site_fract_y
 _atom_site_fract_z
 _atom_site_occupancy
  Fe  Fe0  1  0.73546202  0.98440152  0.28099503  1.0
  Fe  Fe1  1  0.73546202  0.51559848  0.78099503  1.0
  Fe  Fe2  1  0.26453798  0.48440152  0.21900497  1.0
  Fe  Fe3  1  0.26453798  0.01559848  0.71900497  1.0
  Fe  Fe4  1  0.00000000  0.50000000  0.50000000  1.0
  Fe  Fe5  1  0.00000000  0.00000000  0.00000000  1.0
  O  O6  1  0.75442301  0.18164706  0.46172560  1.0
  O  O7  1  0.75442301  0.31835294  0.96172560  1.0
  O  O8  1  0.24557699  0.68164706  0.03827440  1.0
  O  O9  1  0.24557699  0.81835294  0.53827440  1.0
  O  O10  1  0.56976096  0.32377352  0.18376136  1.0
  O  O11  1  0.56976096  0.17622648  0.68376136  1.0
  O  O12  1  0.43023904  0.82377352  0.31623864  1.0
  O  O13  1  0.43023904  0.67622648  0.81623864  1.0
  O  O14  1  0.22305020  0.25281711  0.39656299  1.0
  O  O15  1  0.22305020  0.24718289  0.89656299  1.0
  O  O16  1  0.77694980  0.75281711  0.10343701  1.0
  O  O17  1  0.77694980  0.74718289  0.60343701  1.0
  O  O18  1  0.97287956  0.29104671  0.16347326  1.0
  O  O19  1  0.97287956  0.20895329  0.66347326  1.0
  O  O20  1  0.02712044  0.79104671  0.33652674  1.0
  O  O21  1  0.02712044  0.70895329  0.83652674  1.0
  P  P22  1  0.76226470  0.43442942  0.10062990  1.0
  P  P23  1  0.76226470  0.06557058  0.60062990  1.0
  P  P24  1  0.23773530  0.93442942  0.39937010  1.0
  P  P25  1  0.23773530  0.56557058  0.89937010  1.0
