# generated using pymatgen
data_K2YF5
_symmetry_space_group_name_H-M   'P 1'
_cell_length_a   10.99754731
_cell_length_b   7.32101736
_cell_length_c   6.71169427
_cell_angle_alpha   90.00000000
_cell_angle_beta   90.00000000
_cell_angle_gamma   90.00000000
_symmetry_Int_Tables_number   1
_chemical_formula_structural   K2YF5
_chemical_formula_sum   'K8 Y4 F20'
_cell_volume   540.38021644
_cell_formula_units_Z   4
loop_
 _symmetry_equiv_pos_site_id
 _symmetry_equiv_pos_as_xyz
  1  'x, y, z'
loop_
 _atom_site_type_symbol
 _atom_site_label
 _atom_site_symmetry_multiplicity
 _atom_site_fract_x
 _atom_site_fract_y
 _atom_site_fract_z
 _atom_site_occupancy
  K  K0  1  0.17133683  1.00261012  0.53182931  1.0
  K  K1  1  0.17133683  0.49738988  0.53182931  1.0
  K  K2  1  0.67133683  1.00261012  0.96817069  1.0
  K  K3  1  0.67133683  0.49738988  0.96817069  1.0
  K  K4  1  0.82866317  0.50261012  0.46817069  1.0
  K  K5  1  0.82866317  -0.00261012  0.46817069  1.0
  K  K6  1  0.32866317  0.50261012  0.03182931  1.0
  K  K7  1  0.32866317  -0.00261012  0.03182931  1.0
  Y  Y8  1  0.49763623  0.75000000  0.56407646  1.0
  Y  Y9  1  0.99763623  0.75000000  0.93592354  1.0
  Y  Y10  1  0.50236377  0.25000000  0.43592354  1.0
  Y  Y11  1  0.00236377  0.25000000  0.06407646  1.0
  F  F12  1  0.42496715  0.46482803  0.64605146  1.0
  F  F13  1  0.42496715  0.03517197  0.64605146  1.0
  F  F14  1  0.92496715  0.46482803  0.85394854  1.0
  F  F15  1  0.92496715  0.03517197  0.85394854  1.0
  F  F16  1  0.57503285  0.96482803  0.35394854  1.0
  F  F17  1  0.57503285  0.53517197  0.35394854  1.0
  F  F18  1  0.07503285  0.96482803  0.14605146  1.0
  F  F19  1  0.07503285  0.53517197  0.14605146  1.0
  F  F20  1  0.48624322  0.75000000  0.89158579  1.0
  F  F21  1  0.98624322  0.75000000  0.60841421  1.0
  F  F22  1  0.51375678  0.25000000  0.10841421  1.0
  F  F23  1  0.01375678  0.25000000  0.39158579  1.0
  F  F24  1  0.33428434  0.75000000  0.37448187  1.0
  F  F25  1  0.83428434  0.75000000  0.12551813  1.0
  F  F26  1  0.66571566  0.25000000  0.62551813  1.0
  F  F27  1  0.16571566  0.25000000  0.87448187  1.0
  F  F28  1  0.19015659  0.75000000  0.83976911  1.0
  F  F29  1  0.69015659  0.75000000  0.66023089  1.0
  F  F30  1  0.80984341  0.25000000  0.16023089  1.0
  F  F31  1  0.30984341  0.25000000  0.33976911  1.0
