# generated using pymatgen
data_LaInO3
_symmetry_space_group_name_H-M   'P 1'
_cell_length_a   6.01508472
_cell_length_b   8.34942370
_cell_length_c   5.77700939
_cell_angle_alpha   90.00000000
_cell_angle_beta   90.00000000
_cell_angle_gamma   90.00000000
_symmetry_Int_Tables_number   1
_chemical_formula_structural   LaInO3
_chemical_formula_sum   'La4 In4 O12'
_cell_volume   290.13580159
_cell_formula_units_Z   4
loop_
 _symmetry_equiv_pos_site_id
 _symmetry_equiv_pos_as_xyz
  1  'x, y, z'
loop_
 _atom_site_type_symbol
 _atom_site_label
 _atom_site_symmetry_multiplicity
 _atom_site_fract_x
 _atom_site_fract_y
 _atom_site_fract_z
 _atom_site_occupancy
  La  La0  1  0.05557207  0.75000000  0.51709805  1.0
  La  La1  1  0.55557207  0.75000000  0.98290195  1.0
  La  La2  1  0.94442793  0.25000000  0.48290195  1.0
  La  La3  1  0.44442793  0.25000000  0.01709805  1.0
  In  In4  1  0.50000000  0.00000000  0.50000000  1.0
  In  In5  1  0.50000000  0.50000000  0.50000000  1.0
  In  In6  1  0.00000000  0.00000000  0.00000000  1.0
  In  In7  1  0.00000000  0.50000000  0.00000000  1.0
  O  O8  1  0.30266060  0.93706212  0.80487841  1.0
  O  O9  1  0.30266060  0.56293788  0.80487841  1.0
  O  O10  1  0.80266060  0.93706212  0.69512159  1.0
  O  O11  1  0.80266060  0.56293788  0.69512159  1.0
  O  O12  1  0.69733940  0.43706212  0.19512159  1.0
  O  O13  1  0.69733940  0.06293788  0.19512159  1.0
  O  O14  1  0.19733940  0.43706212  0.30487841  1.0
  O  O15  1  0.19733940  0.06293788  0.30487841  1.0
  O  O16  1  0.95023512  0.75000000  0.11881317  1.0
  O  O17  1  0.45023512  0.75000000  0.38118683  1.0
  O  O18  1  0.04976488  0.25000000  0.88118683  1.0
  O  O19  1  0.54976488  0.25000000  0.61881317  1.0
