# generated using pymatgen
data_K3Nb2Cu3S8
_symmetry_space_group_name_H-M   'P 1'
_cell_length_a   12.38367340
_cell_length_b   12.38367340
_cell_length_c   14.41824348
_cell_angle_alpha   62.61501315
_cell_angle_beta   117.38498685
_cell_angle_gamma   153.96230865
_symmetry_Int_Tables_number   1
_chemical_formula_structural   K3Nb2Cu3S8
_chemical_formula_sum   'K6 Nb4 Cu6 S16'
_cell_volume   855.62313751
_cell_formula_units_Z   2
loop_
 _symmetry_equiv_pos_site_id
 _symmetry_equiv_pos_as_xyz
  1  'x, y, z'
loop_
 _atom_site_type_symbol
 _atom_site_label
 _atom_site_symmetry_multiplicity
 _atom_site_fract_x
 _atom_site_fract_y
 _atom_site_fract_z
 _atom_site_occupancy
  K  K0  1  0.64683760  0.24375655  0.10218068  1.0
  K  K1  1  0.75624345  -0.64683760  0.60218068  1.0
  K  K2  1  1.24375655  0.64683760  0.39781932  1.0
  K  K3  1  1.35316240  -0.24375655  0.89781932  1.0
  K  K4  1  0.00000000  -0.00000000  0.50000000  1.0
  K  K5  1  0.00000000  0.00000000  0.00000000  1.0
  Nb  Nb6  1  1.58320186  -0.17278512  0.22567573  1.0
  Nb  Nb7  1  1.17278512  -0.58320186  0.72567573  1.0
  Nb  Nb8  1  0.82721488  0.58320186  0.27432427  1.0
  Nb  Nb9  1  0.41679814  0.17278512  0.77432427  1.0
  Cu  Cu10  1  0.32394305  0.08682831  0.27458506  1.0
  Cu  Cu11  1  0.91317169  0.67605695  0.77458506  1.0
  Cu  Cu12  1  1.08682831  -0.67605695  0.22541494  1.0
  Cu  Cu13  1  1.67605695  -0.08682831  0.72541494  1.0
  Cu  Cu14  1  0.70880074  0.70880074  0.25000000  1.0
  Cu  Cu15  1  0.29119926  0.29119926  0.75000000  1.0
  S  S16  1  1.42952207  -0.49272068  0.33949997  1.0
  S  S17  1  1.49272068  -0.42952207  0.83949997  1.0
  S  S18  1  0.50727932  0.42952207  0.16050003  1.0
  S  S19  1  0.57047793  0.49272068  0.66050003  1.0
  S  S20  1  1.85590538  0.02816317  0.13327588  1.0
  S  S21  1  0.97183683  -0.85590538  0.63327588  1.0
  S  S22  1  1.02816317  0.85590538  0.36672412  1.0
  S  S23  1  0.14409462  -0.02816317  0.86672412  1.0
  S  S24  1  0.80343195  0.10944425  0.31957427  1.0
  S  S25  1  0.89055575  -0.80343195  0.81957427  1.0
  S  S26  1  1.10944425  0.80343195  0.18042573  1.0
  S  S27  1  1.19656805  -0.10944425  0.68042573  1.0
  S  S28  1  0.65807674  0.25381268  0.38195401  1.0
  S  S29  1  0.74618732  -0.65807674  0.88195401  1.0
  S  S30  1  1.25381268  0.65807674  0.11804599  1.0
  S  S31  1  1.34192326  -0.25381268  0.61804599  1.0
