# generated using pymatgen
data_CuH4C2S2(NO)2
_symmetry_space_group_name_H-M   'P 1'
_cell_length_a   17.66392367
_cell_length_b   5.05246052
_cell_length_c   8.61969559
_cell_angle_alpha   90.00000000
_cell_angle_beta   90.00000000
_cell_angle_gamma   90.00000000
_symmetry_Int_Tables_number   1
_chemical_formula_structural   CuH4C2S2(NO)2
_chemical_formula_sum   'Cu4 H16 C8 S8 N8 O8'
_cell_volume   769.27573981
_cell_formula_units_Z   4
loop_
 _symmetry_equiv_pos_site_id
 _symmetry_equiv_pos_as_xyz
  1  'x, y, z'
loop_
 _atom_site_type_symbol
 _atom_site_label
 _atom_site_symmetry_multiplicity
 _atom_site_fract_x
 _atom_site_fract_y
 _atom_site_fract_z
 _atom_site_occupancy
  Cu  Cu0  1  0.68148947  0.25000000  0.83376727  1.0
  Cu  Cu1  1  0.18148947  0.25000000  0.66623273  1.0
  Cu  Cu2  1  0.31851053  0.75000000  0.16623273  1.0
  Cu  Cu3  1  0.81851053  0.75000000  0.33376727  1.0
  H  H4  1  0.53683373  0.09564856  0.71896012  1.0
  H  H5  1  0.03683373  0.40435144  0.78103988  1.0
  H  H6  1  0.46316627  0.59564856  0.28103988  1.0
  H  H7  1  0.96316627  0.90435144  0.21896012  1.0
  H  H8  1  0.46316627  0.90435144  0.28103988  1.0
  H  H9  1  0.96316627  0.59564856  0.21896012  1.0
  H  H10  1  0.53683373  0.40435144  0.71896012  1.0
  H  H11  1  0.03683373  0.09564856  0.78103988  1.0
  H  H12  1  0.87873450  0.09736342  0.95555340  1.0
  H  H13  1  0.37873450  0.40263658  0.54444660  1.0
  H  H14  1  0.12126550  0.59736342  0.04444660  1.0
  H  H15  1  0.62126550  0.90263658  0.45555340  1.0
  H  H16  1  0.12126550  0.90263658  0.04444660  1.0
  H  H17  1  0.62126550  0.59736342  0.45555340  1.0
  H  H18  1  0.87873450  0.40263658  0.95555340  1.0
  H  H19  1  0.37873450  0.09736342  0.54444660  1.0
  C  C20  1  0.76592674  0.25000000  0.53117210  1.0
  C  C21  1  0.26592674  0.25000000  0.96882790  1.0
  C  C22  1  0.23407326  0.75000000  0.46882790  1.0
  C  C23  1  0.73407326  0.75000000  0.03117210  1.0
  C  C24  1  0.59993043  0.25000000  0.14044838  1.0
  C  C25  1  0.09993043  0.25000000  0.35955162  1.0
  C  C26  1  0.40006957  0.75000000  0.85955162  1.0
  C  C27  1  0.90006957  0.75000000  0.64044838  1.0
  S  S28  1  0.80082120  0.25000000  0.35362383  1.0
  S  S29  1  0.30082120  0.25000000  0.14637617  1.0
  S  S30  1  0.19917880  0.75000000  0.64637617  1.0
  S  S31  1  0.69917880  0.75000000  0.85362383  1.0
  S  S32  1  0.55223111  0.25000000  0.30246318  1.0
  S  S33  1  0.05223111  0.25000000  0.19753682  1.0
  S  S34  1  0.44776889  0.75000000  0.69753682  1.0
  S  S35  1  0.94776889  0.75000000  0.80246318  1.0
  N  N36  1  0.74121991  0.25000000  0.65747120  1.0
  N  N37  1  0.24121991  0.25000000  0.84252880  1.0
  N  N38  1  0.25878009  0.75000000  0.34252880  1.0
  N  N39  1  0.75878009  0.75000000  0.15747120  1.0
  N  N40  1  0.63685956  0.25000000  0.02669562  1.0
  N  N41  1  0.13685956  0.25000000  0.47330438  1.0
  N  N42  1  0.36314044  0.75000000  0.97330438  1.0
  N  N43  1  0.86314044  0.75000000  0.52669562  1.0
  O  O44  1  0.56957535  0.25000000  0.70086934  1.0
  O  O45  1  0.06957535  0.25000000  0.79913066  1.0
  O  O46  1  0.43042465  0.75000000  0.29913066  1.0
  O  O47  1  0.93042465  0.75000000  0.20086934  1.0
  O  O48  1  0.85634631  0.25000000  1.00801737  1.0
  O  O49  1  0.35634631  0.25000000  0.49198263  1.0
  O  O50  1  0.14365369  0.75000000  -0.00801737  1.0
  O  O51  1  0.64365369  0.75000000  0.50801737  1.0
