# generated using pymatgen
data_VIn2O5
_symmetry_space_group_name_H-M   'P 1'
_cell_length_a   7.38509137
_cell_length_b   3.47806638
_cell_length_c   15.11908782
_cell_angle_alpha   90.00000000
_cell_angle_beta   90.00000000
_cell_angle_gamma   90.00000000
_symmetry_Int_Tables_number   1
_chemical_formula_structural   VIn2O5
_chemical_formula_sum   'V4 In8 O20'
_cell_volume   388.34644086
_cell_formula_units_Z   4
loop_
 _symmetry_equiv_pos_site_id
 _symmetry_equiv_pos_as_xyz
  1  'x, y, z'
loop_
 _atom_site_type_symbol
 _atom_site_label
 _atom_site_symmetry_multiplicity
 _atom_site_fract_x
 _atom_site_fract_y
 _atom_site_fract_z
 _atom_site_occupancy
  V  V0  1  0.60761577  0.75000000  0.07744323  1.0
  V  V1  1  0.10761577  0.75000000  0.42255677  1.0
  V  V2  1  0.39238423  0.25000000  0.92255677  1.0
  V  V3  1  0.89238423  0.25000000  0.57744323  1.0
  In  In4  1  0.67170433  0.75000000  0.76114733  1.0
  In  In5  1  0.17170433  0.75000000  0.73885267  1.0
  In  In6  1  0.32829567  0.25000000  0.23885267  1.0
  In  In7  1  0.82829567  0.25000000  0.26114733  1.0
  In  In8  1  0.60087492  0.75000000  0.41728655  1.0
  In  In9  1  0.10087492  0.75000000  0.08271345  1.0
  In  In10  1  0.39912508  0.25000000  0.58271345  1.0
  In  In11  1  0.89912508  0.25000000  0.91728655  1.0
  O  O12  1  0.94018085  0.75000000  0.82391339  1.0
  O  O13  1  0.44018085  0.75000000  0.67608661  1.0
  O  O14  1  0.05981915  0.25000000  0.17608661  1.0
  O  O15  1  0.55981915  0.25000000  0.32391339  1.0
  O  O16  1  0.93136141  0.75000000  0.54850352  1.0
  O  O17  1  0.43136141  0.75000000  0.95149648  1.0
  O  O18  1  0.06863859  0.25000000  0.45149648  1.0
  O  O19  1  0.56863859  0.25000000  0.04850352  1.0
  O  O20  1  0.87177362  0.75000000  0.35008487  1.0
  O  O21  1  0.37177362  0.75000000  0.14991513  1.0
  O  O22  1  0.12822638  0.25000000  0.64991513  1.0
  O  O23  1  0.62822638  0.25000000  0.85008487  1.0
  O  O24  1  0.84278447  0.75000000  1.00603984  1.0
  O  O25  1  0.34278447  0.75000000  0.49396016  1.0
  O  O26  1  0.15721553  0.25000000  -0.00603984  1.0
  O  O27  1  0.65721553  0.25000000  0.50603984  1.0
  O  O28  1  0.73350721  0.75000000  0.17650639  1.0
  O  O29  1  0.23350721  0.75000000  0.32349361  1.0
  O  O30  1  0.26649279  0.25000000  0.82349361  1.0
  O  O31  1  0.76649279  0.25000000  0.67650639  1.0
