# generated using pymatgen
data_FePSe3
_symmetry_space_group_name_H-M   'P 1'
_cell_length_a   8.24580944
_cell_length_b   8.24580944
_cell_length_c   8.24580944
_cell_angle_alpha   44.66095010
_cell_angle_beta   44.66095010
_cell_angle_gamma   44.66095010
_symmetry_Int_Tables_number   1
_chemical_formula_structural   FePSe3
_chemical_formula_sum   'Fe2 P2 Se6'
_cell_volume   251.95079618
_cell_formula_units_Z   2
loop_
 _symmetry_equiv_pos_site_id
 _symmetry_equiv_pos_as_xyz
  1  'x, y, z'
loop_
 _atom_site_type_symbol
 _atom_site_label
 _atom_site_symmetry_multiplicity
 _atom_site_fract_x
 _atom_site_fract_y
 _atom_site_fract_z
 _atom_site_occupancy
  Fe  Fe0  1  0.33322867  0.33322867  0.33322867  1.0
  Fe  Fe1  1  0.66677133  -0.33322867  -0.33322867  1.0
  P  P2  1  0.05003347  0.05003347  0.05003347  1.0
  P  P3  1  0.94996653  -0.05003347  -0.05003347  1.0
  Se  Se4  1  0.07421887  0.72811848  -0.58061237  1.0
  Se  Se5  1  0.58061237  0.92578113  -0.72811848  1.0
  Se  Se6  1  0.27188152  0.58061237  -0.07421887  1.0
  Se  Se7  1  0.92578113  0.27188152  -0.41938763  1.0
  Se  Se8  1  0.41938763  0.07421887  -0.27188152  1.0
  Se  Se9  1  0.72811848  0.41938763  -0.92578113  1.0
