# generated using pymatgen
data_Ba(Cu2P)4
_symmetry_space_group_name_H-M   'P 1'
_cell_length_a   7.48578985
_cell_length_b   7.48578985
_cell_length_c   7.48578985
_cell_angle_alpha   93.83976082
_cell_angle_beta   93.83976082
_cell_angle_gamma   150.00480911
_symmetry_Int_Tables_number   1
_chemical_formula_structural   Ba(Cu2P)4
_chemical_formula_sum   'Ba1 Cu8 P4'
_cell_volume   202.56686881
_cell_formula_units_Z   1
loop_
 _symmetry_equiv_pos_site_id
 _symmetry_equiv_pos_as_xyz
  1  'x, y, z'
loop_
 _atom_site_type_symbol
 _atom_site_label
 _atom_site_symmetry_multiplicity
 _atom_site_fract_x
 _atom_site_fract_y
 _atom_site_fract_z
 _atom_site_occupancy
  Ba  Ba0  1  0.00000000  0.00000000  0.00000000  1.0
  Cu  Cu1  1  0.98676174  0.63433952  0.62110126  1.0
  Cu  Cu2  1  0.63433952  0.01323826  0.64757778  1.0
  Cu  Cu3  1  1.01323826  1.36566048  1.37889874  1.0
  Cu  Cu4  1  0.36566048  0.98676174  1.35242222  1.0
  Cu  Cu5  1  0.66095036  0.77030700  1.43125736  1.0
  Cu  Cu6  1  0.77030700  1.33904964  1.10935663  1.0
  Cu  Cu7  1  0.33904964  0.22969300  0.56874264  1.0
  Cu  Cu8  1  1.22969300  0.66095036  0.89064337  1.0
  P  P9  1  0.76657389  0.57532454  0.34189843  1.0
  P  P10  1  0.57532454  0.23342611  0.80875065  1.0
  P  P11  1  1.23342611  1.42467546  1.65810157  1.0
  P  P12  1  0.42467546  0.76657389  1.19124935  1.0
