# generated using pymatgen
data_K(TeMo)3
_symmetry_space_group_name_H-M   'P 1'
_cell_length_a   9.89859475
_cell_length_b   9.89859475
_cell_length_c   4.61530413
_cell_angle_alpha   90.00000000
_cell_angle_beta   90.00000000
_cell_angle_gamma   120.00000000
_symmetry_Int_Tables_number   1
_chemical_formula_structural   K(TeMo)3
_chemical_formula_sum   'K2 Te6 Mo6'
_cell_volume   391.63188703
_cell_formula_units_Z   2
loop_
 _symmetry_equiv_pos_site_id
 _symmetry_equiv_pos_as_xyz
  1  'x, y, z'
loop_
 _atom_site_type_symbol
 _atom_site_label
 _atom_site_symmetry_multiplicity
 _atom_site_fract_x
 _atom_site_fract_y
 _atom_site_fract_z
 _atom_site_occupancy
  K  K0  1  0.33333333  0.66666667  0.25000000  1.0
  K  K1  1  0.66666667  0.33333333  0.75000000  1.0
  Te  Te2  1  0.70052496  0.64274163  0.25000000  1.0
  Te  Te3  1  0.64274163  0.94221667  0.75000000  1.0
  Te  Te4  1  0.94221667  0.29947504  0.25000000  1.0
  Te  Te5  1  0.35725837  0.05778333  0.25000000  1.0
  Te  Te6  1  0.29947504  0.35725837  0.75000000  1.0
  Te  Te7  1  0.05778333  0.70052496  0.75000000  1.0
  Mo  Mo8  1  0.02750047  0.86106966  0.25000000  1.0
  Mo  Mo9  1  0.86106966  0.83356919  0.75000000  1.0
  Mo  Mo10  1  0.83356919  0.97249953  0.25000000  1.0
  Mo  Mo11  1  0.13893034  0.16643081  0.25000000  1.0
  Mo  Mo12  1  0.97249953  0.13893034  0.75000000  1.0
  Mo  Mo13  1  0.16643081  0.02750047  0.75000000  1.0
