# generated using pymatgen
data_CoPH6NO5
_symmetry_space_group_name_H-M   'P 1'
_cell_length_a   5.64790952
_cell_length_b   8.94699887
_cell_length_c   4.81298360
_cell_angle_alpha   90.00000000
_cell_angle_beta   90.00000000
_cell_angle_gamma   90.00000000
_symmetry_Int_Tables_number   1
_chemical_formula_structural   CoPH6NO5
_chemical_formula_sum   'Co2 P2 H12 N2 O10'
_cell_volume   243.20891785
_cell_formula_units_Z   2
loop_
 _symmetry_equiv_pos_site_id
 _symmetry_equiv_pos_as_xyz
  1  'x, y, z'
loop_
 _atom_site_type_symbol
 _atom_site_label
 _atom_site_symmetry_multiplicity
 _atom_site_fract_x
 _atom_site_fract_y
 _atom_site_fract_z
 _atom_site_occupancy
  Co  Co0  1  0.50000000  0.47483921  0.98575904  1.0
  Co  Co1  1  0.00000000  0.52516079  0.48575904  1.0
  P  P2  1  0.50000000  0.69006073  0.55171570  1.0
  P  P3  1  0.00000000  0.30993927  0.05171570  1.0
  H  H4  1  0.13874599  0.68425116  0.05961692  1.0
  H  H5  1  0.63874599  0.31574884  0.55961692  1.0
  H  H6  1  0.86125401  0.68425116  0.05961692  1.0
  H  H7  1  0.36125401  0.31574884  0.55961692  1.0
  H  H8  1  0.15091922  0.91463781  0.60433866  1.0
  H  H9  1  0.65091922  0.08536219  0.10433866  1.0
  H  H10  1  0.84908078  0.91463781  0.60433866  1.0
  H  H11  1  0.34908078  0.08536219  0.10433866  1.0
  H  H12  1  0.50000000  0.94962392  0.93196110  1.0
  H  H13  1  0.00000000  0.05037608  0.43196110  1.0
  H  H14  1  0.50000000  0.95459637  0.29101497  1.0
  H  H15  1  0.00000000  0.04540363  -0.20898503  1.0
  N  N16  1  0.50000000  0.01959390  0.10825660  1.0
  N  N17  1  0.00000000  0.98040610  0.60825660  1.0
  O  O18  1  0.28009548  0.61455794  0.70009264  1.0
  O  O19  1  0.78009548  0.38544206  0.20009264  1.0
  O  O20  1  0.71990452  0.61455794  0.70009264  1.0
  O  O21  1  0.21990452  0.38544206  0.20009264  1.0
  O  O22  1  0.50000000  0.86196409  0.60928924  1.0
  O  O23  1  0.00000000  0.13803591  0.10928924  1.0
  O  O24  1  0.50000000  0.66381359  0.23692285  1.0
  O  O25  1  0.00000000  0.33618641  0.73692285  1.0
  O  O26  1  0.50000000  0.29858486  0.67988406  1.0
  O  O27  1  0.00000000  0.70141514  0.17988406  1.0
