# generated using pymatgen
data_Ba4B2N4O
_symmetry_space_group_name_H-M   'P 1'
_cell_length_a   8.73764044
_cell_length_b   8.73764044
_cell_length_c   7.37610116
_cell_angle_alpha   90.00000000
_cell_angle_beta   90.00000000
_cell_angle_gamma   49.71574779
_symmetry_Int_Tables_number   1
_chemical_formula_structural   Ba4B2N4O
_chemical_formula_sum   'Ba8 B4 N8 O2'
_cell_volume   429.58797488
_cell_formula_units_Z   2
loop_
 _symmetry_equiv_pos_site_id
 _symmetry_equiv_pos_as_xyz
  1  'x, y, z'
loop_
 _atom_site_type_symbol
 _atom_site_label
 _atom_site_symmetry_multiplicity
 _atom_site_fract_x
 _atom_site_fract_y
 _atom_site_fract_z
 _atom_site_occupancy
  Ba  Ba0  1  -0.19365119  0.19365119  0.30648400  1.0
  Ba  Ba1  1  -0.69365119  0.69365119  0.19351600  1.0
  Ba  Ba2  1  -0.80634881  0.80634881  0.69351600  1.0
  Ba  Ba3  1  -0.30634881  0.30634881  0.80648400  1.0
  Ba  Ba4  1  0.32555431  1.32555431  0.50000000  1.0
  Ba  Ba5  1  0.82555431  0.82555431  0.00000000  1.0
  Ba  Ba6  1  0.67444569  0.67444569  0.50000000  1.0
  Ba  Ba7  1  0.17444569  1.17444569  0.00000000  1.0
  B  B8  1  0.13740634  1.13740634  0.50000000  1.0
  B  B9  1  0.63740634  0.63740634  0.00000000  1.0
  B  B10  1  0.86259366  0.86259366  0.50000000  1.0
  B  B11  1  0.36259366  1.36259366  0.00000000  1.0
  N  N12  1  0.49548325  1.23577694  0.12877099  1.0
  N  N13  1  -0.00451675  1.73577694  0.37122901  1.0
  N  N14  1  0.23577694  1.49548325  0.87122901  1.0
  N  N15  1  0.73577694  0.99548325  0.62877099  1.0
  N  N16  1  -0.23577694  1.50451675  0.12877099  1.0
  N  N17  1  0.26422306  1.00451675  0.37122901  1.0
  N  N18  1  0.50451675  0.76422306  0.87122901  1.0
  N  N19  1  0.00451675  1.26422306  0.62877099  1.0
  O  O20  1  -0.50000000  0.50000000  0.50000000  1.0
  O  O21  1  0.00000000  0.00000000  0.00000000  1.0
