# generated using pymatgen
data_BiRhO12
_symmetry_space_group_name_H-M   'P 1'
_cell_length_a   8.34710105
_cell_length_b   8.34710105
_cell_length_c   8.34710105
_cell_angle_alpha   60.00000000
_cell_angle_beta   60.00000000
_cell_angle_gamma   60.00000000
_symmetry_Int_Tables_number   1
_chemical_formula_structural   BiRhO12
_chemical_formula_sum   'Bi2 Rh2 O24'
_cell_volume   411.23684145
_cell_formula_units_Z   2
loop_
 _symmetry_equiv_pos_site_id
 _symmetry_equiv_pos_as_xyz
  1  'x, y, z'
loop_
 _atom_site_type_symbol
 _atom_site_label
 _atom_site_symmetry_multiplicity
 _atom_site_fract_x
 _atom_site_fract_y
 _atom_site_fract_z
 _atom_site_occupancy
  Bi  Bi0  1  0.00000000  1.00000000  -0.00000000  1.0
  Bi  Bi1  1  0.25000000  0.25000000  0.25000000  1.0
  Rh  Rh2  1  0.50000000  0.50000000  -0.50000000  1.0
  Rh  Rh3  1  0.75000000  -0.25000000  0.75000000  1.0
  O  O4  1  0.73587558  -0.54759326  1.07584210  1.0
  O  O5  1  -0.26412442  1.07584210  0.45240674  1.0
  O  O6  1  -0.20240674  0.51412442  0.51412442  1.0
  O  O7  1  0.17415790  0.51412442  0.51412442  1.0
  O  O8  1  -0.54759326  0.73587558  1.07584210  1.0
  O  O9  1  0.73587558  -0.26412442  1.07584210  1.0
  O  O10  1  0.73587558  0.07584210  0.73587558  1.0
  O  O11  1  -0.54759326  1.07584210  0.73587558  1.0
  O  O12  1  0.51412442  -0.20240674  0.51412442  1.0
  O  O13  1  0.51412442  0.51412442  -0.20240674  1.0
  O  O14  1  0.17415790  0.51412442  -0.20240674  1.0
  O  O15  1  0.17415790  -0.20240674  0.51412442  1.0
  O  O16  1  1.07584210  -0.26412442  0.73587558  1.0
  O  O17  1  -0.54759326  0.73587558  0.73587558  1.0
  O  O18  1  0.51412442  0.17415790  -0.20240674  1.0
  O  O19  1  0.51412442  -0.20240674  0.17415790  1.0
  O  O20  1  0.07584210  0.73587558  0.45240674  1.0
  O  O21  1  1.07584210  -0.54759326  0.73587558  1.0
  O  O22  1  0.73587558  -0.54759326  0.73587558  1.0
  O  O23  1  -0.26412442  0.73587558  0.45240674  1.0
  O  O24  1  0.51412442  0.17415790  0.51412442  1.0
  O  O25  1  -0.20240674  0.17415790  0.51412442  1.0
  O  O26  1  -0.20240674  0.51412442  0.17415790  1.0
  O  O27  1  0.51412442  0.51412442  0.17415790  1.0
