# generated using pymatgen
data_GeBi2O5
_symmetry_space_group_name_H-M   'P 1'
_cell_length_a   8.41418740
_cell_length_b   8.41418740
_cell_length_c   5.46853464
_cell_angle_alpha   89.99993433
_cell_angle_beta   90.00006567
_cell_angle_gamma   141.05692840
_symmetry_Int_Tables_number   1
_chemical_formula_structural   GeBi2O5
_chemical_formula_sum   'Ge2 Bi4 O10'
_cell_volume   243.35132790
_cell_formula_units_Z   2
loop_
 _symmetry_equiv_pos_site_id
 _symmetry_equiv_pos_as_xyz
  1  'x, y, z'
loop_
 _atom_site_type_symbol
 _atom_site_label
 _atom_site_symmetry_multiplicity
 _atom_site_fract_x
 _atom_site_fract_y
 _atom_site_fract_z
 _atom_site_occupancy
  Ge  Ge0  1  0.78078349  0.58763885  0.54806835  1.0
  Ge  Ge1  1  0.41236115  0.21921651  0.04806835  1.0
  Bi  Bi2  1  1.04766024  0.51632911  0.09511060  1.0
  Bi  Bi3  1  0.48367089  -0.04766024  0.59511060  1.0
  Bi  Bi4  1  1.14551127  0.29050653  0.59506750  1.0
  Bi  Bi5  1  0.70949347  -0.14551127  0.09506750  1.0
  O  O6  1  0.83014805  0.82876650  0.49420598  1.0
  O  O7  1  0.17123350  0.16985195  -0.00579402  1.0
  O  O8  1  0.68594516  0.49291037  0.86684645  1.0
  O  O9  1  0.50708963  0.31405484  0.36684645  1.0
  O  O10  1  1.02172610  0.63671258  0.49443181  1.0
  O  O11  1  0.36328742  -0.02172610  -0.00556819  1.0
  O  O12  1  1.33437840  0.64094163  0.81840973  1.0
  O  O13  1  0.35905837  -0.33437840  0.31840973  1.0
  O  O14  1  0.83409325  0.14124038  0.81835957  1.0
  O  O15  1  0.85875962  0.16590675  0.31835957  1.0
