# generated using pymatgen
data_MgH12(SO6)2
_symmetry_space_group_name_H-M   'P 1'
_cell_length_a   6.79963188
_cell_length_b   6.57091978
_cell_length_c   7.02011335
_cell_angle_alpha   97.37566938
_cell_angle_beta   101.92968470
_cell_angle_gamma   94.83977981
_symmetry_Int_Tables_number   1
_chemical_formula_structural   MgH12(SO6)2
_chemical_formula_sum   'Mg1 H12 S2 O12'
_cell_volume   302.34933141
_cell_formula_units_Z   1
loop_
 _symmetry_equiv_pos_site_id
 _symmetry_equiv_pos_as_xyz
  1  'x, y, z'
loop_
 _atom_site_type_symbol
 _atom_site_label
 _atom_site_symmetry_multiplicity
 _atom_site_fract_x
 _atom_site_fract_y
 _atom_site_fract_z
 _atom_site_occupancy
  Mg  Mg0  1  0.00000000  0.00000000  -0.50000000  1.0
  H  H1  1  -0.59628598  -0.93685080  -0.31056303  1.0
  H  H2  1  -0.40371402  -0.06314920  -0.68943697  1.0
  H  H3  1  -0.32795755  -0.82475781  -0.67736774  1.0
  H  H4  1  -0.67204245  -0.17524219  -0.32263226  1.0
  H  H5  1  -0.92923206  -0.78683515  -0.11860598  1.0
  H  H6  1  -0.07076794  -0.21316485  -0.88139402  1.0
  H  H7  1  -0.84203136  -0.70978323  -0.68762457  1.0
  H  H8  1  -0.15796864  -0.29021677  -0.31237543  1.0
  H  H9  1  -0.81257488  -0.61164292  -0.46570376  1.0
  H  H10  1  -0.18742512  -0.38835708  -0.53429624  1.0
  H  H11  1  -0.83772816  -0.20594795  -0.78607600  1.0
  H  H12  1  -0.16227184  -0.79405205  -0.21392400  1.0
  S  S13  1  -0.54700459  -0.50207895  -0.85881723  1.0
  S  S14  1  -0.45299541  -0.49792105  -0.14118277  1.0
  O  O15  1  -0.29239687  -0.95396884  -0.62980024  1.0
  O  O16  1  -0.70760313  -0.04603116  -0.37019976  1.0
  O  O17  1  -0.89542604  -0.71817305  -0.56897030  1.0
  O  O18  1  -0.10457396  -0.28182695  -0.43102970  1.0
  O  O19  1  -0.72642512  -0.65710345  -0.90289883  1.0
  O  O20  1  -0.27357488  -0.34289655  -0.09710117  1.0
  O  O21  1  -0.37039863  -0.56215758  -0.72565473  1.0
  O  O22  1  -0.62960137  -0.43784242  -0.27434527  1.0
  O  O23  1  -0.58994941  -0.28876737  -0.80221309  1.0
  O  O24  1  -0.41005059  -0.71123263  -0.19778691  1.0
  O  O25  1  -0.96280989  -0.14784998  -0.76983633  1.0
  O  O26  1  -0.03719011  -0.85215002  -0.23016367  1.0
