# generated using pymatgen
data_SnPbS2
_symmetry_space_group_name_H-M   'P 1'
_cell_length_a   4.18524933
_cell_length_b   4.23156348
_cell_length_c   12.01002531
_cell_angle_alpha   90.00000000
_cell_angle_beta   90.00000000
_cell_angle_gamma   90.00000000
_symmetry_Int_Tables_number   1
_chemical_formula_structural   SnPbS2
_chemical_formula_sum   'Sn2 Pb2 S4'
_cell_volume   212.69932830
_cell_formula_units_Z   2
loop_
 _symmetry_equiv_pos_site_id
 _symmetry_equiv_pos_as_xyz
  1  'x, y, z'
loop_
 _atom_site_type_symbol
 _atom_site_label
 _atom_site_symmetry_multiplicity
 _atom_site_fract_x
 _atom_site_fract_y
 _atom_site_fract_z
 _atom_site_occupancy
  Sn  Sn0  1  0.00000000  0.51237033  0.38453214  1.0
  Sn  Sn1  1  0.00000000  0.48762967  0.88453214  1.0
  Pb  Pb2  1  0.50000000  1.00308964  0.62761863  1.0
  Pb  Pb3  1  0.50000000  -0.00308964  0.12761863  1.0
  S  S4  1  0.50000000  0.95738682  0.37936194  1.0
  S  S5  1  0.50000000  0.04261318  0.87936194  1.0
  S  S6  1  0.00000000  0.49178468  0.60898729  1.0
  S  S7  1  0.00000000  0.50821532  0.10898729  1.0
