# generated using pymatgen
data_Zn13Rh
_symmetry_space_group_name_H-M   'P 1'
_cell_length_a   6.61944012
_cell_length_b   6.61944012
_cell_length_c   5.21334969
_cell_angle_alpha   80.57359655
_cell_angle_beta   99.42640345
_cell_angle_gamma   111.07407912
_symmetry_Int_Tables_number   1
_chemical_formula_structural   Zn13Rh
_chemical_formula_sum   'Zn13 Rh1'
_cell_volume   208.90699761
_cell_formula_units_Z   1
loop_
 _symmetry_equiv_pos_site_id
 _symmetry_equiv_pos_as_xyz
  1  'x, y, z'
loop_
 _atom_site_type_symbol
 _atom_site_label
 _atom_site_symmetry_multiplicity
 _atom_site_fract_x
 _atom_site_fract_y
 _atom_site_fract_z
 _atom_site_occupancy
  Zn  Zn0  1  0.61442939  -0.22573432  0.67438100  1.0
  Zn  Zn1  1  1.22573432  0.38557061  0.67438100  1.0
  Zn  Zn2  1  0.77426568  -0.38557061  0.32561900  1.0
  Zn  Zn3  1  1.38557061  0.22573432  0.32561900  1.0
  Zn  Zn4  1  1.36147638  0.00211017  0.80181920  1.0
  Zn  Zn5  1  0.99788983  -0.36147638  0.80181920  1.0
  Zn  Zn6  1  1.00211017  0.36147638  0.19818080  1.0
  Zn  Zn7  1  0.63852362  -0.00211017  0.19818080  1.0
  Zn  Zn8  1  0.77652159  -0.77652159  0.63300262  1.0
  Zn  Zn9  1  0.22347841  -0.22347841  0.36699738  1.0
  Zn  Zn10  1  0.61272885  -0.61272885  0.93184396  1.0
  Zn  Zn11  1  0.38727115  -0.38727115  0.06815604  1.0
  Zn  Zn12  1  0.00000000  0.00000000  -0.00000000  1.0
  Rh  Rh13  1  0.00000000  -0.00000000  0.50000000  1.0
