# generated using pymatgen
data_ZnC4(N2O)4
_symmetry_space_group_name_H-M   'P 1'
_cell_length_a   10.17961209
_cell_length_b   10.17961209
_cell_length_c   10.17961209
_cell_angle_alpha   123.33047430
_cell_angle_beta   123.33047430
_cell_angle_gamma   84.32217818
_symmetry_Int_Tables_number   1
_chemical_formula_structural   ZnC4(N2O)4
_chemical_formula_sum   'Zn2 C8 N16 O8'
_cell_volume   704.56478667
_cell_formula_units_Z   2
loop_
 _symmetry_equiv_pos_site_id
 _symmetry_equiv_pos_as_xyz
  1  'x, y, z'
loop_
 _atom_site_type_symbol
 _atom_site_label
 _atom_site_symmetry_multiplicity
 _atom_site_fract_x
 _atom_site_fract_y
 _atom_site_fract_z
 _atom_site_occupancy
  Zn  Zn0  1  0.75000000  0.25000000  0.50000000  1.0
  Zn  Zn1  1  1.00000000  1.00000000  1.00000000  1.0
  C  C2  1  0.91520706  1.12500000  1.29020706  1.0
  C  C3  1  1.37500000  1.08479294  1.20979294  1.0
  C  C4  1  0.87500000  1.16520706  0.79020706  1.0
  C  C5  1  0.83479294  0.62500000  0.70979294  1.0
  C  C6  1  1.06788457  1.12500000  1.44288457  1.0
  C  C7  1  1.37500000  0.93211543  1.05711543  1.0
  C  C8  1  0.87500000  1.31788457  0.94288457  1.0
  C  C9  1  0.68211543  0.62500000  0.55711543  1.0
  N  N10  1  1.24144574  1.12081215  1.20100518  1.0
  N  N11  1  0.83019302  1.12918785  0.62063359  1.0
  N  N12  1  0.79044057  1.16980698  1.29899482  1.0
  N  N13  1  0.87918785  1.08019302  1.12063359  1.0
  N  N14  1  1.50855426  1.20955943  1.37936641  1.0
  N  N15  1  0.91980698  1.04044057  0.79899482  1.0
  N  N16  1  0.95955943  0.75855426  0.87936641  1.0
  N  N17  1  0.87081215  0.49144574  0.70100518  1.0
  N  N18  1  1.29636863  1.27131382  1.36978873  1.0
  N  N19  1  0.84847491  0.97868618  0.52505481  1.0
  N  N20  1  0.67657989  1.15152509  1.13021127  1.0
  N  N21  1  0.72868618  1.09847491  1.02505481  1.0
  N  N22  1  1.45363137  1.32342011  1.47494519  1.0
  N  N23  1  0.90152509  0.92657989  0.63021127  1.0
  N  N24  1  1.07342011  0.70363137  0.97494519  1.0
  N  N25  1  1.02131382  0.54636863  0.86978873  1.0
  O  O26  1  1.11898194  1.21145571  1.61902284  1.0
  O  O27  1  1.15756713  1.03854429  1.40752623  1.0
  O  O28  1  1.24995909  0.84243287  0.88097716  1.0
  O  O29  1  0.78854429  1.40756713  0.90752623  1.0
  O  O30  1  0.63101806  0.75004091  0.59247377  1.0
  O  O31  1  0.59243287  0.49995909  0.38097716  1.0
  O  O32  1  1.50004091  0.88101806  1.09247377  1.0
  O  O33  1  0.96145571  1.36898194  1.11902284  1.0
