# generated using pymatgen
data_Mg2Ni
_symmetry_space_group_name_H-M   'P 1'
_cell_length_a   7.53913558
_cell_length_b   7.53913558
_cell_length_c   5.51207850
_cell_angle_alpha   68.53445211
_cell_angle_beta   111.46554789
_cell_angle_gamma   131.48376683
_symmetry_Int_Tables_number   1
_chemical_formula_structural   Mg2Ni
_chemical_formula_sum   'Mg8 Ni4'
_cell_volume   214.96937055
_cell_formula_units_Z   4
loop_
 _symmetry_equiv_pos_site_id
 _symmetry_equiv_pos_as_xyz
  1  'x, y, z'
loop_
 _atom_site_type_symbol
 _atom_site_label
 _atom_site_symmetry_multiplicity
 _atom_site_fract_x
 _atom_site_fract_y
 _atom_site_fract_z
 _atom_site_occupancy
  Mg  Mg0  1  1.24573185  -0.58525629  0.70047592  1.0
  Mg  Mg1  1  1.58525629  -0.24573185  0.20047592  1.0
  Mg  Mg2  1  1.67649196  -0.01606320  0.63119777  1.0
  Mg  Mg3  1  1.01606320  -0.67649196  0.13119777  1.0
  Mg  Mg4  1  0.89303760  -0.41237333  0.43803736  1.0
  Mg  Mg5  1  1.41237333  0.10696240  0.93803736  1.0
  Mg  Mg6  1  1.36870676  0.15057350  0.39441761  1.0
  Mg  Mg7  1  0.84942650  -0.36870676  0.89441761  1.0
  Ni  Ni8  1  1.25742705  -0.25759679  0.29264348  1.0
  Ni  Ni9  1  1.25759679  -0.25742705  0.79264348  1.0
  Ni  Ni10  1  0.00414694  -0.00434173  0.53932787  1.0
  Ni  Ni11  1  1.00434173  0.99585306  0.03932787  1.0
