# generated using pymatgen
data_LiGeBO4
_symmetry_space_group_name_H-M   'P 1'
_cell_length_a   4.74868218
_cell_length_b   4.74868218
_cell_length_c   4.74868218
_cell_angle_alpha   122.75705447
_cell_angle_beta   122.75705447
_cell_angle_gamma   85.28749430
_symmetry_Int_Tables_number   1
_chemical_formula_structural   LiGeBO4
_chemical_formula_sum   'Li1 Ge1 B1 O4'
_cell_volume   72.29663970
_cell_formula_units_Z   1
loop_
 _symmetry_equiv_pos_site_id
 _symmetry_equiv_pos_as_xyz
  1  'x, y, z'
loop_
 _atom_site_type_symbol
 _atom_site_label
 _atom_site_symmetry_multiplicity
 _atom_site_fract_x
 _atom_site_fract_y
 _atom_site_fract_z
 _atom_site_occupancy
  Li  Li0  1  0.50000000  0.50000000  1.00000000  1.0
  Ge  Ge1  1  -0.00000000  -0.00000000  -0.00000000  1.0
  B  B2  1  0.25000000  0.75000000  0.50000000  1.0
  O  O3  1  0.30218799  0.84459003  0.88173819  1.0
  O  O4  1  1.15540997  1.03714816  1.45759796  1.0
  O  O5  1  0.96285184  0.42044981  1.11826181  1.0
  O  O6  1  0.57955019  0.69781201  0.54240204  1.0
