# generated using pymatgen
data_LiCa3Si2N5
_symmetry_space_group_name_H-M   'P 1'
_cell_length_a   10.56211840
_cell_length_b   10.56211840
_cell_length_c   10.41499534
_cell_angle_alpha   89.75069160
_cell_angle_beta   90.24930840
_cell_angle_gamma   28.39083132
_symmetry_Int_Tables_number   1
_chemical_formula_structural   LiCa3Si2N5
_chemical_formula_sum   'Li4 Ca12 Si8 N20'
_cell_volume   552.36755626
_cell_formula_units_Z   4
loop_
 _symmetry_equiv_pos_site_id
 _symmetry_equiv_pos_as_xyz
  1  'x, y, z'
loop_
 _atom_site_type_symbol
 _atom_site_label
 _atom_site_symmetry_multiplicity
 _atom_site_fract_x
 _atom_site_fract_y
 _atom_site_fract_z
 _atom_site_occupancy
  Li  Li0  1  0.84596206  0.84596206  0.25000000  1.0
  Li  Li1  1  1.15403794  0.15403794  0.75000000  1.0
  Li  Li2  1  1.37169742  0.37169742  0.25000000  1.0
  Li  Li3  1  0.62830258  0.62830258  0.75000000  1.0
  Ca  Ca4  1  1.34224950  -0.16269061  0.35532337  1.0
  Ca  Ca5  1  1.16269061  0.65775050  0.85532337  1.0
  Ca  Ca6  1  0.83730939  0.34224950  0.14467663  1.0
  Ca  Ca7  1  1.65775050  0.16269061  0.64467663  1.0
  Ca  Ca8  1  1.73110655  0.23099115  0.36784153  1.0
  Ca  Ca9  1  0.76900885  0.26889345  0.86784153  1.0
  Ca  Ca10  1  1.23099115  0.73110655  0.13215847  1.0
  Ca  Ca11  1  1.26889345  -0.23099115  0.63215847  1.0
  Ca  Ca12  1  1.46184109  -0.03172321  0.14567735  1.0
  Ca  Ca13  1  1.03172321  0.53815891  0.64567735  1.0
  Ca  Ca14  1  0.96827679  0.46184109  0.35432265  1.0
  Ca  Ca15  1  1.53815891  0.03172321  0.85432265  1.0
  Si  Si16  1  1.69166025  0.09922374  0.03788438  1.0
  Si  Si17  1  0.90077626  0.30833975  0.53788438  1.0
  Si  Si18  1  1.09922374  0.69166025  0.46211562  1.0
  Si  Si19  1  1.30833975  -0.09922374  0.96211562  1.0
  Si  Si20  1  1.49426671  0.11291261  0.45224826  1.0
  Si  Si21  1  0.88708739  0.50573329  0.95224826  1.0
  Si  Si22  1  1.11291261  0.49426671  0.04775174  1.0
  Si  Si23  1  1.50573329  -0.11291261  0.54775174  1.0
  N  N24  1  1.74593014  -0.00153322  0.42311525  1.0
  N  N25  1  1.00153322  0.25406986  0.92311525  1.0
  N  N26  1  0.99846678  0.74593014  0.07688475  1.0
  N  N27  1  1.25406986  0.00153322  0.57688475  1.0
  N  N28  1  1.49810066  -0.04629130  0.38334431  1.0
  N  N29  1  1.04629130  0.50189934  0.88334431  1.0
  N  N30  1  0.95370870  0.49810066  0.11665569  1.0
  N  N31  1  1.50189934  0.04629130  0.61665569  1.0
  N  N32  1  1.33350052  -0.13795204  0.13042417  1.0
  N  N33  1  1.13795204  0.66649948  0.63042417  1.0
  N  N34  1  0.86204796  0.33350052  0.36957583  1.0
  N  N35  1  1.66649948  0.13795204  0.86957583  1.0
  N  N36  1  1.70010828  0.23440770  0.12272624  1.0
  N  N37  1  0.76559230  0.29989172  0.62272624  1.0
  N  N38  1  1.23440770  0.70010828  0.37727376  1.0
  N  N39  1  1.29989172  -0.23440770  0.87727376  1.0
  N  N40  1  1.45163412  0.19551383  0.08807054  1.0
  N  N41  1  0.80448617  0.54836588  0.58807054  1.0
  N  N42  1  1.19551383  0.45163412  0.41192946  1.0
  N  N43  1  1.54836588  -0.19551383  0.91192946  1.0
