# generated using pymatgen
data_Tl2Mo3SeO12
_symmetry_space_group_name_H-M   'P 1'
_cell_length_a   7.36969477
_cell_length_b   7.36969477
_cell_length_c   12.50863092
_cell_angle_alpha   90.00000000
_cell_angle_beta   90.00000000
_cell_angle_gamma   120.00000000
_symmetry_Int_Tables_number   1
_chemical_formula_structural   Tl2Mo3SeO12
_chemical_formula_sum   'Tl4 Mo6 Se2 O24'
_cell_volume   588.35495032
_cell_formula_units_Z   2
loop_
 _symmetry_equiv_pos_site_id
 _symmetry_equiv_pos_as_xyz
  1  'x, y, z'
loop_
 _atom_site_type_symbol
 _atom_site_label
 _atom_site_symmetry_multiplicity
 _atom_site_fract_x
 _atom_site_fract_y
 _atom_site_fract_z
 _atom_site_occupancy
  Tl  Tl0  1  0.33333333  0.66666667  0.04613328  1.0
  Tl  Tl1  1  0.66666667  0.33333333  0.54613328  1.0
  Tl  Tl2  1  0.33333333  0.66666667  0.47537094  1.0
  Tl  Tl3  1  0.66666667  0.33333333  0.97537094  1.0
  Mo  Mo4  1  0.86755091  0.66165138  0.23462928  1.0
  Mo  Mo5  1  0.66165138  0.86755091  0.73462928  1.0
  Mo  Mo6  1  0.79410047  0.13244909  0.23462928  1.0
  Mo  Mo7  1  0.33834862  0.20589953  0.23462928  1.0
  Mo  Mo8  1  0.13244909  0.79410047  0.73462928  1.0
  Mo  Mo9  1  0.20589953  0.33834862  0.73462928  1.0
  Se  Se10  1  0.00000000  0.00000000  0.00861094  1.0
  Se  Se11  1  0.00000000  -0.00000000  0.50861094  1.0
  O  O12  1  0.12863193  0.87996404  0.24537146  1.0
  O  O13  1  0.87996404  0.12863193  0.74537146  1.0
  O  O14  1  0.75133212  0.87136807  0.24537146  1.0
  O  O15  1  0.12003596  0.24866788  0.24537146  1.0
  O  O16  1  0.87136807  0.75133212  0.74537146  1.0
  O  O17  1  0.24866788  0.12003596  0.74537146  1.0
  O  O18  1  0.87278638  0.75234608  0.06665959  1.0
  O  O19  1  0.75234608  0.87278638  0.56665959  1.0
  O  O20  1  0.87955970  0.12721362  0.06665959  1.0
  O  O21  1  0.24765392  0.12044030  0.06665959  1.0
  O  O22  1  0.12721362  0.87955970  0.56665959  1.0
  O  O23  1  0.12044030  0.24765392  0.56665959  1.0
  O  O24  1  0.80262152  0.59709263  0.36750695  1.0
  O  O25  1  0.59709263  0.80262152  0.86750695  1.0
  O  O26  1  0.79447111  0.19737848  0.36750695  1.0
  O  O27  1  0.40290737  0.20552889  0.36750695  1.0
  O  O28  1  0.19737848  0.79447111  0.86750695  1.0
  O  O29  1  0.20552889  0.40290737  0.86750695  1.0
  O  O30  1  0.54749728  0.45946401  0.18912765  1.0
  O  O31  1  0.45946401  0.54749728  0.68912765  1.0
  O  O32  1  0.91196673  0.45250272  0.18912765  1.0
  O  O33  1  0.54053599  0.08803327  0.18912765  1.0
  O  O34  1  0.45250272  0.91196673  0.68912765  1.0
  O  O35  1  0.08803327  0.54053599  0.68912765  1.0
