# generated using pymatgen
data_LiFe(Se2O5)2
_symmetry_space_group_name_H-M   'P 1'
_cell_length_a   6.08890803
_cell_length_b   6.92179323
_cell_length_c   10.50119368
_cell_angle_alpha   90.00000000
_cell_angle_beta   90.00000000
_cell_angle_gamma   90.00000000
_symmetry_Int_Tables_number   1
_chemical_formula_structural   LiFe(Se2O5)2
_chemical_formula_sum   'Li2 Fe2 Se8 O20'
_cell_volume   442.58501349
_cell_formula_units_Z   2
loop_
 _symmetry_equiv_pos_site_id
 _symmetry_equiv_pos_as_xyz
  1  'x, y, z'
loop_
 _atom_site_type_symbol
 _atom_site_label
 _atom_site_symmetry_multiplicity
 _atom_site_fract_x
 _atom_site_fract_y
 _atom_site_fract_z
 _atom_site_occupancy
  Fe  Fe0  1  0.00000000  0.00000000  0.36823700  1.0
  Fe  Fe1  1  0.00000000  0.50000000  0.86823700  1.0
  O  O2  1  0.00000000  0.00000000  -0.00272527  1.0
  O  O3  1  0.00000000  0.50000000  0.49727473  1.0
  O  O4  1  0.90591479  0.81247202  0.22324866  1.0
  O  O5  1  0.90591479  0.68752798  0.72324866  1.0
  O  O6  1  0.09408521  0.31247202  0.72324866  1.0
  O  O7  1  0.09408521  0.18752798  0.22324866  1.0
  O  O8  1  0.81474579  0.64908782  -0.00066063  1.0
  O  O9  1  0.81474579  0.85091218  0.49933937  1.0
  O  O10  1  0.18525421  0.14908782  0.49933937  1.0
  O  O11  1  0.18525421  0.35091218  -0.00066063  1.0
  O  O12  1  0.50000000  0.00000000  0.86303068  1.0
  O  O13  1  0.50000000  0.50000000  0.36303068  1.0
  O  O14  1  0.41792496  0.70413243  0.14087930  1.0
  O  O15  1  0.41792496  0.79586757  0.64087930  1.0
  O  O16  1  0.58207504  0.20413243  0.64087930  1.0
  O  O17  1  0.58207504  0.29586757  0.14087930  1.0
  O  O18  1  0.27802493  0.84008419  0.36553648  1.0
  O  O19  1  0.27802493  0.65991581  0.86553648  1.0
  O  O20  1  0.72197507  0.34008419  0.86553648  1.0
  O  O21  1  0.72197507  0.15991581  0.36553648  1.0
  Se  Se22  1  0.78133889  0.86104524  0.08029604  1.0
  Se  Se23  1  0.78133889  0.63895476  0.58029604  1.0
  Se  Se24  1  0.21866111  0.36104524  0.58029604  1.0
  Se  Se25  1  0.21866111  0.13895476  0.08029604  1.0
  Se  Se26  1  0.71792966  0.36577865  0.27120299  1.0
  Se  Se27  1  0.71792966  0.13422135  0.77120299  1.0
  Se  Se28  1  0.28207034  0.86577865  0.77120299  1.0
  Se  Se29  1  0.28207034  0.63422135  0.27120299  1.0
  Li  Li30  1  0.50000000  0.00000000  0.49515186  1.0
  Li  Li31  1  0.50000000  0.50000000  0.99515186  1.0
