# generated using pymatgen
data_K2TbNb5O15
_symmetry_space_group_name_H-M   'P 1'
_cell_length_a   12.66484694
_cell_length_b   12.66484694
_cell_length_c   3.93083136
_cell_angle_alpha   90.00000000
_cell_angle_beta   90.00000000
_cell_angle_gamma   90.00000000
_symmetry_Int_Tables_number   1
_chemical_formula_structural   K2TbNb5O15
_chemical_formula_sum   'K4 Tb2 Nb10 O30'
_cell_volume   630.49885604
_cell_formula_units_Z   2
loop_
 _symmetry_equiv_pos_site_id
 _symmetry_equiv_pos_as_xyz
  1  'x, y, z'
loop_
 _atom_site_type_symbol
 _atom_site_label
 _atom_site_symmetry_multiplicity
 _atom_site_fract_x
 _atom_site_fract_y
 _atom_site_fract_z
 _atom_site_occupancy
  K  K0  1  0.32913878  0.17086122  0.50000000  1.0
  K  K1  1  0.82913878  0.32913878  0.50000000  1.0
  K  K2  1  0.67086122  0.82913878  0.50000000  1.0
  K  K3  1  0.17086122  0.67086122  0.50000000  1.0
  Tb  Tb4  1  0.50000000  0.50000000  0.50000000  1.0
  Tb  Tb5  1  0.00000000  0.00000000  0.50000000  1.0
  Nb  Nb6  1  0.42383579  0.71251836  0.00000000  1.0
  Nb  Nb7  1  0.92383579  0.78748164  0.00000000  1.0
  Nb  Nb8  1  0.28748164  0.42383579  0.00000000  1.0
  Nb  Nb9  1  0.78748164  0.07616421  0.00000000  1.0
  Nb  Nb10  1  0.57616421  0.28748164  0.00000000  1.0
  Nb  Nb11  1  0.07616421  0.21251836  0.00000000  1.0
  Nb  Nb12  1  0.71251836  0.57616421  0.00000000  1.0
  Nb  Nb13  1  0.21251836  0.92383579  0.00000000  1.0
  Nb  Nb14  1  0.50000000  0.00000000  0.00000000  1.0
  Nb  Nb15  1  0.00000000  0.50000000  0.00000000  1.0
  O  O16  1  0.42182949  0.68826653  0.50000000  1.0
  O  O17  1  0.92182949  0.81173347  0.50000000  1.0
  O  O18  1  0.31173347  0.42182949  0.50000000  1.0
  O  O19  1  0.81173347  0.07817051  0.50000000  1.0
  O  O20  1  0.57817051  0.31173347  0.50000000  1.0
  O  O21  1  0.07817051  0.18826653  0.50000000  1.0
  O  O22  1  0.68826653  0.57817051  0.50000000  1.0
  O  O23  1  0.18826653  0.92182949  0.50000000  1.0
  O  O24  1  0.50076101  0.84225911  0.00000000  1.0
  O  O25  1  0.00076101  0.65774089  0.00000000  1.0
  O  O26  1  0.15774089  0.50076101  0.00000000  1.0
  O  O27  1  0.65774089  -0.00076101  0.00000000  1.0
  O  O28  1  0.49923899  0.15774089  0.00000000  1.0
  O  O29  1  -0.00076101  0.34225911  0.00000000  1.0
  O  O30  1  0.84225911  0.49923899  0.00000000  1.0
  O  O31  1  0.34225911  0.00076101  0.00000000  1.0
  O  O32  1  0.36804883  0.55942531  0.00000000  1.0
  O  O33  1  0.86804883  0.94057469  0.00000000  1.0
  O  O34  1  0.44057469  0.36804883  0.00000000  1.0
  O  O35  1  0.94057469  0.13195117  0.00000000  1.0
  O  O36  1  0.63195117  0.44057469  0.00000000  1.0
  O  O37  1  0.13195117  0.05942531  0.00000000  1.0
  O  O38  1  0.55942531  0.63195117  0.00000000  1.0
  O  O39  1  0.05942531  0.86804883  0.00000000  1.0
  O  O40  1  0.78400287  0.71599713  0.00000000  1.0
  O  O41  1  0.28400287  0.78400287  0.00000000  1.0
  O  O42  1  0.21599713  0.28400287  0.00000000  1.0
  O  O43  1  0.71599713  0.21599713  0.00000000  1.0
  O  O44  1  0.50000000  0.00000000  0.50000000  1.0
  O  O45  1  0.00000000  0.50000000  0.50000000  1.0
