# generated using pymatgen
data_NbO2
_symmetry_space_group_name_H-M   'P 1'
_cell_length_a   7.51037468
_cell_length_b   7.51037468
_cell_length_c   7.51037468
_cell_angle_alpha   99.31472768
_cell_angle_beta   99.31472768
_cell_angle_gamma   132.55402006
_symmetry_Int_Tables_number   1
_chemical_formula_structural   NbO2
_chemical_formula_sum   'Nb8 O16'
_cell_volume   285.69265255
_cell_formula_units_Z   8
loop_
 _symmetry_equiv_pos_site_id
 _symmetry_equiv_pos_as_xyz
  1  'x, y, z'
loop_
 _atom_site_type_symbol
 _atom_site_label
 _atom_site_symmetry_multiplicity
 _atom_site_fract_x
 _atom_site_fract_y
 _atom_site_fract_z
 _atom_site_occupancy
  Nb  Nb0  1  0.76052198  1.49216468  1.24470637  1.0
  Nb  Nb1  1  1.24216468  1.49745831  1.23164270  1.0
  Nb  Nb2  1  1.24745831  0.51581561  0.75529363  1.0
  Nb  Nb3  1  1.26581561  1.01052198  0.76835730  1.0
  Nb  Nb4  1  1.70876047  1.94035718  1.74474629  1.0
  Nb  Nb5  1  0.69035718  0.44561089  0.73159671  1.0
  Nb  Nb6  1  1.19561089  0.96401418  0.25525371  1.0
  Nb  Nb7  1  0.71401418  0.95876047  1.26840329  1.0
  O  O8  1  0.88486040  0.83691277  0.74510587  1.0
  O  O9  1  0.58691277  0.34180689  0.45205236  1.0
  O  O10  1  1.09180689  1.13975453  1.25489413  1.0
  O  O11  1  0.88975453  1.13486040  1.54794764  1.0
  O  O12  1  1.38652812  1.85969920  1.25705952  1.0
  O  O13  1  1.60969920  0.85263968  0.97317108  1.0
  O  O14  1  1.60263968  1.12946860  0.74294048  1.0
  O  O15  1  0.87946860  1.63652812  1.02682892  1.0
  O  O16  1  1.34647098  1.60353967  1.52684764  1.0
  O  O17  1  1.35353967  1.32669203  0.75706869  1.0
  O  O18  1  1.07669203  0.81962334  0.47315236  1.0
  O  O19  1  1.56962334  1.59647098  1.24293131  1.0
  O  O20  1  0.86435193  1.31641372  1.24511541  1.0
  O  O21  1  1.06641372  0.32129831  0.95206179  1.0
  O  O22  1  1.07129831  0.61923652  0.75488459  1.0
  O  O23  1  0.36923652  1.11435193  1.04793821  1.0
