# generated using pymatgen
data_Cd3Te2MoO10
_symmetry_space_group_name_H-M   'P 1'
_cell_length_a   8.85602561
_cell_length_b   5.61467685
_cell_length_c   11.00372256
_cell_angle_alpha   90.00000000
_cell_angle_beta   108.44983191
_cell_angle_gamma   90.00000000
_symmetry_Int_Tables_number   1
_chemical_formula_structural   Cd3Te2MoO10
_chemical_formula_sum   'Cd6 Te4 Mo2 O20'
_cell_volume   519.02334898
_cell_formula_units_Z   2
loop_
 _symmetry_equiv_pos_site_id
 _symmetry_equiv_pos_as_xyz
  1  'x, y, z'
loop_
 _atom_site_type_symbol
 _atom_site_label
 _atom_site_symmetry_multiplicity
 _atom_site_fract_x
 _atom_site_fract_y
 _atom_site_fract_z
 _atom_site_occupancy
  Cd  Cd0  1  0.16993524  0.09207750  0.80328604  1.0
  Cd  Cd1  1  0.83006476  0.59207750  0.19671396  1.0
  Cd  Cd2  1  0.51437072  0.62410828  0.87953634  1.0
  Cd  Cd3  1  0.48562928  0.12410828  0.12046366  1.0
  Cd  Cd4  1  0.45773657  0.10924584  0.60985155  1.0
  Cd  Cd5  1  0.54226343  0.60924584  0.39014845  1.0
  Te  Te6  1  0.23574872  0.60495046  0.05142171  1.0
  Te  Te7  1  0.76425128  0.10495046  0.94857829  1.0
  Te  Te8  1  0.22230176  0.62693201  0.55537755  1.0
  Te  Te9  1  0.77769824  0.12693201  0.44462245  1.0
  Mo  Mo10  1  0.85903335  0.60401630  0.72063444  1.0
  Mo  Mo11  1  0.14096665  0.10401630  0.27936556  1.0
  O  O12  1  0.98362163  0.38390233  0.68404969  1.0
  O  O13  1  0.01637837  0.88390233  0.31595031  1.0
  O  O14  1  0.74988212  0.76350434  0.58031470  1.0
  O  O15  1  0.25011788  0.26350434  0.41968530  1.0
  O  O16  1  0.98609457  0.81612332  0.82708871  1.0
  O  O17  1  0.01390543  0.31612332  0.17291129  1.0
  O  O18  1  0.74050161  0.46573198  0.80489595  1.0
  O  O19  1  0.25949839  0.96573198  0.19510405  1.0
  O  O20  1  0.35455687  0.82912313  0.97677687  1.0
  O  O21  1  0.64544313  0.32912313  0.02322313  1.0
  O  O22  1  0.40198735  0.47286829  0.19681145  1.0
  O  O23  1  0.59801265  0.97286829  0.80318855  1.0
  O  O24  1  0.28134116  0.34057181  0.95186521  1.0
  O  O25  1  0.71865884  0.84057181  0.04813479  1.0
  O  O26  1  0.36730599  0.43972072  0.69411649  1.0
  O  O27  1  0.63269401  0.93972072  0.30588351  1.0
  O  O28  1  0.23611562  0.92300883  0.65247087  1.0
  O  O29  1  0.76388438  0.42300883  0.34752913  1.0
  O  O30  1  0.37424012  0.77121485  0.48111770  1.0
  O  O31  1  0.62575988  0.27121485  0.51888230  1.0
