# generated using pymatgen
data_Li2ZnSi
_symmetry_space_group_name_H-M   'P 1'
_cell_length_a   4.31012665
_cell_length_b   4.31012665
_cell_length_c   7.69678903
_cell_angle_alpha   90.00000000
_cell_angle_beta   90.00000000
_cell_angle_gamma   120.00000000
_symmetry_Int_Tables_number   1
_chemical_formula_structural   Li2ZnSi
_chemical_formula_sum   'Li4 Zn2 Si2'
_cell_volume   123.82840449
_cell_formula_units_Z   2
loop_
 _symmetry_equiv_pos_site_id
 _symmetry_equiv_pos_as_xyz
  1  'x, y, z'
loop_
 _atom_site_type_symbol
 _atom_site_label
 _atom_site_symmetry_multiplicity
 _atom_site_fract_x
 _atom_site_fract_y
 _atom_site_fract_z
 _atom_site_occupancy
  Li  Li0  1  0.00000000  -0.00000000  0.75574445  1.0
  Li  Li1  1  0.00000000  -0.00000000  0.24425555  1.0
  Li  Li2  1  0.66666667  0.33333333  0.41857046  1.0
  Li  Li3  1  0.33333333  0.66666667  0.58142954  1.0
  Zn  Zn4  1  0.66666667  0.33333333  0.09243665  1.0
  Zn  Zn5  1  0.33333333  0.66666667  0.90756335  1.0
  Si  Si6  1  0.66666667  0.33333333  0.76195577  1.0
  Si  Si7  1  0.33333333  0.66666667  0.23804423  1.0
