# generated using pymatgen
data_Ag2GePbS4
_symmetry_space_group_name_H-M   'P 1'
_cell_length_a   6.31838848
_cell_length_b   6.31838848
_cell_length_c   10.24110296
_cell_angle_alpha   90.00000000
_cell_angle_beta   90.00000000
_cell_angle_gamma   67.56406729
_symmetry_Int_Tables_number   1
_chemical_formula_structural   Ag2GePbS4
_chemical_formula_sum   'Ag4 Ge2 Pb2 S8'
_cell_volume   377.89884126
_cell_formula_units_Z   2
loop_
 _symmetry_equiv_pos_site_id
 _symmetry_equiv_pos_as_xyz
  1  'x, y, z'
loop_
 _atom_site_type_symbol
 _atom_site_label
 _atom_site_symmetry_multiplicity
 _atom_site_fract_x
 _atom_site_fract_y
 _atom_site_fract_z
 _atom_site_occupancy
  Ag  Ag0  1  -0.34658008  1.58597297  0.40356772  1.0
  Ag  Ag1  1  -0.58597297  1.34658008  0.90356772  1.0
  Ag  Ag2  1  -0.58597297  1.34658008  0.59643228  1.0
  Ag  Ag3  1  -0.34658008  1.58597297  0.09643228  1.0
  Ge  Ge4  1  0.27252961  0.33167928  0.25000000  1.0
  Ge  Ge5  1  0.66832072  0.72747039  0.75000000  1.0
  Pb  Pb6  1  0.01779926  -0.01779926  0.50000000  1.0
  Pb  Pb7  1  0.01779926  -0.01779926  0.00000000  1.0
  S  S8  1  0.09592149  0.51351491  0.43323568  1.0
  S  S9  1  0.48648509  0.90407851  0.93323568  1.0
  S  S10  1  0.48648509  0.90407851  0.56676432  1.0
  S  S11  1  0.09592149  0.51351491  0.06676432  1.0
  S  S12  1  0.25875938  0.98366215  0.25000000  1.0
  S  S13  1  0.01633785  0.74124062  0.75000000  1.0
  S  S14  1  -0.35603743  1.28541571  0.25000000  1.0
  S  S15  1  -0.28541571  1.35603743  0.75000000  1.0
