# generated using pymatgen
data_Sr2NiTeO6
_symmetry_space_group_name_H-M   'P 1'
_cell_length_a   5.66135089
_cell_length_b   5.66135089
_cell_length_c   5.73010427
_cell_angle_alpha   59.65964323
_cell_angle_beta   120.34035677
_cell_angle_gamma   120.00594712
_symmetry_Int_Tables_number   1
_chemical_formula_structural   Sr2NiTeO6
_chemical_formula_sum   'Sr2 Ni1 Te1 O6'
_cell_volume   129.18582602
_cell_formula_units_Z   1
loop_
 _symmetry_equiv_pos_site_id
 _symmetry_equiv_pos_as_xyz
  1  'x, y, z'
loop_
 _atom_site_type_symbol
 _atom_site_label
 _atom_site_symmetry_multiplicity
 _atom_site_fract_x
 _atom_site_fract_y
 _atom_site_fract_z
 _atom_site_occupancy
  Sr  Sr0  1  0.74849845  -0.74849845  0.24496812  1.0
  Sr  Sr1  1  0.25150155  -0.25150155  0.75503188  1.0
  Ni  Ni2  1  0.00000000  0.00000000  0.00000000  1.0
  Te  Te3  1  0.50000000  0.50000000  0.50000000  1.0
  O  O4  1  0.78498442  0.72270414  0.78555679  1.0
  O  O5  1  0.27729586  0.21501558  0.78555679  1.0
  O  O6  1  1.72270414  -0.21501558  0.21444321  1.0
  O  O7  1  1.21501558  -0.72270414  0.21444321  1.0
  O  O8  1  0.75582142  0.24417858  0.69657570  1.0
  O  O9  1  1.24417858  -0.24417858  0.30342430  1.0
