# generated using pymatgen
data_Cs4Mn(AsS4)2
_symmetry_space_group_name_H-M   'P 1'
_cell_length_a   9.76841144
_cell_length_b   9.58954214
_cell_length_c   11.64725625
_cell_angle_alpha   105.05922443
_cell_angle_beta   104.71918927
_cell_angle_gamma   91.94446119
_symmetry_Int_Tables_number   1
_chemical_formula_structural   Cs4Mn(AsS4)2
_chemical_formula_sum   'Cs8 Mn2 As4 S16'
_cell_volume   1013.15570823
_cell_formula_units_Z   2
loop_
 _symmetry_equiv_pos_site_id
 _symmetry_equiv_pos_as_xyz
  1  'x, y, z'
loop_
 _atom_site_type_symbol
 _atom_site_label
 _atom_site_symmetry_multiplicity
 _atom_site_fract_x
 _atom_site_fract_y
 _atom_site_fract_z
 _atom_site_occupancy
  Cs  Cs0  1  -0.25458094  -0.89995083  -0.48493969  1.0
  Cs  Cs1  1  -0.74541906  -0.10004917  -0.51506031  1.0
  Cs  Cs2  1  -0.32053637  -0.87143705  -0.88057418  1.0
  Cs  Cs3  1  -0.67946363  -0.12856295  -0.11942582  1.0
  Cs  Cs4  1  -0.51849806  -0.42926969  -0.74741426  1.0
  Cs  Cs5  1  -0.48150194  -0.57073031  -0.25258574  1.0
  Cs  Cs6  1  -0.98491934  -0.26086450  -0.95466338  1.0
  Cs  Cs7  1  -0.01508066  -0.73913550  -0.04533662  1.0
  Mn  Mn8  1  -0.85962120  -0.64498501  -0.57419654  1.0
  Mn  Mn9  1  -0.14037880  -0.35501499  -0.42580346  1.0
  As  As10  1  -0.69374248  -0.85919742  -0.75433069  1.0
  As  As11  1  -0.30625752  -0.14080258  -0.24566931  1.0
  As  As12  1  -0.89286703  -0.54708955  -0.28320668  1.0
  As  As13  1  -0.10713297  -0.45291045  -0.71679332  1.0
  S  S14  1  -0.41073034  -0.94152066  -0.24253337  1.0
  S  S15  1  -0.58926966  -0.05847934  -0.75746663  1.0
  S  S16  1  -0.91852011  -0.89008857  -0.74787192  1.0
  S  S17  1  -0.08147989  -0.10991143  -0.25212808  1.0
  S  S18  1  -0.67365317  -0.78660447  -0.91225318  1.0
  S  S19  1  -0.32634683  -0.21339553  -0.08774682  1.0
  S  S20  1  -0.87378721  -0.76210631  -0.40137206  1.0
  S  S21  1  -0.12621279  -0.23789369  -0.59862794  1.0
  S  S22  1  -0.60269694  -0.68411469  -0.58109636  1.0
  S  S23  1  -0.39730306  -0.31588531  -0.41890364  1.0
  S  S24  1  -0.24592433  -0.50324356  -0.90332641  1.0
  S  S25  1  -0.75407567  -0.49675644  -0.09667359  1.0
  S  S26  1  -0.88483903  -0.47935718  -0.71987761  1.0
  S  S27  1  -0.11516097  -0.52064282  -0.28012239  1.0
  S  S28  1  -0.83814806  -0.40486199  -0.39091864  1.0
  S  S29  1  -0.16185194  -0.59513801  -0.60908136  1.0
