# generated using pymatgen
data_Ti6Ga16Os7
_symmetry_space_group_name_H-M   'P 1'
_cell_length_a   8.66056745
_cell_length_b   8.66056745
_cell_length_c   8.66056745
_cell_angle_alpha   60.00000000
_cell_angle_beta   60.00000000
_cell_angle_gamma   60.00000000
_symmetry_Int_Tables_number   1
_chemical_formula_structural   Ti6Ga16Os7
_chemical_formula_sum   'Ti6 Ga16 Os7'
_cell_volume   459.32919231
_cell_formula_units_Z   1
loop_
 _symmetry_equiv_pos_site_id
 _symmetry_equiv_pos_as_xyz
  1  'x, y, z'
loop_
 _atom_site_type_symbol
 _atom_site_label
 _atom_site_symmetry_multiplicity
 _atom_site_fract_x
 _atom_site_fract_y
 _atom_site_fract_z
 _atom_site_occupancy
  Ti  Ti0  1  -0.78882625  0.78882625  0.78882625  1.0
  Ti  Ti1  1  -0.21117375  0.21117375  0.78882625  1.0
  Ti  Ti2  1  0.78882625  0.78882625  -0.78882625  1.0
  Ti  Ti3  1  0.21117375  1.21117375  -0.21117375  1.0
  Ti  Ti4  1  0.21117375  -0.21117375  1.21117375  1.0
  Ti  Ti5  1  -0.21117375  0.21117375  0.21117375  1.0
  Ga  Ga6  1  0.85275663  0.85275663  -0.14724337  1.0
  Ga  Ga7  1  1.14724337  0.14724337  0.55826989  1.0
  Ga  Ga8  1  1.14724337  0.55826989  0.14724337  1.0
  Ga  Ga9  1  0.44173011  0.85275663  -0.14724337  1.0
  Ga  Ga10  1  1.55826989  0.14724337  0.14724337  1.0
  Ga  Ga11  1  0.85275663  0.44173011  -0.14724337  1.0
  Ga  Ga12  1  0.85275663  0.85275663  -0.55826989  1.0
  Ga  Ga13  1  1.14724337  0.14724337  0.14724337  1.0
  Ga  Ga14  1  0.62408420  0.62408420  -0.37591580  1.0
  Ga  Ga15  1  1.37591580  0.37591580  -0.12774740  1.0
  Ga  Ga16  1  1.37591580  -0.12774740  0.37591580  1.0
  Ga  Ga17  1  1.12774740  0.62408420  -0.37591580  1.0
  Ga  Ga18  1  0.87225260  0.37591580  0.37591580  1.0
  Ga  Ga19  1  0.62408420  1.12774740  -0.37591580  1.0
  Ga  Ga20  1  0.62408420  0.62408420  0.12774740  1.0
  Ga  Ga21  1  1.37591580  0.37591580  0.37591580  1.0
  Os  Os22  1  1.50000000  0.00000000  0.00000000  1.0
  Os  Os23  1  1.00000000  0.50000000  -0.50000000  1.0
  Os  Os24  1  0.00000000  1.50000000  0.00000000  1.0
  Os  Os25  1  0.50000000  1.00000000  -0.50000000  1.0
  Os  Os26  1  0.00000000  0.00000000  0.50000000  1.0
  Os  Os27  1  0.50000000  -0.50000000  1.00000000  1.0
  Os  Os28  1  0.00000000  0.00000000  0.00000000  1.0
