# generated using pymatgen
data_CsLuCdTe3
_symmetry_space_group_name_H-M   'P 1'
_cell_length_a   8.94867011
_cell_length_b   8.94867011
_cell_length_c   11.78875220
_cell_angle_alpha   90.00000000
_cell_angle_beta   90.00000000
_cell_angle_gamma   150.94539958
_symmetry_Int_Tables_number   1
_chemical_formula_structural   CsLuCdTe3
_chemical_formula_sum   'Cs2 Lu2 Cd2 Te6'
_cell_volume   458.46042969
_cell_formula_units_Z   2
loop_
 _symmetry_equiv_pos_site_id
 _symmetry_equiv_pos_as_xyz
  1  'x, y, z'
loop_
 _atom_site_type_symbol
 _atom_site_label
 _atom_site_symmetry_multiplicity
 _atom_site_fract_x
 _atom_site_fract_y
 _atom_site_fract_z
 _atom_site_occupancy
  Cs  Cs0  1  -0.24851538  0.24851538  0.75000000  1.0
  Cs  Cs1  1  0.24851538  0.75148462  0.25000000  1.0
  Lu  Lu2  1  0.00000000  0.00000000  0.00000000  1.0
  Lu  Lu3  1  0.00000000  0.00000000  0.50000000  1.0
  Cd  Cd4  1  0.46159108  0.53840892  0.75000000  1.0
  Cd  Cd5  1  -0.46159108  0.46159108  0.25000000  1.0
  Te  Te6  1  0.38125957  0.61874043  0.95699179  1.0
  Te  Te7  1  0.38125957  0.61874043  0.54300821  1.0
  Te  Te8  1  -0.38125957  0.38125957  0.45699179  1.0
  Te  Te9  1  -0.38125957  0.38125957  0.04300821  1.0
  Te  Te10  1  0.06473214  0.93526786  0.75000000  1.0
  Te  Te11  1  -0.06473214  0.06473214  0.25000000  1.0
