# generated using pymatgen
data_AgCl
_symmetry_space_group_name_H-M   'P 1'
_cell_length_a   6.08134756
_cell_length_b   6.08134756
_cell_length_c   3.91609460
_cell_angle_alpha   90.00000000
_cell_angle_beta   90.00000000
_cell_angle_gamma   143.89179763
_symmetry_Int_Tables_number   1
_chemical_formula_structural   AgCl
_chemical_formula_sum   'Ag2 Cl2'
_cell_volume   85.34893859
_cell_formula_units_Z   2
loop_
 _symmetry_equiv_pos_site_id
 _symmetry_equiv_pos_as_xyz
  1  'x, y, z'
loop_
 _atom_site_type_symbol
 _atom_site_label
 _atom_site_symmetry_multiplicity
 _atom_site_fract_x
 _atom_site_fract_y
 _atom_site_fract_z
 _atom_site_occupancy
  Ag  Ag0  1  -0.89306233  0.89306233  0.25000000  1.0
  Ag  Ag1  1  -0.10693767  1.10693767  0.75000000  1.0
  Cl  Cl2  1  -0.63324474  0.63324474  0.25000000  1.0
  Cl  Cl3  1  -0.36675526  1.36675526  0.75000000  1.0
