# generated using pymatgen
data_Na2Mo2O7
_symmetry_space_group_name_H-M   'P 1'
_cell_length_a   7.04507783
_cell_length_b   7.04507783
_cell_length_c   15.08803752
_cell_angle_alpha   90.00000000
_cell_angle_beta   90.00000000
_cell_angle_gamma   118.05650153
_symmetry_Int_Tables_number   1
_chemical_formula_structural   Na2Mo2O7
_chemical_formula_sum   'Na8 Mo8 O28'
_cell_volume   660.86276810
_cell_formula_units_Z   4
loop_
 _symmetry_equiv_pos_site_id
 _symmetry_equiv_pos_as_xyz
  1  'x, y, z'
loop_
 _atom_site_type_symbol
 _atom_site_label
 _atom_site_symmetry_multiplicity
 _atom_site_fract_x
 _atom_site_fract_y
 _atom_site_fract_z
 _atom_site_occupancy
  Na  Na0  1  -0.32159222  1.32159222  0.15233576  1.0
  Na  Na1  1  0.17840778  0.82159222  0.34766424  1.0
  Na  Na2  1  0.32159222  0.67840778  0.84766424  1.0
  Na  Na3  1  -0.17840778  1.17840778  0.65233576  1.0
  Na  Na4  1  0.24899068  1.24899068  0.50000000  1.0
  Na  Na5  1  -0.25100932  0.74899068  0.00000000  1.0
  Na  Na6  1  -0.24899068  0.75100932  0.50000000  1.0
  Na  Na7  1  0.25100932  1.25100932  0.00000000  1.0
  Mo  Mo8  1  -0.24643575  1.24643575  0.41433055  1.0
  Mo  Mo9  1  0.25356425  0.74643575  0.08566945  1.0
  Mo  Mo10  1  0.24643575  0.75356425  0.58566945  1.0
  Mo  Mo11  1  -0.25356425  1.25356425  0.91433055  1.0
  Mo  Mo12  1  -0.33422165  0.83422165  0.25000000  1.0
  Mo  Mo13  1  0.16577835  1.33422165  0.25000000  1.0
  Mo  Mo14  1  -0.16577835  0.66577835  0.75000000  1.0
  Mo  Mo15  1  0.33422165  1.16577835  0.75000000  1.0
  O  O16  1  -0.37544771  1.37544771  0.46716878  1.0
  O  O17  1  0.12455229  0.87544771  0.03283122  1.0
  O  O18  1  0.37544771  0.62455229  0.53283122  1.0
  O  O19  1  -0.12455229  1.12455229  0.96716878  1.0
  O  O20  1  -0.43230685  1.03077170  0.34493058  1.0
  O  O21  1  0.06769315  0.53077170  0.15506942  1.0
  O  O22  1  0.03077170  0.56769315  0.65506942  1.0
  O  O23  1  -0.46922830  1.06769315  0.84493058  1.0
  O  O24  1  -0.03077170  1.43230685  0.34493058  1.0
  O  O25  1  0.46922830  0.93230685  0.15506942  1.0
  O  O26  1  0.43230685  0.96922830  0.65506942  1.0
  O  O27  1  -0.06769315  1.46922830  0.84493058  1.0
  O  O28  1  0.20675277  1.19614194  0.33683662  1.0
  O  O29  1  -0.29324723  0.69614194  0.16316338  1.0
  O  O30  1  0.19614194  1.20675277  0.66316338  1.0
  O  O31  1  -0.30385806  0.70675277  0.83683662  1.0
  O  O32  1  -0.19614194  0.79324723  0.33683662  1.0
  O  O33  1  0.30385806  1.29324723  0.16316338  1.0
  O  O34  1  -0.20675277  0.80385806  0.66316338  1.0
  O  O35  1  0.29324723  1.30385806  0.83683662  1.0
  O  O36  1  -0.14105602  1.14105602  0.49621585  1.0
  O  O37  1  0.35894398  0.64105602  0.00378415  1.0
  O  O38  1  0.14105602  0.85894398  0.50378415  1.0
  O  O39  1  -0.35894398  1.35894398  0.99621585  1.0
  O  O40  1  -0.12340172  1.12340172  0.21940138  1.0
  O  O41  1  0.37659828  0.62340172  0.28059862  1.0
  O  O42  1  0.12340172  0.87659828  0.78059862  1.0
  O  O43  1  -0.37659828  1.37659828  0.71940138  1.0
