# generated using pymatgen
data_Fe4CoB2P
_symmetry_space_group_name_H-M   'P 1'
_cell_length_a   6.47231867
_cell_length_b   6.47231867
_cell_length_c   6.47231867
_cell_angle_alpha   131.14121135
_cell_angle_beta   131.14121135
_cell_angle_gamma   71.58881969
_symmetry_Int_Tables_number   1
_chemical_formula_structural   Fe4CoB2P
_chemical_formula_sum   'Fe8 Co2 B4 P2'
_cell_volume   150.46193076
_cell_formula_units_Z   2
loop_
 _symmetry_equiv_pos_site_id
 _symmetry_equiv_pos_as_xyz
  1  'x, y, z'
loop_
 _atom_site_type_symbol
 _atom_site_label
 _atom_site_symmetry_multiplicity
 _atom_site_fract_x
 _atom_site_fract_y
 _atom_site_fract_z
 _atom_site_occupancy
  Fe  Fe0  1  0.52967567  1.02967567  0.83884723  1.0
  Fe  Fe1  1  1.19082844  0.69082844  1.16115277  1.0
  Fe  Fe2  1  1.02967567  1.19082844  1.50000000  1.0
  Fe  Fe3  1  0.69082844  0.52967567  0.50000000  1.0
  Fe  Fe4  1  0.47032433  0.97032433  1.16115277  1.0
  Fe  Fe5  1  0.80917156  0.30917156  0.83884723  1.0
  Fe  Fe6  1  0.97032433  0.80917156  1.50000000  1.0
  Fe  Fe7  1  0.30917156  0.47032433  0.50000000  1.0
  Co  Co8  1  0.50000000  0.50000000  1.00000000  1.0
  Co  Co9  1  0.00000000  0.00000000  0.00000000  1.0
  B  B10  1  0.87885578  0.37885578  1.25771155  1.0
  B  B11  1  0.12114422  0.62114422  0.74228845  1.0
  B  B12  1  0.37885578  0.12114422  0.50000000  1.0
  B  B13  1  0.62114422  0.87885578  1.50000000  1.0
  P  P14  1  0.25000000  0.25000000  -0.00000000  1.0
  P  P15  1  0.75000000  0.75000000  1.00000000  1.0
