# generated using pymatgen
data_Na3InP2
_symmetry_space_group_name_H-M   'P 1'
_cell_length_a   9.49783559
_cell_length_b   7.40045193
_cell_length_c   15.43369301
_cell_angle_alpha   90.00000000
_cell_angle_beta   92.62936775
_cell_angle_gamma   90.00000000
_symmetry_Int_Tables_number   1
_chemical_formula_structural   Na3InP2
_chemical_formula_sum   'Na24 In8 P16'
_cell_volume   1083.66557037
_cell_formula_units_Z   8
loop_
 _symmetry_equiv_pos_site_id
 _symmetry_equiv_pos_as_xyz
  1  'x, y, z'
loop_
 _atom_site_type_symbol
 _atom_site_label
 _atom_site_symmetry_multiplicity
 _atom_site_fract_x
 _atom_site_fract_y
 _atom_site_fract_z
 _atom_site_occupancy
  Na  Na0  1  0.94111033  0.48878223  0.10468806  1.0
  Na  Na1  1  0.94111033  0.01121777  0.60468806  1.0
  Na  Na2  1  0.05888967  0.98878223  0.39531194  1.0
  Na  Na3  1  0.05888967  0.51121777  0.89531194  1.0
  Na  Na4  1  0.88307314  0.34765557  0.45426431  1.0
  Na  Na5  1  0.88307314  0.15234443  0.95426431  1.0
  Na  Na6  1  0.11692686  0.84765557  0.04573569  1.0
  Na  Na7  1  0.11692686  0.65234443  0.54573569  1.0
  Na  Na8  1  0.81991485  0.99382364  0.13823578  1.0
  Na  Na9  1  0.81991485  0.50617636  0.63823578  1.0
  Na  Na10  1  0.18008515  0.49382364  0.36176422  1.0
  Na  Na11  1  0.18008515  0.00617636  0.86176422  1.0
  Na  Na12  1  0.68889103  0.03400460  0.35060273  1.0
  Na  Na13  1  0.68889103  0.46599540  0.85060273  1.0
  Na  Na14  1  0.31110897  0.53400460  0.14939727  1.0
  Na  Na15  1  0.31110897  0.96599540  0.64939727  1.0
  Na  Na16  1  0.62480255  0.34782129  0.20351718  1.0
  Na  Na17  1  0.62480255  0.15217871  0.70351718  1.0
  Na  Na18  1  0.37519745  0.84782129  0.29648282  1.0
  Na  Na19  1  0.37519745  0.65217871  0.79648282  1.0
  Na  Na20  1  0.43517471  0.02411354  0.10529019  1.0
  Na  Na21  1  0.43517471  0.47588646  0.60529019  1.0
  Na  Na22  1  0.56482529  0.52411354  0.39470981  1.0
  Na  Na23  1  0.56482529  0.97588646  0.89470981  1.0
  In  In24  1  0.86337708  0.65450915  0.29027918  1.0
  In  In25  1  0.86337708  0.84549085  0.79027918  1.0
  In  In26  1  0.13662292  0.15450915  0.20972082  1.0
  In  In27  1  0.13662292  0.34549085  0.70972082  1.0
  In  In28  1  0.37391016  0.14135143  0.45841683  1.0
  In  In29  1  0.37391016  0.35864857  0.95841683  1.0
  In  In30  1  0.62608984  0.64135143  0.04158317  1.0
  In  In31  1  0.62608984  0.85864857  0.54158317  1.0
  P  P32  1  0.90760089  0.29340717  0.27406663  1.0
  P  P33  1  0.90760089  0.20659283  0.77406663  1.0
  P  P34  1  0.09239911  0.79340717  0.22593337  1.0
  P  P35  1  0.09239911  0.70659283  0.72593337  1.0
  P  P36  1  0.84735331  0.73730398  0.45884224  1.0
  P  P37  1  0.84735331  0.76269602  0.95884224  1.0
  P  P38  1  0.15264669  0.23730398  0.04115776  1.0
  P  P39  1  0.15264669  0.26269602  0.54115776  1.0
  P  P40  1  0.62632747  0.28173181  0.02284302  1.0
  P  P41  1  0.62632747  0.21826819  0.52284302  1.0
  P  P42  1  0.37367253  0.78173181  0.47715698  1.0
  P  P43  1  0.37367253  0.71826819  0.97715698  1.0
  P  P44  1  0.37505552  0.23993412  0.29329696  1.0
  P  P45  1  0.37505552  0.26006588  0.79329696  1.0
  P  P46  1  0.62494448  0.73993412  0.20670304  1.0
  P  P47  1  0.62494448  0.76006588  0.70670304  1.0
