# generated using pymatgen
data_Mg3Sn
_symmetry_space_group_name_H-M   'P 1'
_cell_length_a   6.34829425
_cell_length_b   6.34829425
_cell_length_c   5.20860721
_cell_angle_alpha   90.00000000
_cell_angle_beta   90.00000000
_cell_angle_gamma   120.00000000
_symmetry_Int_Tables_number   1
_chemical_formula_structural   Mg3Sn
_chemical_formula_sum   'Mg6 Sn2'
_cell_volume   181.78847086
_cell_formula_units_Z   2
loop_
 _symmetry_equiv_pos_site_id
 _symmetry_equiv_pos_as_xyz
  1  'x, y, z'
loop_
 _atom_site_type_symbol
 _atom_site_label
 _atom_site_symmetry_multiplicity
 _atom_site_fract_x
 _atom_site_fract_y
 _atom_site_fract_z
 _atom_site_occupancy
  Mg  Mg0  1  0.66871010  0.83421606  0.75000905  1.0
  Mg  Mg1  1  0.16578394  0.83449404  0.75000905  1.0
  Mg  Mg2  1  0.16550596  0.33128990  0.75000905  1.0
  Mg  Mg3  1  0.33128990  0.16578394  0.24999095  1.0
  Mg  Mg4  1  0.83421606  0.16550596  0.24999095  1.0
  Mg  Mg5  1  0.83449404  0.66871010  0.24999095  1.0
  Sn  Sn6  1  0.66666667  0.33333333  0.75000005  1.0
  Sn  Sn7  1  0.33333333  0.66666667  0.24999995  1.0
