# generated using pymatgen
data_KSc(GeO3)2
_symmetry_space_group_name_H-M   'P 1'
_cell_length_a   10.61434936
_cell_length_b   11.15182813
_cell_length_c   5.47888430
_cell_angle_alpha   90.00000000
_cell_angle_beta   105.95375587
_cell_angle_gamma   90.00000000
_symmetry_Int_Tables_number   1
_chemical_formula_structural   KSc(GeO3)2
_chemical_formula_sum   'K4 Sc4 Ge8 O24'
_cell_volume   623.55328259
_cell_formula_units_Z   4
loop_
 _symmetry_equiv_pos_site_id
 _symmetry_equiv_pos_as_xyz
  1  'x, y, z'
loop_
 _atom_site_type_symbol
 _atom_site_label
 _atom_site_symmetry_multiplicity
 _atom_site_fract_x
 _atom_site_fract_y
 _atom_site_fract_z
 _atom_site_occupancy
  K  K0  1  0.25009034  0.15622370  0.50006273  1.0
  K  K1  1  0.25009034  0.34377630  1.00006273  1.0
  K  K2  1  0.74990966  0.65622370  -0.00006273  1.0
  K  K3  1  0.74990966  0.84377630  0.49993727  1.0
  Sc  Sc4  1  0.74991964  0.00199108  -0.00009089  1.0
  Sc  Sc5  1  0.74991964  0.49800892  0.49990911  1.0
  Sc  Sc6  1  0.25008036  0.50199108  0.50009089  1.0
  Sc  Sc7  1  0.25008036  0.99800892  1.00009089  1.0
  Ge  Ge8  1  0.95576350  0.33257020  0.21971606  1.0
  Ge  Ge9  1  0.95576350  0.16742980  0.71971606  1.0
  Ge  Ge10  1  0.04423650  0.83257020  0.28028394  1.0
  Ge  Ge11  1  0.04423650  0.66742980  0.78028394  1.0
  Ge  Ge12  1  0.54446861  0.16739315  0.28098308  1.0
  Ge  Ge13  1  0.54446861  0.33260685  0.78098308  1.0
  Ge  Ge14  1  0.45553139  0.66739315  0.21901692  1.0
  Ge  Ge15  1  0.45553139  0.83260685  0.71901692  1.0
  O  O16  1  0.93263877  0.19654173  0.38393598  1.0
  O  O17  1  0.93263877  0.30345827  0.88393598  1.0
  O  O18  1  0.06736123  0.69654173  0.11606402  1.0
  O  O19  1  0.06736123  0.80345827  0.61606402  1.0
  O  O20  1  0.87856620  0.87496162  0.16671444  1.0
  O  O21  1  0.87856620  0.62503838  0.66671444  1.0
  O  O22  1  0.12143380  0.37496162  0.33328556  1.0
  O  O23  1  0.12143380  0.12503838  0.83328556  1.0
  O  O24  1  0.84483943  0.43912733  0.26115402  1.0
  O  O25  1  0.84483943  0.06087267  0.76115402  1.0
  O  O26  1  0.15516057  0.93912733  0.23884598  1.0
  O  O27  1  0.15516057  0.56087267  0.73884598  1.0
  O  O28  1  0.56749509  0.30346965  0.11674677  1.0
  O  O29  1  0.56749509  0.19653035  0.61674677  1.0
  O  O30  1  0.43250491  0.80346965  0.38325323  1.0
  O  O31  1  0.43250491  0.69653035  0.88325323  1.0
  O  O32  1  0.34460422  0.56089362  0.26064943  1.0
  O  O33  1  0.34460422  -0.06089362  0.76064943  1.0
  O  O34  1  0.65539578  1.06089362  0.23935057  1.0
  O  O35  1  0.65539578  0.43910638  0.73935057  1.0
  O  O36  1  0.37888038  0.12484108  0.16716828  1.0
  O  O37  1  0.37888038  0.37515892  0.66716828  1.0
  O  O38  1  0.62111962  0.62484108  0.33283172  1.0
  O  O39  1  0.62111962  0.87515892  0.83283172  1.0
