# generated using pymatgen
data_Li3Fe2(PO4)3
_symmetry_space_group_name_H-M   'P 1'
_cell_length_a   9.04478143
_cell_length_b   9.04478143
_cell_length_c   9.04478143
_cell_angle_alpha   55.60614315
_cell_angle_beta   55.60614315
_cell_angle_gamma   55.60614315
_symmetry_Int_Tables_number   1
_chemical_formula_structural   Li3Fe2(PO4)3
_chemical_formula_sum   'Li6 Fe4 P6 O24'
_cell_volume   469.86140583
_cell_formula_units_Z   2
loop_
 _symmetry_equiv_pos_site_id
 _symmetry_equiv_pos_as_xyz
  1  'x, y, z'
loop_
 _atom_site_type_symbol
 _atom_site_label
 _atom_site_symmetry_multiplicity
 _atom_site_fract_x
 _atom_site_fract_y
 _atom_site_fract_z
 _atom_site_occupancy
  Li  Li0  1  0.07748132  0.73454264  -0.66769203  1.0
  Li  Li1  1  0.66769203  -0.07748132  0.26545736  1.0
  Li  Li2  1  1.26545736  -0.33230797  -0.07748132  1.0
  Li  Li3  1  0.92251868  0.26545736  -0.33230797  1.0
  Li  Li4  1  0.33230797  0.07748132  -0.26545736  1.0
  Li  Li5  1  0.73454264  0.33230797  -0.92251868  1.0
  P  P6  1  1.24979698  -0.04119245  -0.45741951  1.0
  P  P7  1  0.45741951  -0.24979698  0.04119245  1.0
  P  P8  1  1.04119245  -0.54258049  -0.24979698  1.0
  P  P9  1  0.75020302  0.04119245  -0.54258049  1.0
  P  P10  1  0.54258049  0.24979698  -0.04119245  1.0
  P  P11  1  0.95880755  -0.45741951  0.24979698  1.0
  O  O12  1  0.25200494  0.87334728  -0.85935154  1.0
  O  O13  1  0.85935154  -0.25200494  0.12665272  1.0
  O  O14  1  1.12665272  -0.14064846  -0.25200494  1.0
  O  O15  1  0.74799506  0.12665272  -0.14064846  1.0
  O  O16  1  0.14064846  0.25200494  -0.12665272  1.0
  O  O17  1  0.87334728  0.14064846  -0.74799506  1.0
  O  O18  1  0.19711926  0.99609768  -0.61204140  1.0
  O  O19  1  0.61204140  -0.19711926  0.00390232  1.0
  O  O20  1  1.00390232  -0.38795860  -0.19711926  1.0
  O  O21  1  0.80288074  0.00390232  -0.38795860  1.0
  O  O22  1  0.38795860  0.19711926  -0.00390232  1.0
  O  O23  1  0.99609768  0.38795860  -0.80288074  1.0
  O  O24  1  0.53189816  0.16526582  -0.50578303  1.0
  O  O25  1  0.50578303  0.46810184  -0.16526582  1.0
  O  O26  1  0.83473418  0.50578303  -0.53189816  1.0
  O  O27  1  0.46810184  0.83473418  -0.49421697  1.0
  O  O28  1  0.49421697  0.53189816  -0.83473418  1.0
  O  O29  1  0.16526582  0.49421697  -0.46810184  1.0
  O  O30  1  0.54145267  0.20767566  0.15547076  1.0
  O  O31  1  0.84452924  -0.54145267  -0.20767566  1.0
  O  O32  1  0.79232434  -0.15547076  -0.54145267  1.0
  O  O33  1  0.45854733  -0.20767566  -0.15547076  1.0
  O  O34  1  1.15547076  -0.45854733  0.20767566  1.0
  O  O35  1  1.20767566  0.15547076  -0.45854733  1.0
  Fe  Fe36  1  0.14836448  0.14836448  0.14836448  1.0
  Fe  Fe37  1  0.85163552  -0.14836448  -0.14836448  1.0
  Fe  Fe38  1  0.34985477  0.34985477  -0.65014523  1.0
  Fe  Fe39  1  0.65014523  0.65014523  -0.34985477  1.0
