# generated using pymatgen
data_RbAsSe2
_symmetry_space_group_name_H-M   'P 1'
_cell_length_a   12.93715788
_cell_length_b   12.93715788
_cell_length_c   9.69671357
_cell_angle_alpha   79.17680846
_cell_angle_beta   100.82319154
_cell_angle_gamma   133.61487500
_symmetry_Int_Tables_number   1
_chemical_formula_structural   RbAsSe2
_chemical_formula_sum   'Rb8 As8 Se16'
_cell_volume   1150.21675765
_cell_formula_units_Z   8
loop_
 _symmetry_equiv_pos_site_id
 _symmetry_equiv_pos_as_xyz
  1  'x, y, z'
loop_
 _atom_site_type_symbol
 _atom_site_label
 _atom_site_symmetry_multiplicity
 _atom_site_fract_x
 _atom_site_fract_y
 _atom_site_fract_z
 _atom_site_occupancy
  Rb  Rb0  1  0.72955008  0.12742778  0.17157778  1.0
  Rb  Rb1  1  0.87257222  0.27044992  0.67157778  1.0
  Rb  Rb2  1  1.12742778  0.72955008  0.32842222  1.0
  Rb  Rb3  1  0.27044992  -0.12742778  0.82842222  1.0
  Rb  Rb4  1  1.00083616  1.00083616  0.25000000  1.0
  Rb  Rb5  1  -0.00083616  -0.00083616  0.75000000  1.0
  Rb  Rb6  1  0.53700224  0.53700224  0.25000000  1.0
  Rb  Rb7  1  0.46299776  0.46299776  0.75000000  1.0
  As  As8  1  0.49142477  -0.20545879  0.45873570  1.0
  As  As9  1  1.20545879  0.50857523  0.95873570  1.0
  As  As10  1  0.79454121  0.49142477  0.04126430  1.0
  As  As11  1  0.50857523  0.20545879  0.54126430  1.0
  As  As12  1  0.40859754  0.19017348  0.14872908  1.0
  As  As13  1  0.80982652  0.59140246  0.64872908  1.0
  As  As14  1  1.19017348  0.40859754  0.35127092  1.0
  As  As15  1  0.59140246  -0.19017348  0.85127092  1.0
  Se  Se16  1  0.81029417  0.01855435  0.94308158  1.0
  Se  Se17  1  0.98144565  0.18970583  0.44308158  1.0
  Se  Se18  1  1.01855435  0.81029417  0.55691842  1.0
  Se  Se19  1  0.18970583  -0.01855435  0.05691842  1.0
  Se  Se20  1  0.44160610  -0.25632379  0.03525752  1.0
  Se  Se21  1  1.25632379  0.55839390  0.53525752  1.0
  Se  Se22  1  0.74367621  0.44160610  0.46474248  1.0
  Se  Se23  1  0.55839390  0.25632379  0.96474248  1.0
  Se  Se24  1  0.47907297  0.08836399  0.34325054  1.0
  Se  Se25  1  0.91163601  0.52092703  0.84325054  1.0
  Se  Se26  1  1.08836399  0.47907297  0.15674946  1.0
  Se  Se27  1  0.52092703  -0.08836399  0.65674946  1.0
  Se  Se28  1  0.33976597  0.22596109  0.48929597  1.0
  Se  Se29  1  0.77403891  0.66023403  0.98929597  1.0
  Se  Se30  1  1.22596109  0.33976597  0.01070403  1.0
  Se  Se31  1  0.66023403  -0.22596109  0.51070403  1.0
