# generated using pymatgen
data_NaSi2N3
_symmetry_space_group_name_H-M   'P 1'
_cell_length_a   5.51019801
_cell_length_b   5.51019801
_cell_length_c   4.91493277
_cell_angle_alpha   90.00000000
_cell_angle_beta   90.00000000
_cell_angle_gamma   60.33741884
_symmetry_Int_Tables_number   1
_chemical_formula_structural   NaSi2N3
_chemical_formula_sum   'Na2 Si4 N6'
_cell_volume   129.67290214
_cell_formula_units_Z   2
loop_
 _symmetry_equiv_pos_site_id
 _symmetry_equiv_pos_as_xyz
  1  'x, y, z'
loop_
 _atom_site_type_symbol
 _atom_site_label
 _atom_site_symmetry_multiplicity
 _atom_site_fract_x
 _atom_site_fract_y
 _atom_site_fract_z
 _atom_site_occupancy
  Na  Na0  1  0.16280386  0.83719614  -0.01030125  1.0
  Na  Na1  1  -0.16280386  1.16280386  0.48969875  1.0
  Si  Si2  1  -0.17596536  1.51732874  0.96430337  1.0
  Si  Si3  1  0.51732874  0.82403464  0.46430337  1.0
  Si  Si4  1  -0.51732874  1.17596536  0.96430337  1.0
  Si  Si5  1  0.17596536  0.48267126  0.46430337  1.0
  N  N6  1  0.15515419  0.40585638  0.11688184  1.0
  N  N7  1  -0.59414362  1.15515419  0.61688184  1.0
  N  N8  1  0.59414362  0.84484581  0.11688184  1.0
  N  N9  1  -0.15515419  1.59414362  0.61688184  1.0
  N  N10  1  0.27372042  0.72627958  0.50693083  1.0
  N  N11  1  -0.27372042  1.27372042  0.00693083  1.0
