# generated using pymatgen
data_MnInBr3
_symmetry_space_group_name_H-M   'P 1'
_cell_length_a   9.78355440
_cell_length_b   4.01669323
_cell_length_c   15.48965292
_cell_angle_alpha   90.00000000
_cell_angle_beta   90.00000000
_cell_angle_gamma   90.00000000
_symmetry_Int_Tables_number   1
_chemical_formula_structural   MnInBr3
_chemical_formula_sum   'Mn4 In4 Br12'
_cell_volume   608.70520499
_cell_formula_units_Z   4
loop_
 _symmetry_equiv_pos_site_id
 _symmetry_equiv_pos_as_xyz
  1  'x, y, z'
loop_
 _atom_site_type_symbol
 _atom_site_label
 _atom_site_symmetry_multiplicity
 _atom_site_fract_x
 _atom_site_fract_y
 _atom_site_fract_z
 _atom_site_occupancy
  Mn  Mn0  1  0.84048171  0.75000000  0.44739127  1.0
  Mn  Mn1  1  0.34048171  0.75000000  0.05260873  1.0
  Mn  Mn2  1  0.15951829  0.25000000  0.55260873  1.0
  Mn  Mn3  1  0.65951829  0.25000000  0.94739127  1.0
  In  In4  1  0.51158189  0.75000000  0.67310129  1.0
  In  In5  1  0.01158189  0.75000000  0.82689871  1.0
  In  In6  1  0.48841811  0.25000000  0.32689871  1.0
  In  In7  1  0.98841811  0.25000000  0.17310129  1.0
  Br  Br8  1  0.98058929  0.75000000  0.59984338  1.0
  Br  Br9  1  0.48058929  0.75000000  0.90015662  1.0
  Br  Br10  1  0.01941071  0.25000000  0.40015662  1.0
  Br  Br11  1  0.51941071  0.25000000  0.09984338  1.0
  Br  Br12  1  0.82185615  0.75000000  0.00440178  1.0
  Br  Br13  1  0.32185615  0.75000000  0.49559822  1.0
  Br  Br14  1  0.17814385  0.25000000  0.99559822  1.0
  Br  Br15  1  0.67814385  0.25000000  0.50440178  1.0
  Br  Br16  1  0.73212095  0.75000000  0.29368711  1.0
  Br  Br17  1  0.23212095  0.75000000  0.20631289  1.0
  Br  Br18  1  0.26787905  0.25000000  0.70631289  1.0
  Br  Br19  1  0.76787905  0.25000000  0.79368711  1.0
