# generated using pymatgen
data_Cs2ZnH12(SO7)2
_symmetry_space_group_name_H-M   'P 1'
_cell_length_a   6.47696590
_cell_length_b   12.91871774
_cell_length_c   9.36954556
_cell_angle_alpha   90.00000000
_cell_angle_beta   105.81221673
_cell_angle_gamma   90.00000000
_symmetry_Int_Tables_number   1
_chemical_formula_structural   Cs2ZnH12(SO7)2
_chemical_formula_sum   'Cs4 Zn2 H24 S4 O28'
_cell_volume   754.32205703
_cell_formula_units_Z   2
loop_
 _symmetry_equiv_pos_site_id
 _symmetry_equiv_pos_as_xyz
  1  'x, y, z'
loop_
 _atom_site_type_symbol
 _atom_site_label
 _atom_site_symmetry_multiplicity
 _atom_site_fract_x
 _atom_site_fract_y
 _atom_site_fract_z
 _atom_site_occupancy
  Cs  Cs0  1  0.84999116  0.64488692  0.12667416  1.0
  Cs  Cs1  1  0.84999116  0.85511308  0.62667416  1.0
  Cs  Cs2  1  0.15000884  0.14488692  0.37332584  1.0
  Cs  Cs3  1  0.15000884  0.35511308  0.87332584  1.0
  Zn  Zn4  1  0.50000000  0.50000000  0.50000000  1.0
  Zn  Zn5  1  0.50000000  0.00000000  0.00000000  1.0
  H  H6  1  0.82284780  0.43511827  0.39466096  1.0
  H  H7  1  0.82284780  0.06488173  0.89466096  1.0
  H  H8  1  0.17715220  0.93511827  0.10533904  1.0
  H  H9  1  0.17715220  0.56488173  0.60533904  1.0
  H  H10  1  0.80468451  0.13999223  0.02289173  1.0
  H  H11  1  0.80468451  0.36000777  0.52289173  1.0
  H  H12  1  0.19531549  0.63999223  0.47710827  1.0
  H  H13  1  0.19531549  0.86000777  0.97710827  1.0
  H  H14  1  0.82109453  0.90197937  0.20951746  1.0
  H  H15  1  0.82109453  0.59802063  0.70951746  1.0
  H  H16  1  0.17890547  0.40197937  0.29048254  1.0
  H  H17  1  0.17890547  0.09802063  0.79048254  1.0
  H  H18  1  0.57822010  0.09819791  0.27909593  1.0
  H  H19  1  0.57822010  0.40180209  0.77909593  1.0
  H  H20  1  0.42177990  0.59819791  0.22090407  1.0
  H  H21  1  0.42177990  0.90180209  0.72090407  1.0
  H  H22  1  0.51802465  0.18427086  0.15531696  1.0
  H  H23  1  0.51802465  0.31572914  0.65531696  1.0
  H  H24  1  0.48197535  0.68427086  0.34468304  1.0
  H  H25  1  0.48197535  0.81572914  0.84468304  1.0
  H  H26  1  0.40743316  0.37128289  0.26341514  1.0
  H  H27  1  0.40743316  0.12871711  0.76341514  1.0
  H  H28  1  0.59256684  0.87128289  0.23658486  1.0
  H  H29  1  0.59256684  0.62871711  0.73658486  1.0
  S  S30  1  0.76050087  0.35295225  0.10502374  1.0
  S  S31  1  0.76050087  0.14704775  0.60502374  1.0
  S  S32  1  0.23949913  0.85295225  0.39497626  1.0
  S  S33  1  0.23949913  0.64704775  0.89497626  1.0
  O  O34  1  0.88811321  0.25999320  0.08560813  1.0
  O  O35  1  0.88811321  0.24000680  0.58560813  1.0
  O  O36  1  0.11188679  0.75999320  0.41439187  1.0
  O  O37  1  0.11188679  0.74000680  0.91439187  1.0
  O  O38  1  0.89421318  0.41647593  0.23203941  1.0
  O  O39  1  0.89421318  0.08352407  0.73203941  1.0
  O  O40  1  0.10578682  0.91647593  0.26796059  1.0
  O  O41  1  0.10578682  0.58352407  0.76796059  1.0
  O  O42  1  0.78604581  0.43378626  0.49103506  1.0
  O  O43  1  0.78604581  0.06621374  0.99103506  1.0
  O  O44  1  0.21395419  0.93378626  0.00896494  1.0
  O  O45  1  0.21395419  0.56621374  0.50896494  1.0
  O  O46  1  0.70909092  0.08192846  0.46827243  1.0
  O  O47  1  0.70909092  0.41807154  0.96827243  1.0
  O  O48  1  0.29090908  0.58192846  0.03172757  1.0
  O  O49  1  0.29090908  0.91807154  0.53172757  1.0
  O  O50  1  0.55759673  0.31863962  0.14037250  1.0
  O  O51  1  0.55759673  0.18136038  0.64037250  1.0
  O  O52  1  0.44240327  0.81863962  0.35962750  1.0
  O  O53  1  0.44240327  0.68136038  0.85962750  1.0
  O  O54  1  0.49028958  0.11080153  0.17587906  1.0
  O  O55  1  0.49028958  0.38919847  0.67587906  1.0
  O  O56  1  0.50971042  0.61080153  0.32412094  1.0
  O  O57  1  0.50971042  0.88919847  0.82412094  1.0
  O  O58  1  0.33256813  0.38761602  0.33966884  1.0
  O  O59  1  0.33256813  0.11238398  0.83966884  1.0
  O  O60  1  0.66743187  0.88761602  0.16033116  1.0
  O  O61  1  0.66743187  0.61238398  0.66033116  1.0
