# generated using pymatgen
data_MgP6(HN3)4
_symmetry_space_group_name_H-M   'P 1'
_cell_length_a   4.90186014
_cell_length_b   4.90186014
_cell_length_c   21.72175095
_cell_angle_alpha   90.00000000
_cell_angle_beta   90.00000000
_cell_angle_gamma   59.71701574
_symmetry_Int_Tables_number   1
_chemical_formula_structural   MgP6(HN3)4
_chemical_formula_sum   'Mg2 P12 H8 N24'
_cell_volume   450.71479014
_cell_formula_units_Z   2
loop_
 _symmetry_equiv_pos_site_id
 _symmetry_equiv_pos_as_xyz
  1  'x, y, z'
loop_
 _atom_site_type_symbol
 _atom_site_label
 _atom_site_symmetry_multiplicity
 _atom_site_fract_x
 _atom_site_fract_y
 _atom_site_fract_z
 _atom_site_occupancy
  Mg  Mg0  1  -0.50000000  0.50000000  0.00000000  1.0
  Mg  Mg1  1  0.00000000  0.00000000  0.50000000  1.0
  P  P2  1  -0.90573742  0.90573742  0.78891983  1.0
  P  P3  1  -0.40573742  0.40573742  0.71108017  1.0
  P  P4  1  -0.09426258  0.09426258  0.21108017  1.0
  P  P5  1  -0.59426258  0.59426258  0.28891983  1.0
  P  P6  1  -0.15999130  0.83070803  0.91298571  1.0
  P  P7  1  -0.65999130  1.33070803  0.58701429  1.0
  P  P8  1  -0.16929197  0.84000870  0.08701429  1.0
  P  P9  1  0.33070803  0.34000870  0.41298571  1.0
  P  P10  1  -0.83070803  1.15999130  0.91298571  1.0
  P  P11  1  -0.33070803  0.65999130  0.58701429  1.0
  P  P12  1  0.15999130  0.16929197  0.08701429  1.0
  P  P13  1  -0.34000870  0.66929197  0.41298571  1.0
  H  H14  1  -0.24683689  0.72637850  0.81299184  1.0
  H  H15  1  -0.74683689  1.22637850  0.68700816  1.0
  H  H16  1  -0.27362150  0.75316311  0.18700816  1.0
  H  H17  1  0.22637850  0.25316311  0.31299184  1.0
  H  H18  1  -0.72637850  1.24683689  0.81299184  1.0
  H  H19  1  -0.22637850  0.74683689  0.68700816  1.0
  H  H20  1  0.24683689  0.27362150  0.18700816  1.0
  H  H21  1  -0.25316311  0.77362150  0.31299184  1.0
  N  N22  1  -0.13123573  0.82607567  0.83449298  1.0
  N  N23  1  -0.63123573  1.32607567  0.66550702  1.0
  N  N24  1  -0.17392433  0.86876427  0.16550702  1.0
  N  N25  1  0.32607567  0.36876427  0.33449298  1.0
  N  N26  1  -0.82607567  1.13123573  0.83449298  1.0
  N  N27  1  -0.32607567  0.63123573  0.66550702  1.0
  N  N28  1  0.13123573  0.17392433  0.16550702  1.0
  N  N29  1  -0.36876427  0.67392433  0.33449298  1.0
  N  N30  1  -0.57967208  0.57967208  0.77376556  1.0
  N  N31  1  -0.07967208  0.07967208  0.72623444  1.0
  N  N32  1  -0.42032792  0.42032792  0.22623444  1.0
  N  N33  1  -0.92032792  0.92032792  0.27376556  1.0
  N  N34  1  -0.86903858  0.86903858  0.93774102  1.0
  N  N35  1  -0.36903858  0.36903858  0.56225898  1.0
  N  N36  1  -0.13096142  0.13096142  0.06225898  1.0
  N  N37  1  -0.63096142  0.63096142  0.43774102  1.0
  N  N38  1  -0.13076431  0.49924303  0.93433302  1.0
  N  N39  1  -0.63076431  0.99924303  0.56566698  1.0
  N  N40  1  -0.50075697  0.86923569  0.06566698  1.0
  N  N41  1  -0.00075697  0.36923569  0.43433302  1.0
  N  N42  1  -0.49924303  1.13076431  0.93433302  1.0
  N  N43  1  0.00075697  0.63076431  0.56566698  1.0
  N  N44  1  0.13076431  0.50075697  0.06566698  1.0
  N  N45  1  -0.36923569  1.00075697  0.43433302  1.0
