# generated using pymatgen
data_RbNaEuNbO5
_symmetry_space_group_name_H-M   'P 1'
_cell_length_a   5.78499081
_cell_length_b   5.78499081
_cell_length_c   8.39856620
_cell_angle_alpha   90.00000000
_cell_angle_beta   90.00000000
_cell_angle_gamma   90.00000000
_symmetry_Int_Tables_number   1
_chemical_formula_structural   RbNaEuNbO5
_chemical_formula_sum   'Rb2 Na2 Eu2 Nb2 O10'
_cell_volume   281.06741262
_cell_formula_units_Z   2
loop_
 _symmetry_equiv_pos_site_id
 _symmetry_equiv_pos_as_xyz
  1  'x, y, z'
loop_
 _atom_site_type_symbol
 _atom_site_label
 _atom_site_symmetry_multiplicity
 _atom_site_fract_x
 _atom_site_fract_y
 _atom_site_fract_z
 _atom_site_occupancy
  Rb  Rb0  1  0.00000000  0.00000000  0.00000000  1.0
  Rb  Rb1  1  0.50000000  0.50000000  0.00000000  1.0
  Na  Na2  1  0.50000000  0.00000000  0.75638181  1.0
  Na  Na3  1  0.00000000  0.50000000  0.24361819  1.0
  Eu  Eu4  1  0.00000000  0.00000000  0.50000000  1.0
  Eu  Eu5  1  0.50000000  0.50000000  0.50000000  1.0
  Nb  Nb6  1  0.50000000  0.00000000  0.26342124  1.0
  Nb  Nb7  1  0.00000000  0.50000000  0.73657876  1.0
  O  O8  1  0.72978240  0.22978240  0.33290837  1.0
  O  O9  1  0.72978240  0.77021760  0.33290837  1.0
  O  O10  1  0.22978240  0.72978240  0.66709163  1.0
  O  O11  1  0.22978240  0.27021760  0.66709163  1.0
  O  O12  1  0.77021760  0.72978240  0.66709163  1.0
  O  O13  1  0.77021760  0.27021760  0.66709163  1.0
  O  O14  1  0.27021760  0.22978240  0.33290837  1.0
  O  O15  1  0.27021760  0.77021760  0.33290837  1.0
  O  O16  1  0.50000000  0.00000000  0.04277335  1.0
  O  O17  1  0.00000000  0.50000000  0.95722665  1.0
