# generated using pymatgen
data_Cu9S5
_symmetry_space_group_name_H-M   'P 1'
_cell_length_a   16.37007383
_cell_length_b   16.37007383
_cell_length_c   16.37007383
_cell_angle_alpha   13.62113341
_cell_angle_beta   13.62113341
_cell_angle_gamma   13.62113341
_symmetry_Int_Tables_number   1
_chemical_formula_structural   Cu9S5
_chemical_formula_sum   'Cu9 S5'
_cell_volume   211.69329313
_cell_formula_units_Z   1
loop_
 _symmetry_equiv_pos_site_id
 _symmetry_equiv_pos_as_xyz
  1  'x, y, z'
loop_
 _atom_site_type_symbol
 _atom_site_label
 _atom_site_symmetry_multiplicity
 _atom_site_fract_x
 _atom_site_fract_y
 _atom_site_fract_z
 _atom_site_occupancy
  Cu  Cu0  1  0.94921145  0.94921145  0.94921145  1.0
  Cu  Cu1  1  1.05078855  1.05078855  0.05078855  1.0
  Cu  Cu2  1  0.86177778  0.86177778  0.86177778  1.0
  Cu  Cu3  1  1.13822222  1.13822222  0.13822222  1.0
  Cu  Cu4  1  0.75145451  0.75145451  0.75145451  1.0
  Cu  Cu5  1  1.24854549  1.24854549  0.24854549  1.0
  Cu  Cu6  1  1.64798653  0.64798653  0.64798653  1.0
  Cu  Cu7  1  1.35201347  0.35201347  0.35201347  1.0
  Cu  Cu8  1  1.50000000  0.50000000  0.50000000  1.0
  S  S9  1  0.79805763  0.79805763  0.79805763  1.0
  S  S10  1  1.20194237  1.20194237  0.20194237  1.0
  S  S11  1  1.60012975  0.60012975  0.60012975  1.0
  S  S12  1  1.39987025  0.39987025  0.39987025  1.0
  S  S13  1  0.00000000  0.00000000  0.00000000  1.0
