# generated using pymatgen
data_Cs2Sn(HO2)6
_symmetry_space_group_name_H-M   'P 1'
_cell_length_a   7.88172167
_cell_length_b   7.88172167
_cell_length_c   5.11065791
_cell_angle_alpha   90.00000000
_cell_angle_beta   90.00000000
_cell_angle_gamma   120.00000000
_symmetry_Int_Tables_number   1
_chemical_formula_structural   Cs2Sn(HO2)6
_chemical_formula_sum   'Cs2 Sn1 H6 O12'
_cell_volume   274.94740992
_cell_formula_units_Z   1
loop_
 _symmetry_equiv_pos_site_id
 _symmetry_equiv_pos_as_xyz
  1  'x, y, z'
loop_
 _atom_site_type_symbol
 _atom_site_label
 _atom_site_symmetry_multiplicity
 _atom_site_fract_x
 _atom_site_fract_y
 _atom_site_fract_z
 _atom_site_occupancy
  Cs  Cs0  1  0.33333333  0.66666667  0.07706678  1.0
  Cs  Cs1  1  0.66666667  0.33333333  0.92293322  1.0
  Sn  Sn2  1  0.00000000  0.00000000  0.00000000  1.0
  H  H3  1  0.72632326  0.71734206  0.50088680  1.0
  H  H4  1  0.71734206  0.99101880  0.49911320  1.0
  H  H5  1  0.99101880  0.27367674  0.50088680  1.0
  H  H6  1  0.28265794  0.00898120  0.50088680  1.0
  H  H7  1  0.27367674  0.28265794  0.49911320  1.0
  H  H8  1  0.00898120  0.72632326  0.49911320  1.0
  O  O9  1  0.91043176  0.74136749  0.22900039  1.0
  O  O10  1  0.74136749  0.83093573  0.77099961  1.0
  O  O11  1  0.83093573  0.08956824  0.22900039  1.0
  O  O12  1  0.25863251  0.16906427  0.22900039  1.0
  O  O13  1  0.08956824  0.25863251  0.77099961  1.0
  O  O14  1  0.16906427  0.91043176  0.77099961  1.0
  O  O15  1  0.70742598  0.65437909  0.32197287  1.0
  O  O16  1  0.65437909  0.94695311  0.67802713  1.0
  O  O17  1  0.94695311  0.29257402  0.32197287  1.0
  O  O18  1  0.34562091  0.05304689  0.32197287  1.0
  O  O19  1  0.29257402  0.34562091  0.67802713  1.0
  O  O20  1  0.05304689  0.70742598  0.67802713  1.0
