# generated using pymatgen
data_BiSb7
_symmetry_space_group_name_H-M   'P 1'
_cell_length_a   6.37642499
_cell_length_b   4.39263836
_cell_length_c   9.26186944
_cell_angle_alpha   90.00000000
_cell_angle_beta   93.79700465
_cell_angle_gamma   90.00000000
_symmetry_Int_Tables_number   1
_chemical_formula_structural   BiSb7
_chemical_formula_sum   'Bi1 Sb7'
_cell_volume   258.84930656
_cell_formula_units_Z   1
loop_
 _symmetry_equiv_pos_site_id
 _symmetry_equiv_pos_as_xyz
  1  'x, y, z'
loop_
 _atom_site_type_symbol
 _atom_site_label
 _atom_site_symmetry_multiplicity
 _atom_site_fract_x
 _atom_site_fract_y
 _atom_site_fract_z
 _atom_site_occupancy
  Bi  Bi0  1  0.92573870  0.50000000  0.77973831  1.0
  Sb  Sb1  1  0.93020866  0.50000000  0.28301596  1.0
  Sb  Sb2  1  0.39443659  0.50000000  0.31534612  1.0
  Sb  Sb3  1  0.89141081  0.00000000  0.55630046  1.0
  Sb  Sb4  1  0.43261070  0.00000000  0.03162349  1.0
  Sb  Sb5  1  0.89567587  0.00000000  0.07002359  1.0
  Sb  Sb6  1  0.42844048  0.00000000  0.52827126  1.0
  Sb  Sb7  1  0.40347818  0.50000000  0.81868081  1.0
