# generated using pymatgen
data_Ba3Gd(BO3)3
_symmetry_space_group_name_H-M   'P 1'
_cell_length_a   8.23200580
_cell_length_b   8.23200580
_cell_length_c   8.23200580
_cell_angle_alpha   105.53158855
_cell_angle_beta   105.53158855
_cell_angle_gamma   105.53158855
_symmetry_Int_Tables_number   1
_chemical_formula_structural   Ba3Gd(BO3)3
_chemical_formula_sum   'Ba6 Gd2 B6 O18'
_cell_volume   481.98316014
_cell_formula_units_Z   2
loop_
 _symmetry_equiv_pos_site_id
 _symmetry_equiv_pos_as_xyz
  1  'x, y, z'
loop_
 _atom_site_type_symbol
 _atom_site_label
 _atom_site_symmetry_multiplicity
 _atom_site_fract_x
 _atom_site_fract_y
 _atom_site_fract_z
 _atom_site_occupancy
  Ba  Ba0  1  0.76509210  0.65679615  0.14945888  1.0
  Ba  Ba1  1  1.34320385  -0.14945888  0.23490790  1.0
  Ba  Ba2  1  0.85054112  0.23490790  0.34320385  1.0
  Ba  Ba3  1  1.23490790  0.34320385  -0.14945888  1.0
  Ba  Ba4  1  0.65679615  1.14945888  -0.23490790  1.0
  Ba  Ba5  1  1.14945888  0.76509210  -0.34320385  1.0
  Gd  Gd6  1  0.50000000  0.50000000  0.50000000  1.0
  Gd  Gd7  1  0.00000000  0.00000000  0.00000000  1.0
  B  B8  1  1.54128506  0.79118691  -0.12246921  1.0
  B  B9  1  1.20881309  0.12246921  -0.54128506  1.0
  B  B10  1  1.12246921  -0.54128506  0.20881309  1.0
  B  B11  1  0.45871494  0.20881309  0.12246921  1.0
  B  B12  1  0.79118691  0.87753079  0.54128506  1.0
  B  B13  1  0.87753079  1.54128506  -0.20881309  1.0
  O  O14  1  1.48416273  0.76058401  -0.30775073  1.0
  O  O15  1  1.23941599  0.30775073  -0.48416273  1.0
  O  O16  1  1.30775073  -0.48416273  0.23941599  1.0
  O  O17  1  0.51583727  0.23941599  0.30775073  1.0
  O  O18  1  0.76058401  0.69224927  0.48416273  1.0
  O  O19  1  0.69224927  1.48416273  -0.23941599  1.0
  O  O20  1  1.70816674  0.92835712  -0.00730394  1.0
  O  O21  1  1.07164288  0.00730394  -0.70816674  1.0
  O  O22  1  1.00730394  -0.70816674  0.07164288  1.0
  O  O23  1  0.29183326  0.07164288  0.00730394  1.0
  O  O24  1  0.92835712  0.99269606  0.70816674  1.0
  O  O25  1  0.99269606  1.70816674  -0.07164288  1.0
  O  O26  1  0.56548985  0.30671795  0.05240324  1.0
  O  O27  1  0.69328205  0.94759676  0.43451015  1.0
  O  O28  1  0.94759676  1.43451015  -0.30671795  1.0
  O  O29  1  1.43451015  0.69328205  -0.05240324  1.0
  O  O30  1  1.30671795  0.05240324  -0.43451015  1.0
  O  O31  1  1.05240324  -0.43451015  0.30671795  1.0
