# generated using pymatgen
data_Sr6YB6RhO18
_symmetry_space_group_name_H-M   'P 1'
_cell_length_a   7.77476017
_cell_length_b   7.77476017
_cell_length_c   7.77476017
_cell_angle_alpha   105.55312346
_cell_angle_beta   105.55312346
_cell_angle_gamma   105.55312346
_symmetry_Int_Tables_number   1
_chemical_formula_structural   Sr6YB6RhO18
_chemical_formula_sum   'Sr6 Y1 B6 Rh1 O18'
_cell_volume   405.84578320
_cell_formula_units_Z   1
loop_
 _symmetry_equiv_pos_site_id
 _symmetry_equiv_pos_as_xyz
  1  'x, y, z'
loop_
 _atom_site_type_symbol
 _atom_site_label
 _atom_site_symmetry_multiplicity
 _atom_site_fract_x
 _atom_site_fract_y
 _atom_site_fract_z
 _atom_site_occupancy
  Sr  Sr0  1  0.77053803  0.66562845  0.15317144  1.0
  Sr  Sr1  1  1.33437155  -0.15317144  0.22946197  1.0
  Sr  Sr2  1  0.84682856  0.22946197  0.33437155  1.0
  Sr  Sr3  1  1.22946197  0.33437155  -0.15317144  1.0
  Sr  Sr4  1  0.66562845  1.15317144  -0.22946197  1.0
  Sr  Sr5  1  1.15317144  0.77053803  -0.33437155  1.0
  Y  Y6  1  0.50000000  0.50000000  0.50000000  1.0
  B  B7  1  1.54860984  0.79429721  -0.11972833  1.0
  B  B8  1  1.20570279  0.11972833  -0.54860984  1.0
  B  B9  1  1.11972833  -0.54860984  0.20570279  1.0
  B  B10  1  0.45139016  0.20570279  0.11972833  1.0
  B  B11  1  0.79429721  0.88027167  0.54860984  1.0
  B  B12  1  0.88027167  1.54860984  -0.20570279  1.0
  Rh  Rh13  1  0.00000000  0.00000000  0.00000000  1.0
  O  O14  1  0.72758498  0.92849207  0.01307245  1.0
  O  O15  1  1.07150793  -0.01307245  -0.72758498  1.0
  O  O16  1  0.98692755  -0.72758498  0.07150793  1.0
  O  O17  1  0.27241502  0.07150793  -0.01307245  1.0
  O  O18  1  0.92849207  1.01307245  -0.27241502  1.0
  O  O19  1  1.01307245  0.72758498  -0.07150793  1.0
  O  O20  1  1.49172697  0.77679288  -0.31104520  1.0
  O  O21  1  1.22320712  0.31104520  -0.49172697  1.0
  O  O22  1  1.31104520  -0.49172697  0.22320712  1.0
  O  O23  1  0.50827303  0.22320712  0.31104520  1.0
  O  O24  1  0.77679288  0.68895480  0.49172697  1.0
  O  O25  1  0.68895480  1.49172697  -0.22320712  1.0
  O  O26  1  0.57230658  0.30703330  0.05177194  1.0
  O  O27  1  0.69296670  0.94822806  0.42769342  1.0
  O  O28  1  0.94822806  1.42769342  -0.30703330  1.0
  O  O29  1  1.42769342  0.69296670  -0.05177194  1.0
  O  O30  1  1.30703330  0.05177194  -0.42769342  1.0
  O  O31  1  1.05177194  -0.42769342  0.30703330  1.0
