# generated using pymatgen
data_Ca3Al7Ag2
_symmetry_space_group_name_H-M   'P 1'
_cell_length_a   9.50593755
_cell_length_b   9.50593755
_cell_length_c   9.50593755
_cell_angle_alpha   34.52826662
_cell_angle_beta   34.52826662
_cell_angle_gamma   34.52826662
_symmetry_Int_Tables_number   1
_chemical_formula_structural   Ca3Al7Ag2
_chemical_formula_sum   'Ca3 Al7 Ag2'
_cell_volume   246.21222113
_cell_formula_units_Z   1
loop_
 _symmetry_equiv_pos_site_id
 _symmetry_equiv_pos_as_xyz
  1  'x, y, z'
loop_
 _atom_site_type_symbol
 _atom_site_label
 _atom_site_symmetry_multiplicity
 _atom_site_fract_x
 _atom_site_fract_y
 _atom_site_fract_z
 _atom_site_occupancy
  Ca  Ca0  1  0.85700957  0.85700957  0.85700957  1.0
  Ca  Ca1  1  1.14299043  1.14299043  0.14299043  1.0
  Ca  Ca2  1  0.00000000  0.00000000  0.00000000  1.0
  Al  Al3  1  1.41462212  0.41462212  0.92359228  1.0
  Al  Al4  1  1.41462212  0.92359228  0.41462212  1.0
  Al  Al5  1  1.07640772  0.58537788  0.58537788  1.0
  Al  Al6  1  1.58537788  0.07640772  0.58537788  1.0
  Al  Al7  1  1.58537788  0.58537788  0.07640772  1.0
  Al  Al8  1  1.92359228  0.41462212  0.41462212  1.0
  Al  Al9  1  1.50000000  0.50000000  0.50000000  1.0
  Ag  Ag10  1  1.66438968  0.66438968  0.66438968  1.0
  Ag  Ag11  1  1.33561032  0.33561032  0.33561032  1.0
