# generated using pymatgen
data_ZrGa
_symmetry_space_group_name_H-M   'P 1'
_cell_length_a   10.63108427
_cell_length_b   10.63108427
_cell_length_c   10.63108427
_cell_angle_alpha   158.92372905
_cell_angle_beta   158.92372905
_cell_angle_gamma   29.97940249
_symmetry_Int_Tables_number   1
_chemical_formula_structural   ZrGa
_chemical_formula_sum   'Zr4 Ga4'
_cell_volume   155.28765962
_cell_formula_units_Z   4
loop_
 _symmetry_equiv_pos_site_id
 _symmetry_equiv_pos_as_xyz
  1  'x, y, z'
loop_
 _atom_site_type_symbol
 _atom_site_label
 _atom_site_symmetry_multiplicity
 _atom_site_fract_x
 _atom_site_fract_y
 _atom_site_fract_z
 _atom_site_occupancy
  Zr  Zr0  1  0.94694231  0.44694231  0.50000000  1.0
  Zr  Zr1  1  0.80305769  0.80305769  1.00000000  1.0
  Zr  Zr2  1  0.55305769  0.05305769  0.50000000  1.0
  Zr  Zr3  1  0.19694231  0.19694231  -0.00000000  1.0
  Ga  Ga4  1  0.08461415  0.58461415  0.50000000  1.0
  Ga  Ga5  1  0.66538585  0.66538585  1.00000000  1.0
  Ga  Ga6  1  0.41538585  0.91538585  0.50000000  1.0
  Ga  Ga7  1  0.33461415  0.33461415  0.00000000  1.0
