# generated using pymatgen
data_NbFeP
_symmetry_space_group_name_H-M   'P 1'
_cell_length_a   6.14680411
_cell_length_b   3.59384519
_cell_length_c   6.95207245
_cell_angle_alpha   90.00000000
_cell_angle_beta   90.00000000
_cell_angle_gamma   90.00000000
_symmetry_Int_Tables_number   1
_chemical_formula_structural   NbFeP
_chemical_formula_sum   'Nb4 Fe4 P4'
_cell_volume   153.57588534
_cell_formula_units_Z   4
loop_
 _symmetry_equiv_pos_site_id
 _symmetry_equiv_pos_as_xyz
  1  'x, y, z'
loop_
 _atom_site_type_symbol
 _atom_site_label
 _atom_site_symmetry_multiplicity
 _atom_site_fract_x
 _atom_site_fract_y
 _atom_site_fract_z
 _atom_site_occupancy
  Nb  Nb0  1  0.02192442  0.25000000  0.82350025  1.0
  Nb  Nb1  1  0.52192442  0.25000000  0.67649975  1.0
  Nb  Nb2  1  0.97807558  0.75000000  0.17649975  1.0
  Nb  Nb3  1  0.47807558  0.75000000  0.32350025  1.0
  Fe  Fe4  1  0.14149997  0.25000000  0.43775858  1.0
  Fe  Fe5  1  0.64149997  0.25000000  0.06224142  1.0
  Fe  Fe6  1  0.85850003  0.75000000  0.56224142  1.0
  Fe  Fe7  1  0.35850003  0.75000000  0.93775858  1.0
  P  P8  1  0.77783061  0.25000000  0.38122855  1.0
  P  P9  1  0.27783061  0.25000000  0.11877145  1.0
  P  P10  1  0.22216939  0.75000000  0.61877145  1.0
  P  P11  1  0.72216939  0.75000000  0.88122855  1.0
