# generated using pymatgen
data_Rb3Cu5O4
_symmetry_space_group_name_H-M   'P 1'
_cell_length_a   9.96400225
_cell_length_b   7.56022225
_cell_length_c   14.56508270
_cell_angle_alpha   90.00000000
_cell_angle_beta   106.39416503
_cell_angle_gamma   90.00000000
_symmetry_Int_Tables_number   1
_chemical_formula_structural   Rb3Cu5O4
_chemical_formula_sum   'Rb12 Cu20 O16'
_cell_volume   1052.58001597
_cell_formula_units_Z   4
loop_
 _symmetry_equiv_pos_site_id
 _symmetry_equiv_pos_as_xyz
  1  'x, y, z'
loop_
 _atom_site_type_symbol
 _atom_site_label
 _atom_site_symmetry_multiplicity
 _atom_site_fract_x
 _atom_site_fract_y
 _atom_site_fract_z
 _atom_site_occupancy
  Rb  Rb0  1  0.82548801  0.09259655  0.39483612  1.0
  Rb  Rb1  1  0.82548801  0.40740345  0.89483612  1.0
  Rb  Rb2  1  0.17451199  0.59259655  0.10516388  1.0
  Rb  Rb3  1  0.17451199  0.90740345  0.60516388  1.0
  Rb  Rb4  1  0.60081330  0.33599933  0.09276662  1.0
  Rb  Rb5  1  0.60081330  0.16400067  0.59276662  1.0
  Rb  Rb6  1  0.39918670  0.83599933  0.40723338  1.0
  Rb  Rb7  1  0.39918670  0.66400067  0.90723338  1.0
  Rb  Rb8  1  0.22673506  0.29226244  0.41777141  1.0
  Rb  Rb9  1  0.22673506  0.20773756  0.91777141  1.0
  Rb  Rb10  1  0.77326494  0.79226244  0.08222859  1.0
  Rb  Rb11  1  0.77326494  0.70773756  0.58222859  1.0
  Cu  Cu12  1  0.93189606  0.46104064  0.23252575  1.0
  Cu  Cu13  1  0.93189606  0.03895936  0.73252575  1.0
  Cu  Cu14  1  0.06810394  0.96104064  0.26747425  1.0
  Cu  Cu15  1  0.06810394  0.53895936  0.76747425  1.0
  Cu  Cu16  1  0.96180816  0.20946699  0.12261824  1.0
  Cu  Cu17  1  0.96180816  0.29053301  0.62261824  1.0
  Cu  Cu18  1  0.03819184  0.70946699  0.37738176  1.0
  Cu  Cu19  1  0.03819184  0.79053301  0.87738176  1.0
  Cu  Cu20  1  0.79788249  0.93823575  0.86262694  1.0
  Cu  Cu21  1  0.79788249  0.56176425  0.36262694  1.0
  Cu  Cu22  1  0.20211751  0.43823575  0.63737306  1.0
  Cu  Cu23  1  0.20211751  0.06176425  0.13737306  1.0
  Cu  Cu24  1  0.56379324  0.41588258  0.37692807  1.0
  Cu  Cu25  1  0.56379324  0.08411742  0.87692807  1.0
  Cu  Cu26  1  0.43620676  0.91588258  0.12307193  1.0
  Cu  Cu27  1  0.43620676  0.58411742  0.62307193  1.0
  Cu  Cu28  1  0.43880573  0.16870653  0.25872795  1.0
  Cu  Cu29  1  0.43880573  0.33129347  0.75872795  1.0
  Cu  Cu30  1  0.56119427  0.66870653  0.24127205  1.0
  Cu  Cu31  1  0.56119427  0.83129347  0.74127205  1.0
  O  O32  1  0.97254857  0.47788448  0.36396281  1.0
  O  O33  1  0.97254857  0.02211552  0.86396281  1.0
  O  O34  1  0.02745143  0.97788448  0.13603719  1.0
  O  O35  1  0.02745143  0.52211552  0.63603719  1.0
  O  O36  1  0.89329009  0.43556190  0.10242195  1.0
  O  O37  1  0.89329009  0.06443810  0.60242195  1.0
  O  O38  1  0.10670991  0.93556190  0.39757805  1.0
  O  O39  1  0.10670991  0.56443810  0.89757805  1.0
  O  O40  1  0.50416584  0.19111211  0.38873074  1.0
  O  O41  1  0.50416584  0.30888789  0.88873074  1.0
  O  O42  1  0.49583416  0.69111211  0.11126926  1.0
  O  O43  1  0.49583416  0.80888789  0.61126926  1.0
  O  O44  1  0.37167871  0.14664352  0.12592031  1.0
  O  O45  1  0.37167871  0.35335648  0.62592031  1.0
  O  O46  1  0.62832129  0.64664352  0.37407969  1.0
  O  O47  1  0.62832129  0.85335648  0.87407969  1.0
