# generated using pymatgen
data_Zn3BPO7
_symmetry_space_group_name_H-M   'P 1'
_cell_length_a   8.15305463
_cell_length_b   8.15305463
_cell_length_c   4.96569135
_cell_angle_alpha   72.52839128
_cell_angle_beta   107.47160872
_cell_angle_gamma   74.19538801
_symmetry_Int_Tables_number   1
_chemical_formula_structural   Zn3BPO7
_chemical_formula_sum   'Zn6 B2 P2 O14'
_cell_volume   275.46251666
_cell_formula_units_Z   2
loop_
 _symmetry_equiv_pos_site_id
 _symmetry_equiv_pos_as_xyz
  1  'x, y, z'
loop_
 _atom_site_type_symbol
 _atom_site_label
 _atom_site_symmetry_multiplicity
 _atom_site_fract_x
 _atom_site_fract_y
 _atom_site_fract_z
 _atom_site_occupancy
  Zn  Zn0  1  0.78825516  -0.29135525  0.09062801  1.0
  Zn  Zn1  1  1.29135525  0.21174484  0.09062801  1.0
  Zn  Zn2  1  1.23787558  0.54431347  0.39341793  1.0
  Zn  Zn3  1  0.45568653  -0.23787558  0.39341793  1.0
  Zn  Zn4  1  1.00600891  0.26210813  0.40164041  1.0
  Zn  Zn5  1  0.73789187  -0.00600891  0.40164041  1.0
  B  B6  1  0.99669147  -0.41988088  0.75902950  1.0
  B  B7  1  1.41988088  0.00330853  0.75902950  1.0
  P  P8  1  -0.00244736  0.00244736  0.00420096  1.0
  P  P9  1  0.54571068  -0.54571068  0.09316248  1.0
  O  O10  1  0.84151911  -0.27410641  0.71653953  1.0
  O  O11  1  1.27410641  0.15848089  0.71653953  1.0
  O  O12  1  0.74316827  -0.54304198  0.13464591  1.0
  O  O13  1  1.54304198  0.25683173  0.13464591  1.0
  O  O14  1  1.01435168  0.55007887  0.50551227  1.0
  O  O15  1  0.44992113  -0.01435168  0.50551227  1.0
  O  O16  1  1.13174499  0.45819847  0.05672585  1.0
  O  O17  1  0.54180153  -0.13174499  0.05672585  1.0
  O  O18  1  1.04503423  0.15336304  0.10049747  1.0
  O  O19  1  0.84663696  -0.04503423  0.10049747  1.0
  O  O20  1  0.17825852  -0.17825852  0.14425350  1.0
  O  O21  1  0.40177892  -0.40177892  0.75755006  1.0
  O  O22  1  0.49279226  -0.49279226  0.34160678  1.0
  O  O23  1  0.91833504  -0.91833504  0.64185248  1.0
