# generated using pymatgen
data_LiEu2RuO6
_symmetry_space_group_name_H-M   'P 1'
_cell_length_a   5.46890527
_cell_length_b   5.73396239
_cell_length_c   9.41392953
_cell_angle_alpha   90.00000000
_cell_angle_beta   125.12071525
_cell_angle_gamma   90.00000000
_symmetry_Int_Tables_number   1
_chemical_formula_structural   LiEu2RuO6
_chemical_formula_sum   'Li2 Eu4 Ru2 O12'
_cell_volume   241.46187653
_cell_formula_units_Z   2
loop_
 _symmetry_equiv_pos_site_id
 _symmetry_equiv_pos_as_xyz
  1  'x, y, z'
loop_
 _atom_site_type_symbol
 _atom_site_label
 _atom_site_symmetry_multiplicity
 _atom_site_fract_x
 _atom_site_fract_y
 _atom_site_fract_z
 _atom_site_occupancy
  Li  Li0  1  0.50000000  0.50000000  0.00000000  1.0
  Li  Li1  1  0.50000000  0.00000000  0.50000000  1.0
  Eu  Eu2  1  0.73647342  0.06286259  0.24805981  1.0
  Eu  Eu3  1  0.73647342  0.43713741  0.74805981  1.0
  Eu  Eu4  1  0.26352658  0.56286259  0.25194019  1.0
  Eu  Eu5  1  0.26352658  0.93713741  0.75194019  1.0
  Ru  Ru6  1  -0.00000000  0.50000000  0.50000000  1.0
  Ru  Ru7  1  0.00000000  0.00000000  0.00000000  1.0
  O  O8  1  0.84993485  0.46948207  0.25674164  1.0
  O  O9  1  0.84993485  0.03051793  0.75674164  1.0
  O  O10  1  0.15006515  0.96948207  0.24325836  1.0
  O  O11  1  0.15006515  0.53051793  0.74325836  1.0
  O  O12  1  0.77037953  0.78784669  0.45020647  1.0
  O  O13  1  0.77037953  0.71215331  0.95020647  1.0
  O  O14  1  0.22962047  0.28784669  0.04979353  1.0
  O  O15  1  0.22962047  0.21215331  0.54979353  1.0
  O  O16  1  0.66104633  0.31671771  0.45507920  1.0
  O  O17  1  0.66104633  0.18328229  0.95507920  1.0
  O  O18  1  0.33895367  0.81671771  0.04492080  1.0
  O  O19  1  0.33895367  0.68328229  0.54492080  1.0
