# generated using pymatgen
data_Li2SiS3
_symmetry_space_group_name_H-M   'P 1'
_cell_length_a   6.75622826
_cell_length_b   6.75622826
_cell_length_c   6.01577940
_cell_angle_alpha   90.00000000
_cell_angle_beta   90.00000000
_cell_angle_gamma   60.44622194
_symmetry_Int_Tables_number   1
_chemical_formula_structural   Li2SiS3
_chemical_formula_sum   'Li4 Si2 S6'
_cell_volume   238.87264925
_cell_formula_units_Z   2
loop_
 _symmetry_equiv_pos_site_id
 _symmetry_equiv_pos_as_xyz
  1  'x, y, z'
loop_
 _atom_site_type_symbol
 _atom_site_label
 _atom_site_symmetry_multiplicity
 _atom_site_fract_x
 _atom_site_fract_y
 _atom_site_fract_z
 _atom_site_occupancy
  Li  Li0  1  -0.18060129  1.51104997  0.01021672  1.0
  Li  Li1  1  0.51104997  0.81939871  0.51021672  1.0
  Li  Li2  1  -0.51104997  1.18060129  0.01021672  1.0
  Li  Li3  1  0.18060129  0.48895003  0.51021672  1.0
  Si  Si4  1  0.16429409  0.83570591  -0.00379844  1.0
  Si  Si5  1  -0.16429409  1.16429409  0.49620156  1.0
  S  S6  1  -0.15549033  1.45940007  0.40989129  1.0
  S  S7  1  0.45940007  0.84450967  0.90989129  1.0
  S  S8  1  -0.45940007  1.15549033  0.40989129  1.0
  S  S9  1  0.15549033  0.54059993  0.90989129  1.0
  S  S10  1  0.13964134  0.86035866  0.36838242  1.0
  S  S11  1  -0.13964134  1.13964134  0.86838242  1.0
