# generated using pymatgen
data_V4As3
_symmetry_space_group_name_H-M   'P 1'
_cell_length_a   7.13228294
_cell_length_b   7.13228294
_cell_length_c   9.09334777
_cell_angle_alpha   79.52509919
_cell_angle_beta   100.47490081
_cell_angle_gamma   152.71271434
_symmetry_Int_Tables_number   1
_chemical_formula_structural   V4As3
_chemical_formula_sum   'V8 As6'
_cell_volume   208.32370752
_cell_formula_units_Z   2
loop_
 _symmetry_equiv_pos_site_id
 _symmetry_equiv_pos_as_xyz
  1  'x, y, z'
loop_
 _atom_site_type_symbol
 _atom_site_label
 _atom_site_symmetry_multiplicity
 _atom_site_fract_x
 _atom_site_fract_y
 _atom_site_fract_z
 _atom_site_occupancy
  V  V0  1  0.77378532  0.22621468  0.81076572  1.0
  V  V1  1  0.22621468  -0.22621468  0.18923428  1.0
  V  V2  1  0.66319002  0.33680998  0.44788515  1.0
  V  V3  1  0.33680998  -0.33680998  0.55211485  1.0
  V  V4  1  0.55944695  0.44055305  0.72829152  1.0
  V  V5  1  0.44055305  -0.44055305  0.27170848  1.0
  V  V6  1  -0.00000000  0.00000000  0.50000000  1.0
  V  V7  1  0.00000000  0.00000000  0.00000000  1.0
  As  As8  1  0.92920583  0.07079417  0.73289049  1.0
  As  As9  1  0.07079417  -0.07079417  0.26710951  1.0
  As  As10  1  0.82489803  0.17510197  0.34610239  1.0
  As  As11  1  0.17510197  -0.17510197  0.65389761  1.0
  As  As12  1  0.64289794  0.35710206  0.99264362  1.0
  As  As13  1  0.35710206  -0.35710206  0.00735638  1.0
