# generated using pymatgen
data_Ca3Cd2
_symmetry_space_group_name_H-M   'P 1'
_cell_length_a   8.85743826
_cell_length_b   8.85743826
_cell_length_c   8.01290454
_cell_angle_alpha   90.00000000
_cell_angle_beta   90.00000000
_cell_angle_gamma   90.00000000
_symmetry_Int_Tables_number   1
_chemical_formula_structural   Ca3Cd2
_chemical_formula_sum   'Ca12 Cd8'
_cell_volume   628.64611559
_cell_formula_units_Z   4
loop_
 _symmetry_equiv_pos_site_id
 _symmetry_equiv_pos_as_xyz
  1  'x, y, z'
loop_
 _atom_site_type_symbol
 _atom_site_label
 _atom_site_symmetry_multiplicity
 _atom_site_fract_x
 _atom_site_fract_y
 _atom_site_fract_z
 _atom_site_occupancy
  Ca  Ca0  1  0.19836345  0.80163655  0.23911602  1.0
  Ca  Ca1  1  0.69836345  0.69836345  0.73911602  1.0
  Ca  Ca2  1  0.80163655  0.19836345  0.23911602  1.0
  Ca  Ca3  1  0.30163655  0.30163655  0.73911602  1.0
  Ca  Ca4  1  0.14571534  0.85428466  0.73918485  1.0
  Ca  Ca5  1  0.64571534  0.64571534  0.23918485  1.0
  Ca  Ca6  1  0.85428466  0.14571534  0.73918485  1.0
  Ca  Ca7  1  0.35428466  0.35428466  0.23918485  1.0
  Ca  Ca8  1  0.50000000  0.00000000  0.48937355  1.0
  Ca  Ca9  1  0.00000000  0.50000000  -0.01062645  1.0
  Ca  Ca10  1  0.00000000  0.50000000  0.48937355  1.0
  Ca  Ca11  1  0.50000000  0.00000000  -0.01062645  1.0
  Cd  Cd12  1  0.37543333  0.62456667  0.93550285  1.0
  Cd  Cd13  1  0.87543333  0.87543333  0.43550285  1.0
  Cd  Cd14  1  0.62456667  0.37543333  0.93550285  1.0
  Cd  Cd15  1  0.12456667  0.12456667  0.43550285  1.0
  Cd  Cd16  1  0.37539748  0.62460252  0.54282272  1.0
  Cd  Cd17  1  0.87539748  0.87539748  0.04282272  1.0
  Cd  Cd18  1  0.62460252  0.37539748  0.54282272  1.0
  Cd  Cd19  1  0.12460252  0.12460252  0.04282272  1.0
