# generated using pymatgen
data_Na2Gd2MgSi4(O6F)2
_symmetry_space_group_name_H-M   'P 1'
_cell_length_a   5.23499854
_cell_length_b   7.61383637
_cell_length_c   14.49824722
_cell_angle_alpha   90.00000000
_cell_angle_beta   90.03434810
_cell_angle_gamma   90.00000000
_symmetry_Int_Tables_number   1
_chemical_formula_structural   Na2Gd2MgSi4(O6F)2
_chemical_formula_sum   'Na4 Gd4 Mg2 Si8 O24 F4'
_cell_volume   577.87715564
_cell_formula_units_Z   2
loop_
 _symmetry_equiv_pos_site_id
 _symmetry_equiv_pos_as_xyz
  1  'x, y, z'
loop_
 _atom_site_type_symbol
 _atom_site_label
 _atom_site_symmetry_multiplicity
 _atom_site_fract_x
 _atom_site_fract_y
 _atom_site_fract_z
 _atom_site_occupancy
  Na  Na0  1  0.49982944  0.96336158  0.78748192  1.0
  Na  Na1  1  0.49982944  0.53663842  0.28748192  1.0
  Na  Na2  1  0.50017056  0.46336158  0.71251808  1.0
  Na  Na3  1  0.50017056  0.03663842  0.21251808  1.0
  Gd  Gd4  1  0.48144178  0.77139216  0.54149698  1.0
  Gd  Gd5  1  0.48144178  0.72860784  0.04149698  1.0
  Gd  Gd6  1  0.51855822  0.27139216  0.95850302  1.0
  Gd  Gd7  1  0.51855822  0.22860784  0.45850302  1.0
  Mg  Mg8  1  0.00000000  0.00000000  0.00000000  1.0
  Mg  Mg9  1  0.00000000  0.50000000  0.50000000  1.0
  Si  Si10  1  0.97508067  0.76185058  0.68499310  1.0
  Si  Si11  1  0.97508067  0.73814942  0.18499310  1.0
  Si  Si12  1  0.02491933  0.26185058  0.81500690  1.0
  Si  Si13  1  0.02491933  0.23814942  0.31500690  1.0
  Si  Si14  1  0.96159792  0.62981096  0.88443608  1.0
  Si  Si15  1  0.96159792  0.87018904  0.38443608  1.0
  Si  Si16  1  0.03840208  0.12981096  0.61556392  1.0
  Si  Si17  1  0.03840208  0.37018904  0.11556392  1.0
  O  O18  1  0.86108783  0.96140156  0.65442640  1.0
  O  O19  1  0.86108783  0.53859844  0.15442640  1.0
  O  O20  1  0.13891217  0.46140156  0.84557360  1.0
  O  O21  1  0.13891217  0.03859844  0.34557360  1.0
  O  O22  1  0.86172465  0.26265432  0.55523589  1.0
  O  O23  1  0.86172465  0.23734568  0.05523589  1.0
  O  O24  1  0.13827535  0.76265432  0.94476411  1.0
  O  O25  1  0.13827535  0.73734568  0.44476411  1.0
  O  O26  1  0.85244088  0.72807262  0.78922782  1.0
  O  O27  1  0.85244088  0.77192738  0.28922782  1.0
  O  O28  1  0.14755912  0.22807262  0.71077218  1.0
  O  O29  1  0.14755912  0.27192738  0.21077218  1.0
  O  O30  1  0.83198902  0.63086623  0.61271777  1.0
  O  O31  1  0.83198902  0.86913377  0.11271777  1.0
  O  O32  1  0.16801098  0.13086623  0.88728223  1.0
  O  O33  1  0.16801098  0.36913377  0.38728223  1.0
  O  O34  1  0.71632553  0.25866325  0.81517261  1.0
  O  O35  1  0.71632553  0.24133675  0.31517261  1.0
  O  O36  1  0.28367447  0.75866325  0.68482739  1.0
  O  O37  1  0.28367447  0.74133675  0.18482739  1.0
  O  O38  1  0.71306918  0.55806162  0.94155234  1.0
  O  O39  1  0.71306918  0.94193838  0.44155234  1.0
  O  O40  1  0.28693082  0.05806162  0.55844766  1.0
  O  O41  1  0.28693082  0.44193838  0.05844766  1.0
  F  F42  1  0.66448192  0.96318142  0.93851468  1.0
  F  F43  1  0.66448192  0.53681858  0.43851468  1.0
  F  F44  1  0.33551808  0.46318142  0.56148532  1.0
  F  F45  1  0.33551808  0.03681858  0.06148532  1.0
