# generated using pymatgen
data_Sb2S3
_symmetry_space_group_name_H-M   'P 1'
_cell_length_a   3.87243360
_cell_length_b   12.20743438
_cell_length_c   11.22866898
_cell_angle_alpha   90.00000000
_cell_angle_beta   90.00000000
_cell_angle_gamma   90.00000000
_symmetry_Int_Tables_number   1
_chemical_formula_structural   Sb2S3
_chemical_formula_sum   'Sb8 S12'
_cell_volume   530.80701966
_cell_formula_units_Z   4
loop_
 _symmetry_equiv_pos_site_id
 _symmetry_equiv_pos_as_xyz
  1  'x, y, z'
loop_
 _atom_site_type_symbol
 _atom_site_label
 _atom_site_symmetry_multiplicity
 _atom_site_fract_x
 _atom_site_fract_y
 _atom_site_fract_z
 _atom_site_occupancy
  Sb  Sb0  1  0.00000000  0.71515367  0.67034405  1.0
  Sb  Sb1  1  0.50000000  0.28484633  0.17034405  1.0
  Sb  Sb2  1  0.50000000  0.60984774  0.96556611  1.0
  Sb  Sb3  1  0.00000000  0.39015226  0.46556611  1.0
  Sb  Sb4  1  0.50000000  0.78473303  0.32795888  1.0
  Sb  Sb5  1  0.00000000  0.21526697  0.82795888  1.0
  Sb  Sb6  1  0.00000000  0.88999020  0.03265662  1.0
  Sb  Sb7  1  0.50000000  0.11000980  0.53265662  1.0
  S  S8  1  0.50000000  0.62560511  0.55546677  1.0
  S  S9  1  0.00000000  0.37439489  0.05546677  1.0
  S  S10  1  0.00000000  0.55114474  0.81107963  1.0
  S  S11  1  0.50000000  0.44885526  0.31107963  1.0
  S  S12  1  0.50000000  0.79477503  0.87364812  1.0
  S  S13  1  0.00000000  0.20522497  0.37364812  1.0
  S  S14  1  0.00000000  0.87437887  0.44270961  1.0
  S  S15  1  0.50000000  0.12562113  0.94270961  1.0
  S  S16  1  0.50000000  0.94869164  0.18709442  1.0
  S  S17  1  0.00000000  0.05130836  0.68709442  1.0
  S  S18  1  0.00000000  0.70504223  0.12451579  1.0
  S  S19  1  0.50000000  0.29495777  0.62451579  1.0
