# generated using pymatgen
data_MgPb2
_symmetry_space_group_name_H-M   'P 1'
_cell_length_a   6.70995285
_cell_length_b   5.15766038
_cell_length_c   9.83573064
_cell_angle_alpha   90.00000000
_cell_angle_beta   90.00000000
_cell_angle_gamma   90.00000000
_symmetry_Int_Tables_number   1
_chemical_formula_structural   MgPb2
_chemical_formula_sum   'Mg4 Pb8'
_cell_volume   340.39160179
_cell_formula_units_Z   4
loop_
 _symmetry_equiv_pos_site_id
 _symmetry_equiv_pos_as_xyz
  1  'x, y, z'
loop_
 _atom_site_type_symbol
 _atom_site_label
 _atom_site_symmetry_multiplicity
 _atom_site_fract_x
 _atom_site_fract_y
 _atom_site_fract_z
 _atom_site_occupancy
  Mg  Mg0  1  0.83445379  0.75000000  0.40164155  1.0
  Mg  Mg1  1  0.33445379  0.75000000  0.09835845  1.0
  Mg  Mg2  1  0.16554621  0.25000000  0.59835845  1.0
  Mg  Mg3  1  0.66554621  0.25000000  0.90164155  1.0
  Pb  Pb4  1  0.83510219  0.75000000  0.07018848  1.0
  Pb  Pb5  1  0.33510219  0.75000000  0.42981152  1.0
  Pb  Pb6  1  0.16489781  0.25000000  0.92981152  1.0
  Pb  Pb7  1  0.66489781  0.25000000  0.57018848  1.0
  Pb  Pb8  1  0.92716413  0.75000000  0.72509249  1.0
  Pb  Pb9  1  0.42716413  0.75000000  0.77490751  1.0
  Pb  Pb10  1  0.07283587  0.25000000  0.27490751  1.0
  Pb  Pb11  1  0.57283587  0.25000000  0.22509249  1.0
