# generated using pymatgen
data_BiRhO3
_symmetry_space_group_name_H-M   'P 1'
_cell_length_a   5.91148266
_cell_length_b   7.80365663
_cell_length_c   5.41855820
_cell_angle_alpha   90.00000000
_cell_angle_beta   90.00000000
_cell_angle_gamma   90.00000000
_symmetry_Int_Tables_number   1
_chemical_formula_structural   BiRhO3
_chemical_formula_sum   'Bi4 Rh4 O12'
_cell_volume   249.96448776
_cell_formula_units_Z   4
loop_
 _symmetry_equiv_pos_site_id
 _symmetry_equiv_pos_as_xyz
  1  'x, y, z'
loop_
 _atom_site_type_symbol
 _atom_site_label
 _atom_site_symmetry_multiplicity
 _atom_site_fract_x
 _atom_site_fract_y
 _atom_site_fract_z
 _atom_site_occupancy
  Bi  Bi0  1  0.06577423  0.75000000  0.51641838  1.0
  Bi  Bi1  1  0.56577423  0.75000000  0.98358162  1.0
  Bi  Bi2  1  0.93422577  0.25000000  0.48358162  1.0
  Bi  Bi3  1  0.43422577  0.25000000  0.01641838  1.0
  Rh  Rh4  1  0.50000000  0.00000000  0.50000000  1.0
  Rh  Rh5  1  0.50000000  0.50000000  0.50000000  1.0
  Rh  Rh6  1  0.00000000  0.00000000  0.00000000  1.0
  Rh  Rh7  1  0.00000000  0.50000000  0.00000000  1.0
  O  O8  1  0.95542624  0.75000000  0.11823184  1.0
  O  O9  1  0.45542624  0.75000000  0.38176816  1.0
  O  O10  1  0.04457376  0.25000000  0.88176816  1.0
  O  O11  1  0.54457376  0.25000000  0.61823184  1.0
  O  O12  1  0.31289852  0.95560858  0.82651336  1.0
  O  O13  1  0.31289852  0.54439142  0.82651336  1.0
  O  O14  1  0.81289852  0.95560858  0.67348664  1.0
  O  O15  1  0.81289852  0.54439142  0.67348664  1.0
  O  O16  1  0.68710148  0.45560858  0.17348664  1.0
  O  O17  1  0.68710148  0.04439142  0.17348664  1.0
  O  O18  1  0.18710148  0.45560858  0.32651336  1.0
  O  O19  1  0.18710148  0.04439142  0.32651336  1.0
