# generated using pymatgen
data_Hf11Ga10
_symmetry_space_group_name_H-M   'P 1'
_cell_length_a   10.40044421
_cell_length_b   10.40044421
_cell_length_c   10.40044421
_cell_angle_alpha   120.24286142
_cell_angle_beta   120.24286142
_cell_angle_gamma   89.57986388
_symmetry_Int_Tables_number   1
_chemical_formula_structural   Hf11Ga10
_chemical_formula_sum   'Hf22 Ga20'
_cell_volume   792.55763196
_cell_formula_units_Z   2
loop_
 _symmetry_equiv_pos_site_id
 _symmetry_equiv_pos_as_xyz
  1  'x, y, z'
loop_
 _atom_site_type_symbol
 _atom_site_label
 _atom_site_symmetry_multiplicity
 _atom_site_fract_x
 _atom_site_fract_y
 _atom_site_fract_z
 _atom_site_occupancy
  Hf  Hf0  1  0.82152688  0.82152688  1.00000000  1.0
  Hf  Hf1  1  0.17847312  0.17847312  -0.00000000  1.0
  Hf  Hf2  1  0.67469966  0.67469966  1.34939932  1.0
  Hf  Hf3  1  0.32530034  0.67469966  1.00000000  1.0
  Hf  Hf4  1  0.67469966  0.32530034  1.00000000  1.0
  Hf  Hf5  1  0.32530034  0.32530034  0.65060068  1.0
  Hf  Hf6  1  0.56266856  0.89625358  0.66641497  1.0
  Hf  Hf7  1  0.77016139  0.10374642  0.66641497  1.0
  Hf  Hf8  1  1.22983861  0.89625358  1.33358503  1.0
  Hf  Hf9  1  0.43733144  0.10374642  0.33358503  1.0
  Hf  Hf10  1  0.89625358  0.56266856  0.66641497  1.0
  Hf  Hf11  1  0.10374642  0.77016139  0.66641497  1.0
  Hf  Hf12  1  0.89625358  1.22983861  1.33358503  1.0
  Hf  Hf13  1  0.10374642  0.43733144  0.33358503  1.0
  Hf  Hf14  1  0.43750265  0.68810883  0.74939382  1.0
  Hf  Hf15  1  1.06128498  0.31189117  0.74939382  1.0
  Hf  Hf16  1  0.93871502  0.68810883  1.25060618  1.0
  Hf  Hf17  1  0.56249735  0.31189117  0.25060618  1.0
  Hf  Hf18  1  0.68810883  0.43750265  0.74939382  1.0
  Hf  Hf19  1  0.31189117  1.06128498  0.74939382  1.0
  Hf  Hf20  1  0.68810883  0.93871502  1.25060618  1.0
  Hf  Hf21  1  0.31189117  0.56249735  0.25060618  1.0
  Ga  Ga22  1  0.25000000  0.75000000  0.50000000  1.0
  Ga  Ga23  1  0.75000000  0.25000000  0.50000000  1.0
  Ga  Ga24  1  0.60753637  0.60753637  1.00000000  1.0
  Ga  Ga25  1  0.39246363  0.39246363  0.00000000  1.0
  Ga  Ga26  1  0.87257866  0.87257866  1.74515732  1.0
  Ga  Ga27  1  0.12742134  0.87257866  1.00000000  1.0
  Ga  Ga28  1  0.87257866  0.12742134  1.00000000  1.0
  Ga  Ga29  1  0.12742134  0.12742134  0.25484268  1.0
  Ga  Ga30  1  0.50000000  0.85689673  1.35689673  1.0
  Ga  Ga31  1  0.85689673  0.50000000  1.35689673  1.0
  Ga  Ga32  1  0.14310327  0.50000000  0.64310327  1.0
  Ga  Ga33  1  0.50000000  0.14310327  0.64310327  1.0
  Ga  Ga34  1  0.62019211  0.62019211  0.58654425  1.0
  Ga  Ga35  1  0.96635214  0.96635214  1.58654425  1.0
  Ga  Ga36  1  1.03364786  0.62019211  1.00000000  1.0
  Ga  Ga37  1  0.37980789  0.96635214  1.00000000  1.0
  Ga  Ga38  1  0.62019211  1.03364786  1.00000000  1.0
  Ga  Ga39  1  0.96635214  0.37980789  1.00000000  1.0
  Ga  Ga40  1  1.03364786  1.03364786  1.41345575  1.0
  Ga  Ga41  1  0.37980789  0.37980789  0.41345575  1.0
