# generated using pymatgen
data_Li2Ga2GeS6
_symmetry_space_group_name_H-M   'P 1'
_cell_length_a   12.05220028
_cell_length_b   7.05776849
_cell_length_c   13.08501218
_cell_angle_alpha   65.77941756
_cell_angle_beta   32.27959386
_cell_angle_gamma   81.94098858
_symmetry_Int_Tables_number   1
_chemical_formula_structural   Li2Ga2GeS6
_chemical_formula_sum   'Li4 Ga4 Ge2 S12'
_cell_volume   490.87408981
_cell_formula_units_Z   2
loop_
 _symmetry_equiv_pos_site_id
 _symmetry_equiv_pos_as_xyz
  1  'x, y, z'
loop_
 _atom_site_type_symbol
 _atom_site_label
 _atom_site_symmetry_multiplicity
 _atom_site_fract_x
 _atom_site_fract_y
 _atom_site_fract_z
 _atom_site_occupancy
  Li  Li0  1  0.64709898  0.40152641  0.26045225  1.0
  Li  Li1  1  0.98954775  0.55907765  -0.39709898  1.0
  Li  Li2  1  0.40152641  0.64709898  -0.30907765  1.0
  Li  Li3  1  0.55907765  0.98954775  -0.15152641  1.0
  Ga  Ga4  1  0.48784054  -0.05916504  0.27979339  1.0
  Ga  Ga5  1  0.97020661  0.95846888  -0.23784054  1.0
  Ga  Ga6  1  -0.05916504  0.48784054  0.29153112  1.0
  Ga  Ga7  1  0.95846888  0.97020661  -0.69083496  1.0
  Ge  Ge8  1  1.00602037  0.00602037  -0.00602037  1.0
  Ge  Ge9  1  0.25602037  0.25602037  0.24397963  1.0
  S  S10  1  0.17725864  0.20690499  0.67699263  1.0
  S  S11  1  0.57300737  0.31115626  0.07274136  1.0
  S  S12  1  0.20690499  0.17725864  -0.06115626  1.0
  S  S13  1  0.31115626  0.57300737  0.04309501  1.0
  S  S14  1  -0.04691044  0.20391096  0.59416181  1.0
  S  S15  1  0.65583819  0.00116234  0.29691044  1.0
  S  S16  1  0.20391096  -0.04691044  0.24883766  1.0
  S  S17  1  0.00116234  0.65583819  0.04608904  1.0
  S  S18  1  0.60049167  0.72502292  0.13811534  1.0
  S  S19  1  1.11188466  0.71362993  -0.35049167  1.0
  S  S20  1  0.72502292  0.60049167  -0.46362993  1.0
  S  S21  1  0.71362993  1.11188466  -0.47502292  1.0
