# generated using pymatgen
data_RbBi
_symmetry_space_group_name_H-M   'P 1'
_cell_length_a   15.14425442
_cell_length_b   7.61896107
_cell_length_c   14.21364977
_cell_angle_alpha   90.00000000
_cell_angle_beta   113.42351426
_cell_angle_gamma   90.00000000
_symmetry_Int_Tables_number   1
_chemical_formula_structural   RbBi
_chemical_formula_sum   'Rb16 Bi16'
_cell_volume   1504.86891562
_cell_formula_units_Z   16
loop_
 _symmetry_equiv_pos_site_id
 _symmetry_equiv_pos_as_xyz
  1  'x, y, z'
loop_
 _atom_site_type_symbol
 _atom_site_label
 _atom_site_symmetry_multiplicity
 _atom_site_fract_x
 _atom_site_fract_y
 _atom_site_fract_z
 _atom_site_occupancy
  Rb  Rb0  1  0.87289025  0.88849122  0.84887563  1.0
  Rb  Rb1  1  0.87289025  0.61150878  0.34887563  1.0
  Rb  Rb2  1  0.12710975  0.38849122  0.65112437  1.0
  Rb  Rb3  1  0.12710975  0.11150878  0.15112437  1.0
  Rb  Rb4  1  0.60768022  0.69146224  0.96570456  1.0
  Rb  Rb5  1  0.60768022  0.80853776  0.46570456  1.0
  Rb  Rb6  1  0.39231978  0.19146224  0.53429544  1.0
  Rb  Rb7  1  0.39231978  0.30853776  0.03429544  1.0
  Rb  Rb8  1  0.34677329  0.92060634  0.81290467  1.0
  Rb  Rb9  1  0.34677329  0.57939366  0.31290467  1.0
  Rb  Rb10  1  0.65322671  0.42060634  0.68709533  1.0
  Rb  Rb11  1  0.65322671  0.07939366  0.18709533  1.0
  Rb  Rb12  1  0.14482020  0.64732637  0.95310440  1.0
  Rb  Rb13  1  0.14482020  0.85267363  0.45310440  1.0
  Rb  Rb14  1  0.85517980  0.14732637  0.54689560  1.0
  Rb  Rb15  1  0.85517980  0.35267363  0.04689560  1.0
  Bi  Bi16  1  0.92530485  0.37648388  0.80772274  1.0
  Bi  Bi17  1  0.92530485  0.12351612  0.30772274  1.0
  Bi  Bi18  1  0.07469515  0.87648388  0.69227726  1.0
  Bi  Bi19  1  0.07469515  0.62351612  0.19227726  1.0
  Bi  Bi20  1  0.89863712  0.63641904  0.63320407  1.0
  Bi  Bi21  1  0.89863712  0.86358096  0.13320407  1.0
  Bi  Bi22  1  0.10136288  0.13641904  0.86679593  1.0
  Bi  Bi23  1  0.10136288  0.36358096  0.36679593  1.0
  Bi  Bi24  1  0.60013320  0.93081777  0.72872228  1.0
  Bi  Bi25  1  0.60013320  0.56918223  0.22872228  1.0
  Bi  Bi26  1  0.39986680  0.43081777  0.77127772  1.0
  Bi  Bi27  1  0.39986680  0.06918223  0.27127772  1.0
  Bi  Bi28  1  0.42457977  0.69771258  0.61931477  1.0
  Bi  Bi29  1  0.42457977  0.80228742  0.11931477  1.0
  Bi  Bi30  1  0.57542023  0.19771258  0.88068523  1.0
  Bi  Bi31  1  0.57542023  0.30228742  0.38068523  1.0
