# generated using pymatgen
data_LiSc(SiO3)2
_symmetry_space_group_name_H-M   'P 1'
_cell_length_a   6.73200684
_cell_length_b   6.73200684
_cell_length_c   5.41809934
_cell_angle_alpha   74.86692428
_cell_angle_beta   105.13307572
_cell_angle_gamma   95.15574341
_symmetry_Int_Tables_number   1
_chemical_formula_structural   LiSc(SiO3)2
_chemical_formula_sum   'Li2 Sc2 Si4 O12'
_cell_volume   228.75081439
_cell_formula_units_Z   2
loop_
 _symmetry_equiv_pos_site_id
 _symmetry_equiv_pos_as_xyz
  1  'x, y, z'
loop_
 _atom_site_type_symbol
 _atom_site_label
 _atom_site_symmetry_multiplicity
 _atom_site_fract_x
 _atom_site_fract_y
 _atom_site_fract_z
 _atom_site_occupancy
  Li  Li0  1  0.74380624  0.74380624  0.25000000  1.0
  Li  Li1  1  0.25619376  0.25619376  0.75000000  1.0
  Sc  Sc2  1  0.39154851  0.39154851  0.25000000  1.0
  Sc  Sc3  1  0.60845149  0.60845149  0.75000000  1.0
  Si  Si4  1  1.28797430  -0.11495613  0.22128573  1.0
  Si  Si5  1  1.11495613  -0.28797430  0.72128573  1.0
  Si  Si6  1  0.88504387  0.28797430  0.27871427  1.0
  Si  Si7  1  0.71202570  0.11495613  0.77871427  1.0
  O  O8  1  1.46418289  -0.29485741  0.34225941  1.0
  O  O9  1  1.29485741  -0.46418289  0.84225941  1.0
  O  O10  1  0.70514259  0.46418289  0.15774059  1.0
  O  O11  1  0.53581711  0.29485741  0.65774059  1.0
  O  O12  1  0.84680154  0.14065690  0.55771659  1.0
  O  O13  1  0.85934310  0.15319846  0.05771659  1.0
  O  O14  1  1.14065690  -0.15319846  0.94228341  1.0
  O  O15  1  1.15319846  -0.14065690  0.44228341  1.0
  O  O16  1  0.37441543  0.12041673  0.15232438  1.0
  O  O17  1  0.87958327  0.62558457  0.65232438  1.0
  O  O18  1  1.12041673  -0.62558457  0.34767562  1.0
  O  O19  1  1.62558457  -0.12041673  0.84767562  1.0
