# generated using pymatgen
data_Sc3(Ge2Mo)2
_symmetry_space_group_name_H-M   'P 1'
_cell_length_a   6.84015344
_cell_length_b   13.14722304
_cell_length_c   6.99576301
_cell_angle_alpha   90.00000000
_cell_angle_beta   90.00000000
_cell_angle_gamma   90.00000000
_symmetry_Int_Tables_number   1
_chemical_formula_structural   Sc3(Ge2Mo)2
_chemical_formula_sum   'Sc12 Ge16 Mo8'
_cell_volume   629.12213199
_cell_formula_units_Z   4
loop_
 _symmetry_equiv_pos_site_id
 _symmetry_equiv_pos_as_xyz
  1  'x, y, z'
loop_
 _atom_site_type_symbol
 _atom_site_label
 _atom_site_symmetry_multiplicity
 _atom_site_fract_x
 _atom_site_fract_y
 _atom_site_fract_z
 _atom_site_occupancy
  Sc  Sc0  1  0.00628111  0.40681269  0.67322552  1.0
  Sc  Sc1  1  0.00628111  0.09318731  0.67322552  1.0
  Sc  Sc2  1  0.50628111  0.40681269  0.82677448  1.0
  Sc  Sc3  1  0.50628111  0.09318731  0.82677448  1.0
  Sc  Sc4  1  0.99371889  0.90681269  0.32677448  1.0
  Sc  Sc5  1  0.99371889  0.59318731  0.32677448  1.0
  Sc  Sc6  1  0.49371889  0.90681269  0.17322552  1.0
  Sc  Sc7  1  0.49371889  0.59318731  0.17322552  1.0
  Sc  Sc8  1  0.16984186  0.25000000  0.00884163  1.0
  Sc  Sc9  1  0.66984186  0.25000000  0.49115837  1.0
  Sc  Sc10  1  0.83015814  0.75000000  0.99115837  1.0
  Sc  Sc11  1  0.33015814  0.75000000  0.50884163  1.0
  Ge  Ge12  1  0.17831412  0.46166467  1.03722939  1.0
  Ge  Ge13  1  0.17831412  0.03833533  1.03722939  1.0
  Ge  Ge14  1  0.67831412  0.46166467  0.46277061  1.0
  Ge  Ge15  1  0.67831412  0.03833533  0.46277061  1.0
  Ge  Ge16  1  0.82168588  0.96166467  -0.03722939  1.0
  Ge  Ge17  1  0.82168588  0.53833533  -0.03722939  1.0
  Ge  Ge18  1  0.32168588  0.96166467  0.53722939  1.0
  Ge  Ge19  1  0.32168588  0.53833533  0.53722939  1.0
  Ge  Ge20  1  0.30587745  0.25000000  0.63806253  1.0
  Ge  Ge21  1  0.80587745  0.25000000  0.86193747  1.0
  Ge  Ge22  1  0.69412255  0.75000000  0.36193747  1.0
  Ge  Ge23  1  0.19412255  0.75000000  0.13806253  1.0
  Ge  Ge24  1  0.04779985  0.25000000  0.37832802  1.0
  Ge  Ge25  1  0.54779985  0.25000000  0.12167198  1.0
  Ge  Ge26  1  0.95220015  0.75000000  0.62167198  1.0
  Ge  Ge27  1  0.45220015  0.75000000  0.87832802  1.0
  Mo  Mo28  1  0.65513554  0.87733572  0.67472077  1.0
  Mo  Mo29  1  0.65513554  0.62266428  0.67472077  1.0
  Mo  Mo30  1  1.15513554  0.87733572  0.82527923  1.0
  Mo  Mo31  1  1.15513554  0.62266428  0.82527923  1.0
  Mo  Mo32  1  0.34486446  0.37733572  0.32527923  1.0
  Mo  Mo33  1  0.34486446  0.12266428  0.32527923  1.0
  Mo  Mo34  1  -0.15513554  0.37733572  0.17472077  1.0
  Mo  Mo35  1  -0.15513554  0.12266428  0.17472077  1.0
