# generated using pymatgen
data_Zr2Zn
_symmetry_space_group_name_H-M   'P 1'
_cell_length_a   6.12747238
_cell_length_b   6.12747238
_cell_length_c   6.12747238
_cell_angle_alpha   148.80233506
_cell_angle_beta   148.80233506
_cell_angle_gamma   44.70234028
_symmetry_Int_Tables_number   1
_chemical_formula_structural   Zr2Zn
_chemical_formula_sum   'Zr2 Zn1'
_cell_volume   61.54137842
_cell_formula_units_Z   1
loop_
 _symmetry_equiv_pos_site_id
 _symmetry_equiv_pos_as_xyz
  1  'x, y, z'
loop_
 _atom_site_type_symbol
 _atom_site_label
 _atom_site_symmetry_multiplicity
 _atom_site_fract_x
 _atom_site_fract_y
 _atom_site_fract_z
 _atom_site_occupancy
  Zr  Zr0  1  0.65670360  0.65670360  1.00000000  1.0
  Zr  Zr1  1  0.34329640  0.34329640  0.00000000  1.0
  Zn  Zn2  1  0.00000000  0.00000000  0.00000000  1.0
