# generated using pymatgen
data_TmRu2
_symmetry_space_group_name_H-M   'P 1'
_cell_length_a   5.26438672
_cell_length_b   5.26438673
_cell_length_c   8.78106483
_cell_angle_alpha   90.00000000
_cell_angle_beta   90.00000000
_cell_angle_gamma   120.00000000
_symmetry_Int_Tables_number   1
_chemical_formula_structural   TmRu2
_chemical_formula_sum   'Tm4 Ru8'
_cell_volume   210.75281574
_cell_formula_units_Z   4
loop_
 _symmetry_equiv_pos_site_id
 _symmetry_equiv_pos_as_xyz
  1  'x, y, z'
loop_
 _atom_site_type_symbol
 _atom_site_label
 _atom_site_symmetry_multiplicity
 _atom_site_fract_x
 _atom_site_fract_y
 _atom_site_fract_z
 _atom_site_occupancy
  Tm  Tm0  1  0.33333333  0.66666667  0.93403407  1.0
  Tm  Tm1  1  0.33333333  0.66666667  0.56596593  1.0
  Tm  Tm2  1  0.66666667  0.33333333  0.43403407  1.0
  Tm  Tm3  1  0.66666667  0.33333333  0.06596593  1.0
  Ru  Ru4  1  0.17130696  0.82869304  0.25000000  1.0
  Ru  Ru5  1  0.17130696  0.34261392  0.25000000  1.0
  Ru  Ru6  1  0.82869304  0.17130696  0.75000000  1.0
  Ru  Ru7  1  0.82869304  0.65738608  0.75000000  1.0
  Ru  Ru8  1  0.65738608  0.82869304  0.25000000  1.0
  Ru  Ru9  1  0.34261392  0.17130696  0.75000000  1.0
  Ru  Ru10  1  -0.00000000  -0.00000000  0.50000000  1.0
  Ru  Ru11  1  0.00000000  0.00000000  0.00000000  1.0
