# generated using pymatgen
data_AlGaBr4
_symmetry_space_group_name_H-M   'P 1'
_cell_length_a   8.07420127
_cell_length_b   10.65511347
_cell_length_c   10.98971864
_cell_angle_alpha   90.00000000
_cell_angle_beta   90.00000000
_cell_angle_gamma   90.00000000
_symmetry_Int_Tables_number   1
_chemical_formula_structural   AlGaBr4
_chemical_formula_sum   'Al4 Ga4 Br16'
_cell_volume   945.46231728
_cell_formula_units_Z   4
loop_
 _symmetry_equiv_pos_site_id
 _symmetry_equiv_pos_as_xyz
  1  'x, y, z'
loop_
 _atom_site_type_symbol
 _atom_site_label
 _atom_site_symmetry_multiplicity
 _atom_site_fract_x
 _atom_site_fract_y
 _atom_site_fract_z
 _atom_site_occupancy
  Al  Al0  1  0.57645331  0.25000000  0.75000000  1.0
  Al  Al1  1  0.07645331  0.25000000  0.25000000  1.0
  Al  Al2  1  0.42354669  0.75000000  0.25000000  1.0
  Al  Al3  1  0.92354669  0.75000000  0.75000000  1.0
  Ga  Ga4  1  0.75000000  0.50000000  0.19804425  1.0
  Ga  Ga5  1  0.75000000  0.00000000  0.30195575  1.0
  Ga  Ga6  1  0.25000000  0.50000000  0.80195575  1.0
  Ga  Ga7  1  0.25000000  0.00000000  0.69804425  1.0
  Br  Br8  1  1.01060307  0.47240377  0.68199602  1.0
  Br  Br9  1  1.01060307  0.02759623  0.81800398  1.0
  Br  Br10  1  0.51060307  0.47240377  0.31800398  1.0
  Br  Br11  1  0.51060307  0.02759623  0.18199602  1.0
  Br  Br12  1  -0.01060307  0.97240377  0.18199602  1.0
  Br  Br13  1  -0.01060307  0.52759623  0.31800398  1.0
  Br  Br14  1  0.48939693  0.97240377  0.81800398  1.0
  Br  Br15  1  0.48939693  0.52759623  0.68199602  1.0
  Br  Br16  1  0.81187983  0.32121533  0.07586387  1.0
  Br  Br17  1  0.81187983  0.17878467  0.42413613  1.0
  Br  Br18  1  0.31187983  0.32121533  0.92413613  1.0
  Br  Br19  1  0.31187983  0.17878467  0.57586387  1.0
  Br  Br20  1  0.18812017  0.82121533  0.57586387  1.0
  Br  Br21  1  0.18812017  0.67878467  0.92413613  1.0
  Br  Br22  1  0.68812017  0.82121533  0.42413613  1.0
  Br  Br23  1  0.68812017  0.67878467  0.07586387  1.0
