# generated using pymatgen
data_Ca2Ni3Ge2
_symmetry_space_group_name_H-M   'P 1'
_cell_length_a   9.05514660
_cell_length_b   4.01250178
_cell_length_c   7.03338375
_cell_angle_alpha   90.00000000
_cell_angle_beta   90.00000000
_cell_angle_gamma   90.00000000
_symmetry_Int_Tables_number   1
_chemical_formula_structural   Ca2Ni3Ge2
_chemical_formula_sum   'Ca4 Ni6 Ge4'
_cell_volume   255.54950159
_cell_formula_units_Z   2
loop_
 _symmetry_equiv_pos_site_id
 _symmetry_equiv_pos_as_xyz
  1  'x, y, z'
loop_
 _atom_site_type_symbol
 _atom_site_label
 _atom_site_symmetry_multiplicity
 _atom_site_fract_x
 _atom_site_fract_y
 _atom_site_fract_z
 _atom_site_occupancy
  Ca  Ca0  1  0.25000000  0.50000000  0.66899557  1.0
  Ca  Ca1  1  0.75000000  0.50000000  0.33100443  1.0
  Ca  Ca2  1  0.50000000  0.00000000  0.00000000  1.0
  Ca  Ca3  1  0.00000000  0.00000000  0.00000000  1.0
  Ni  Ni4  1  0.42635671  0.50000000  0.34527957  1.0
  Ni  Ni5  1  0.92635671  0.50000000  0.65472043  1.0
  Ni  Ni6  1  0.57364329  0.50000000  0.65472043  1.0
  Ni  Ni7  1  0.07364329  0.50000000  0.34527957  1.0
  Ni  Ni8  1  0.25000000  0.00000000  0.31496428  1.0
  Ni  Ni9  1  0.75000000  0.00000000  0.68503572  1.0
  Ge  Ge10  1  0.25000000  0.50000000  0.10077805  1.0
  Ge  Ge11  1  0.75000000  0.50000000  0.89922195  1.0
  Ge  Ge12  1  0.50000000  0.00000000  0.50000000  1.0
  Ge  Ge13  1  0.00000000  0.00000000  0.50000000  1.0
