# generated using pymatgen
data_Si3N4
_symmetry_space_group_name_H-M   'P 1'
_cell_length_a   7.81155139
_cell_length_b   7.81155139
_cell_length_c   5.66113612
_cell_angle_alpha   90.00000000
_cell_angle_beta   90.00000000
_cell_angle_gamma   120.00000000
_symmetry_Int_Tables_number   1
_chemical_formula_structural   Si3N4
_chemical_formula_sum   'Si12 N16'
_cell_volume   299.16364608
_cell_formula_units_Z   4
loop_
 _symmetry_equiv_pos_site_id
 _symmetry_equiv_pos_as_xyz
  1  'x, y, z'
loop_
 _atom_site_type_symbol
 _atom_site_label
 _atom_site_symmetry_multiplicity
 _atom_site_fract_x
 _atom_site_fract_y
 _atom_site_fract_z
 _atom_site_occupancy
  N  N0  1  0.34452605  -0.04544803  -0.03400299  1.0
  N  N1  1  0.04544803  0.38997408  -0.03400299  1.0
  N  N2  1  0.61002592  0.65547395  -0.03400299  1.0
  N  N3  1  -0.04544803  0.34452605  0.46599701  1.0
  N  N4  1  0.38997408  0.04544803  0.46599701  1.0
  N  N5  1  0.65547395  0.61002592  0.46599701  1.0
  N  N6  1  0.68538661  0.00424851  0.23120480  1.0
  N  N7  1  -0.00424851  0.68113810  0.23120480  1.0
  N  N8  1  0.31886190  0.31461339  0.23120480  1.0
  N  N9  1  0.00424851  0.68538661  0.73120480  1.0
  N  N10  1  0.68113810  -0.00424851  0.73120480  1.0
  N  N11  1  0.31461339  0.31886190  0.73120480  1.0
  N  N12  1  0.00000000  0.00000000  -0.01418557  1.0
  N  N13  1  0.00000000  0.00000000  0.48581443  1.0
  N  N14  1  0.66666667  0.33333333  1.13759307  1.0
  N  N15  1  0.33333333  0.66666667  0.63759307  1.0
  Si  Si16  1  0.91755532  0.42966365  0.19323760  1.0
  Si  Si17  1  0.57033635  0.48789167  0.19323760  1.0
  Si  Si18  1  0.51210833  0.08244468  0.19323760  1.0
  Si  Si19  1  0.42966365  0.91755532  0.69323760  1.0
  Si  Si20  1  0.48789167  0.57033635  0.69323760  1.0
  Si  Si21  1  0.08244468  0.51210833  0.69323760  1.0
  Si  Si22  1  0.74652350  0.91381781  -0.01490858  1.0
  Si  Si23  1  0.08618219  0.83270569  -0.01490858  1.0
  Si  Si24  1  0.16729431  0.25347650  -0.01490858  1.0
  Si  Si25  1  0.91381781  0.74652350  0.48509142  1.0
  Si  Si26  1  0.83270569  0.08618219  0.48509142  1.0
  Si  Si27  1  0.25347650  0.16729431  0.48509142  1.0
