# generated using pymatgen
data_LiTi2O4
_symmetry_space_group_name_H-M   'P 1'
_cell_length_a   3.79589316
_cell_length_b   8.18949464
_cell_length_c   9.20176985
_cell_angle_alpha   90.00000000
_cell_angle_beta   90.00000000
_cell_angle_gamma   90.00000000
_symmetry_Int_Tables_number   1
_chemical_formula_structural   LiTi2O4
_chemical_formula_sum   'Li4 Ti8 O16'
_cell_volume   286.05032811
_cell_formula_units_Z   4
loop_
 _symmetry_equiv_pos_site_id
 _symmetry_equiv_pos_as_xyz
  1  'x, y, z'
loop_
 _atom_site_type_symbol
 _atom_site_label
 _atom_site_symmetry_multiplicity
 _atom_site_fract_x
 _atom_site_fract_y
 _atom_site_fract_z
 _atom_site_occupancy
  Li  Li0  1  0.50000000  0.62639992  0.95826930  1.0
  Li  Li1  1  -0.00000000  0.37360008  0.45826930  1.0
  Li  Li2  1  0.00000000  0.12639949  0.79173773  1.0
  Li  Li3  1  0.50000000  0.87360051  0.29173773  1.0
  Ti  Ti4  1  0.50000000  0.63308813  0.51879871  1.0
  Ti  Ti5  1  0.00000000  0.36691187  0.01879871  1.0
  Ti  Ti6  1  -0.00000000  0.13308727  0.23120594  1.0
  Ti  Ti7  1  0.50000000  0.86691273  0.73120594  1.0
  Ti  Ti8  1  0.50000000  0.11228258  0.51134703  1.0
  Ti  Ti9  1  -0.00000000  0.88771742  0.01134703  1.0
  Ti  Ti10  1  0.00000000  0.61228247  0.23865932  1.0
  Ti  Ti11  1  0.50000000  0.38771753  0.73865932  1.0
  O  O12  1  0.50000000  0.62408101  0.73717548  1.0
  O  O13  1  0.50000000  0.12604035  0.71982725  1.0
  O  O14  1  0.00000000  0.37591899  0.23717548  1.0
  O  O15  1  0.00000000  0.87395965  0.21982725  1.0
  O  O16  1  -0.00000000  0.61499074  0.47302956  1.0
  O  O17  1  0.00000000  0.13417881  0.46900216  1.0
  O  O18  1  0.50000000  0.38500926  0.97302956  1.0
  O  O19  1  0.50000000  0.86582119  0.96900216  1.0
  O  O20  1  0.50000000  0.37396062  0.53017945  1.0
  O  O21  1  0.50000000  0.87591907  0.51282867  1.0
  O  O22  1  -0.00000000  0.62603938  0.03017945  1.0
  O  O23  1  0.00000000  0.12408093  0.01282867  1.0
  O  O24  1  0.00000000  0.36582216  0.78100423  1.0
  O  O25  1  -0.00000000  0.88500887  0.77697518  1.0
  O  O26  1  0.50000000  0.63417784  0.28100423  1.0
  O  O27  1  0.50000000  0.11499113  0.27697518  1.0
