# generated using pymatgen
data_NaSbO6
_symmetry_space_group_name_H-M   'P 1'
_cell_length_a   7.81173252
_cell_length_b   7.81173252
_cell_length_c   7.23761786
_cell_angle_alpha   90.00000000
_cell_angle_beta   90.00000000
_cell_angle_gamma   90.00000000
_symmetry_Int_Tables_number   1
_chemical_formula_structural   NaSbO6
_chemical_formula_sum   'Na4 Sb4 O24'
_cell_volume   441.66234840
_cell_formula_units_Z   4
loop_
 _symmetry_equiv_pos_site_id
 _symmetry_equiv_pos_as_xyz
  1  'x, y, z'
loop_
 _atom_site_type_symbol
 _atom_site_label
 _atom_site_symmetry_multiplicity
 _atom_site_fract_x
 _atom_site_fract_y
 _atom_site_fract_z
 _atom_site_occupancy
  Na  Na0  1  0.75000000  0.25000000  0.75000000  1.0
  Na  Na1  1  0.25000000  0.75000000  0.75000000  1.0
  Na  Na2  1  0.75000000  0.75000000  0.25000000  1.0
  Na  Na3  1  0.25000000  0.25000000  0.25000000  1.0
  Sb  Sb4  1  0.25000000  0.25000000  0.75000000  1.0
  Sb  Sb5  1  0.75000000  0.75000000  0.75000000  1.0
  Sb  Sb6  1  0.75000000  0.25000000  0.25000000  1.0
  Sb  Sb7  1  0.25000000  0.75000000  0.25000000  1.0
  O  O8  1  0.22314142  0.02473877  0.88729247  1.0
  O  O9  1  0.77685858  0.97526123  0.88729247  1.0
  O  O10  1  0.52473877  0.27685858  0.38729247  1.0
  O  O11  1  0.47526123  0.72314142  0.38729247  1.0
  O  O12  1  0.27685858  0.47526123  0.61270753  1.0
  O  O13  1  0.72314142  0.52473877  0.61270753  1.0
  O  O14  1  0.97526123  0.22314142  0.11270753  1.0
  O  O15  1  0.02473877  0.77685858  0.11270753  1.0
  O  O16  1  0.02139659  0.33288255  0.84824290  1.0
  O  O17  1  0.97860341  0.66711745  0.84824290  1.0
  O  O18  1  0.83288255  0.47860341  0.34824290  1.0
  O  O19  1  0.16711745  0.52139659  0.34824290  1.0
  O  O20  1  0.47860341  0.16711745  0.65175710  1.0
  O  O21  1  0.52139659  0.83288255  0.65175710  1.0
  O  O22  1  0.66711745  0.02139659  0.15175710  1.0
  O  O23  1  0.33288255  0.97860341  0.15175710  1.0
  O  O24  1  0.13378167  0.14897595  0.52152126  1.0
  O  O25  1  0.86621833  0.85102405  0.52152126  1.0
  O  O26  1  0.64897595  0.36621833  0.02152126  1.0
  O  O27  1  0.35102405  0.63378167  0.02152126  1.0
  O  O28  1  0.36621833  0.35102405  0.97847874  1.0
  O  O29  1  0.63378167  0.64897595  0.97847874  1.0
  O  O30  1  0.85102405  0.13378167  0.47847874  1.0
  O  O31  1  0.14897595  0.86621833  0.47847874  1.0
