# generated using pymatgen
data_K3Ti2Br9
_symmetry_space_group_name_H-M   'P 1'
_cell_length_a   7.61957508
_cell_length_b   7.61957508
_cell_length_c   18.91564490
_cell_angle_alpha   90.00000000
_cell_angle_beta   90.00000000
_cell_angle_gamma   120.00000000
_symmetry_Int_Tables_number   1
_chemical_formula_structural   K3Ti2Br9
_chemical_formula_sum   'K6 Ti4 Br18'
_cell_volume   951.07176760
_cell_formula_units_Z   2
loop_
 _symmetry_equiv_pos_site_id
 _symmetry_equiv_pos_as_xyz
  1  'x, y, z'
loop_
 _atom_site_type_symbol
 _atom_site_label
 _atom_site_symmetry_multiplicity
 _atom_site_fract_x
 _atom_site_fract_y
 _atom_site_fract_z
 _atom_site_occupancy
  K  K0  1  0.33333333  0.66666667  0.94759061  1.0
  K  K1  1  0.33333333  0.66666667  0.55240939  1.0
  K  K2  1  0.66666667  0.33333333  0.44759061  1.0
  K  K3  1  0.66666667  0.33333333  0.05240939  1.0
  K  K4  1  0.00000000  0.00000000  0.25000000  1.0
  K  K5  1  0.00000000  0.00000000  0.75000000  1.0
  Ti  Ti6  1  0.33333333  0.66666667  0.33452369  1.0
  Ti  Ti7  1  0.33333333  0.66666667  0.16547631  1.0
  Ti  Ti8  1  0.66666667  0.33333333  0.83452369  1.0
  Ti  Ti9  1  0.66666667  0.33333333  0.66547631  1.0
  Br  Br10  1  0.11251789  0.76056534  0.40765531  1.0
  Br  Br11  1  0.11251789  0.76056534  0.09234469  1.0
  Br  Br12  1  0.76056534  0.64804745  0.90765531  1.0
  Br  Br13  1  0.76056534  0.64804745  0.59234469  1.0
  Br  Br14  1  0.64804745  0.88748211  0.40765531  1.0
  Br  Br15  1  0.64804745  0.88748211  0.09234469  1.0
  Br  Br16  1  0.23943466  0.35195255  0.40765531  1.0
  Br  Br17  1  0.23943466  0.35195255  0.09234469  1.0
  Br  Br18  1  0.88748211  0.23943466  0.90765531  1.0
  Br  Br19  1  0.88748211  0.23943466  0.59234469  1.0
  Br  Br20  1  0.35195255  0.11251789  0.90765531  1.0
  Br  Br21  1  0.35195255  0.11251789  0.59234469  1.0
  Br  Br22  1  0.54673059  0.56617235  0.25000000  1.0
  Br  Br23  1  0.56617235  0.01944177  0.75000000  1.0
  Br  Br24  1  0.01944177  0.45326941  0.25000000  1.0
  Br  Br25  1  0.43382765  0.98055823  0.25000000  1.0
  Br  Br26  1  0.45326941  0.43382765  0.75000000  1.0
  Br  Br27  1  0.98055823  0.54673059  0.75000000  1.0
