# generated using pymatgen
data_H9S3N5O6
_symmetry_space_group_name_H-M   'P 1'
_cell_length_a   7.78953427
_cell_length_b   7.78953427
_cell_length_c   9.78257263
_cell_angle_alpha   84.53571983
_cell_angle_beta   95.46428017
_cell_angle_gamma   57.61388638
_symmetry_Int_Tables_number   1
_chemical_formula_structural   H9S3N5O6
_chemical_formula_sum   'H18 S6 N10 O12'
_cell_volume   491.36425715
_cell_formula_units_Z   2
loop_
 _symmetry_equiv_pos_site_id
 _symmetry_equiv_pos_as_xyz
  1  'x, y, z'
loop_
 _atom_site_type_symbol
 _atom_site_label
 _atom_site_symmetry_multiplicity
 _atom_site_fract_x
 _atom_site_fract_y
 _atom_site_fract_z
 _atom_site_occupancy
  H  H0  1  0.63858001  -0.66095595  0.99876415  1.0
  H  H1  1  0.66095595  0.36141999  0.49876415  1.0
  H  H2  1  1.10965166  -0.26878633  0.20747057  1.0
  H  H3  1  0.26878633  -0.10965166  0.70747057  1.0
  H  H4  1  0.73672204  -0.63635620  0.85299645  1.0
  H  H5  1  0.63635620  0.26327796  0.35299645  1.0
  H  H6  1  1.09415210  -0.47414440  0.25492366  1.0
  H  H7  1  0.47414440  -0.09415210  0.75492366  1.0
  H  H8  1  0.81189733  0.12795676  0.93982195  1.0
  H  H9  1  0.87204324  -0.81189733  0.43982195  1.0
  H  H10  1  0.88329410  -0.73355446  1.01765382  1.0
  H  H11  1  0.73355446  0.11670590  0.51765382  1.0
  H  H12  1  1.22480613  -0.51788277  0.89833577  1.0
  H  H13  1  0.51788277  -0.22480613  0.39833577  1.0
  H  H14  1  0.22876119  0.11865874  0.73262857  1.0
  H  H15  1  0.88134126  -0.22876119  0.23262857  1.0
  H  H16  1  0.32437210  -0.07955812  0.87122102  1.0
  H  H17  1  1.07955812  -0.32437210  0.37122102  1.0
  S  S18  1  0.94112411  -0.20348728  0.80600416  1.0
  S  S19  1  0.20348728  0.05887589  0.30600416  1.0
  S  S20  1  0.82485048  -0.41003044  0.64317285  1.0
  S  S21  1  0.41003044  0.17514952  0.14317285  1.0
  S  S22  1  1.23213860  -0.52790315  0.67152563  1.0
  S  S23  1  0.52790315  -0.23213860  0.17152563  1.0
  N  N24  1  0.79473832  -0.28415186  0.77195340  1.0
  N  N25  1  0.28415186  0.20526168  0.27195340  1.0
  N  N26  1  1.04090279  -0.32328189  0.26632925  1.0
  N  N27  1  0.32328189  -0.04090279  0.76632925  1.0
  N  N28  1  0.76599988  -0.72228761  0.95023654  1.0
  N  N29  1  0.72228761  0.23400012  0.45023654  1.0
  N  N30  1  1.18976192  -0.40539646  0.81340245  1.0
  N  N31  1  0.40539646  -0.18976192  0.31340245  1.0
  N  N32  1  1.06706506  -0.59015651  0.65596681  1.0
  N  N33  1  0.59015651  -0.06706506  0.15596681  1.0
  O  O34  1  0.74425392  -0.26950121  0.50826645  1.0
  O  O35  1  0.26950121  0.25574608  0.00826645  1.0
  O  O36  1  0.92948598  -0.15694016  0.94701735  1.0
  O  O37  1  0.15694016  0.07051402  0.44701735  1.0
  O  O38  1  0.71770066  -0.51571802  0.66723595  1.0
  O  O39  1  0.51571802  0.28229934  0.16723595  1.0
  O  O40  1  1.20586755  -0.37901241  0.55513014  1.0
  O  O41  1  0.37901241  -0.20586755  0.05513014  1.0
  O  O42  1  0.91322851  -0.04164330  0.69982332  1.0
  O  O43  1  1.04164330  -0.91322851  0.19982332  1.0
  O  O44  1  0.43547522  0.28376274  0.71381975  1.0
  O  O45  1  0.71623726  -0.43547522  0.21381975  1.0
