# generated using pymatgen
data_PtN2(ClO)2
_symmetry_space_group_name_H-M   'P 1'
_cell_length_a   6.60825748
_cell_length_b   6.60825748
_cell_length_c   13.27844650
_cell_angle_alpha   90.00000000
_cell_angle_beta   90.00000000
_cell_angle_gamma   90.00000000
_symmetry_Int_Tables_number   1
_chemical_formula_structural   PtN2(ClO)2
_chemical_formula_sum   'Pt4 N8 Cl8 O8'
_cell_volume   579.85736815
_cell_formula_units_Z   4
loop_
 _symmetry_equiv_pos_site_id
 _symmetry_equiv_pos_as_xyz
  1  'x, y, z'
loop_
 _atom_site_type_symbol
 _atom_site_label
 _atom_site_symmetry_multiplicity
 _atom_site_fract_x
 _atom_site_fract_y
 _atom_site_fract_z
 _atom_site_occupancy
  Pt  Pt0  1  0.50000000  0.50000000  0.28545186  1.0
  Pt  Pt1  1  0.00000000  0.00000000  0.78545186  1.0
  Pt  Pt2  1  0.00000000  0.00000000  0.21454814  1.0
  Pt  Pt3  1  0.50000000  0.50000000  0.71454814  1.0
  N  N4  1  0.50000000  0.29542803  0.38849565  1.0
  N  N5  1  0.50000000  0.70457197  0.38849565  1.0
  N  N6  1  0.79542803  0.00000000  0.88849565  1.0
  N  N7  1  0.20457197  0.00000000  0.88849565  1.0
  N  N8  1  0.00000000  0.20457197  0.11150435  1.0
  N  N9  1  0.00000000  0.79542803  0.11150435  1.0
  N  N10  1  0.70457197  0.50000000  0.61150435  1.0
  N  N11  1  0.29542803  0.50000000  0.61150435  1.0
  Cl  Cl12  1  0.50000000  0.25346905  0.13939592  1.0
  Cl  Cl13  1  0.50000000  0.74653095  0.13939592  1.0
  Cl  Cl14  1  0.75346905  0.00000000  0.63939592  1.0
  Cl  Cl15  1  0.24653095  0.00000000  0.63939592  1.0
  Cl  Cl16  1  0.00000000  0.24653095  0.36060408  1.0
  Cl  Cl17  1  0.00000000  0.75346905  0.36060408  1.0
  Cl  Cl18  1  0.74653095  0.50000000  0.86060408  1.0
  Cl  Cl19  1  0.25346905  0.50000000  0.86060408  1.0
  O  O20  1  0.22574420  0.50000000  0.26564413  1.0
  O  O21  1  0.77425580  0.50000000  0.26564413  1.0
  O  O22  1  0.00000000  0.72574420  0.76564413  1.0
  O  O23  1  0.00000000  0.27425580  0.76564413  1.0
  O  O24  1  0.27425580  0.00000000  0.23435587  1.0
  O  O25  1  0.72574420  0.00000000  0.23435587  1.0
  O  O26  1  0.50000000  0.77425580  0.73435587  1.0
  O  O27  1  0.50000000  0.22574420  0.73435587  1.0
