# generated using pymatgen
data_RbFe2F6
_symmetry_space_group_name_H-M   'P 1'
_cell_length_a   7.21268307
_cell_length_b   7.53906189
_cell_length_c   10.30842643
_cell_angle_alpha   90.00000000
_cell_angle_beta   90.00000000
_cell_angle_gamma   90.00000000
_symmetry_Int_Tables_number   1
_chemical_formula_structural   RbFe2F6
_chemical_formula_sum   'Rb4 Fe8 F24'
_cell_volume   560.53990351
_cell_formula_units_Z   4
loop_
 _symmetry_equiv_pos_site_id
 _symmetry_equiv_pos_as_xyz
  1  'x, y, z'
loop_
 _atom_site_type_symbol
 _atom_site_label
 _atom_site_symmetry_multiplicity
 _atom_site_fract_x
 _atom_site_fract_y
 _atom_site_fract_z
 _atom_site_occupancy
  Rb  Rb0  1  0.50750984  0.25000000  0.12390616  1.0
  Rb  Rb1  1  1.00750984  0.25000000  0.37609384  1.0
  Rb  Rb2  1  0.49249016  0.75000000  0.87609384  1.0
  Rb  Rb3  1  -0.00750984  0.75000000  0.62390616  1.0
  Fe  Fe4  1  0.29623302  0.25000000  0.76843265  1.0
  Fe  Fe5  1  0.79623302  0.25000000  0.73156735  1.0
  Fe  Fe6  1  0.70376698  0.75000000  0.23156735  1.0
  Fe  Fe7  1  0.20376698  0.75000000  0.26843265  1.0
  Fe  Fe8  1  0.00000000  0.00000000  0.00000000  1.0
  Fe  Fe9  1  0.50000000  0.50000000  0.50000000  1.0
  Fe  Fe10  1  0.00000000  0.50000000  0.00000000  1.0
  Fe  Fe11  1  0.50000000  0.00000000  0.50000000  1.0
  F  F12  1  0.23705866  0.07214026  0.91528248  1.0
  F  F13  1  0.73705866  0.42785974  0.58471752  1.0
  F  F14  1  0.76294134  0.57214026  0.08471752  1.0
  F  F15  1  0.26294134  0.92785974  0.41528248  1.0
  F  F16  1  0.76294134  0.92785974  0.08471752  1.0
  F  F17  1  0.26294134  0.57214026  0.41528248  1.0
  F  F18  1  0.23705866  0.42785974  0.91528248  1.0
  F  F19  1  0.73705866  0.07214026  0.58471752  1.0
  F  F20  1  0.86256465  0.02672772  0.82982116  1.0
  F  F21  1  0.36256465  0.47327228  0.67017884  1.0
  F  F22  1  0.13743535  0.52672772  0.17017884  1.0
  F  F23  1  0.63743535  0.97327228  0.32982116  1.0
  F  F24  1  0.13743535  0.97327228  0.17017884  1.0
  F  F25  1  0.63743535  0.52672772  0.32982116  1.0
  F  F26  1  0.86256465  0.47327228  0.82982116  1.0
  F  F27  1  0.36256465  0.02672772  0.67017884  1.0
  F  F28  1  0.93704914  0.25000000  0.05161936  1.0
  F  F29  1  0.43704914  0.25000000  0.44838064  1.0
  F  F30  1  0.06295086  0.75000000  0.94838064  1.0
  F  F31  1  0.56295086  0.75000000  0.55161936  1.0
  F  F32  1  0.06141634  0.25000000  0.66482882  1.0
  F  F33  1  0.56141634  0.25000000  0.83517118  1.0
  F  F34  1  0.93858366  0.75000000  0.33517118  1.0
  F  F35  1  0.43858366  0.75000000  0.16482882  1.0
