# generated using pymatgen
data_YGa3Ni2
_symmetry_space_group_name_H-M   'P 1'
_cell_length_a   9.38843270
_cell_length_b   9.38843270
_cell_length_c   3.81855133
_cell_angle_alpha   90.00000000
_cell_angle_beta   90.00000000
_cell_angle_gamma   120.00000000
_symmetry_Int_Tables_number   1
_chemical_formula_structural   YGa3Ni2
_chemical_formula_sum   'Y3 Ga9 Ni6'
_cell_volume   291.48449599
_cell_formula_units_Z   3
loop_
 _symmetry_equiv_pos_site_id
 _symmetry_equiv_pos_as_xyz
  1  'x, y, z'
loop_
 _atom_site_type_symbol
 _atom_site_label
 _atom_site_symmetry_multiplicity
 _atom_site_fract_x
 _atom_site_fract_y
 _atom_site_fract_z
 _atom_site_occupancy
  Y  Y0  1  0.33333333  0.66666667  0.50000000  1.0
  Y  Y1  1  0.66666667  0.33333333  0.50000000  1.0
  Y  Y2  1  0.00000000  -0.00000000  -0.00000000  1.0
  Ga  Ga3  1  0.18417241  0.81582759  -0.00000000  1.0
  Ga  Ga4  1  0.18417241  0.36834482  0.00000000  1.0
  Ga  Ga5  1  0.81582759  0.18417241  0.00000000  1.0
  Ga  Ga6  1  0.81582759  0.63165518  0.00000000  1.0
  Ga  Ga7  1  0.63165518  0.81582759  0.00000000  1.0
  Ga  Ga8  1  0.36834482  0.18417241  0.00000000  1.0
  Ga  Ga9  1  0.50000000  0.50000000  -0.00000000  1.0
  Ga  Ga10  1  0.50000000  -0.00000000  -0.00000000  1.0
  Ga  Ga11  1  -0.00000000  0.50000000  -0.00000000  1.0
  Ni  Ni12  1  0.71440259  0.71440259  0.50000000  1.0
  Ni  Ni13  1  0.71440259  -0.00000000  0.50000000  1.0
  Ni  Ni14  1  0.00000000  0.71440259  0.50000000  1.0
  Ni  Ni15  1  0.00000000  0.28559741  0.50000000  1.0
  Ni  Ni16  1  0.28559741  0.28559741  0.50000000  1.0
  Ni  Ni17  1  0.28559741  0.00000000  0.50000000  1.0
