# generated using pymatgen
data_Mn3B2H7(CO)10
_symmetry_space_group_name_H-M   'P 1'
_cell_length_a   6.93949990
_cell_length_b   14.58473926
_cell_length_c   9.83504823
_cell_angle_alpha   90.00000000
_cell_angle_beta   100.20303703
_cell_angle_gamma   90.00000000
_symmetry_Int_Tables_number   1
_chemical_formula_structural   Mn3B2H7(CO)10
_chemical_formula_sum   'Mn6 B4 H14 C20 O20'
_cell_volume   979.67182362
_cell_formula_units_Z   2
loop_
 _symmetry_equiv_pos_site_id
 _symmetry_equiv_pos_as_xyz
  1  'x, y, z'
loop_
 _atom_site_type_symbol
 _atom_site_label
 _atom_site_symmetry_multiplicity
 _atom_site_fract_x
 _atom_site_fract_y
 _atom_site_fract_z
 _atom_site_occupancy
  Mn  Mn0  1  0.82104865  0.34699657  0.22732441  1.0
  Mn  Mn1  1  0.82104865  0.15300343  0.22732441  1.0
  Mn  Mn2  1  0.17895135  0.84699657  0.77267559  1.0
  Mn  Mn3  1  0.17895135  0.65300343  0.77267559  1.0
  Mn  Mn4  1  0.70560297  0.25000000  0.57726723  1.0
  Mn  Mn5  1  0.29439703  0.75000000  0.42273277  1.0
  B  B6  1  0.89218708  0.25000000  0.40609059  1.0
  B  B7  1  0.10781292  0.75000000  0.59390941  1.0
  B  B8  1  0.65159749  0.25000000  0.33881964  1.0
  B  B9  1  0.34840251  0.75000000  0.66118036  1.0
  H  H10  1  0.98837151  0.32053940  0.37888646  1.0
  H  H11  1  0.98837151  0.17946060  0.37888646  1.0
  H  H12  1  0.01162849  0.82053940  0.62111354  1.0
  H  H13  1  0.01162849  0.67946060  0.62111354  1.0
  H  H14  1  0.58871594  0.32040882  0.26668758  1.0
  H  H15  1  0.58871594  0.17959118  0.26668758  1.0
  H  H16  1  0.41128406  0.82040882  0.73331242  1.0
  H  H17  1  0.41128406  0.67959118  0.73331242  1.0
  H  H18  1  0.94893366  0.25000000  0.53652534  1.0
  H  H19  1  0.05106634  0.75000000  0.46347466  1.0
  H  H20  1  0.85202507  0.25000000  0.13740688  1.0
  H  H21  1  0.14797493  0.75000000  0.86259312  1.0
  H  H22  1  0.52618593  0.25000000  0.41929633  1.0
  H  H23  1  0.47381407  0.75000000  0.58070367  1.0
  C  C24  1  0.95933148  0.87675857  0.83334382  1.0
  C  C25  1  0.95933148  0.62324143  0.83334382  1.0
  C  C26  1  0.04066852  0.37675857  0.16665618  1.0
  C  C27  1  0.04066852  0.12324143  0.16665618  1.0
  C  C28  1  0.80128960  0.46134644  0.29059700  1.0
  C  C29  1  0.80128960  0.03865356  0.29059700  1.0
  C  C30  1  0.19871040  0.96134644  0.70940300  1.0
  C  C31  1  0.19871040  0.53865356  0.70940300  1.0
  C  C32  1  0.70280984  0.37699584  0.58351770  1.0
  C  C33  1  0.70280984  0.12300416  0.58351770  1.0
  C  C34  1  0.29719016  0.87699584  0.41648230  1.0
  C  C35  1  0.29719016  0.62300416  0.41648230  1.0
  C  C36  1  0.32086401  0.87595125  0.93707113  1.0
  C  C37  1  0.32086401  0.62404875  0.93707113  1.0
  C  C38  1  0.67913599  0.37595125  0.06292887  1.0
  C  C39  1  0.67913599  0.12404875  0.06292887  1.0
  C  C40  1  0.85493863  0.25000000  0.74671627  1.0
  C  C41  1  0.14506137  0.75000000  0.25328373  1.0
  C  C42  1  0.48307103  0.25000000  0.64834656  1.0
  C  C43  1  0.51692897  0.75000000  0.35165344  1.0
  O  O44  1  0.81711675  0.89616616  0.87335469  1.0
  O  O45  1  0.81711675  0.60383384  0.87335469  1.0
  O  O46  1  0.18288325  0.39616616  0.12664531  1.0
  O  O47  1  0.18288325  0.10383384  0.12664531  1.0
  O  O48  1  0.69736290  0.45504792  0.59848500  1.0
  O  O49  1  0.69736290  0.04495208  0.59848500  1.0
  O  O50  1  0.30263710  0.95504792  0.40151500  1.0
  O  O51  1  0.30263710  0.54495208  0.40151500  1.0
  O  O52  1  0.59083623  0.39350574  0.95458831  1.0
  O  O53  1  0.59083623  0.10649426  0.95458831  1.0
  O  O54  1  0.40916377  0.89350574  0.04541169  1.0
  O  O55  1  0.40916377  0.60649426  0.04541169  1.0
  O  O56  1  0.20617512  0.46268417  0.67509883  1.0
  O  O57  1  0.20617512  0.03731583  0.67509883  1.0
  O  O58  1  0.79382488  0.96268417  0.32490117  1.0
  O  O59  1  0.79382488  0.53731583  0.32490117  1.0
  O  O60  1  0.95233912  0.25000000  0.85480741  1.0
  O  O61  1  0.04766088  0.75000000  0.14519259  1.0
  O  O62  1  0.33999779  0.25000000  0.69269946  1.0
  O  O63  1  0.66000221  0.75000000  0.30730054  1.0
