# generated using pymatgen
data_KBaYSi2O7
_symmetry_space_group_name_H-M   'P 1'
_cell_length_a   9.85504703
_cell_length_b   5.77684849
_cell_length_c   14.37034699
_cell_angle_alpha   90.00000000
_cell_angle_beta   116.90828073
_cell_angle_gamma   90.00000000
_symmetry_Int_Tables_number   1
_chemical_formula_structural   KBaYSi2O7
_chemical_formula_sum   'K4 Ba4 Y4 Si8 O28'
_cell_volume   729.54376389
_cell_formula_units_Z   4
loop_
 _symmetry_equiv_pos_site_id
 _symmetry_equiv_pos_as_xyz
  1  'x, y, z'
loop_
 _atom_site_type_symbol
 _atom_site_label
 _atom_site_symmetry_multiplicity
 _atom_site_fract_x
 _atom_site_fract_y
 _atom_site_fract_z
 _atom_site_occupancy
  K  K0  1  0.49571416  0.23649214  0.36454441  1.0
  K  K1  1  0.49571416  0.26350786  0.86454441  1.0
  K  K2  1  0.50428584  0.73649214  0.13545559  1.0
  K  K3  1  0.50428584  0.76350786  0.63545559  1.0
  Ba  Ba4  1  0.96658033  0.73262440  0.32918441  1.0
  Ba  Ba5  1  0.96658033  0.76737560  0.82918441  1.0
  Ba  Ba6  1  0.03341967  0.23262440  0.17081559  1.0
  Ba  Ba7  1  0.03341967  0.26737560  0.67081559  1.0
  Y  Y8  1  0.23897158  0.25910074  0.47843478  1.0
  Y  Y9  1  0.23897158  0.24089926  0.97843478  1.0
  Y  Y10  1  0.76102842  0.75910074  0.02156522  1.0
  Y  Y11  1  0.76102842  0.74089926  0.52156522  1.0
  Si  Si12  1  0.82696293  0.22933813  0.37886951  1.0
  Si  Si13  1  0.82696293  0.27066187  0.87886951  1.0
  Si  Si14  1  0.17303707  0.72933813  0.12113049  1.0
  Si  Si15  1  0.17303707  0.77066187  0.62113049  1.0
  Si  Si16  1  0.67045934  0.24470999  0.14609350  1.0
  Si  Si17  1  0.67045934  0.25529001  0.64609350  1.0
  Si  Si18  1  0.32954066  0.74470999  0.35390650  1.0
  Si  Si19  1  0.32954066  0.75529001  0.85390650  1.0
  O  O20  1  0.49002156  0.24119274  0.06448585  1.0
  O  O21  1  0.49002156  0.25880726  0.56448585  1.0
  O  O22  1  0.50997844  0.74119274  0.43551415  1.0
  O  O23  1  0.50997844  0.75880726  0.93551415  1.0
  O  O24  1  0.98076644  0.24520635  0.36159093  1.0
  O  O25  1  0.98076644  0.25479365  0.86159093  1.0
  O  O26  1  0.01923356  0.74520635  0.13840907  1.0
  O  O27  1  0.01923356  0.75479365  0.63840907  1.0
  O  O28  1  0.82247975  0.42165731  0.46034870  1.0
  O  O29  1  0.82247975  0.07834269  0.96034870  1.0
  O  O30  1  0.17752025  0.92165731  0.03965130  1.0
  O  O31  1  0.17752025  0.57834269  0.53965130  1.0
  O  O32  1  0.80206136  0.96565845  0.40992657  1.0
  O  O33  1  0.80206136  0.53434155  0.90992657  1.0
  O  O34  1  0.19793864  0.46565845  0.09007343  1.0
  O  O35  1  0.19793864  0.03434155  0.59007343  1.0
  O  O36  1  0.76339574  0.46148864  0.12683604  1.0
  O  O37  1  0.76339574  0.03851136  0.62683604  1.0
  O  O38  1  0.23660426  0.96148864  0.37316396  1.0
  O  O39  1  0.23660426  0.53851136  0.87316396  1.0
  O  O40  1  0.75724611  0.99856896  0.15011656  1.0
  O  O41  1  0.75724611  0.50143104  0.65011656  1.0
  O  O42  1  0.24275389  0.49856896  0.34988344  1.0
  O  O43  1  0.24275389  0.00143104  0.84988344  1.0
  O  O44  1  0.67731948  0.29457962  0.26388283  1.0
  O  O45  1  0.67731948  0.20542038  0.76388283  1.0
  O  O46  1  0.32268052  0.79457962  0.23611717  1.0
  O  O47  1  0.32268052  0.70542038  0.73611717  1.0
