# generated using pymatgen
data_CaLaMn2O6
_symmetry_space_group_name_H-M   'P 1'
_cell_length_a   7.67282683
_cell_length_b   10.90828101
_cell_length_c   5.43709504
_cell_angle_alpha   90.00000000
_cell_angle_beta   90.00000000
_cell_angle_gamma   90.00000000
_symmetry_Int_Tables_number   1
_chemical_formula_structural   CaLaMn2O6
_chemical_formula_sum   'Ca4 La4 Mn8 O24'
_cell_volume   455.07045293
_cell_formula_units_Z   4
loop_
 _symmetry_equiv_pos_site_id
 _symmetry_equiv_pos_as_xyz
  1  'x, y, z'
loop_
 _atom_site_type_symbol
 _atom_site_label
 _atom_site_symmetry_multiplicity
 _atom_site_fract_x
 _atom_site_fract_y
 _atom_site_fract_z
 _atom_site_occupancy
  Ca  Ca0  1  0.50000000  0.89338203  0.01064347  1.0
  Ca  Ca1  1  0.00000000  0.10661797  0.51064347  1.0
  Ca  Ca2  1  0.50000000  0.39334379  0.01063036  1.0
  Ca  Ca3  1  0.00000000  0.60665621  0.51063036  1.0
  La  La4  1  0.50000000  0.63751451  0.49833590  1.0
  La  La5  1  0.00000000  0.36248549  -0.00166410  1.0
  La  La6  1  0.50000000  0.13757045  0.49839769  1.0
  La  La7  1  0.00000000  0.86242955  -0.00160231  1.0
  Mn  Mn8  1  0.25055316  0.37484279  0.50285248  1.0
  Mn  Mn9  1  0.75055316  0.62515721  0.00285248  1.0
  Mn  Mn10  1  0.74944684  0.37484279  0.50285248  1.0
  Mn  Mn11  1  0.24944684  0.62515721  0.00285248  1.0
  Mn  Mn12  1  0.25057487  0.87482742  0.50288281  1.0
  Mn  Mn13  1  0.75057487  0.12517258  1.00288281  1.0
  Mn  Mn14  1  0.74942513  0.87482742  0.50288281  1.0
  Mn  Mn15  1  0.24942513  0.12517258  1.00288281  1.0
  O  O16  1  0.28750720  0.76677826  0.21928031  1.0
  O  O17  1  0.78750720  0.23322174  0.71928031  1.0
  O  O18  1  0.71249280  0.76677826  0.21928031  1.0
  O  O19  1  0.21249280  0.23322174  0.71928031  1.0
  O  O20  1  0.21250300  0.73319847  0.71930490  1.0
  O  O21  1  0.71250300  0.26680153  0.21930490  1.0
  O  O22  1  0.78749700  0.73319847  0.71930490  1.0
  O  O23  1  0.28749700  0.26680153  0.21930490  1.0
  O  O24  1  0.21775561  0.48612021  0.78011819  1.0
  O  O25  1  0.71775561  0.51387979  0.28011819  1.0
  O  O26  1  0.78224439  0.48612021  0.78011819  1.0
  O  O27  1  0.28224439  0.51387979  0.28011819  1.0
  O  O28  1  0.21781203  0.98608525  0.78026957  1.0
  O  O29  1  0.71781203  0.01391475  0.28026957  1.0
  O  O30  1  0.78218797  0.98608525  0.78026957  1.0
  O  O31  1  0.28218797  0.01391475  0.28026957  1.0
  O  O32  1  0.50000000  0.87015066  0.57466552  1.0
  O  O33  1  0.00000000  0.12984934  0.07466552  1.0
  O  O34  1  0.50000000  0.61795726  0.94267716  1.0
  O  O35  1  0.00000000  0.38204274  0.44267716  1.0
  O  O36  1  0.50000000  0.37020156  0.57465369  1.0
  O  O37  1  0.00000000  0.62979844  0.07465369  1.0
  O  O38  1  0.50000000  0.11803541  0.94277967  1.0
  O  O39  1  0.00000000  0.88196459  0.44277967  1.0
