# generated using pymatgen
data_Cs(PIr)2
_symmetry_space_group_name_H-M   'P 1'
_cell_length_a   7.76186581
_cell_length_b   7.76186581
_cell_length_c   7.76186581
_cell_angle_alpha   150.37494032
_cell_angle_beta   150.37494032
_cell_angle_gamma   42.39130871
_symmetry_Int_Tables_number   1
_chemical_formula_structural   Cs(PIr)2
_chemical_formula_sum   'Cs1 P2 Ir2'
_cell_volume   113.98663397
_cell_formula_units_Z   1
loop_
 _symmetry_equiv_pos_site_id
 _symmetry_equiv_pos_as_xyz
  1  'x, y, z'
loop_
 _atom_site_type_symbol
 _atom_site_label
 _atom_site_symmetry_multiplicity
 _atom_site_fract_x
 _atom_site_fract_y
 _atom_site_fract_z
 _atom_site_occupancy
  Cs  Cs0  1  0.00000000  0.00000000  0.00000000  1.0
  P  P1  1  0.66166730  0.66166730  1.00000000  1.0
  P  P2  1  0.33833270  0.33833270  0.00000000  1.0
  Ir  Ir3  1  0.25000000  0.75000000  0.50000000  1.0
  Ir  Ir4  1  0.75000000  0.25000000  0.50000000  1.0
