# generated using pymatgen
data_FeSeO3F
_symmetry_space_group_name_H-M   'P 1'
_cell_length_a   5.11329103
_cell_length_b   5.26097706
_cell_length_c   12.56973800
_cell_angle_alpha   90.00000000
_cell_angle_beta   106.06953544
_cell_angle_gamma   90.00000000
_symmetry_Int_Tables_number   1
_chemical_formula_structural   FeSeO3F
_chemical_formula_sum   'Fe4 Se4 O12 F4'
_cell_volume   324.92512979
_cell_formula_units_Z   4
loop_
 _symmetry_equiv_pos_site_id
 _symmetry_equiv_pos_as_xyz
  1  'x, y, z'
loop_
 _atom_site_type_symbol
 _atom_site_label
 _atom_site_symmetry_multiplicity
 _atom_site_fract_x
 _atom_site_fract_y
 _atom_site_fract_z
 _atom_site_occupancy
  Fe  Fe0  1  0.88100297  0.25398292  0.42539162  1.0
  Fe  Fe1  1  0.88100297  0.24601708  0.92539162  1.0
  Fe  Fe2  1  0.11899703  0.75398292  0.07460838  1.0
  Fe  Fe3  1  0.11899703  0.74601708  0.57460838  1.0
  Se  Se4  1  0.68189645  0.35508036  0.16367063  1.0
  Se  Se5  1  0.68189645  0.14491964  0.66367063  1.0
  Se  Se6  1  0.31810355  0.85508036  0.33632937  1.0
  Se  Se7  1  0.31810355  0.64491964  0.83632937  1.0
  O  O8  1  0.91188855  0.41832199  0.29017088  1.0
  O  O9  1  0.91188855  0.08167801  0.79017088  1.0
  O  O10  1  0.08811145  0.91832199  0.20982912  1.0
  O  O11  1  0.08811145  0.58167801  0.70982912  1.0
  O  O12  1  0.87995464  0.44422971  0.07462176  1.0
  O  O13  1  0.87995464  0.05577029  0.57462176  1.0
  O  O14  1  0.12004536  0.94422971  0.42537824  1.0
  O  O15  1  0.12004536  0.55577029  0.92537824  1.0
  O  O16  1  0.52510039  0.11863743  0.34566230  1.0
  O  O17  1  0.52510039  0.38136257  0.84566230  1.0
  O  O18  1  0.47489961  0.61863743  0.15433770  1.0
  O  O19  1  0.47489961  0.88136257  0.65433770  1.0
  F  F20  1  0.76105312  0.93638913  0.98926792  1.0
  F  F21  1  0.76105312  0.56361087  0.48926792  1.0
  F  F22  1  0.23894688  0.43638913  0.51073208  1.0
  F  F23  1  0.23894688  0.06361087  0.01073208  1.0
