# generated using pymatgen
data_Rb4Fe2O5
_symmetry_space_group_name_H-M   'P 1'
_cell_length_a   9.63068870
_cell_length_b   9.63068870
_cell_length_c   7.36170613
_cell_angle_alpha   84.86810703
_cell_angle_beta   95.13189297
_cell_angle_gamma   43.96410172
_symmetry_Int_Tables_number   1
_chemical_formula_structural   Rb4Fe2O5
_chemical_formula_sum   'Rb8 Fe4 O10'
_cell_volume   460.27167287
_cell_formula_units_Z   2
loop_
 _symmetry_equiv_pos_site_id
 _symmetry_equiv_pos_as_xyz
  1  'x, y, z'
loop_
 _atom_site_type_symbol
 _atom_site_label
 _atom_site_symmetry_multiplicity
 _atom_site_fract_x
 _atom_site_fract_y
 _atom_site_fract_z
 _atom_site_occupancy
  Rb  Rb0  1  1.46720470  0.17074787  0.11499742  1.0
  Rb  Rb1  1  0.82925213  0.53279530  0.61499742  1.0
  Rb  Rb2  1  1.17074787  0.46720470  0.38500258  1.0
  Rb  Rb3  1  1.53279530  -0.17074787  0.88500258  1.0
  Rb  Rb4  1  0.98075058  0.98075058  0.25000000  1.0
  Rb  Rb5  1  1.01924942  0.01924942  0.75000000  1.0
  Rb  Rb6  1  0.53595030  0.53595030  0.25000000  1.0
  Rb  Rb7  1  1.46404970  0.46404970  0.75000000  1.0
  Fe  Fe8  1  1.30542879  0.00313123  0.40535525  1.0
  Fe  Fe9  1  0.99686877  0.69457121  0.90535525  1.0
  Fe  Fe10  1  1.00313123  0.30542879  0.09464475  1.0
  Fe  Fe11  1  1.69457121  -0.00313123  0.59464475  1.0
  O  O12  1  1.64115413  0.20443206  0.45822947  1.0
  O  O13  1  0.79556794  0.35884587  0.95822947  1.0
  O  O14  1  1.20443206  0.64115413  0.04177053  1.0
  O  O15  1  1.35884587  -0.20443206  0.54177053  1.0
  O  O16  1  1.27503597  0.01949914  0.13418562  1.0
  O  O17  1  0.98050086  0.72496403  0.63418562  1.0
  O  O18  1  1.01949914  0.27503597  0.36581438  1.0
  O  O19  1  1.72496403  -0.01949914  0.86581438  1.0
  O  O20  1  1.50000000  -0.00000000  0.50000000  1.0
  O  O21  1  1.00000000  0.50000000  0.00000000  1.0
