# generated using pymatgen
data_WS2O9
_symmetry_space_group_name_H-M   'P 1'
_cell_length_a   7.97144864
_cell_length_b   12.89095851
_cell_length_c   9.40185540
_cell_angle_alpha   90.00000000
_cell_angle_beta   124.99290472
_cell_angle_gamma   90.00000000
_symmetry_Int_Tables_number   1
_chemical_formula_structural   WS2O9
_chemical_formula_sum   'W4 S8 O36'
_cell_volume   791.47682545
_cell_formula_units_Z   4
loop_
 _symmetry_equiv_pos_site_id
 _symmetry_equiv_pos_as_xyz
  1  'x, y, z'
loop_
 _atom_site_type_symbol
 _atom_site_label
 _atom_site_symmetry_multiplicity
 _atom_site_fract_x
 _atom_site_fract_y
 _atom_site_fract_z
 _atom_site_occupancy
  W  W0  1  0.82934483  0.85327488  0.27662424  1.0
  W  W1  1  0.82934483  0.64672512  0.77662424  1.0
  W  W2  1  0.17065517  0.35327488  0.22337576  1.0
  W  W3  1  0.17065517  0.14672512  0.72337576  1.0
  S  S4  1  0.97574823  0.30959259  0.38265148  1.0
  S  S5  1  0.97574823  0.19040741  0.88265148  1.0
  S  S6  1  0.02425177  0.80959259  0.11734852  1.0
  S  S7  1  0.02425177  0.69040741  0.61734852  1.0
  S  S8  1  0.70257996  0.02639426  0.36485545  1.0
  S  S9  1  0.70257996  0.47360574  0.86485545  1.0
  S  S10  1  0.29742004  0.52639426  0.13514455  1.0
  S  S11  1  0.29742004  0.97360574  0.63514455  1.0
  O  O12  1  0.99880741  0.24580103  0.25614261  1.0
  O  O13  1  0.99880741  0.25419897  0.75614261  1.0
  O  O14  1  0.00119259  0.74580103  0.24385739  1.0
  O  O15  1  0.00119259  0.75419897  0.74385739  1.0
  O  O16  1  0.92143706  0.90917633  0.12333946  1.0
  O  O17  1  0.92143706  0.59082367  0.62333946  1.0
  O  O18  1  0.07856294  0.40917633  0.37666054  1.0
  O  O19  1  0.07856294  0.09082367  0.87666054  1.0
  O  O20  1  0.87450531  0.73318725  0.43558682  1.0
  O  O21  1  0.87450531  0.76681275  0.93558682  1.0
  O  O22  1  0.12549469  0.23318725  0.06441318  1.0
  O  O23  1  0.12549469  0.26681275  0.56441318  1.0
  O  O24  1  0.85682613  0.40435196  0.00517795  1.0
  O  O25  1  0.85682613  0.09564804  0.50517795  1.0
  O  O26  1  0.14317387  0.90435196  0.49482205  1.0
  O  O27  1  0.14317387  0.59564804  0.99482205  1.0
  O  O28  1  0.76240591  0.00856281  0.23461871  1.0
  O  O29  1  0.76240591  0.49143719  0.73461871  1.0
  O  O30  1  0.23759409  0.50856281  0.26538129  1.0
  O  O31  1  0.23759409  0.99143719  0.76538129  1.0
  O  O32  1  0.77215577  0.32095085  0.33544703  1.0
  O  O33  1  0.77215577  0.17904915  0.83544703  1.0
  O  O34  1  0.22784423  0.82095085  0.16455297  1.0
  O  O35  1  0.22784423  0.67904915  0.66455297  1.0
  O  O36  1  0.74617375  0.91225711  0.43188525  1.0
  O  O37  1  0.74617375  0.58774289  0.93188525  1.0
  O  O38  1  0.25382625  0.41225711  0.06811475  1.0
  O  O39  1  0.25382625  0.08774289  0.56811475  1.0
  O  O40  1  0.49567283  0.05864369  0.28475590  1.0
  O  O41  1  0.49567283  0.44135631  0.78475590  1.0
  O  O42  1  0.50432717  0.55864369  0.21524410  1.0
  O  O43  1  0.50432717  0.94135631  0.71524410  1.0
  O  O44  1  0.40353185  0.30927890  0.38827081  1.0
  O  O45  1  0.40353185  0.19072110  0.88827081  1.0
  O  O46  1  0.59646815  0.80927890  0.11172919  1.0
  O  O47  1  0.59646815  0.69072110  0.61172919  1.0
