# generated using pymatgen
data_TlB(CN)4
_symmetry_space_group_name_H-M   'P 1'
_cell_length_a   9.00208612
_cell_length_b   9.00208612
_cell_length_c   9.00208612
_cell_angle_alpha   132.69194357
_cell_angle_beta   132.69194357
_cell_angle_gamma   69.13834835
_symmetry_Int_Tables_number   1
_chemical_formula_structural   TlB(CN)4
_chemical_formula_sum   'Tl2 B2 C8 N8'
_cell_volume   386.78735473
_cell_formula_units_Z   2
loop_
 _symmetry_equiv_pos_site_id
 _symmetry_equiv_pos_as_xyz
  1  'x, y, z'
loop_
 _atom_site_type_symbol
 _atom_site_label
 _atom_site_symmetry_multiplicity
 _atom_site_fract_x
 _atom_site_fract_y
 _atom_site_fract_z
 _atom_site_occupancy
  Tl  Tl0  1  0.25000000  0.75000000  0.50000000  1.0
  Tl  Tl1  1  0.50000000  0.50000000  0.00000000  1.0
  B  B2  1  0.75000000  0.25000000  0.50000000  1.0
  B  B3  1  1.00000000  1.00000000  1.00000000  1.0
  C  C4  1  0.96230488  0.40936581  0.75029018  1.0
  C  C5  1  0.65907563  1.21201470  1.24970982  1.0
  C  C6  1  0.96201470  1.21230488  1.05293906  1.0
  C  C7  1  1.15936581  0.90907563  0.94706094  1.0
  C  C8  1  0.78769512  0.84063419  0.74970982  1.0
  C  C9  1  1.09092437  1.03798530  1.25029018  1.0
  C  C10  1  0.78798530  1.03769512  1.44706094  1.0
  C  C11  1  0.59063419  0.34092437  0.55293906  1.0
  N  N12  1  1.16128647  1.06903053  1.43725980  1.0
  N  N13  1  0.63177073  0.72402667  0.56274020  1.0
  N  N14  1  0.47402667  0.41128647  0.59225594  1.0
  N  N15  1  0.81903053  0.88177073  1.40774406  1.0
  N  N16  1  0.58871353  1.18096947  1.06274020  1.0
  N  N17  1  1.11822927  0.52597333  0.93725980  1.0
  N  N18  1  1.27597333  0.83871353  0.90774406  1.0
  N  N19  1  0.93096947  1.36822927  1.09225594  1.0
