# generated using pymatgen
data_NaAsO3
_symmetry_space_group_name_H-M   'P 1'
_cell_length_a   7.47820928
_cell_length_b   7.65459461
_cell_length_c   8.37180765
_cell_angle_alpha   104.30576041
_cell_angle_beta   92.64165929
_cell_angle_gamma   90.78446582
_symmetry_Int_Tables_number   1
_chemical_formula_structural   NaAsO3
_chemical_formula_sum   'Na6 As6 O18'
_cell_volume   463.71502149
_cell_formula_units_Z   6
loop_
 _symmetry_equiv_pos_site_id
 _symmetry_equiv_pos_as_xyz
  1  'x, y, z'
loop_
 _atom_site_type_symbol
 _atom_site_label
 _atom_site_symmetry_multiplicity
 _atom_site_fract_x
 _atom_site_fract_y
 _atom_site_fract_z
 _atom_site_occupancy
  Na  Na0  1  1.01754869  0.74895814  -0.01070716  1.0
  Na  Na1  1  -0.01754869  0.25104186  1.01070716  1.0
  Na  Na2  1  0.76239395  0.56952463  0.30425563  1.0
  Na  Na3  1  0.23760605  0.43047537  0.69574437  1.0
  Na  Na4  1  0.25679211  0.94281670  0.71990986  1.0
  Na  Na5  1  0.74320789  0.05718330  0.28009014  1.0
  As  As6  1  0.78205403  0.94777389  0.66765033  1.0
  As  As7  1  0.21794597  0.05222611  0.33234967  1.0
  As  As8  1  0.76981682  0.37387823  0.67857876  1.0
  As  As9  1  0.23018318  0.62612177  0.32142124  1.0
  As  As10  1  0.55063831  0.72014847  0.88262137  1.0
  As  As11  1  0.44936169  0.27985153  0.11737863  1.0
  O  O12  1  0.95617597  0.95361448  0.80536469  1.0
  O  O13  1  0.04382403  0.04638552  0.19463531  1.0
  O  O14  1  0.94955321  0.44409711  0.81115825  1.0
  O  O15  1  0.05044679  0.55590289  0.18884175  1.0
  O  O16  1  0.80198267  0.86669588  0.46302811  1.0
  O  O17  1  0.19801733  0.13330412  0.53697189  1.0
  O  O18  1  0.78078271  0.36403442  0.47651023  1.0
  O  O19  1  0.21921729  0.63596558  0.52348977  1.0
  O  O20  1  0.70248868  0.77559027  0.04283191  1.0
  O  O21  1  0.29751132  0.22440973  0.95716809  1.0
  O  O22  1  0.67646280  0.16436345  0.70626414  1.0
  O  O23  1  0.32353720  0.83563655  0.29373586  1.0
  O  O24  1  0.58376590  0.84083952  0.72287502  1.0
  O  O25  1  0.41623410  0.15916048  0.27712498  1.0
  O  O26  1  0.56915005  0.48971500  0.76010375  1.0
  O  O27  1  0.43084995  0.51028500  0.23989625  1.0
  O  O28  1  0.32658992  0.73245529  0.89834736  1.0
  O  O29  1  0.67341008  0.26754471  0.10165264  1.0
