# generated using pymatgen
data_Ba2GaBiS5
_symmetry_space_group_name_H-M   'P 1'
_cell_length_a   12.33135864
_cell_length_b   8.93473577
_cell_length_c   9.15696085
_cell_angle_alpha   90.00000000
_cell_angle_beta   90.00000000
_cell_angle_gamma   90.00000000
_symmetry_Int_Tables_number   1
_chemical_formula_structural   Ba2GaBiS5
_chemical_formula_sum   'Ba8 Ga4 Bi4 S20'
_cell_volume   1008.89042402
_cell_formula_units_Z   4
loop_
 _symmetry_equiv_pos_site_id
 _symmetry_equiv_pos_as_xyz
  1  'x, y, z'
loop_
 _atom_site_type_symbol
 _atom_site_label
 _atom_site_symmetry_multiplicity
 _atom_site_fract_x
 _atom_site_fract_y
 _atom_site_fract_z
 _atom_site_occupancy
  Ba  Ba0  1  0.17696267  0.99279820  0.88234922  1.0
  Ba  Ba1  1  0.17696267  0.50720180  0.88234922  1.0
  Ba  Ba2  1  0.67696267  0.99279820  0.61765078  1.0
  Ba  Ba3  1  0.67696267  0.50720180  0.61765078  1.0
  Ba  Ba4  1  0.82303733  0.49279820  0.11765078  1.0
  Ba  Ba5  1  0.82303733  0.00720180  0.11765078  1.0
  Ba  Ba6  1  0.32303733  0.49279820  0.38234922  1.0
  Ba  Ba7  1  0.32303733  0.00720180  0.38234922  1.0
  Ga  Ga8  1  0.40412459  0.75000000  0.67425093  1.0
  Ga  Ga9  1  0.90412459  0.75000000  0.82574907  1.0
  Ga  Ga10  1  0.59587541  0.25000000  0.32574907  1.0
  Ga  Ga11  1  0.09587541  0.25000000  0.17425093  1.0
  Bi  Bi12  1  0.48174180  0.75000000  0.03467216  1.0
  Bi  Bi13  1  0.98174180  0.75000000  0.46532784  1.0
  Bi  Bi14  1  0.51825820  0.25000000  0.96532784  1.0
  Bi  Bi15  1  0.01825820  0.25000000  0.53467216  1.0
  S  S16  1  0.44325684  0.95259744  0.82541927  1.0
  S  S17  1  0.44325684  0.54740256  0.82541927  1.0
  S  S18  1  0.94325684  0.95259744  0.67458073  1.0
  S  S19  1  0.94325684  0.54740256  0.67458073  1.0
  S  S20  1  0.55674316  0.45259744  0.17458073  1.0
  S  S21  1  0.55674316  0.04740256  0.17458073  1.0
  S  S22  1  0.05674316  0.45259744  0.32541927  1.0
  S  S23  1  0.05674316  0.04740256  0.32541927  1.0
  S  S24  1  0.28625673  0.75000000  0.12817851  1.0
  S  S25  1  0.78625673  0.75000000  0.37182149  1.0
  S  S26  1  0.71374327  0.25000000  0.87182149  1.0
  S  S27  1  0.21374327  0.25000000  0.62817851  1.0
  S  S28  1  0.22433281  0.75000000  0.62118410  1.0
  S  S29  1  0.72433281  0.75000000  0.87881590  1.0
  S  S30  1  0.77566719  0.25000000  0.37881590  1.0
  S  S31  1  0.27566719  0.25000000  0.12118410  1.0
  S  S32  1  0.00626437  0.75000000  0.02733502  1.0
  S  S33  1  0.50626437  0.75000000  0.47266498  1.0
  S  S34  1  0.99373563  0.25000000  0.97266498  1.0
  S  S35  1  0.49373563  0.25000000  0.52733502  1.0
