# generated using pymatgen
data_Ba2Cd(BO3)2
_symmetry_space_group_name_H-M   'P 1'
_cell_length_a   5.60869774
_cell_length_b   5.60869774
_cell_length_c   6.68429635
_cell_angle_alpha   65.25198773
_cell_angle_beta   114.74801227
_cell_angle_gamma   122.56554927
_symmetry_Int_Tables_number   1
_chemical_formula_structural   Ba2Cd(BO3)2
_chemical_formula_sum   'Ba2 Cd1 B2 O6'
_cell_volume   155.71907742
_cell_formula_units_Z   1
loop_
 _symmetry_equiv_pos_site_id
 _symmetry_equiv_pos_as_xyz
  1  'x, y, z'
loop_
 _atom_site_type_symbol
 _atom_site_label
 _atom_site_symmetry_multiplicity
 _atom_site_fract_x
 _atom_site_fract_y
 _atom_site_fract_z
 _atom_site_occupancy
  Ba  Ba0  1  0.79168493  0.20831507  0.30937096  1.0
  Ba  Ba1  1  0.20831507  -0.20831507  0.69062904  1.0
  Cd  Cd2  1  0.00000000  0.00000000  0.00000000  1.0
  B  B3  1  0.55541728  0.44458272  0.76095471  1.0
  B  B4  1  0.44458272  -0.44458272  0.23904529  1.0
  O  O5  1  0.69583489  -0.25030909  0.72384487  1.0
  O  O6  1  1.25030909  0.30416511  0.72384487  1.0
  O  O7  1  0.74969091  0.69583489  0.27615513  1.0
  O  O8  1  0.30416511  0.25030909  0.27615513  1.0
  O  O9  1  0.71238425  0.28761575  0.83373669  1.0
  O  O10  1  0.28761575  -0.28761575  0.16626331  1.0
