# generated using pymatgen
data_YCuPbS3
_symmetry_space_group_name_H-M   'P 1'
_cell_length_a   10.30436837
_cell_length_b   3.92947572
_cell_length_c   13.06437354
_cell_angle_alpha   90.00000000
_cell_angle_beta   90.00000000
_cell_angle_gamma   90.00000000
_symmetry_Int_Tables_number   1
_chemical_formula_structural   YCuPbS3
_chemical_formula_sum   'Y4 Cu4 Pb4 S12'
_cell_volume   528.98648312
_cell_formula_units_Z   4
loop_
 _symmetry_equiv_pos_site_id
 _symmetry_equiv_pos_as_xyz
  1  'x, y, z'
loop_
 _atom_site_type_symbol
 _atom_site_label
 _atom_site_symmetry_multiplicity
 _atom_site_fract_x
 _atom_site_fract_y
 _atom_site_fract_z
 _atom_site_occupancy
  Y  Y0  1  0.97814562  0.75000000  0.75922975  1.0
  Y  Y1  1  0.47814562  0.75000000  0.74077025  1.0
  Y  Y2  1  0.02185438  0.25000000  0.24077025  1.0
  Y  Y3  1  0.52185438  0.25000000  0.25922975  1.0
  Cu  Cu4  1  0.76830791  0.75000000  0.27783361  1.0
  Cu  Cu5  1  0.26830791  0.75000000  0.22216639  1.0
  Cu  Cu6  1  0.23169209  0.25000000  0.72216639  1.0
  Cu  Cu7  1  0.73169209  0.25000000  0.77783361  1.0
  Pb  Pb8  1  0.71835033  0.75000000  -0.00110079  1.0
  Pb  Pb9  1  0.21835033  0.75000000  0.50110079  1.0
  Pb  Pb10  1  0.28164967  0.25000000  1.00110079  1.0
  Pb  Pb11  1  0.78164967  0.25000000  0.49889921  1.0
  S  S12  1  0.95505862  0.75000000  0.38099918  1.0
  S  S13  1  0.45505862  0.75000000  0.11900082  1.0
  S  S14  1  0.04494138  0.25000000  0.61900082  1.0
  S  S15  1  0.54494138  0.25000000  0.88099918  1.0
  S  S16  1  0.73252868  0.75000000  0.67338772  1.0
  S  S17  1  0.23252868  0.75000000  0.82661228  1.0
  S  S18  1  0.26747132  0.25000000  0.32661228  1.0
  S  S19  1  0.76747132  0.25000000  0.17338772  1.0
  S  S20  1  0.59512890  0.75000000  0.39094125  1.0
  S  S21  1  0.09512890  0.75000000  0.10905875  1.0
  S  S22  1  0.40487110  0.25000000  0.60905875  1.0
  S  S23  1  0.90487110  0.25000000  0.89094125  1.0
