# generated using pymatgen
data_Y2Ni7Sn3
_symmetry_space_group_name_H-M   'P 1'
_cell_length_a   12.68811760
_cell_length_b   12.68811760
_cell_length_c   7.56785048
_cell_angle_alpha   90.00000000
_cell_angle_beta   90.00000000
_cell_angle_gamma   140.24954635
_symmetry_Int_Tables_number   1
_chemical_formula_structural   Y2Ni7Sn3
_chemical_formula_sum   'Y8 Ni28 Sn12'
_cell_volume   779.05871550
_cell_formula_units_Z   4
loop_
 _symmetry_equiv_pos_site_id
 _symmetry_equiv_pos_as_xyz
  1  'x, y, z'
loop_
 _atom_site_type_symbol
 _atom_site_label
 _atom_site_symmetry_multiplicity
 _atom_site_fract_x
 _atom_site_fract_y
 _atom_site_fract_z
 _atom_site_occupancy
  Y  Y0  1  0.19366506  0.80633494  0.57251482  1.0
  Y  Y1  1  -0.30633494  0.30633494  0.92748518  1.0
  Y  Y2  1  -0.19366506  0.19366506  0.42748518  1.0
  Y  Y3  1  0.30633494  0.69366506  0.07251482  1.0
  Y  Y4  1  0.79417798  0.79417798  0.00000000  1.0
  Y  Y5  1  0.29417798  0.29417798  0.50000000  1.0
  Y  Y6  1  0.20582202  0.20582202  0.00000000  1.0
  Y  Y7  1  0.70582202  0.70582202  0.50000000  1.0
  Ni  Ni8  1  0.04873063  0.65461532  0.92088931  1.0
  Ni  Ni9  1  0.54873063  1.15461532  0.57911069  1.0
  Ni  Ni10  1  0.65461532  1.04873063  0.07911069  1.0
  Ni  Ni11  1  0.15461532  0.54873063  0.42088931  1.0
  Ni  Ni12  1  0.34538468  0.95126937  0.92088931  1.0
  Ni  Ni13  1  -0.15461532  0.45126937  0.57911069  1.0
  Ni  Ni14  1  -0.04873063  0.34538468  0.07911069  1.0
  Ni  Ni15  1  0.45126937  0.84538468  0.42088931  1.0
  Ni  Ni16  1  0.14279185  0.37624199  0.90765977  1.0
  Ni  Ni17  1  0.64279185  0.87624199  0.59234023  1.0
  Ni  Ni18  1  0.37624199  1.14279185  0.09234023  1.0
  Ni  Ni19  1  -0.12375801  0.64279185  0.40765977  1.0
  Ni  Ni20  1  0.62375801  0.85720815  0.90765977  1.0
  Ni  Ni21  1  0.12375801  0.35720815  0.59234023  1.0
  Ni  Ni22  1  -0.14279185  0.62375801  0.09234023  1.0
  Ni  Ni23  1  0.35720815  1.12375801  0.40765977  1.0
  Ni  Ni24  1  0.04528077  0.95471923  0.65212348  1.0
  Ni  Ni25  1  -0.45471923  0.45471923  0.84787652  1.0
  Ni  Ni26  1  -0.04528077  0.04528077  0.34787652  1.0
  Ni  Ni27  1  0.45471923  0.54528077  0.15212348  1.0
  Ni  Ni28  1  0.10097908  0.89902092  0.94560069  1.0
  Ni  Ni29  1  -0.39902092  0.39902092  0.55439931  1.0
  Ni  Ni30  1  -0.10097908  0.10097908  0.05439931  1.0
  Ni  Ni31  1  0.39902092  0.60097908  0.44560069  1.0
  Ni  Ni32  1  0.33469869  0.66530131  0.68931724  1.0
  Ni  Ni33  1  -0.16530131  0.16530131  0.81068276  1.0
  Ni  Ni34  1  -0.33469869  0.33469869  0.31068276  1.0
  Ni  Ni35  1  0.16530131  0.83469869  0.18931724  1.0
  Sn  Sn36  1  0.43729711  0.56270289  0.79851678  1.0
  Sn  Sn37  1  -0.06270289  0.06270289  0.70148322  1.0
  Sn  Sn38  1  -0.43729711  0.43729711  0.20148322  1.0
  Sn  Sn39  1  0.06270289  0.93729711  0.29851678  1.0
  Sn  Sn40  1  -0.14422310  0.64422310  0.75000000  1.0
  Sn  Sn41  1  0.35577690  1.14422310  0.75000000  1.0
  Sn  Sn42  1  0.64422310  0.85577690  0.25000000  1.0
  Sn  Sn43  1  0.14422310  0.35577690  0.25000000  1.0
  Sn  Sn44  1  0.03115643  0.46884357  0.75000000  1.0
  Sn  Sn45  1  0.53115643  0.96884357  0.75000000  1.0
  Sn  Sn46  1  0.46884357  1.03115643  0.25000000  1.0
  Sn  Sn47  1  -0.03115643  0.53115643  0.25000000  1.0
