# generated using pymatgen
data_K2AgAs
_symmetry_space_group_name_H-M   'P 1'
_cell_length_a   6.44040115
_cell_length_b   6.44040115
_cell_length_c   6.12079028
_cell_angle_alpha   90.00000000
_cell_angle_beta   90.00000000
_cell_angle_gamma   103.58622156
_symmetry_Int_Tables_number   1
_chemical_formula_structural   K2AgAs
_chemical_formula_sum   'K4 Ag2 As2'
_cell_volume   246.77856205
_cell_formula_units_Z   2
loop_
 _symmetry_equiv_pos_site_id
 _symmetry_equiv_pos_as_xyz
  1  'x, y, z'
loop_
 _atom_site_type_symbol
 _atom_site_label
 _atom_site_symmetry_multiplicity
 _atom_site_fract_x
 _atom_site_fract_y
 _atom_site_fract_z
 _atom_site_occupancy
  K  K0  1  -0.18364074  1.47145260  0.49991109  1.0
  K  K1  1  0.47145260  0.81635926  0.50008891  1.0
  K  K2  1  -0.47145260  1.18364074  0.00008891  1.0
  K  K3  1  0.18364074  0.52854740  0.99991109  1.0
  Ag  Ag4  1  -0.00005325  1.00005325  0.25000000  1.0
  Ag  Ag5  1  0.00005325  0.99994675  0.75000000  1.0
  As  As6  1  0.74093744  0.74093744  0.00000000  1.0
  As  As7  1  0.25906256  0.25906256  0.50000000  1.0
