# generated using pymatgen
data_Ba2YInSe5
_symmetry_space_group_name_H-M   'P 1'
_cell_length_a   9.81059325
_cell_length_b   9.81059325
_cell_length_c   13.47032831
_cell_angle_alpha   90.00000000
_cell_angle_beta   90.00000000
_cell_angle_gamma   154.64468841
_symmetry_Int_Tables_number   1
_chemical_formula_structural   Ba2YInSe5
_chemical_formula_sum   'Ba4 Y2 In2 Se10'
_cell_volume   555.19590446
_cell_formula_units_Z   2
loop_
 _symmetry_equiv_pos_site_id
 _symmetry_equiv_pos_as_xyz
  1  'x, y, z'
loop_
 _atom_site_type_symbol
 _atom_site_label
 _atom_site_symmetry_multiplicity
 _atom_site_fract_x
 _atom_site_fract_y
 _atom_site_fract_z
 _atom_site_occupancy
  Ba  Ba0  1  0.11858042  0.88141958  0.86939896  1.0
  Ba  Ba1  1  -0.11858042  0.11858042  0.36939896  1.0
  Ba  Ba2  1  0.13156824  0.86843176  0.23572970  1.0
  Ba  Ba3  1  -0.13156824  0.13156824  0.73572970  1.0
  Y  Y4  1  0.21068801  0.78931199  0.53141377  1.0
  Y  Y5  1  -0.21068801  0.21068801  0.03141377  1.0
  In  In6  1  -0.44563229  0.44563229  0.61338827  1.0
  In  In7  1  0.44563229  0.55436771  0.11338827  1.0
  Se  Se8  1  0.05144196  0.94855804  0.49890491  1.0
  Se  Se9  1  -0.05144196  0.05144196  -0.00109509  1.0
  Se  Se10  1  0.29140708  0.70859292  0.89203449  1.0
  Se  Se11  1  -0.29140708  0.29140708  0.39203449  1.0
  Se  Se12  1  0.35477742  0.64522258  0.54929133  1.0
  Se  Se13  1  -0.35477742  0.35477742  0.04929133  1.0
  Se  Se14  1  0.49604745  0.50395255  0.78386586  1.0
  Se  Se15  1  -0.49604745  0.49604745  0.28386586  1.0
  Se  Se16  1  -0.31178177  0.31178177  0.67997270  1.0
  Se  Se17  1  0.31178177  0.68821823  0.17997270  1.0
