# generated using pymatgen
data_BaV2(CoO4)2
_symmetry_space_group_name_H-M   'P 1'
_cell_length_a   9.80559262
_cell_length_b   9.80559262
_cell_length_c   9.80559262
_cell_angle_alpha   100.37125239
_cell_angle_beta   100.37125239
_cell_angle_gamma   129.78799803
_symmetry_Int_Tables_number   1
_chemical_formula_structural   BaV2(CoO4)2
_chemical_formula_sum   'Ba4 V8 Co8 O32'
_cell_volume   656.02286753
_cell_formula_units_Z   4
loop_
 _symmetry_equiv_pos_site_id
 _symmetry_equiv_pos_as_xyz
  1  'x, y, z'
loop_
 _atom_site_type_symbol
 _atom_site_label
 _atom_site_symmetry_multiplicity
 _atom_site_fract_x
 _atom_site_fract_y
 _atom_site_fract_z
 _atom_site_occupancy
  Ba  Ba0  1  0.50000000  0.50000000  1.00000000  1.0
  Ba  Ba1  1  1.00000000  1.00000000  1.00000000  1.0
  Ba  Ba2  1  0.75000000  1.25000000  0.50000000  1.0
  Ba  Ba3  1  0.25000000  0.75000000  0.50000000  1.0
  V  V4  1  0.70079875  0.37500000  0.82579875  1.0
  V  V5  1  1.20079875  1.37500000  1.32579875  1.0
  V  V6  1  1.62500000  1.45079875  1.32579875  1.0
  V  V7  1  1.12500000  0.79920125  1.17420125  1.0
  V  V8  1  1.04920125  0.87500000  1.67420125  1.0
  V  V9  1  1.54920125  0.87500000  1.17420125  1.0
  V  V10  1  1.62500000  0.95079875  0.82579875  1.0
  V  V11  1  1.12500000  1.29920125  1.67420125  1.0
  Co  Co12  1  0.92484871  0.92484871  1.34969741  1.0
  Co  Co13  1  1.42484871  1.07515129  1.00000000  1.0
  Co  Co14  1  1.17484871  0.67484871  0.84969741  1.0
  Co  Co15  1  0.67484871  0.82515129  1.50000000  1.0
  Co  Co16  1  0.82515129  0.32515129  1.15030259  1.0
  Co  Co17  1  1.32515129  1.17484871  1.50000000  1.0
  Co  Co18  1  1.57515129  1.57515129  1.65030259  1.0
  Co  Co19  1  1.07515129  0.42484871  1.00000000  1.0
  O  O20  1  1.64630696  1.31234567  0.97846969  1.0
  O  O21  1  1.14630696  1.16783727  1.33396129  1.0
  O  O22  1  1.56234567  1.39630696  1.47846969  1.0
  O  O23  1  1.06234567  0.58387598  1.16603871  1.0
  O  O24  1  1.10369304  0.93765433  1.52153031  1.0
  O  O25  1  1.60369304  1.08216273  1.16603871  1.0
  O  O26  1  1.18765433  0.85369304  1.02153031  1.0
  O  O27  1  0.68765433  0.66612402  1.33396129  1.0
  O  O28  1  1.83387598  1.81234567  1.66603871  1.0
  O  O29  1  1.33387598  0.66783727  1.02153031  1.0
  O  O30  1  1.41783727  0.89630696  0.83396129  1.0
  O  O31  1  0.91783727  1.08387598  1.52153031  1.0
  O  O32  1  0.91612402  0.43765433  0.83396129  1.0
  O  O33  1  1.41612402  1.58216273  1.47846969  1.0
  O  O34  1  1.33216273  1.35369304  1.66603871  1.0
  O  O35  1  0.83216273  0.16612402  0.97846969  1.0
  O  O36  1  1.02069429  0.36380475  1.33045596  1.0
  O  O37  1  1.52069429  1.19023833  1.65688954  1.0
  O  O38  1  0.61380475  0.77069429  0.83045596  1.0
  O  O39  1  1.11380475  1.28334879  0.84311046  1.0
  O  O40  1  0.72930571  0.88619525  1.16954404  1.0
  O  O41  1  1.22930571  1.05976167  0.84311046  1.0
  O  O42  1  1.13619525  1.47930571  0.66954404  1.0
  O  O43  1  0.63619525  0.96665121  0.65688954  1.0
  O  O44  1  0.53334879  0.86380475  0.34311046  1.0
  O  O45  1  0.03334879  0.69023833  0.66954404  1.0
  O  O46  1  1.44023833  1.27069429  1.15688954  1.0
  O  O47  1  0.94023833  0.78334879  1.16954404  1.0
  O  O48  1  1.21665121  1.38619525  1.15688954  1.0
  O  O49  1  0.71665121  0.55976167  0.83045596  1.0
  O  O50  1  1.30976167  0.97930571  1.34311046  1.0
  O  O51  1  1.80976167  1.46665121  1.33045596  1.0
