# generated using pymatgen
data_LaS
_symmetry_space_group_name_H-M   'P 1'
_cell_length_a   4.08074505
_cell_length_b   4.08074505
_cell_length_c   11.05990262
_cell_angle_alpha   90.00000000
_cell_angle_beta   90.00000000
_cell_angle_gamma   89.99932866
_symmetry_Int_Tables_number   1
_chemical_formula_structural   LaS
_chemical_formula_sum   'La2 S2'
_cell_volume   184.17480882
_cell_formula_units_Z   2
loop_
 _symmetry_equiv_pos_site_id
 _symmetry_equiv_pos_as_xyz
  1  'x, y, z'
loop_
 _atom_site_type_symbol
 _atom_site_label
 _atom_site_symmetry_multiplicity
 _atom_site_fract_x
 _atom_site_fract_y
 _atom_site_fract_z
 _atom_site_occupancy
  La  La0  1  0.74698553  0.75301447  0.61665070  1.0
  La  La1  1  0.24698553  0.25301447  0.38334930  1.0
  S  S2  1  0.24701447  0.25298553  0.64816546  1.0
  S  S3  1  0.74701447  0.75298553  0.35183454  1.0
