# generated using pymatgen
data_VCu3O4
_symmetry_space_group_name_H-M   'P 1'
_cell_length_a   5.56021479
_cell_length_b   5.56021479
_cell_length_c   5.56021479
_cell_angle_alpha   131.31472939
_cell_angle_beta   131.31472939
_cell_angle_gamma   71.31351473
_symmetry_Int_Tables_number   1
_chemical_formula_structural   VCu3O4
_chemical_formula_sum   'V1 Cu3 O4'
_cell_volume   94.92285510
_cell_formula_units_Z   1
loop_
 _symmetry_equiv_pos_site_id
 _symmetry_equiv_pos_as_xyz
  1  'x, y, z'
loop_
 _atom_site_type_symbol
 _atom_site_label
 _atom_site_symmetry_multiplicity
 _atom_site_fract_x
 _atom_site_fract_y
 _atom_site_fract_z
 _atom_site_occupancy
  V  V0  1  0.00000000  0.00000000  0.00000000  1.0
  Cu  Cu1  1  0.25000000  0.75000000  0.50000000  1.0
  Cu  Cu2  1  0.75000000  0.25000000  0.50000000  1.0
  Cu  Cu3  1  0.50000000  0.50000000  1.00000000  1.0
  O  O4  1  0.33649569  0.88919313  1.00000000  1.0
  O  O5  1  1.11080687  1.11080687  1.44730256  1.0
  O  O6  1  0.66350431  0.66350431  0.55269744  1.0
  O  O7  1  0.88919313  0.33649569  1.00000000  1.0
