# generated using pymatgen
data_YSeO3F
_symmetry_space_group_name_H-M   'P 1'
_cell_length_a   6.65548366
_cell_length_b   7.01815748
_cell_length_c   7.28056077
_cell_angle_alpha   90.00000000
_cell_angle_beta   98.34483858
_cell_angle_gamma   90.00000000
_symmetry_Int_Tables_number   1
_chemical_formula_structural   YSeO3F
_chemical_formula_sum   'Y4 Se4 O12 F4'
_cell_volume   336.46892591
_cell_formula_units_Z   4
loop_
 _symmetry_equiv_pos_site_id
 _symmetry_equiv_pos_as_xyz
  1  'x, y, z'
loop_
 _atom_site_type_symbol
 _atom_site_label
 _atom_site_symmetry_multiplicity
 _atom_site_fract_x
 _atom_site_fract_y
 _atom_site_fract_z
 _atom_site_occupancy
  Y  Y0  1  0.85863293  0.85939338  0.67475053  1.0
  Y  Y1  1  0.85863293  0.64060662  0.17475053  1.0
  Y  Y2  1  0.14136707  0.35939338  0.82524947  1.0
  Y  Y3  1  0.14136707  0.14060662  0.32524947  1.0
  Se  Se4  1  0.34872548  0.87826858  0.78767760  1.0
  Se  Se5  1  0.34872548  0.62173142  0.28767760  1.0
  Se  Se6  1  0.65127452  0.37826858  0.71232240  1.0
  Se  Se7  1  0.65127452  0.12173142  0.21232240  1.0
  O  O8  1  0.51369843  0.81316834  0.64032172  1.0
  O  O9  1  0.51369843  0.68683166  0.14032172  1.0
  O  O10  1  0.48630157  0.31316834  0.85967828  1.0
  O  O11  1  0.48630157  0.18683166  0.35967828  1.0
  O  O12  1  0.82554384  0.19242798  0.72295998  1.0
  O  O13  1  0.82554384  0.30757202  0.22295998  1.0
  O  O14  1  0.17445616  0.69242798  0.77704002  1.0
  O  O15  1  0.17445616  0.80757202  0.27704002  1.0
  O  O16  1  0.82626682  0.52787647  0.85166954  1.0
  O  O17  1  0.82626682  0.97212353  0.35166954  1.0
  O  O18  1  0.17373318  0.02787647  0.64833046  1.0
  O  O19  1  0.17373318  0.47212353  0.14833046  1.0
  F  F20  1  0.83330416  0.87823310  0.97307857  1.0
  F  F21  1  0.83330416  0.62176690  0.47307857  1.0
  F  F22  1  0.16669584  0.37823310  0.52692143  1.0
  F  F23  1  0.16669584  0.12176690  0.02692143  1.0
