# generated using pymatgen
data_NaHf2CuSe5
_symmetry_space_group_name_H-M   'P 1'
_cell_length_a   7.28739726
_cell_length_b   7.28739726
_cell_length_c   16.33376926
_cell_angle_alpha   90.00000000
_cell_angle_beta   90.00000000
_cell_angle_gamma   149.77684327
_symmetry_Int_Tables_number   1
_chemical_formula_structural   NaHf2CuSe5
_chemical_formula_sum   'Na2 Hf4 Cu2 Se10'
_cell_volume   436.63440675
_cell_formula_units_Z   2
loop_
 _symmetry_equiv_pos_site_id
 _symmetry_equiv_pos_as_xyz
  1  'x, y, z'
loop_
 _atom_site_type_symbol
 _atom_site_label
 _atom_site_symmetry_multiplicity
 _atom_site_fract_x
 _atom_site_fract_y
 _atom_site_fract_z
 _atom_site_occupancy
  Na  Na0  1  0.02561218  0.97438782  0.75000000  1.0
  Na  Na1  1  -0.02561218  0.02561218  0.25000000  1.0
  Hf  Hf2  1  0.21437644  0.78562356  0.40064762  1.0
  Hf  Hf3  1  0.21437644  0.78562356  0.09935238  1.0
  Hf  Hf4  1  -0.21437644  0.21437644  0.90064762  1.0
  Hf  Hf5  1  -0.21437644  0.21437644  0.59935238  1.0
  Cu  Cu6  1  0.31359691  0.68640309  0.75000000  1.0
  Cu  Cu7  1  -0.31359691  0.31359691  0.25000000  1.0
  Se  Se8  1  0.15811320  0.84188680  0.94169566  1.0
  Se  Se9  1  0.15811320  0.84188680  0.55830434  1.0
  Se  Se10  1  -0.15811320  0.15811320  0.44169566  1.0
  Se  Se11  1  -0.15811320  0.15811320  0.05830434  1.0
  Se  Se12  1  0.41555915  0.58444085  0.86962837  1.0
  Se  Se13  1  0.41555915  0.58444085  0.63037163  1.0
  Se  Se14  1  -0.41555915  0.41555915  0.36962837  1.0
  Se  Se15  1  -0.41555915  0.41555915  0.13037163  1.0
  Se  Se16  1  -0.29830854  0.29830854  0.75000000  1.0
  Se  Se17  1  0.29830854  0.70169146  0.25000000  1.0
