# generated using pymatgen
data_LiCd(C13O4)2
_symmetry_space_group_name_H-M   'P 1'
_cell_length_a   10.03112539
_cell_length_b   10.03112539
_cell_length_c   6.72475122
_cell_angle_alpha   90.00000000
_cell_angle_beta   90.00000000
_cell_angle_gamma   90.00000000
_symmetry_Int_Tables_number   1
_chemical_formula_structural   LiCd(C13O4)2
_chemical_formula_sum   'Li1 Cd1 C26 O8'
_cell_volume   676.66784765
_cell_formula_units_Z   1
loop_
 _symmetry_equiv_pos_site_id
 _symmetry_equiv_pos_as_xyz
  1  'x, y, z'
loop_
 _atom_site_type_symbol
 _atom_site_label
 _atom_site_symmetry_multiplicity
 _atom_site_fract_x
 _atom_site_fract_y
 _atom_site_fract_z
 _atom_site_occupancy
  O  O0  1  0.50000000  0.35759865  0.81039805  1.0
  O  O1  1  0.50000000  0.64240135  0.81039805  1.0
  O  O2  1  0.35759865  0.50000000  0.18960195  1.0
  O  O3  1  0.64240135  0.50000000  0.18960195  1.0
  O  O4  1  0.50000000  0.25805877  0.50791572  1.0
  O  O5  1  0.50000000  0.74194123  0.50791572  1.0
  O  O6  1  0.25805877  0.50000000  0.49208428  1.0
  O  O7  1  0.74194123  0.50000000  0.49208428  1.0
  C  C8  1  0.50000000  0.25708713  0.69527883  1.0
  C  C9  1  0.50000000  0.74291287  0.69527883  1.0
  C  C10  1  0.25708713  0.50000000  0.30472117  1.0
  C  C11  1  0.74291287  0.50000000  0.30472117  1.0
  C  C12  1  0.57805085  0.00000000  0.14187315  1.0
  C  C13  1  0.42194915  0.00000000  0.14187315  1.0
  C  C14  1  0.00000000  0.42194915  0.85812685  1.0
  C  C15  1  0.00000000  0.57805085  0.85812685  1.0
  C  C16  1  0.57294859  0.12278328  0.03592565  1.0
  C  C17  1  0.42705141  0.87721672  0.03592565  1.0
  C  C18  1  0.12278328  0.42705141  0.96407435  1.0
  C  C19  1  0.87721672  0.57294859  0.96407435  1.0
  C  C20  1  0.42705141  0.12278328  0.03592565  1.0
  C  C21  1  0.57294859  0.87721672  0.03592565  1.0
  C  C22  1  0.87721672  0.42705141  0.96407435  1.0
  C  C23  1  0.12278328  0.57294859  0.96407435  1.0
  C  C24  1  0.50000000  -0.00000000  0.71398832  1.0
  C  C25  1  0.00000000  0.50000000  0.28601168  1.0
  C  C26  1  0.57611079  0.12444809  0.80703969  1.0
  C  C27  1  0.42388921  0.87555191  0.80703969  1.0
  C  C28  1  0.12444809  0.42388921  0.19296031  1.0
  C  C29  1  0.87555191  0.57611079  0.19296031  1.0
  C  C30  1  0.42388921  0.12444809  0.80703969  1.0
  C  C31  1  0.57611079  0.87555191  0.80703969  1.0
  C  C32  1  0.87555191  0.42388921  0.19296031  1.0
  C  C33  1  0.12444809  0.57611079  0.19296031  1.0
  Cd  Cd34  1  0.50000000  0.50000000  0.50000000  1.0
  Li  Li35  1  0.50000000  0.50000000  0.00000000  1.0
