# generated using pymatgen
data_K2Co2Se4O9
_symmetry_space_group_name_H-M   'P 1'
_cell_length_a   5.84621822
_cell_length_b   5.84621822
_cell_length_c   17.75763451
_cell_angle_alpha   90.00000000
_cell_angle_beta   90.00000000
_cell_angle_gamma   120.00000000
_symmetry_Int_Tables_number   1
_chemical_formula_structural   K2Co2Se4O9
_chemical_formula_sum   'K4 Co4 Se8 O18'
_cell_volume   525.61262649
_cell_formula_units_Z   2
loop_
 _symmetry_equiv_pos_site_id
 _symmetry_equiv_pos_as_xyz
  1  'x, y, z'
loop_
 _atom_site_type_symbol
 _atom_site_label
 _atom_site_symmetry_multiplicity
 _atom_site_fract_x
 _atom_site_fract_y
 _atom_site_fract_z
 _atom_site_occupancy
  K  K0  1  0.33333333  0.66666667  0.01333971  1.0
  K  K1  1  0.66666667  0.33333333  0.98666029  1.0
  K  K2  1  0.66666667  0.33333333  0.51333971  1.0
  K  K3  1  0.33333333  0.66666667  0.48666029  1.0
  Co  Co4  1  0.33333333  0.66666667  0.67710961  1.0
  Co  Co5  1  0.66666667  0.33333333  0.32289039  1.0
  Co  Co6  1  0.66666667  0.33333333  0.17710961  1.0
  Co  Co7  1  0.33333333  0.66666667  0.82289039  1.0
  Se  Se8  1  0.00000000  0.00000000  0.14552856  1.0
  Se  Se9  1  0.00000000  0.00000000  0.85447144  1.0
  Se  Se10  1  0.00000000  0.00000000  0.64552856  1.0
  Se  Se11  1  0.00000000  0.00000000  0.35447144  1.0
  Se  Se12  1  0.33333333  0.66666667  0.18742698  1.0
  Se  Se13  1  0.66666667  0.33333333  0.81257302  1.0
  Se  Se14  1  0.66666667  0.33333333  0.68742698  1.0
  Se  Se15  1  0.33333333  0.66666667  0.31257302  1.0
  O  O16  1  0.15737169  0.84262831  0.60310222  1.0
  O  O17  1  0.84262831  0.15737169  0.39689778  1.0
  O  O18  1  0.15737169  0.31474338  0.60310222  1.0
  O  O19  1  0.84262831  0.15737169  0.10310222  1.0
  O  O20  1  0.84262831  0.68525662  0.39689778  1.0
  O  O21  1  0.15737169  0.84262831  0.89689778  1.0
  O  O22  1  0.68525662  0.84262831  0.60310222  1.0
  O  O23  1  0.84262831  0.68525662  0.10310222  1.0
  O  O24  1  0.31474338  0.15737169  0.39689778  1.0
  O  O25  1  0.15737169  0.31474338  0.89689778  1.0
  O  O26  1  0.31474338  0.15737169  0.10310222  1.0
  O  O27  1  0.68525662  0.84262831  0.89689778  1.0
  O  O28  1  0.53713157  0.46286843  0.25000000  1.0
  O  O29  1  0.46286843  0.53713157  0.75000000  1.0
  O  O30  1  0.53713157  1.07426314  0.25000000  1.0
  O  O31  1  0.46286843  -0.07426314  0.75000000  1.0
  O  O32  1  -0.07426314  0.46286843  0.25000000  1.0
  O  O33  1  1.07426314  0.53713157  0.75000000  1.0
