# generated using pymatgen
data_YB2Ru
_symmetry_space_group_name_H-M   'P 1'
_cell_length_a   5.91258095
_cell_length_b   5.31723488
_cell_length_c   6.35696990
_cell_angle_alpha   90.00000000
_cell_angle_beta   90.00000000
_cell_angle_gamma   90.00000000
_symmetry_Int_Tables_number   1
_chemical_formula_structural   YB2Ru
_chemical_formula_sum   'Y4 B8 Ru4'
_cell_volume   199.85411740
_cell_formula_units_Z   4
loop_
 _symmetry_equiv_pos_site_id
 _symmetry_equiv_pos_as_xyz
  1  'x, y, z'
loop_
 _atom_site_type_symbol
 _atom_site_label
 _atom_site_symmetry_multiplicity
 _atom_site_fract_x
 _atom_site_fract_y
 _atom_site_fract_z
 _atom_site_occupancy
  Y  Y0  1  0.98843678  0.75000000  0.66356197  1.0
  Y  Y1  1  0.48843678  0.75000000  0.83643803  1.0
  Y  Y2  1  0.01156322  0.25000000  0.33643803  1.0
  Y  Y3  1  0.51156322  0.25000000  0.16356197  1.0
  B  B4  1  0.62996795  0.91517465  0.46156123  1.0
  B  B5  1  0.62996795  0.58482535  0.46156123  1.0
  B  B6  1  0.12996795  0.91517465  0.03843877  1.0
  B  B7  1  0.12996795  0.58482535  0.03843877  1.0
  B  B8  1  0.37003205  0.41517465  0.53843877  1.0
  B  B9  1  0.37003205  0.08482535  0.53843877  1.0
  B  B10  1  0.87003205  0.41517465  0.96156123  1.0
  B  B11  1  0.87003205  0.08482535  0.96156123  1.0
  Ru  Ru12  1  0.81825479  0.75000000  0.18183179  1.0
  Ru  Ru13  1  0.31825479  0.75000000  0.31816821  1.0
  Ru  Ru14  1  0.18174521  0.25000000  0.81816821  1.0
  Ru  Ru15  1  0.68174521  0.25000000  0.68183179  1.0
