# generated using pymatgen
data_LiCaAl3N4
_symmetry_space_group_name_H-M   'P 1'
_cell_length_a   9.83151301
_cell_length_b   7.42688652
_cell_length_c   5.80907184
_cell_angle_alpha   79.75684352
_cell_angle_beta   77.09488678
_cell_angle_gamma   84.25138161
_symmetry_Int_Tables_number   1
_chemical_formula_structural   LiCaAl3N4
_chemical_formula_sum   'Li4 Ca4 Al12 N16'
_cell_volume   406.05191977
_cell_formula_units_Z   4
loop_
 _symmetry_equiv_pos_site_id
 _symmetry_equiv_pos_as_xyz
  1  'x, y, z'
loop_
 _atom_site_type_symbol
 _atom_site_label
 _atom_site_symmetry_multiplicity
 _atom_site_fract_x
 _atom_site_fract_y
 _atom_site_fract_z
 _atom_site_occupancy
  Li  Li0  1  -0.64476128  -0.68384557  -0.20079956  1.0
  Li  Li1  1  -0.35523872  -0.31615443  -0.79920044  1.0
  Li  Li2  1  -0.11466284  -0.82109830  -0.46817660  1.0
  Li  Li3  1  -0.88533716  -0.17890170  -0.53182340  1.0
  Ca  Ca4  1  -0.12427044  -0.63347184  -0.01219661  1.0
  Ca  Ca5  1  -0.87572956  -0.36652816  -0.98780339  1.0
  Ca  Ca6  1  -0.36960521  -0.88206916  -0.02558486  1.0
  Ca  Ca7  1  -0.63039479  -0.11793084  -0.97441514  1.0
  Al  Al8  1  -0.14741938  -0.20725154  -0.16743142  1.0
  Al  Al9  1  -0.85258062  -0.79274846  -0.83256858  1.0
  Al  Al10  1  -0.39784945  -0.44069736  -0.17372502  1.0
  Al  Al11  1  -0.60215055  -0.55930264  -0.82627498  1.0
  Al  Al12  1  -0.90039063  -0.94426682  -0.17823109  1.0
  Al  Al13  1  -0.09960937  -0.05573318  -0.82176891  1.0
  Al  Al14  1  -0.63437154  -0.29631638  -0.43610733  1.0
  Al  Al15  1  -0.36562846  -0.70368362  -0.56389267  1.0
  Al  Al16  1  -0.87697617  -0.54488242  -0.44700654  1.0
  Al  Al17  1  -0.12302383  -0.45511758  -0.55299346  1.0
  Al  Al18  1  -0.37574756  -0.06029606  -0.46963017  1.0
  Al  Al19  1  -0.62425244  -0.93970394  -0.53036983  1.0
  N  N20  1  -0.59581464  -0.42771120  -0.14793097  1.0
  N  N21  1  -0.40418536  -0.57228880  -0.85206903  1.0
  N  N22  1  -0.09273927  -0.96933418  -0.16262353  1.0
  N  N23  1  -0.90726073  -0.03066582  -0.83737647  1.0
  N  N24  1  -0.85921063  -0.70260341  -0.16647946  1.0
  N  N25  1  -0.14078937  -0.29739659  -0.83352054  1.0
  N  N26  1  -0.33481921  -0.20525878  -0.19387934  1.0
  N  N27  1  -0.66518079  -0.79474122  -0.80612066  1.0
  N  N28  1  -0.76157735  -0.09478369  -0.33289787  1.0
  N  N29  1  -0.23842265  -0.90521631  -0.66710213  1.0
  N  N30  1  -0.02843482  -0.37060981  -0.34134313  1.0
  N  N31  1  -0.97156518  -0.62939019  -0.65865687  1.0
  N  N32  1  -0.50381192  -0.85687233  -0.36280892  1.0
  N  N33  1  -0.49618808  -0.14312767  -0.63719108  1.0
  N  N34  1  -0.27819911  -0.58686808  -0.37806241  1.0
  N  N35  1  -0.72180089  -0.41313192  -0.62193759  1.0
