# generated using pymatgen
data_NaB3SeO7
_symmetry_space_group_name_H-M   'P 1'
_cell_length_a   4.60357860
_cell_length_b   16.56110959
_cell_length_c   8.78777020
_cell_angle_alpha   90.00000000
_cell_angle_beta   99.04856015
_cell_angle_gamma   90.00000000
_symmetry_Int_Tables_number   1
_chemical_formula_structural   NaB3SeO7
_chemical_formula_sum   'Na4 B12 Se4 O28'
_cell_volume   661.64518257
_cell_formula_units_Z   4
loop_
 _symmetry_equiv_pos_site_id
 _symmetry_equiv_pos_as_xyz
  1  'x, y, z'
loop_
 _atom_site_type_symbol
 _atom_site_label
 _atom_site_symmetry_multiplicity
 _atom_site_fract_x
 _atom_site_fract_y
 _atom_site_fract_z
 _atom_site_occupancy
  Na  Na0  1  0.83412429  0.10904184  0.06483923  1.0
  Na  Na1  1  0.83412429  0.39095816  0.56483923  1.0
  Na  Na2  1  0.16587571  0.60904184  0.43516077  1.0
  Na  Na3  1  0.16587571  0.89095816  0.93516077  1.0
  B  B4  1  0.99993934  0.26252094  0.29447163  1.0
  B  B5  1  0.99993934  0.23747906  0.79447163  1.0
  B  B6  1  0.00006066  0.76252094  0.20552837  1.0
  B  B7  1  0.00006066  0.73747906  0.70552837  1.0
  B  B8  1  1.00037516  0.31476077  0.03918793  1.0
  B  B9  1  1.00037516  0.18523923  0.53918793  1.0
  B  B10  1  -0.00037516  0.81476077  0.46081207  1.0
  B  B11  1  -0.00037516  0.68523923  0.96081207  1.0
  B  B12  1  0.83054713  0.90272449  0.23542707  1.0
  B  B13  1  0.83054713  0.59727551  0.73542707  1.0
  B  B14  1  0.16945287  0.40272449  0.26457293  1.0
  B  B15  1  0.16945287  0.09727551  0.76457293  1.0
  Se  Se16  1  0.35094985  -0.00001970  0.28365656  1.0
  Se  Se17  1  0.35094985  0.50001970  0.78365656  1.0
  Se  Se18  1  0.64905015  0.49998030  0.21634344  1.0
  Se  Se19  1  0.64905015  1.00001970  0.71634344  1.0
  O  O20  1  0.98593880  0.97731865  0.19284297  1.0
  O  O21  1  0.98593880  0.52268135  0.69284297  1.0
  O  O22  1  0.01406120  0.47731865  0.30715703  1.0
  O  O23  1  0.01406120  0.02268135  0.80715703  1.0
  O  O24  1  0.95852062  0.19582052  0.38153358  1.0
  O  O25  1  0.95852062  0.30417948  0.88153358  1.0
  O  O26  1  0.04147938  0.69582052  0.11846642  1.0
  O  O27  1  0.04147938  0.80417948  0.61846642  1.0
  O  O28  1  0.90570266  0.88767866  0.40204827  1.0
  O  O29  1  0.90570266  0.61232134  0.90204827  1.0
  O  O30  1  0.09429734  0.38767866  0.09795173  1.0
  O  O31  1  0.09429734  0.11232134  0.59795173  1.0
  O  O32  1  0.93993323  0.25153386  0.13475704  1.0
  O  O33  1  0.93993323  0.24846614  0.63475704  1.0
  O  O34  1  0.06006677  0.75153386  0.36524296  1.0
  O  O35  1  0.06006677  0.74846614  0.86524296  1.0
  O  O36  1  0.90135442  0.83406788  0.14238555  1.0
  O  O37  1  0.90135442  0.66593212  0.64238555  1.0
  O  O38  1  0.09864558  0.33406788  0.35761445  1.0
  O  O39  1  0.09864558  0.16593212  0.85761445  1.0
  O  O40  1  0.48863452  0.41875427  0.31136457  1.0
  O  O41  1  0.48863452  0.08124573  0.81136457  1.0
  O  O42  1  0.51136548  0.91875427  0.18863543  1.0
  O  O43  1  0.51136548  0.58124573  0.68863543  1.0
  O  O44  1  0.40143066  0.08203110  0.18506879  1.0
  O  O45  1  0.40143066  0.41796890  0.68506879  1.0
  O  O46  1  0.59856934  0.58203110  0.31493121  1.0
  O  O47  1  0.59856934  0.91796890  0.81493121  1.0
