# generated using pymatgen
data_LaMgSi2
_symmetry_space_group_name_H-M   'P 1'
_cell_length_a   4.29235965
_cell_length_b   4.16966328
_cell_length_c   36.29305191
_cell_angle_alpha   90.00000000
_cell_angle_beta   90.00000000
_cell_angle_gamma   90.00000000
_symmetry_Int_Tables_number   1
_chemical_formula_structural   LaMgSi2
_chemical_formula_sum   'La6 Mg6 Si12'
_cell_volume   649.56195267
_cell_formula_units_Z   6
loop_
 _symmetry_equiv_pos_site_id
 _symmetry_equiv_pos_as_xyz
  1  'x, y, z'
loop_
 _atom_site_type_symbol
 _atom_site_label
 _atom_site_symmetry_multiplicity
 _atom_site_fract_x
 _atom_site_fract_y
 _atom_site_fract_z
 _atom_site_occupancy
  Si  Si0  1  0.75000000  0.00000000  0.26396660  1.0
  Si  Si1  1  0.25000000  0.00000000  0.73603340  1.0
  Si  Si2  1  0.75000000  0.00000000  0.48375317  1.0
  Si  Si3  1  0.25000000  0.00000000  0.51624683  1.0
  Si  Si4  1  0.75000000  0.50000000  0.01511707  1.0
  Si  Si5  1  0.25000000  0.50000000  0.98488293  1.0
  Si  Si6  1  0.75000000  0.00000000  0.32520420  1.0
  Si  Si7  1  0.25000000  0.00000000  0.67479580  1.0
  Si  Si8  1  0.75000000  0.00000000  0.41890402  1.0
  Si  Si9  1  0.25000000  0.00000000  0.58109598  1.0
  Si  Si10  1  0.75000000  0.50000000  0.08012297  1.0
  Si  Si11  1  0.25000000  0.50000000  0.91987703  1.0
  La  La12  1  0.75000000  0.00000000  0.79096893  1.0
  La  La13  1  0.25000000  0.00000000  0.20903107  1.0
  La  La14  1  0.75000000  0.00000000  0.95004242  1.0
  La  La15  1  0.25000000  0.00000000  0.04995758  1.0
  La  La16  1  0.75000000  0.50000000  0.55047600  1.0
  La  La17  1  0.25000000  0.50000000  0.44952400  1.0
  Mg  Mg18  1  0.75000000  0.00000000  0.63046325  1.0
  Mg  Mg19  1  0.25000000  0.00000000  0.36953675  1.0
  Mg  Mg20  1  0.75000000  0.50000000  0.86981006  1.0
  Mg  Mg21  1  0.25000000  0.50000000  0.13018994  1.0
  Mg  Mg22  1  0.75000000  0.00000000  0.12996183  1.0
  Mg  Mg23  1  0.25000000  0.00000000  0.87003817  1.0
