# generated using pymatgen
data_Mn(AgO2)2
_symmetry_space_group_name_H-M   'P 1'
_cell_length_a   10.13194438
_cell_length_b   6.93873659
_cell_length_c   5.57832823
_cell_angle_alpha   90.00000000
_cell_angle_beta   90.00000000
_cell_angle_gamma   90.00000000
_symmetry_Int_Tables_number   1
_chemical_formula_structural   Mn(AgO2)2
_chemical_formula_sum   'Mn4 Ag8 O16'
_cell_volume   392.17261333
_cell_formula_units_Z   4
loop_
 _symmetry_equiv_pos_site_id
 _symmetry_equiv_pos_as_xyz
  1  'x, y, z'
loop_
 _atom_site_type_symbol
 _atom_site_label
 _atom_site_symmetry_multiplicity
 _atom_site_fract_x
 _atom_site_fract_y
 _atom_site_fract_z
 _atom_site_occupancy
  Mn  Mn0  1  0.68180391  0.25000000  0.03351443  1.0
  Mn  Mn1  1  0.18180391  0.25000000  0.46648557  1.0
  Mn  Mn2  1  0.31819609  0.75000000  0.96648557  1.0
  Mn  Mn3  1  0.81819609  0.75000000  0.53351443  1.0
  Ag  Ag4  1  0.85300303  0.25000000  0.51409476  1.0
  Ag  Ag5  1  0.35300303  0.25000000  -0.01409476  1.0
  Ag  Ag6  1  0.14699697  0.75000000  0.48590524  1.0
  Ag  Ag7  1  0.64699697  0.75000000  1.01409476  1.0
  Ag  Ag8  1  0.00000000  0.50000000  0.00000000  1.0
  Ag  Ag9  1  0.00000000  0.00000000  0.00000000  1.0
  Ag  Ag10  1  0.50000000  0.50000000  0.50000000  1.0
  Ag  Ag11  1  0.50000000  0.00000000  0.50000000  1.0
  O  O12  1  0.61463188  0.44593915  0.16059126  1.0
  O  O13  1  0.61463188  0.05406085  0.16059126  1.0
  O  O14  1  0.11463188  0.44593915  0.33940874  1.0
  O  O15  1  0.11463188  0.05406085  0.33940874  1.0
  O  O16  1  0.38536812  0.94593915  0.83940874  1.0
  O  O17  1  0.38536812  0.55406085  0.83940874  1.0
  O  O18  1  0.88536812  0.94593915  0.66059126  1.0
  O  O19  1  0.88536812  0.55406085  0.66059126  1.0
  O  O20  1  0.84576767  0.25000000  0.09037766  1.0
  O  O21  1  0.34576767  0.25000000  0.40962234  1.0
  O  O22  1  0.15423233  0.75000000  0.90962234  1.0
  O  O23  1  0.65423233  0.75000000  0.59037766  1.0
  O  O24  1  0.64846915  0.25000000  0.74232478  1.0
  O  O25  1  0.14846915  0.25000000  0.75767522  1.0
  O  O26  1  0.35153085  0.75000000  0.25767522  1.0
  O  O27  1  0.85153085  0.75000000  0.24232478  1.0
