# generated using pymatgen
data_Na2MgSiO4
_symmetry_space_group_name_H-M   'P 1'
_cell_length_a   11.17096416
_cell_length_b   5.35663214
_cell_length_c   7.06924544
_cell_angle_alpha   90.00000000
_cell_angle_beta   90.00000000
_cell_angle_gamma   90.00000000
_symmetry_Int_Tables_number   1
_chemical_formula_structural   Na2MgSiO4
_chemical_formula_sum   'Na8 Mg4 Si4 O16'
_cell_volume   423.01477974
_cell_formula_units_Z   4
loop_
 _symmetry_equiv_pos_site_id
 _symmetry_equiv_pos_as_xyz
  1  'x, y, z'
loop_
 _atom_site_type_symbol
 _atom_site_label
 _atom_site_symmetry_multiplicity
 _atom_site_fract_x
 _atom_site_fract_y
 _atom_site_fract_z
 _atom_site_occupancy
  Na  Na0  1  0.33512849  0.79020365  0.25116663  1.0
  Na  Na1  1  0.83512849  0.70979635  0.25116663  1.0
  Na  Na2  1  0.66487151  0.20979635  0.75116663  1.0
  Na  Na3  1  0.16487151  0.29020365  0.75116663  1.0
  Na  Na4  1  0.09570109  0.78166821  0.50523026  1.0
  Na  Na5  1  0.59570109  0.71833179  0.50523026  1.0
  Na  Na6  1  0.90429891  0.21833179  0.00523026  1.0
  Na  Na7  1  0.40429891  0.28166821  0.00523026  1.0
  Mg  Mg8  1  0.09463153  0.80105071  0.00044000  1.0
  Mg  Mg9  1  0.59463153  0.69894929  0.00044000  1.0
  Mg  Mg10  1  0.90536847  0.19894929  0.50044000  1.0
  Mg  Mg11  1  0.40536847  0.30105071  0.50044000  1.0
  Si  Si12  1  0.34343275  0.80522743  0.75281426  1.0
  Si  Si13  1  0.84343275  0.69477257  0.75281426  1.0
  Si  Si14  1  0.65656725  0.19477257  0.25281426  1.0
  Si  Si15  1  0.15656725  0.30522743  0.25281426  1.0
  O  O16  1  0.42212565  0.73071004  0.94392467  1.0
  O  O17  1  0.92212565  0.76928996  0.94392467  1.0
  O  O18  1  0.57787435  0.26928996  0.44392467  1.0
  O  O19  1  0.07787435  0.23071004  0.44392467  1.0
  O  O20  1  0.39290875  0.65990354  0.56187629  1.0
  O  O21  1  0.89290875  0.84009646  0.56187629  1.0
  O  O22  1  0.60709125  0.34009646  0.06187629  1.0
  O  O23  1  0.10709125  0.15990354  0.06187629  1.0
  O  O24  1  0.35493432  0.11010844  0.72076155  1.0
  O  O25  1  0.85493432  0.38989156  0.72076155  1.0
  O  O26  1  0.64506568  0.88989156  0.22076155  1.0
  O  O27  1  0.14506568  0.61010844  0.22076155  1.0
  O  O28  1  0.20042996  0.73063714  0.78478634  1.0
  O  O29  1  0.70042996  0.76936286  0.78478634  1.0
  O  O30  1  0.79957004  0.26936286  0.28478634  1.0
  O  O31  1  0.29957004  0.23063714  0.28478634  1.0
