# generated using pymatgen
data_Cu2PbO2
_symmetry_space_group_name_H-M   'P 1'
_cell_length_a   5.89689143
_cell_length_b   5.89689143
_cell_length_c   6.10809240
_cell_angle_alpha   61.95494923
_cell_angle_beta   118.04505077
_cell_angle_gamma   88.50290052
_symmetry_Int_Tables_number   1
_chemical_formula_structural   Cu2PbO2
_chemical_formula_sum   'Cu4 Pb2 O4'
_cell_volume   156.89568249
_cell_formula_units_Z   2
loop_
 _symmetry_equiv_pos_site_id
 _symmetry_equiv_pos_as_xyz
  1  'x, y, z'
loop_
 _atom_site_type_symbol
 _atom_site_label
 _atom_site_symmetry_multiplicity
 _atom_site_fract_x
 _atom_site_fract_y
 _atom_site_fract_z
 _atom_site_occupancy
  Cu  Cu0  1  0.50000000  0.50000000  -0.00000000  1.0
  Cu  Cu1  1  0.50000000  0.50000000  0.50000000  1.0
  Cu  Cu2  1  1.00000000  0.50000000  0.00000000  1.0
  Cu  Cu3  1  1.50000000  -0.00000000  0.50000000  1.0
  Pb  Pb4  1  1.12437793  0.12437793  0.75000000  1.0
  Pb  Pb5  1  0.87562207  0.87562207  0.25000000  1.0
  O  O6  1  1.14820024  0.49606077  0.79192226  1.0
  O  O7  1  1.50393923  -0.14820024  0.29192226  1.0
  O  O8  1  1.49606077  0.14820024  0.70807774  1.0
  O  O9  1  0.85179976  0.50393923  0.20807774  1.0
