# generated using pymatgen
data_Ba2Co2ClF7
_symmetry_space_group_name_H-M   'P 1'
_cell_length_a   7.79251460
_cell_length_b   5.80668656
_cell_length_c   9.06619310
_cell_angle_alpha   90.00000000
_cell_angle_beta   106.99067211
_cell_angle_gamma   90.00000000
_symmetry_Int_Tables_number   1
_chemical_formula_structural   Ba2Co2ClF7
_chemical_formula_sum   'Ba4 Co4 Cl2 F14'
_cell_volume   392.32763410
_cell_formula_units_Z   2
loop_
 _symmetry_equiv_pos_site_id
 _symmetry_equiv_pos_as_xyz
  1  'x, y, z'
loop_
 _atom_site_type_symbol
 _atom_site_label
 _atom_site_symmetry_multiplicity
 _atom_site_fract_x
 _atom_site_fract_y
 _atom_site_fract_z
 _atom_site_occupancy
  Ba  Ba0  1  0.30146503  0.25000000  0.57322845  1.0
  Ba  Ba1  1  0.69853497  0.75000000  0.42677155  1.0
  Ba  Ba2  1  0.32981302  0.25000000  0.08697737  1.0
  Ba  Ba3  1  0.67018698  0.75000000  0.91302263  1.0
  Co  Co4  1  0.82009454  0.25000000  0.67838954  1.0
  Co  Co5  1  0.17990546  0.75000000  0.32161046  1.0
  Co  Co6  1  0.82737124  0.25000000  0.23154682  1.0
  Co  Co7  1  0.17262876  0.75000000  0.76845318  1.0
  Cl  Cl8  1  0.88258243  0.25000000  0.96984040  1.0
  Cl  Cl9  1  0.11741757  0.75000000  0.03015960  1.0
  F  F10  1  0.99551836  0.99840125  0.67007051  1.0
  F  F11  1  0.99551836  0.50159875  0.67007051  1.0
  F  F12  1  0.00448164  0.49840125  0.32992949  1.0
  F  F13  1  0.00448164  0.00159875  0.32992949  1.0
  F  F14  1  0.74425284  0.25000000  0.43388819  1.0
  F  F15  1  0.25574716  0.75000000  0.56611181  1.0
  F  F16  1  0.36078308  0.99727369  0.84556299  1.0
  F  F17  1  0.36078308  0.50272631  0.84556299  1.0
  F  F18  1  0.63921692  0.49727369  0.15443701  1.0
  F  F19  1  0.63921692  0.00272631  0.15443701  1.0
  F  F20  1  0.63186679  0.49246476  0.66138268  1.0
  F  F21  1  0.63186679  0.00753524  0.66138268  1.0
  F  F22  1  0.36813321  0.99246476  0.33861732  1.0
  F  F23  1  0.36813321  0.50753524  0.33861732  1.0
