# generated using pymatgen
data_SrRhF6
_symmetry_space_group_name_H-M   'P 1'
_cell_length_a   4.85899932
_cell_length_b   4.85899932
_cell_length_c   4.85899932
_cell_angle_alpha   98.47295181
_cell_angle_beta   98.47295181
_cell_angle_gamma   98.47295181
_symmetry_Int_Tables_number   1
_chemical_formula_structural   SrRhF6
_chemical_formula_sum   'Sr1 Rh1 F6'
_cell_volume   110.54144976
_cell_formula_units_Z   1
loop_
 _symmetry_equiv_pos_site_id
 _symmetry_equiv_pos_as_xyz
  1  'x, y, z'
loop_
 _atom_site_type_symbol
 _atom_site_label
 _atom_site_symmetry_multiplicity
 _atom_site_fract_x
 _atom_site_fract_y
 _atom_site_fract_z
 _atom_site_occupancy
  Sr  Sr0  1  0.50000000  0.50000000  0.50000000  1.0
  Rh  Rh1  1  0.00000000  -0.00000000  0.00000000  1.0
  F  F2  1  1.28857336  0.28857336  -0.06990161  1.0
  F  F3  1  1.28857336  -0.06990161  0.28857336  1.0
  F  F4  1  1.06990161  0.71142664  -0.28857336  1.0
  F  F5  1  0.71142664  1.06990161  -0.28857336  1.0
  F  F6  1  0.71142664  0.71142664  0.06990161  1.0
  F  F7  1  0.93009839  0.28857336  0.28857336  1.0
