# generated using pymatgen
data_NaEuS2O9
_symmetry_space_group_name_H-M   'P 1'
_cell_length_a   7.14999033
_cell_length_b   7.14999033
_cell_length_c   13.07538985
_cell_angle_alpha   90.00000000
_cell_angle_beta   90.00000000
_cell_angle_gamma   120.00000000
_symmetry_Int_Tables_number   1
_chemical_formula_structural   NaEuS2O9
_chemical_formula_sum   'Na3 Eu3 S6 O27'
_cell_volume   578.89018618
_cell_formula_units_Z   3
loop_
 _symmetry_equiv_pos_site_id
 _symmetry_equiv_pos_as_xyz
  1  'x, y, z'
loop_
 _atom_site_type_symbol
 _atom_site_label
 _atom_site_symmetry_multiplicity
 _atom_site_fract_x
 _atom_site_fract_y
 _atom_site_fract_z
 _atom_site_occupancy
  Eu  Eu0  1  0.51840778  0.51840778  0.00000000  1.0
  Eu  Eu1  1  -0.00000000  0.48159222  0.66666667  1.0
  Eu  Eu2  1  0.48159222  -0.00000000  0.33333333  1.0
  S  S3  1  0.53075252  0.52423004  0.76091979  1.0
  S  S4  1  0.52423004  0.53075252  0.23908021  1.0
  S  S5  1  0.99347752  0.46924748  0.42758646  1.0
  S  S6  1  0.47576996  0.00652248  0.09425312  1.0
  S  S7  1  0.46924748  0.99347752  0.57241354  1.0
  S  S8  1  0.00652248  0.47576996  0.90574688  1.0
  O  O9  1  0.28938627  0.87065699  0.16429304  1.0
  O  O10  1  0.87065699  0.28938627  0.83570696  1.0
  O  O11  1  0.58127072  0.71061373  0.83095970  1.0
  O  O12  1  0.12934301  0.41872928  0.49762637  1.0
  O  O13  1  0.71061373  0.58127072  0.16904030  1.0
  O  O14  1  0.41872928  0.12934301  0.50237363  1.0
  O  O15  1  0.13200596  0.66578700  0.83676996  1.0
  O  O16  1  0.66578700  0.13200596  0.16323004  1.0
  O  O17  1  0.53378105  0.86799404  0.50343663  1.0
  O  O18  1  0.33421300  0.46621895  0.17010330  1.0
  O  O19  1  0.86799404  0.53378105  0.49656337  1.0
  O  O20  1  0.46621895  0.33421300  0.82989670  1.0
  O  O21  1  0.72197910  0.57173875  0.69760788  1.0
  O  O22  1  0.57173875  0.72197910  0.30239212  1.0
  O  O23  1  0.84975965  0.27802090  0.36427455  1.0
  O  O24  1  0.42826125  0.15024035  0.03094121  1.0
  O  O25  1  0.27802090  0.84975965  0.63572545  1.0
  O  O26  1  0.15024035  0.42826125  0.96905879  1.0
  O  O27  1  0.86676435  0.51546075  0.97728843  1.0
  O  O28  1  0.51546075  0.86676435  0.02271157  1.0
  O  O29  1  0.64869639  0.13323565  0.64395510  1.0
  O  O30  1  0.48453925  0.35130361  0.31062176  1.0
  O  O31  1  0.13323565  0.64869639  0.35604490  1.0
  O  O32  1  0.35130361  0.48453925  0.68937824  1.0
  O  O33  1  0.86061772  0.86061772  0.00000000  1.0
  O  O34  1  0.00000000  0.13938228  0.66666667  1.0
  O  O35  1  0.13938228  -0.00000000  0.33333333  1.0
  Na  Na36  1  0.51112812  0.51112812  0.50000000  1.0
  Na  Na37  1  0.00000000  0.48887188  0.16666667  1.0
  Na  Na38  1  0.48887188  -0.00000000  0.83333333  1.0
