# generated using pymatgen
data_Al2HgS4
_symmetry_space_group_name_H-M   'P 1'
_cell_length_a   6.52029692
_cell_length_b   6.52029692
_cell_length_c   6.52029692
_cell_angle_alpha   128.92007974
_cell_angle_beta   128.92007974
_cell_angle_gamma   75.13920284
_symmetry_Int_Tables_number   1
_chemical_formula_structural   Al2HgS4
_chemical_formula_sum   'Al2 Hg1 S4'
_cell_volume   163.36576629
_cell_formula_units_Z   1
loop_
 _symmetry_equiv_pos_site_id
 _symmetry_equiv_pos_as_xyz
  1  'x, y, z'
loop_
 _atom_site_type_symbol
 _atom_site_label
 _atom_site_symmetry_multiplicity
 _atom_site_fract_x
 _atom_site_fract_y
 _atom_site_fract_z
 _atom_site_occupancy
  Al  Al0  1  0.25000000  0.75000000  0.50000000  1.0
  Al  Al1  1  0.00000000  0.00000000  0.00000000  1.0
  Hg  Hg2  1  0.50000000  0.50000000  1.00000000  1.0
  S  S3  1  0.35485358  0.90187781  0.98636492  1.0
  S  S4  1  1.09812219  1.08448711  1.45297577  1.0
  S  S5  1  0.91551289  0.36848866  1.01363508  1.0
  S  S6  1  0.63151134  0.64514642  0.54702423  1.0
