# generated using pymatgen
data_BaGe
_symmetry_space_group_name_H-M   'P 1'
_cell_length_a   6.60735689
_cell_length_b   6.60735689
_cell_length_c   4.34034454
_cell_angle_alpha   90.00000000
_cell_angle_beta   90.00000000
_cell_angle_gamma   134.74113091
_symmetry_Int_Tables_number   1
_chemical_formula_structural   BaGe
_chemical_formula_sum   'Ba2 Ge2'
_cell_volume   134.59164246
_cell_formula_units_Z   2
loop_
 _symmetry_equiv_pos_site_id
 _symmetry_equiv_pos_as_xyz
  1  'x, y, z'
loop_
 _atom_site_type_symbol
 _atom_site_label
 _atom_site_symmetry_multiplicity
 _atom_site_fract_x
 _atom_site_fract_y
 _atom_site_fract_z
 _atom_site_occupancy
  Ba  Ba0  1  0.36277838  0.63722162  0.75000000  1.0
  Ba  Ba1  1  -0.36277838  0.36277838  0.25000000  1.0
  Ge  Ge2  1  0.06431694  0.93568306  0.75000000  1.0
  Ge  Ge3  1  -0.06431694  0.06431694  0.25000000  1.0
