# generated using pymatgen
data_MgAl2O4
_symmetry_space_group_name_H-M   'P 1'
_cell_length_a   4.84460304
_cell_length_b   4.84460304
_cell_length_c   9.46828335
_cell_angle_alpha   90.00000000
_cell_angle_beta   90.00000000
_cell_angle_gamma   146.32470238
_symmetry_Int_Tables_number   1
_chemical_formula_structural   MgAl2O4
_chemical_formula_sum   'Mg2 Al4 O8'
_cell_volume   123.21908589
_cell_formula_units_Z   2
loop_
 _symmetry_equiv_pos_site_id
 _symmetry_equiv_pos_as_xyz
  1  'x, y, z'
loop_
 _atom_site_type_symbol
 _atom_site_label
 _atom_site_symmetry_multiplicity
 _atom_site_fract_x
 _atom_site_fract_y
 _atom_site_fract_z
 _atom_site_occupancy
  Mg  Mg0  1  -0.38922922  0.38922922  0.25000000  1.0
  Mg  Mg1  1  0.38922922  0.61077078  0.75000000  1.0
  Al  Al2  1  -0.13448881  0.13448881  0.42678384  1.0
  Al  Al3  1  0.13448881  0.86551119  0.57321616  1.0
  Al  Al4  1  -0.13448881  0.13448881  0.07321616  1.0
  Al  Al5  1  0.13448881  0.86551119  0.92678384  1.0
  O  O6  1  0.50000000  0.50000000  0.50000000  1.0
  O  O7  1  0.50000000  0.50000000  0.00000000  1.0
  O  O8  1  -0.04794838  0.04794838  0.25000000  1.0
  O  O9  1  0.04794838  0.95205162  0.75000000  1.0
  O  O10  1  -0.22998217  0.22998217  0.61011474  1.0
  O  O11  1  0.22998217  0.77001783  0.38988526  1.0
  O  O12  1  -0.22998217  0.22998217  0.88988526  1.0
  O  O13  1  0.22998217  0.77001783  0.11011474  1.0
