# generated using pymatgen
data_EuIn2Rh
_symmetry_space_group_name_H-M   'P 1'
_cell_length_a   5.66071752
_cell_length_b   5.66071752
_cell_length_c   8.15316289
_cell_angle_alpha   90.00000000
_cell_angle_beta   90.00000000
_cell_angle_gamma   134.70025012
_symmetry_Int_Tables_number   1
_chemical_formula_structural   EuIn2Rh
_chemical_formula_sum   'Eu2 In4 Rh2'
_cell_volume   185.70102781
_cell_formula_units_Z   2
loop_
 _symmetry_equiv_pos_site_id
 _symmetry_equiv_pos_as_xyz
  1  'x, y, z'
loop_
 _atom_site_type_symbol
 _atom_site_label
 _atom_site_symmetry_multiplicity
 _atom_site_fract_x
 _atom_site_fract_y
 _atom_site_fract_z
 _atom_site_occupancy
  Eu  Eu0  1  0.43599524  0.56400476  0.75000000  1.0
  Eu  Eu1  1  -0.43599524  0.43599524  0.25000000  1.0
  In  In2  1  0.14803163  0.85196837  0.94850240  1.0
  In  In3  1  0.14803163  0.85196837  0.55149760  1.0
  In  In4  1  -0.14803163  0.14803163  0.44850240  1.0
  In  In5  1  -0.14803163  0.14803163  0.05149760  1.0
  Rh  Rh6  1  -0.28264210  0.28264210  0.75000000  1.0
  Rh  Rh7  1  0.28264210  0.71735790  0.25000000  1.0
