# generated using pymatgen
data_AlC8O5
_symmetry_space_group_name_H-M   'P 1'
_cell_length_a   11.28136414
_cell_length_b   11.28136414
_cell_length_c   11.28136414
_cell_angle_alpha   145.44316353
_cell_angle_beta   82.91887776
_cell_angle_gamma   107.44022192
_symmetry_Int_Tables_number   1
_chemical_formula_structural   AlC8O5
_chemical_formula_sum   'Al2 C16 O10'
_cell_volume   756.44138986
_cell_formula_units_Z   2
loop_
 _symmetry_equiv_pos_site_id
 _symmetry_equiv_pos_as_xyz
  1  'x, y, z'
loop_
 _atom_site_type_symbol
 _atom_site_label
 _atom_site_symmetry_multiplicity
 _atom_site_fract_x
 _atom_site_fract_y
 _atom_site_fract_z
 _atom_site_occupancy
  O  O0  1  1.00784360  1.01063236  1.33661631  1.0
  O  O1  1  1.00784360  0.67122729  0.99721124  1.0
  O  O2  1  1.17401605  1.01063236  1.50278876  1.0
  O  O3  1  1.17401605  0.67122729  1.16338369  1.0
  O  O4  1  0.99215640  0.98936764  0.66338369  1.0
  O  O5  1  0.99215640  1.32877271  1.00278876  1.0
  O  O6  1  0.82598395  0.98936764  0.49721124  1.0
  O  O7  1  0.82598395  1.32877271  0.83661631  1.0
  O  O8  1  0.94075480  0.69075480  0.25000000  1.0
  O  O9  1  1.05924520  0.30924520  0.75000000  1.0
  C  C10  1  1.00425771  0.93373385  1.07052387  1.0
  C  C11  1  1.36320998  0.93373385  1.42947613  1.0
  C  C12  1  0.99574229  1.06626615  0.92947613  1.0
  C  C13  1  0.63679002  1.06626615  0.57052387  1.0
  C  C14  1  1.00680596  0.86644984  1.14035611  1.0
  C  C15  1  1.22609373  0.86644984  1.35964389  1.0
  C  C16  1  0.99319404  1.13355016  0.85964389  1.0
  C  C17  1  0.77390627  1.13355016  0.64035611  1.0
  C  C18  1  1.00182816  1.13913221  1.19682480  1.0
  C  C19  1  0.99817184  0.86086779  0.80317520  1.0
  C  C20  1  1.00182816  0.80500336  0.86269596  1.0
  C  C21  1  0.99817184  1.19499664  1.13730404  1.0
  C  C22  1  1.44230741  0.80500336  1.30317520  1.0
  C  C23  1  0.55769259  1.19499664  0.69682480  1.0
  C  C24  1  1.44230741  1.13913221  1.63730405  1.0
  C  C25  1  0.55769259  0.86086779  0.36269596  1.0
  Al  Al26  1  1.00000000  1.00000000  0.50000000  1.0
  Al  Al27  1  1.00000000  1.50000000  1.00000000  1.0
