# generated using pymatgen
data_Ca(BO2)3
_symmetry_space_group_name_H-M   'P 1'
_cell_length_a   6.71245182
_cell_length_b   10.19434203
_cell_length_c   6.81546449
_cell_angle_alpha   90.00000000
_cell_angle_beta   117.31511084
_cell_angle_gamma   90.00000000
_symmetry_Int_Tables_number   1
_chemical_formula_structural   Ca(BO2)3
_chemical_formula_sum   'Ca4 B12 O24'
_cell_volume   414.37298675
_cell_formula_units_Z   4
loop_
 _symmetry_equiv_pos_site_id
 _symmetry_equiv_pos_as_xyz
  1  'x, y, z'
loop_
 _atom_site_type_symbol
 _atom_site_label
 _atom_site_symmetry_multiplicity
 _atom_site_fract_x
 _atom_site_fract_y
 _atom_site_fract_z
 _atom_site_occupancy
  O  O0  1  0.86519938  0.24657200  0.40494950  1.0
  O  O1  1  0.86519938  0.25342800  0.90494950  1.0
  O  O2  1  0.13480062  0.74657200  0.09505050  1.0
  O  O3  1  0.13480062  0.75342800  0.59505050  1.0
  O  O4  1  0.82576050  0.88924062  0.00603480  1.0
  O  O5  1  0.82576050  0.61075938  0.50603480  1.0
  O  O6  1  0.17423950  0.38924062  0.49396520  1.0
  O  O7  1  0.17423950  0.11075938  0.99396520  1.0
  O  O8  1  0.77220826  0.81379893  0.31261100  1.0
  O  O9  1  0.77220826  0.68620107  0.81261100  1.0
  O  O10  1  0.22779174  0.31379893  0.18738900  1.0
  O  O11  1  0.22779174  0.18620107  0.68738900  1.0
  O  O12  1  0.72705659  0.04065303  0.20784806  1.0
  O  O13  1  0.72705659  0.45934697  0.70784806  1.0
  O  O14  1  0.27294341  0.54065303  0.29215194  1.0
  O  O15  1  0.27294341  0.95934697  0.79215194  1.0
  O  O16  1  0.56697523  0.12678223  0.43686117  1.0
  O  O17  1  0.56697523  0.37321777  0.93686117  1.0
  O  O18  1  0.43302477  0.62678223  0.06313883  1.0
  O  O19  1  0.43302477  0.87321777  0.56313883  1.0
  O  O20  1  0.90209364  0.45585471  0.11636797  1.0
  O  O21  1  0.90209364  0.04414529  0.61636797  1.0
  O  O22  1  0.09790636  0.95585471  0.38363203  1.0
  O  O23  1  0.09790636  0.54414529  0.88363203  1.0
  B  B24  1  0.90980368  0.72739518  0.46995386  1.0
  B  B25  1  0.90980368  0.77260482  0.96995386  1.0
  B  B26  1  0.09019632  0.22739518  0.03004614  1.0
  B  B27  1  0.09019632  0.27260482  0.53004614  1.0
  B  B28  1  0.86168312  0.92318919  0.23077989  1.0
  B  B29  1  0.86168312  0.57681081  0.73077989  1.0
  B  B30  1  0.13831688  0.42318919  0.26922011  1.0
  B  B31  1  0.13831688  0.07681081  0.76922011  1.0
  B  B32  1  0.76785716  0.11661207  0.40969005  1.0
  B  B33  1  0.76785716  0.38338793  0.90969005  1.0
  B  B34  1  0.23214284  0.61661207  0.09030995  1.0
  B  B35  1  0.23214284  0.88338793  0.59030995  1.0
  Ca  Ca36  1  0.60437275  0.42718701  0.29041147  1.0
  Ca  Ca37  1  0.60437275  0.07281299  0.79041147  1.0
  Ca  Ca38  1  0.39562725  0.92718701  0.20958853  1.0
  Ca  Ca39  1  0.39562725  0.57281299  0.70958853  1.0
