# generated using pymatgen
data_SrCrSn(PO4)3
_symmetry_space_group_name_H-M   'P 1'
_cell_length_a   9.11516340
_cell_length_b   9.11516340
_cell_length_c   9.11516340
_cell_angle_alpha   55.68284603
_cell_angle_beta   55.68284603
_cell_angle_gamma   55.68284603
_symmetry_Int_Tables_number   1
_chemical_formula_structural   SrCrSn(PO4)3
_chemical_formula_sum   'Sr2 Cr2 Sn2 P6 O24'
_cell_volume   481.88689710
_cell_formula_units_Z   2
loop_
 _symmetry_equiv_pos_site_id
 _symmetry_equiv_pos_as_xyz
  1  'x, y, z'
loop_
 _atom_site_type_symbol
 _atom_site_label
 _atom_site_symmetry_multiplicity
 _atom_site_fract_x
 _atom_site_fract_y
 _atom_site_fract_z
 _atom_site_occupancy
  Sr  Sr0  1  0.50000000  0.50000000  -0.50000000  1.0
  Sr  Sr1  1  0.00000000  0.00000000  0.00000000  1.0
  Cr  Cr2  1  0.15052448  0.15052448  0.15052448  1.0
  Cr  Cr3  1  0.84947552  -0.15052448  -0.15052448  1.0
  Sn  Sn4  1  0.35145482  0.35145482  -0.64854518  1.0
  Sn  Sn5  1  0.64854518  0.64854518  -0.35145482  1.0
  P  P6  1  0.53930734  0.24341520  -0.03919841  1.0
  P  P7  1  1.03919841  -0.53930734  -0.24341520  1.0
  P  P8  1  0.75658480  0.03919841  -0.53930734  1.0
  P  P9  1  0.46069266  -0.24341520  0.03919841  1.0
  P  P10  1  0.96080159  -0.46069266  0.24341520  1.0
  P  P11  1  1.24341520  -0.03919841  -0.46069266  1.0
  O  O12  1  0.25905140  0.98202111  -0.64774636  1.0
  O  O13  1  0.64774636  -0.25905140  0.01797889  1.0
  O  O14  1  1.01797889  -0.35225364  -0.25905140  1.0
  O  O15  1  0.74094860  0.01797889  -0.35225364  1.0
  O  O16  1  0.35225364  0.25905140  -0.01797889  1.0
  O  O17  1  0.98202111  0.35225364  -0.74094860  1.0
  O  O18  1  0.29668879  -0.04797122  0.03316630  1.0
  O  O19  1  0.96683370  -0.29668879  0.04797122  1.0
  O  O20  1  1.04797122  -0.03316630  -0.29668879  1.0
  O  O21  1  0.70331121  0.04797122  -0.03316630  1.0
  O  O22  1  1.03316630  -0.70331121  -0.04797122  1.0
  O  O23  1  0.95202878  0.03316630  -0.70331121  1.0
  O  O24  1  0.60226356  0.23920899  -0.60346339  1.0
  O  O25  1  0.60346339  0.39773644  -0.23920899  1.0
  O  O26  1  0.76079101  0.60346339  -0.60226356  1.0
  O  O27  1  0.39773644  0.76079101  -0.39653661  1.0
  O  O28  1  0.39653661  0.60226356  -0.76079101  1.0
  O  O29  1  0.23920899  0.39653661  -0.39773644  1.0
  O  O30  1  0.52534459  0.28682346  0.11221997  1.0
  O  O31  1  0.88778003  -0.52534459  -0.28682346  1.0
  O  O32  1  0.71317654  -0.11221997  -0.52534459  1.0
  O  O33  1  0.47465541  -0.28682346  -0.11221997  1.0
  O  O34  1  1.11221997  -0.47465541  0.28682346  1.0
  O  O35  1  1.28682346  0.11221997  -0.47465541  1.0
