# generated using pymatgen
data_Nb2GeTe4
_symmetry_space_group_name_H-M   'P 1'
_cell_length_a   6.54705537
_cell_length_b   7.99053432
_cell_length_c   15.83906318
_cell_angle_alpha   90.00000000
_cell_angle_beta   106.55879559
_cell_angle_gamma   90.00000000
_symmetry_Int_Tables_number   1
_chemical_formula_structural   Nb2GeTe4
_chemical_formula_sum   'Nb8 Ge4 Te16'
_cell_volume   794.24781798
_cell_formula_units_Z   4
loop_
 _symmetry_equiv_pos_site_id
 _symmetry_equiv_pos_as_xyz
  1  'x, y, z'
loop_
 _atom_site_type_symbol
 _atom_site_label
 _atom_site_symmetry_multiplicity
 _atom_site_fract_x
 _atom_site_fract_y
 _atom_site_fract_z
 _atom_site_occupancy
  Nb  Nb0  1  0.85709494  0.03410814  0.25005517  1.0
  Nb  Nb1  1  0.85709494  0.46589186  0.75005517  1.0
  Nb  Nb2  1  0.14290506  0.53410814  0.24994483  1.0
  Nb  Nb3  1  0.14290506  0.96589186  0.74994483  1.0
  Nb  Nb4  1  0.35719494  0.21486183  0.25004256  1.0
  Nb  Nb5  1  0.35719494  0.28513817  0.75004256  1.0
  Nb  Nb6  1  0.64280506  0.71486183  0.24995744  1.0
  Nb  Nb7  1  0.64280506  0.78513817  0.74995744  1.0
  Ge  Ge8  1  0.75001239  0.37445228  0.24990266  1.0
  Ge  Ge9  1  0.75001239  0.12554772  0.74990266  1.0
  Ge  Ge10  1  0.24998761  0.87445228  0.25009734  1.0
  Ge  Ge11  1  0.24998761  0.62554772  0.75009734  1.0
  Te  Te12  1  0.95258542  0.25860329  0.12464764  1.0
  Te  Te13  1  0.95258542  0.24139671  0.62464764  1.0
  Te  Te14  1  0.04741458  0.75860329  0.37535236  1.0
  Te  Te15  1  0.04741458  0.74139671  0.87535236  1.0
  Te  Te16  1  0.87498017  0.75920342  0.12468896  1.0
  Te  Te17  1  0.87498017  0.74079658  0.62468896  1.0
  Te  Te18  1  0.12501983  0.25920342  0.37531104  1.0
  Te  Te19  1  0.12501983  0.24079658  0.87531104  1.0
  Te  Te20  1  0.62502052  0.98985588  0.37535645  1.0
  Te  Te21  1  0.62502052  0.51014412  0.87535645  1.0
  Te  Te22  1  0.37497948  0.48985588  0.12464355  1.0
  Te  Te23  1  0.37497948  0.01014412  0.62464355  1.0
  Te  Te24  1  0.54790364  0.49005776  0.37525721  1.0
  Te  Te25  1  0.54790364  0.00994224  0.87525721  1.0
  Te  Te26  1  0.45209636  0.99005776  0.12474279  1.0
  Te  Te27  1  0.45209636  0.50994224  0.62474279  1.0
