# generated using pymatgen
data_SrV2ZnO7
_symmetry_space_group_name_H-M   'P 1'
_cell_length_a   7.59240401
_cell_length_b   6.73044622
_cell_length_c   13.55118753
_cell_angle_alpha   90.00000000
_cell_angle_beta   117.85256615
_cell_angle_gamma   90.00000000
_symmetry_Int_Tables_number   1
_chemical_formula_structural   SrV2ZnO7
_chemical_formula_sum   'Sr4 V8 Zn4 O28'
_cell_volume   612.24861174
_cell_formula_units_Z   4
loop_
 _symmetry_equiv_pos_site_id
 _symmetry_equiv_pos_as_xyz
  1  'x, y, z'
loop_
 _atom_site_type_symbol
 _atom_site_label
 _atom_site_symmetry_multiplicity
 _atom_site_fract_x
 _atom_site_fract_y
 _atom_site_fract_z
 _atom_site_occupancy
  Sr  Sr0  1  0.73186919  0.85086129  0.97555103  1.0
  Sr  Sr1  1  0.73186919  0.64913871  0.47555103  1.0
  Sr  Sr2  1  0.26813081  0.35086129  0.52444897  1.0
  Sr  Sr3  1  0.26813081  0.14913871  0.02444897  1.0
  V  V4  1  0.80832901  0.41200664  0.22021750  1.0
  V  V5  1  0.80832901  0.08799336  0.72021750  1.0
  V  V6  1  0.19167099  0.91200664  0.27978250  1.0
  V  V7  1  0.19167099  0.58799336  0.77978250  1.0
  V  V8  1  0.71765869  0.15577143  0.46092979  1.0
  V  V9  1  0.71765869  0.34422857  0.96092979  1.0
  V  V10  1  0.28234131  0.65577143  0.03907021  1.0
  V  V11  1  0.28234131  0.84422857  0.53907021  1.0
  Zn  Zn12  1  0.71117487  0.89327072  0.23248002  1.0
  Zn  Zn13  1  0.71117487  0.60672928  0.73248002  1.0
  Zn  Zn14  1  0.28882513  0.39327072  0.26751998  1.0
  Zn  Zn15  1  0.28882513  0.10672928  0.76751998  1.0
  O  O16  1  0.26797602  0.08862749  0.21870852  1.0
  O  O17  1  0.26797602  0.41137251  0.71870852  1.0
  O  O18  1  0.73202398  0.58862749  0.28129148  1.0
  O  O19  1  0.73202398  0.91137251  0.78129148  1.0
  O  O20  1  0.94137298  0.87048450  0.19904497  1.0
  O  O21  1  0.94137298  0.62951550  0.69904497  1.0
  O  O22  1  0.05862702  0.37048450  0.30095503  1.0
  O  O23  1  0.05862702  0.12951550  0.80095503  1.0
  O  O24  1  0.91332300  0.30103105  0.49161847  1.0
  O  O25  1  0.91332300  0.19896895  0.99161847  1.0
  O  O26  1  0.08667700  0.80103105  0.00838153  1.0
  O  O27  1  0.08667700  0.69896895  0.50838153  1.0
  O  O28  1  0.75597301  0.49121513  0.08022579  1.0
  O  O29  1  0.75597301  0.00878487  0.58022579  1.0
  O  O30  1  0.24402699  0.99121513  0.41977421  1.0
  O  O31  1  0.24402699  0.50878487  0.91977421  1.0
  O  O32  1  0.69832593  0.97266808  0.36985093  1.0
  O  O33  1  0.69832593  0.52733192  0.86985093  1.0
  O  O34  1  0.30167407  0.47266808  0.13014907  1.0
  O  O35  1  0.30167407  0.02733192  0.63014907  1.0
  O  O36  1  0.67369817  0.20020694  0.19514585  1.0
  O  O37  1  0.67369817  0.29979306  0.69514585  1.0
  O  O38  1  0.32630183  0.70020694  0.30485415  1.0
  O  O39  1  0.32630183  0.79979306  0.80485415  1.0
  O  O40  1  0.51998503  0.32249515  0.42039629  1.0
  O  O41  1  0.51998503  0.17750485  0.92039629  1.0
  O  O42  1  0.48001497  0.82249515  0.07960371  1.0
  O  O43  1  0.48001497  0.67750485  0.57960371  1.0
