# generated using pymatgen
data_VBiO4
_symmetry_space_group_name_H-M   'P 1'
_cell_length_a   8.01151987
_cell_length_b   11.21361901
_cell_length_c   5.99911257
_cell_angle_alpha   89.99832572
_cell_angle_beta   90.00000000
_cell_angle_gamma   90.00000000
_symmetry_Int_Tables_number   1
_chemical_formula_structural   VBiO4
_chemical_formula_sum   'V4 Bi4 O16'
_cell_volume   538.94906345
_cell_formula_units_Z   4
loop_
 _symmetry_equiv_pos_site_id
 _symmetry_equiv_pos_as_xyz
  1  'x, y, z'
loop_
 _atom_site_type_symbol
 _atom_site_label
 _atom_site_symmetry_multiplicity
 _atom_site_fract_x
 _atom_site_fract_y
 _atom_site_fract_z
 _atom_site_occupancy
  Bi  Bi0  1  0.00000000  0.12611784  0.74999349  1.0
  Bi  Bi1  1  0.00000000  0.87388216  0.25000651  1.0
  Bi  Bi2  1  0.50000000  0.62611803  0.74999362  1.0
  Bi  Bi3  1  0.50000000  0.37388197  0.25000638  1.0
  V  V4  1  0.00000000  0.41188678  0.75000477  1.0
  V  V5  1  0.00000000  0.58811322  0.24999523  1.0
  V  V6  1  0.50000000  0.91188932  0.75000478  1.0
  V  V7  1  0.50000000  0.08811068  0.24999522  1.0
  O  O8  1  0.00000000  0.00000000  0.00000000  1.0
  O  O9  1  0.00000000  0.00000000  0.50000000  1.0
  O  O10  1  0.50000000  0.50000000  0.00000000  1.0
  O  O11  1  0.50000000  0.50000000  0.50000000  1.0
  O  O12  1  0.00000000  0.50000000  0.00000000  1.0
  O  O13  1  0.00000000  0.50000000  0.50000000  1.0
  O  O14  1  0.50000000  0.00000000  0.00000000  1.0
  O  O15  1  0.50000000  0.00000000  0.50000000  1.0
  O  O16  1  0.66288753  0.18078398  0.24999156  1.0
  O  O17  1  0.66288753  0.81921602  0.75000591  1.0
  O  O18  1  0.33711247  0.18078398  0.24999409  1.0
  O  O19  1  0.83711399  0.68078387  0.24999168  1.0
  O  O20  1  0.16288601  0.31921613  0.75000832  1.0
  O  O21  1  0.16288601  0.68078387  0.24999422  1.0
  O  O22  1  0.83711399  0.31921613  0.75000578  1.0
  O  O23  1  0.33711247  0.81921602  0.75000844  1.0
