# generated using pymatgen
data_KGeAuS3
_symmetry_space_group_name_H-M   'P 1'
_cell_length_a   10.84391093
_cell_length_b   11.53333337
_cell_length_c   12.16222243
_cell_angle_alpha   90.00000000
_cell_angle_beta   119.77488195
_cell_angle_gamma   90.00000000
_symmetry_Int_Tables_number   1
_chemical_formula_structural   KGeAuS3
_chemical_formula_sum   'K8 Ge8 Au8 S24'
_cell_volume   1320.27703252
_cell_formula_units_Z   8
loop_
 _symmetry_equiv_pos_site_id
 _symmetry_equiv_pos_as_xyz
  1  'x, y, z'
loop_
 _atom_site_type_symbol
 _atom_site_label
 _atom_site_symmetry_multiplicity
 _atom_site_fract_x
 _atom_site_fract_y
 _atom_site_fract_z
 _atom_site_occupancy
  K  K0  1  0.89109773  0.73464642  0.21808354  1.0
  K  K1  1  0.89109773  0.76535358  0.71808354  1.0
  K  K2  1  0.10890227  0.23464642  0.28191646  1.0
  K  K3  1  0.10890227  0.26535358  0.78191646  1.0
  K  K4  1  0.58584749  0.25903084  0.11922563  1.0
  K  K5  1  0.58584749  0.24096916  0.61922563  1.0
  K  K6  1  0.41415251  0.75903084  0.38077437  1.0
  K  K7  1  0.41415251  0.74096916  0.88077437  1.0
  Ge  Ge8  1  0.83488692  0.49578524  0.43817757  1.0
  Ge  Ge9  1  0.83488692  0.00421476  0.93817757  1.0
  Ge  Ge10  1  0.16511308  0.99578524  0.06182243  1.0
  Ge  Ge11  1  0.16511308  0.50421476  0.56182243  1.0
  Ge  Ge12  1  0.83447514  0.99899886  0.41849551  1.0
  Ge  Ge13  1  0.83447514  0.50100114  0.91849551  1.0
  Ge  Ge14  1  0.16552486  0.49899886  0.08150449  1.0
  Ge  Ge15  1  0.16552486  0.00100114  0.58150449  1.0
  Au  Au16  1  0.48829429  0.41021031  0.35063723  1.0
  Au  Au17  1  0.48829429  0.08978969  0.85063723  1.0
  Au  Au18  1  0.51170571  0.91021031  0.14936277  1.0
  Au  Au19  1  0.51170571  0.58978969  0.64936277  1.0
  Au  Au20  1  0.48660240  0.08065175  0.32235759  1.0
  Au  Au21  1  0.48660240  0.41934825  0.82235759  1.0
  Au  Au22  1  0.51339760  0.58065175  0.17764241  1.0
  Au  Au23  1  0.51339760  0.91934825  0.67764241  1.0
  S  S24  1  1.00019659  0.14478267  0.48529017  1.0
  S  S25  1  1.00019659  0.35521733  0.98529017  1.0
  S  S26  1  -0.00019659  0.64478267  0.01470983  1.0
  S  S27  1  -0.00019659  0.85521733  0.51470983  1.0
  S  S28  1  0.98629480  0.47257835  0.35846262  1.0
  S  S29  1  0.98629480  0.02742165  0.85846262  1.0
  S  S30  1  0.01370520  0.97257835  0.14153738  1.0
  S  S31  1  0.01370520  0.52742165  0.64153738  1.0
  S  S32  1  0.73202953  0.98887622  0.20772323  1.0
  S  S33  1  0.73202953  0.51112378  0.70772323  1.0
  S  S34  1  0.26797047  0.48887622  0.29227677  1.0
  S  S35  1  0.26797047  0.01112378  0.79227677  1.0
  S  S36  1  0.71258590  0.33385886  0.41816934  1.0
  S  S37  1  0.71258590  0.16614114  0.91816934  1.0
  S  S38  1  0.28741410  0.83385886  0.08183066  1.0
  S  S39  1  0.28741410  0.66614114  0.58183066  1.0
  S  S40  1  0.68669044  1.00497506  0.49763108  1.0
  S  S41  1  0.68669044  0.49502494  0.99763108  1.0
  S  S42  1  0.31330956  0.50497506  0.00236892  1.0
  S  S43  1  0.31330956  -0.00497506  0.50236892  1.0
  S  S44  1  0.29189510  0.15770214  0.14404033  1.0
  S  S45  1  0.29189510  0.34229786  0.64404033  1.0
  S  S46  1  0.70810490  0.65770214  0.35595967  1.0
  S  S47  1  0.70810490  0.84229786  0.85595967  1.0
