# generated using pymatgen
data_LiBeH3
_symmetry_space_group_name_H-M   'P 1'
_cell_length_a   6.10326786
_cell_length_b   6.16603401
_cell_length_c   6.84895088
_cell_angle_alpha   104.29129184
_cell_angle_beta   97.74562954
_cell_angle_gamma   90.43609154
_symmetry_Int_Tables_number   1
_chemical_formula_structural   LiBeH3
_chemical_formula_sum   'Li6 Be6 H18'
_cell_volume   247.26661011
_cell_formula_units_Z   6
loop_
 _symmetry_equiv_pos_site_id
 _symmetry_equiv_pos_as_xyz
  1  'x, y, z'
loop_
 _atom_site_type_symbol
 _atom_site_label
 _atom_site_symmetry_multiplicity
 _atom_site_fract_x
 _atom_site_fract_y
 _atom_site_fract_z
 _atom_site_occupancy
  Li  Li0  1  0.99328948  0.24731488  0.99404926  1.0
  Li  Li1  1  0.00671052  0.75268512  0.00595074  1.0
  Li  Li2  1  0.25367810  0.92659631  0.70387752  1.0
  Li  Li3  1  0.74632190  0.07340369  0.29612248  1.0
  Li  Li4  1  0.23708729  0.43567883  0.68189204  1.0
  Li  Li5  1  0.76291271  0.56432117  0.31810796  1.0
  Be  Be6  1  0.77407221  0.95205746  0.67495794  1.0
  Be  Be7  1  0.22592779  0.04794254  0.32504206  1.0
  Be  Be8  1  0.77853139  0.38300526  0.68470634  1.0
  Be  Be9  1  0.22146861  0.61699474  0.31529366  1.0
  Be  Be10  1  0.56830048  0.71787643  0.86848498  1.0
  Be  Be11  1  0.43169952  0.28212357  0.13151502  1.0
  H  H12  1  0.66395265  0.27813398  0.11676631  1.0
  H  H13  1  0.33604735  0.72186602  0.88323369  1.0
  H  H14  1  0.70912105  0.77252955  0.05884958  1.0
  H  H15  1  0.29087895  0.22747045  0.94115042  1.0
  H  H16  1  0.02608514  0.06622776  0.19656728  1.0
  H  H17  1  0.97391486  0.93377224  0.80343272  1.0
  H  H18  1  0.02195555  0.53377207  0.18398448  1.0
  H  H19  1  0.97804445  0.46622793  0.81601552  1.0
  H  H20  1  0.22349527  0.13253603  0.53652842  1.0
  H  H21  1  0.77650473  0.86746397  0.46347158  1.0
  H  H22  1  0.19763033  0.63868421  0.51902564  1.0
  H  H23  1  0.80236967  0.36131579  0.48097436  1.0
  H  H24  1  0.42104193  0.13495287  0.26684431  1.0
  H  H25  1  0.57895807  0.86504713  0.73315569  1.0
  H  H26  1  0.42063095  0.50439086  0.26346749  1.0
  H  H27  1  0.57936905  0.49560914  0.73653251  1.0
  H  H28  1  0.28442050  0.81837848  0.26353795  1.0
  H  H29  1  0.71557950  0.18162152  0.73646205  1.0
