# generated using pymatgen
data_Pb3O4
_symmetry_space_group_name_H-M   'P 1'
_cell_length_a   9.03624977
_cell_length_b   9.03624977
_cell_length_c   6.79602349
_cell_angle_alpha   90.00000000
_cell_angle_beta   90.00000000
_cell_angle_gamma   90.00000000
_symmetry_Int_Tables_number   1
_chemical_formula_structural   Pb3O4
_chemical_formula_sum   'Pb12 O16'
_cell_volume   554.92120933
_cell_formula_units_Z   4
loop_
 _symmetry_equiv_pos_site_id
 _symmetry_equiv_pos_as_xyz
  1  'x, y, z'
loop_
 _atom_site_type_symbol
 _atom_site_label
 _atom_site_symmetry_multiplicity
 _atom_site_fract_x
 _atom_site_fract_y
 _atom_site_fract_z
 _atom_site_occupancy
  Pb  Pb0  1  0.00000000  0.50000000  0.75000000  1.0
  Pb  Pb1  1  0.50000000  0.00000000  0.25000000  1.0
  Pb  Pb2  1  0.50000000  0.00000000  0.75000000  1.0
  Pb  Pb3  1  0.00000000  0.50000000  0.25000000  1.0
  Pb  Pb4  1  0.33337888  0.35437601  0.50000000  1.0
  Pb  Pb5  1  0.35437601  0.66662112  0.00000000  1.0
  Pb  Pb6  1  0.16662112  0.85437601  0.50000000  1.0
  Pb  Pb7  1  0.85437601  0.83337888  0.00000000  1.0
  Pb  Pb8  1  0.66662112  0.64562399  0.50000000  1.0
  Pb  Pb9  1  0.64562399  0.33337888  0.00000000  1.0
  Pb  Pb10  1  0.83337888  0.14562399  0.50000000  1.0
  Pb  Pb11  1  0.14562399  0.16662112  0.00000000  1.0
  O  O12  1  0.67123411  0.17123411  0.75000000  1.0
  O  O13  1  0.17123411  0.32876589  0.25000000  1.0
  O  O14  1  0.82876589  0.67123411  0.75000000  1.0
  O  O15  1  0.67123411  0.17123411  0.25000000  1.0
  O  O16  1  0.17123411  0.32876589  0.75000000  1.0
  O  O17  1  0.82876589  0.67123411  0.25000000  1.0
  O  O18  1  0.32876589  0.82876589  0.25000000  1.0
  O  O19  1  0.32876589  0.82876589  0.75000000  1.0
  O  O20  1  0.86568510  0.40615636  0.50000000  1.0
  O  O21  1  0.40615636  0.13431490  0.00000000  1.0
  O  O22  1  0.63431490  0.90615636  0.50000000  1.0
  O  O23  1  0.90615636  0.36568510  0.00000000  1.0
  O  O24  1  0.13431490  0.59384364  0.50000000  1.0
  O  O25  1  0.59384364  0.86568510  0.00000000  1.0
  O  O26  1  0.36568510  0.09384364  0.50000000  1.0
  O  O27  1  0.09384364  0.63431490  0.00000000  1.0
