# generated using pymatgen
data_BaMnO3
_symmetry_space_group_name_H-M   'P 1'
_cell_length_a   12.40638832
_cell_length_b   12.40638832
_cell_length_c   12.40638832
_cell_angle_alpha   26.70566699
_cell_angle_beta   26.70566699
_cell_angle_gamma   26.70566699
_symmetry_Int_Tables_number   1
_chemical_formula_structural   BaMnO3
_chemical_formula_sum   'Ba5 Mn5 O15'
_cell_volume   340.04184883
_cell_formula_units_Z   5
loop_
 _symmetry_equiv_pos_site_id
 _symmetry_equiv_pos_as_xyz
  1  'x, y, z'
loop_
 _atom_site_type_symbol
 _atom_site_label
 _atom_site_symmetry_multiplicity
 _atom_site_fract_x
 _atom_site_fract_y
 _atom_site_fract_z
 _atom_site_occupancy
  Mn  Mn0  1  0.86114611  0.86114611  0.86114611  1.0
  Mn  Mn1  1  1.13885389  1.13885389  0.13885389  1.0
  Mn  Mn2  1  0.93077730  0.93077730  0.93077730  1.0
  Mn  Mn3  1  1.06922270  1.06922270  0.06922270  1.0
  Mn  Mn4  1  0.00000000  0.00000000  0.00000000  1.0
  O  O5  1  1.11450378  1.11450378  0.66878519  1.0
  O  O6  1  1.11450378  1.66878519  0.11450378  1.0
  O  O7  1  1.33121481  0.88549622  -0.11450378  1.0
  O  O8  1  0.88549622  1.33121481  -0.11450378  1.0
  O  O9  1  0.88549622  0.88549622  0.33121481  1.0
  O  O10  1  1.66878519  1.11450378  0.11450378  1.0
  O  O11  1  1.24918941  1.24918941  -0.18962873  1.0
  O  O12  1  1.24918941  0.81037127  0.24918941  1.0
  O  O13  1  1.18962873  0.75081059  0.75081059  1.0
  O  O14  1  1.75081059  0.18962873  0.75081059  1.0
  O  O15  1  1.75081059  0.75081059  0.18962873  1.0
  O  O16  1  0.81037127  1.24918941  0.24918941  1.0
  O  O17  1  1.00000000  1.50000000  0.00000000  1.0
  O  O18  1  1.00000000  1.00000000  0.50000000  1.0
  O  O19  1  1.50000000  1.00000000  0.00000000  1.0
  Ba  Ba20  1  1.50000000  0.50000000  0.50000000  1.0
  Ba  Ba21  1  0.76500984  0.76500984  0.76500984  1.0
  Ba  Ba22  1  1.23499016  1.23499016  0.23499016  1.0
  Ba  Ba23  1  1.63453767  0.63453767  0.63453767  1.0
  Ba  Ba24  1  1.36546233  0.36546233  0.36546233  1.0
