# generated using pymatgen
data_Ta4MnS8
_symmetry_space_group_name_H-M   'P 1'
_cell_length_a   6.68356008
_cell_length_b   6.68356008
_cell_length_c   12.49783932
_cell_angle_alpha   90.00000000
_cell_angle_beta   90.00000000
_cell_angle_gamma   120.00000000
_symmetry_Int_Tables_number   1
_chemical_formula_structural   Ta4MnS8
_chemical_formula_sum   'Ta8 Mn2 S16'
_cell_volume   483.48308083
_cell_formula_units_Z   2
loop_
 _symmetry_equiv_pos_site_id
 _symmetry_equiv_pos_as_xyz
  1  'x, y, z'
loop_
 _atom_site_type_symbol
 _atom_site_label
 _atom_site_symmetry_multiplicity
 _atom_site_fract_x
 _atom_site_fract_y
 _atom_site_fract_z
 _atom_site_occupancy
  Ta  Ta0  1  0.49404284  0.98810657  0.25000000  1.0
  Ta  Ta1  1  0.98810657  0.49406373  0.75000000  1.0
  Ta  Ta2  1  0.49406373  0.50595716  0.25000000  1.0
  Ta  Ta3  1  0.01189343  0.50593627  0.25000000  1.0
  Ta  Ta4  1  0.50595716  0.01189343  0.75000000  1.0
  Ta  Ta5  1  0.50593627  0.49404284  0.75000000  1.0
  Ta  Ta6  1  0.00000000  0.00000000  0.25000000  1.0
  Ta  Ta7  1  0.00000000  0.00000000  0.75000000  1.0
  Mn  Mn8  1  0.00000000  0.00000000  0.50000000  1.0
  Mn  Mn9  1  0.00000000  0.00000000  0.00000000  1.0
  S  S10  1  0.83164901  0.66322087  0.37449112  1.0
  S  S11  1  0.83164901  0.66322087  0.12550888  1.0
  S  S12  1  0.66322087  0.83157186  0.87449112  1.0
  S  S13  1  0.66322087  0.83157186  0.62550888  1.0
  S  S14  1  0.83157186  0.16835099  0.37449112  1.0
  S  S15  1  0.83157186  0.16835099  0.12550888  1.0
  S  S16  1  0.33677913  0.16842814  0.37449112  1.0
  S  S17  1  0.33677913  0.16842814  0.12550888  1.0
  S  S18  1  0.16835099  0.33677913  0.87449112  1.0
  S  S19  1  0.16835099  0.33677913  0.62550888  1.0
  S  S20  1  0.16842814  0.83164901  0.87449112  1.0
  S  S21  1  0.16842814  0.83164901  0.62550888  1.0
  S  S22  1  0.33333333  0.66666667  0.37844612  1.0
  S  S23  1  0.33333333  0.66666667  0.12155388  1.0
  S  S24  1  0.66666667  0.33333333  0.87844612  1.0
  S  S25  1  0.66666667  0.33333333  0.62155388  1.0
