# generated using pymatgen
data_ReP3
_symmetry_space_group_name_H-M   'P 1'
_cell_length_a   15.45224271
_cell_length_b   3.14713438
_cell_length_c   5.16415323
_cell_angle_alpha   90.00000000
_cell_angle_beta   90.00000000
_cell_angle_gamma   90.00000000
_symmetry_Int_Tables_number   1
_chemical_formula_structural   ReP3
_chemical_formula_sum   'Re4 P12'
_cell_volume   251.13423982
_cell_formula_units_Z   4
loop_
 _symmetry_equiv_pos_site_id
 _symmetry_equiv_pos_as_xyz
  1  'x, y, z'
loop_
 _atom_site_type_symbol
 _atom_site_label
 _atom_site_symmetry_multiplicity
 _atom_site_fract_x
 _atom_site_fract_y
 _atom_site_fract_z
 _atom_site_occupancy
  Re  Re0  1  0.34965704  0.75000000  0.85017738  1.0
  Re  Re1  1  0.84965704  0.75000000  0.64982262  1.0
  Re  Re2  1  0.65034296  0.25000000  0.14982262  1.0
  Re  Re3  1  0.15034296  0.25000000  0.35017738  1.0
  P  P4  1  0.48690798  0.75000000  0.64679878  1.0
  P  P5  1  0.98690798  0.75000000  0.85320122  1.0
  P  P6  1  0.51309202  0.25000000  0.35320122  1.0
  P  P7  1  0.01309202  0.25000000  0.14679878  1.0
  P  P8  1  0.20720339  0.75000000  0.02252969  1.0
  P  P9  1  0.70720339  0.75000000  0.47747031  1.0
  P  P10  1  0.79279661  0.25000000  0.97747031  1.0
  P  P11  1  0.29279661  0.25000000  0.52252969  1.0
  P  P12  1  0.11819489  0.75000000  0.67883475  1.0
  P  P13  1  0.61819489  0.75000000  0.82116525  1.0
  P  P14  1  0.88180511  0.25000000  0.32116525  1.0
  P  P15  1  0.38180511  0.25000000  0.17883475  1.0
