# generated using pymatgen
data_Cu4SiP8
_symmetry_space_group_name_H-M   'P 1'
_cell_length_a   9.12783145
_cell_length_b   9.12783145
_cell_length_c   9.12783145
_cell_angle_alpha   95.68301763
_cell_angle_beta   95.68301763
_cell_angle_gamma   143.31675513
_symmetry_Int_Tables_number   1
_chemical_formula_structural   Cu4SiP8
_chemical_formula_sum   'Cu8 Si2 P16'
_cell_volume   431.23864916
_cell_formula_units_Z   2
loop_
 _symmetry_equiv_pos_site_id
 _symmetry_equiv_pos_as_xyz
  1  'x, y, z'
loop_
 _atom_site_type_symbol
 _atom_site_label
 _atom_site_symmetry_multiplicity
 _atom_site_fract_x
 _atom_site_fract_y
 _atom_site_fract_z
 _atom_site_occupancy
  Cu  Cu0  1  0.19439518  0.88586860  0.71291225  1.0
  Cu  Cu1  1  1.17295635  0.48148294  1.28708775  1.0
  Cu  Cu2  1  0.63586860  1.42295635  1.19147341  1.0
  Cu  Cu3  1  1.23148294  0.44439518  0.80852659  1.0
  Cu  Cu4  1  1.55560482  1.36413140  1.78708775  1.0
  Cu  Cu5  1  0.57704365  0.76851706  0.21291225  1.0
  Cu  Cu6  1  1.11413140  0.82704365  1.30852659  1.0
  Cu  Cu7  1  0.51851706  0.80560482  0.69147341  1.0
  Si  Si8  1  0.75000000  1.25000000  0.50000000  1.0
  Si  Si9  1  0.00000000  0.00000000  0.00000000  1.0
  P  P10  1  0.95635473  1.38219988  0.88088044  1.0
  P  P11  1  0.50131943  1.07547428  1.11911956  1.0
  P  P12  1  1.13219988  1.75131943  0.92584515  1.0
  P  P13  1  0.82547428  1.20635473  1.07415485  1.0
  P  P14  1  0.79364527  0.86780012  1.61911956  1.0
  P  P15  1  1.24868057  1.17452572  1.38088044  1.0
  P  P16  1  1.61780012  1.49868057  1.57415485  1.0
  P  P17  1  0.92452572  1.04364527  1.42584515  1.0
  P  P18  1  0.86913716  1.66599864  1.02730533  1.0
  P  P19  1  1.63869330  0.84183182  0.97269467  1.0
  P  P20  1  1.41599864  0.88869330  1.29686148  1.0
  P  P21  1  0.59183182  1.11913716  0.70313852  1.0
  P  P22  1  1.88086284  1.58400136  1.47269467  1.0
  P  P23  1  1.11130670  1.40816818  0.52730533  1.0
  P  P24  1  0.33400136  0.36130670  0.20313852  1.0
  P  P25  1  1.15816818  1.13086284  1.79686148  1.0
