# generated using pymatgen
data_KBO2
_symmetry_space_group_name_H-M   'P 1'
_cell_length_a   7.83041221
_cell_length_b   7.83041221
_cell_length_c   7.83041221
_cell_angle_alpha   110.28833471
_cell_angle_beta   110.28833471
_cell_angle_gamma   110.28833471
_symmetry_Int_Tables_number   1
_chemical_formula_structural   KBO2
_chemical_formula_sum   'K6 B6 O12'
_cell_volume   357.98259111
_cell_formula_units_Z   6
loop_
 _symmetry_equiv_pos_site_id
 _symmetry_equiv_pos_as_xyz
  1  'x, y, z'
loop_
 _atom_site_type_symbol
 _atom_site_label
 _atom_site_symmetry_multiplicity
 _atom_site_fract_x
 _atom_site_fract_y
 _atom_site_fract_z
 _atom_site_occupancy
  K  K0  1  1.31025175  -0.25000000  0.18974825  1.0
  K  K1  1  0.81025175  0.68974825  0.25000000  1.0
  K  K2  1  1.25000000  0.81025175  0.68974825  1.0
  K  K3  1  0.75000000  1.18974825  0.31025175  1.0
  K  K4  1  0.68974825  0.25000000  -0.18974825  1.0
  K  K5  1  0.18974825  0.31025175  -0.25000000  1.0
  B  B6  1  0.63696585  0.75000000  -0.13696585  1.0
  B  B7  1  1.13696585  0.36303415  0.25000000  1.0
  B  B8  1  1.25000000  1.13696585  0.36303415  1.0
  B  B9  1  0.75000000  0.86303415  0.63696585  1.0
  B  B10  1  0.36303415  0.25000000  0.13696585  1.0
  B  B11  1  0.86303415  -0.36303415  -0.25000000  1.0
  O  O12  1  0.53408943  0.75000000  -0.03408943  1.0
  O  O13  1  1.03408943  0.46591057  0.25000000  1.0
  O  O14  1  1.25000000  1.03408943  0.46591057  1.0
  O  O15  1  0.75000000  0.96591057  0.53408943  1.0
  O  O16  1  0.46591057  0.25000000  0.03408943  1.0
  O  O17  1  0.96591057  -0.46591057  -0.25000000  1.0
  O  O18  1  0.85830688  0.75000000  0.64169312  1.0
  O  O19  1  1.35830688  0.14169312  0.25000000  1.0
  O  O20  1  0.25000000  0.35830688  0.14169312  1.0
  O  O21  1  0.75000000  0.64169312  -0.14169312  1.0
  O  O22  1  1.14169312  1.25000000  0.35830688  1.0
  O  O23  1  0.64169312  -0.14169312  -0.25000000  1.0
