# generated using pymatgen
data_Ba2LuIrO6
_symmetry_space_group_name_H-M   'P 1'
_cell_length_a   5.90986528
_cell_length_b   5.91010852
_cell_length_c   10.23752608
_cell_angle_alpha   90.00000000
_cell_angle_beta   125.27290151
_cell_angle_gamma   90.00000000
_symmetry_Int_Tables_number   1
_chemical_formula_structural   Ba2LuIrO6
_chemical_formula_sum   'Ba4 Lu2 Ir2 O12'
_cell_volume   291.92870374
_cell_formula_units_Z   2
loop_
 _symmetry_equiv_pos_site_id
 _symmetry_equiv_pos_as_xyz
  1  'x, y, z'
loop_
 _atom_site_type_symbol
 _atom_site_label
 _atom_site_symmetry_multiplicity
 _atom_site_fract_x
 _atom_site_fract_y
 _atom_site_fract_z
 _atom_site_occupancy
  Ba  Ba0  1  0.24996299  0.50000963  0.74999842  1.0
  Ba  Ba1  1  0.24996299  -0.00000963  0.24999842  1.0
  Ba  Ba2  1  0.75003701  0.49999037  0.25000158  1.0
  Ba  Ba3  1  0.75003701  0.00000963  0.75000158  1.0
  Lu  Lu4  1  0.00000000  0.50000000  0.00000000  1.0
  Lu  Lu5  1  -0.00000000  0.00000000  0.50000000  1.0
  Ir  Ir6  1  0.50000000  0.00000000  0.00000000  1.0
  Ir  Ir7  1  0.50000000  0.50000000  0.50000000  1.0
  O  O8  1  0.73806444  0.23738809  0.99993658  1.0
  O  O9  1  0.73806444  0.26261191  0.49993658  1.0
  O  O10  1  0.26193556  0.76261191  0.00006342  1.0
  O  O11  1  0.26193556  0.73738809  0.50006342  1.0
  O  O12  1  0.73730299  0.76186422  -0.00009203  1.0
  O  O13  1  0.73730299  0.73813578  0.49990797  1.0
  O  O14  1  0.26269701  0.23813578  1.00009203  1.0
  O  O15  1  0.26269701  0.26186422  0.50009203  1.0
  O  O16  1  0.26205418  0.00000338  0.76223144  1.0
  O  O17  1  0.26205418  0.49999662  0.26223144  1.0
  O  O18  1  0.73794582  0.99999662  0.23776856  1.0
  O  O19  1  0.73794582  0.50000338  0.73776856  1.0
