# generated using pymatgen
data_In7GeIrO8
_symmetry_space_group_name_H-M   'P 1'
_cell_length_a   7.28182545
_cell_length_b   7.28182545
_cell_length_c   7.28182545
_cell_angle_alpha   60.00000000
_cell_angle_beta   60.00000000
_cell_angle_gamma   60.00000000
_symmetry_Int_Tables_number   1
_chemical_formula_structural   In7GeIrO8
_chemical_formula_sum   'In7 Ge1 Ir1 O8'
_cell_volume   273.02712441
_cell_formula_units_Z   1
loop_
 _symmetry_equiv_pos_site_id
 _symmetry_equiv_pos_as_xyz
  1  'x, y, z'
loop_
 _atom_site_type_symbol
 _atom_site_label
 _atom_site_symmetry_multiplicity
 _atom_site_fract_x
 _atom_site_fract_y
 _atom_site_fract_z
 _atom_site_occupancy
  In  In0  1  0.50008390  0.99991610  -0.00008390  1.0
  In  In1  1  0.99991610  0.99991610  -0.49991610  1.0
  In  In2  1  0.99991610  0.50008390  -0.00008390  1.0
  In  In3  1  0.50008390  0.50008390  -0.00008390  1.0
  In  In4  1  0.50008390  0.99991610  -0.49991610  1.0
  In  In5  1  0.99991610  0.50008390  -0.49991610  1.0
  In  In6  1  -0.50000000  0.50000000  0.50000000  1.0
  Ge  Ge7  1  0.00000000  -0.00000000  0.00000000  1.0
  Ir  Ir8  1  0.25000000  0.25000000  0.25000000  1.0
  O  O9  1  0.89896497  0.89896497  -0.10103503  1.0
  O  O10  1  0.30310509  0.89896497  -0.10103503  1.0
  O  O11  1  0.89896497  0.89896497  -0.69689491  1.0
  O  O12  1  0.89896497  0.30310509  -0.10103503  1.0
  O  O13  1  -0.37975703  0.62024297  0.62024297  1.0
  O  O14  1  1.13927110  0.62024297  -0.37975703  1.0
  O  O15  1  -0.37975703  0.62024297  1.13927110  1.0
  O  O16  1  0.62024297  1.13927110  -0.37975703  1.0
