# generated using pymatgen
data_AgH6C4(NO)2
_symmetry_space_group_name_H-M   'P 1'
_cell_length_a   6.43114063
_cell_length_b   6.97251659
_cell_length_c   12.85384288
_cell_angle_alpha   90.00000000
_cell_angle_beta   94.12931338
_cell_angle_gamma   90.00000000
_symmetry_Int_Tables_number   1
_chemical_formula_structural   AgH6C4(NO)2
_chemical_formula_sum   'Ag4 H24 C16 N8 O8'
_cell_volume   574.88593965
_cell_formula_units_Z   4
loop_
 _symmetry_equiv_pos_site_id
 _symmetry_equiv_pos_as_xyz
  1  'x, y, z'
loop_
 _atom_site_type_symbol
 _atom_site_label
 _atom_site_symmetry_multiplicity
 _atom_site_fract_x
 _atom_site_fract_y
 _atom_site_fract_z
 _atom_site_occupancy
  Ag  Ag0  1  0.00000000  0.00000000  0.50000000  1.0
  Ag  Ag1  1  0.00000000  0.00000000  0.00000000  1.0
  Ag  Ag2  1  0.50000000  0.70698378  0.75000000  1.0
  Ag  Ag3  1  0.50000000  0.29301622  0.25000000  1.0
  H  H4  1  0.86055257  0.04332577  0.74960376  1.0
  H  H5  1  0.13944743  0.04332577  0.75039624  1.0
  H  H6  1  0.13944743  0.95667423  0.25039624  1.0
  H  H7  1  0.86055257  0.95667423  0.24960376  1.0
  H  H8  1  0.79035421  0.46898749  0.58633789  1.0
  H  H9  1  0.20964579  0.46898749  0.91366211  1.0
  H  H10  1  0.20964579  0.53101251  0.41366211  1.0
  H  H11  1  0.79035421  0.53101251  0.08633789  1.0
  H  H12  1  0.66316367  0.28434017  0.65488724  1.0
  H  H13  1  0.33683633  0.28434017  0.84511276  1.0
  H  H14  1  0.33683633  0.71565983  0.34511276  1.0
  H  H15  1  0.66316367  0.71565983  0.15488724  1.0
  H  H16  1  0.31158365  0.28313092  0.65666776  1.0
  H  H17  1  0.68841635  0.28313092  0.84333224  1.0
  H  H18  1  0.68841635  0.71686908  0.34333224  1.0
  H  H19  1  0.31158365  0.71686908  0.15666776  1.0
  H  H20  1  0.16692797  0.46776537  0.58729308  1.0
  H  H21  1  0.83307203  0.46776537  0.91270692  1.0
  H  H22  1  0.83307203  0.53223463  0.41270692  1.0
  H  H23  1  0.16692797  0.53223463  0.08729308  1.0
  H  H24  1  0.98959777  0.71044747  0.68007212  1.0
  H  H25  1  0.01040223  0.71044747  0.81992788  1.0
  H  H26  1  0.01040223  0.28955253  0.31992788  1.0
  H  H27  1  0.98959777  0.28955253  0.18007212  1.0
  C  C28  1  0.00000000  0.13413091  0.75000000  1.0
  C  C29  1  0.00000000  0.86586909  0.25000000  1.0
  C  C30  1  0.80185465  0.37624453  0.65554287  1.0
  C  C31  1  0.19814535  0.37624453  0.84445713  1.0
  C  C32  1  0.19814535  0.62375547  0.34445713  1.0
  C  C33  1  0.80185465  0.62375547  0.15554287  1.0
  C  C34  1  0.17386424  0.37596133  0.65685918  1.0
  C  C35  1  0.82613576  0.37596133  0.84314082  1.0
  C  C36  1  0.82613576  0.62403867  0.34314082  1.0
  C  C37  1  0.17386424  0.62403867  0.15685918  1.0
  C  C38  1  0.00000000  0.61984460  0.75000000  1.0
  C  C39  1  0.00000000  0.38015540  0.25000000  1.0
  C  C40  1  0.51839903  0.93180493  0.54884333  1.0
  C  C41  1  0.48160097  0.93180493  0.95115667  1.0
  C  C42  1  0.48160097  0.06819507  0.45115667  1.0
  C  C43  1  0.51839903  0.06819507  0.04884333  1.0
  N  N44  1  0.98758871  0.25328792  0.65447571  1.0
  N  N45  1  0.01241129  0.25328792  0.84552429  1.0
  N  N46  1  0.01241129  0.74671208  0.34552429  1.0
  N  N47  1  0.98758871  0.74671208  0.15447571  1.0
  N  N48  1  0.80891240  0.50054735  0.74944570  1.0
  N  N49  1  0.19108760  0.50054735  0.75055430  1.0
  N  N50  1  0.19108760  0.49945265  0.25055430  1.0
  N  N51  1  0.80891240  0.49945265  0.24944570  1.0
  O  O52  1  0.36241195  0.89738888  0.60118454  1.0
  O  O53  1  0.63758805  0.89738888  0.89881546  1.0
  O  O54  1  0.63758805  0.10261112  0.39881546  1.0
  O  O55  1  0.36241195  0.10261112  0.10118454  1.0
  O  O56  1  0.30077586  0.13501860  0.43002989  1.0
  O  O57  1  0.69922414  0.13501860  0.06997011  1.0
  O  O58  1  0.69922414  0.86498140  0.56997011  1.0
  O  O59  1  0.30077586  0.86498140  0.93002989  1.0
