# generated using pymatgen
data_Ca2Gd3Si3O13
_symmetry_space_group_name_H-M   'P 1'
_cell_length_a   9.53139339
_cell_length_b   9.53139339
_cell_length_c   6.96356182
_cell_angle_alpha   90.00000000
_cell_angle_beta   90.00000000
_cell_angle_gamma   120.00000000
_symmetry_Int_Tables_number   1
_chemical_formula_structural   Ca2Gd3Si3O13
_chemical_formula_sum   'Ca4 Gd6 Si6 O26'
_cell_volume   547.86663954
_cell_formula_units_Z   2
loop_
 _symmetry_equiv_pos_site_id
 _symmetry_equiv_pos_as_xyz
  1  'x, y, z'
loop_
 _atom_site_type_symbol
 _atom_site_label
 _atom_site_symmetry_multiplicity
 _atom_site_fract_x
 _atom_site_fract_y
 _atom_site_fract_z
 _atom_site_occupancy
  O  O0  1  0.24345151  0.91235298  0.43447928  1.0
  O  O1  1  0.24345151  0.91235298  0.06552072  1.0
  O  O2  1  0.91235298  0.66890147  0.93447928  1.0
  O  O3  1  0.91235298  0.66890147  0.56552072  1.0
  O  O4  1  0.66890147  0.75654849  0.43447928  1.0
  O  O5  1  0.66890147  0.75654849  0.06552072  1.0
  O  O6  1  0.08764702  0.33109853  0.43447928  1.0
  O  O7  1  0.08764702  0.33109853  0.06552072  1.0
  O  O8  1  0.75654849  0.08764702  0.93447928  1.0
  O  O9  1  0.75654849  0.08764702  0.56552072  1.0
  O  O10  1  0.33109853  0.24345151  0.93447928  1.0
  O  O11  1  0.33109853  0.24345151  0.56552072  1.0
  O  O12  1  0.69559340  0.52163413  0.25000000  1.0
  O  O13  1  0.52163413  0.82604073  0.75000000  1.0
  O  O14  1  0.82604073  0.30440660  0.25000000  1.0
  O  O15  1  0.47836587  0.17395927  0.25000000  1.0
  O  O16  1  0.30440660  0.47836587  0.75000000  1.0
  O  O17  1  0.17395927  0.69559340  0.75000000  1.0
  O  O18  1  0.00000000  0.00000000  0.25000000  1.0
  O  O19  1  -0.00000000  0.00000000  0.75000000  1.0
  O  O20  1  0.47337587  0.88236856  0.25000000  1.0
  O  O21  1  0.88236856  0.40899269  0.75000000  1.0
  O  O22  1  0.40899269  0.52662413  0.25000000  1.0
  O  O23  1  0.11763144  0.59100731  0.25000000  1.0
  O  O24  1  0.52662413  0.11763144  0.75000000  1.0
  O  O25  1  0.59100731  0.47337587  0.75000000  1.0
  Si  Si26  1  0.36950680  0.97717017  0.25000000  1.0
  Si  Si27  1  0.97717017  0.60766337  0.75000000  1.0
  Si  Si28  1  0.60766337  0.63049320  0.25000000  1.0
  Si  Si29  1  0.02282983  0.39233663  0.25000000  1.0
  Si  Si30  1  0.63049320  0.02282983  0.75000000  1.0
  Si  Si31  1  0.39233663  0.36950680  0.75000000  1.0
  Ca  Ca32  1  0.33333333  0.66666667  0.50347108  1.0
  Ca  Ca33  1  0.33333333  0.66666667  -0.00347108  1.0
  Ca  Ca34  1  0.66666667  0.33333333  0.00347108  1.0
  Ca  Ca35  1  0.66666667  0.33333333  0.49652892  1.0
  Gd  Gd36  1  0.99376832  0.75276788  0.25000000  1.0
  Gd  Gd37  1  0.75276788  0.75899956  0.75000000  1.0
  Gd  Gd38  1  0.75899956  0.00623168  0.25000000  1.0
  Gd  Gd39  1  0.24723212  0.24100044  0.25000000  1.0
  Gd  Gd40  1  0.00623168  0.24723212  0.75000000  1.0
  Gd  Gd41  1  0.24100044  0.99376832  0.75000000  1.0
