# generated using pymatgen
data_La(CuO2)2
_symmetry_space_group_name_H-M   'P 1'
_cell_length_a   6.46049703
_cell_length_b   6.46049703
_cell_length_c   5.93571512
_cell_angle_alpha   62.67894361
_cell_angle_beta   117.32105639
_cell_angle_gamma   80.99341177
_symmetry_Int_Tables_number   1
_chemical_formula_structural   La(CuO2)2
_chemical_formula_sum   'La2 Cu4 O8'
_cell_volume   173.10588867
_cell_formula_units_Z   2
loop_
 _symmetry_equiv_pos_site_id
 _symmetry_equiv_pos_as_xyz
  1  'x, y, z'
loop_
 _atom_site_type_symbol
 _atom_site_label
 _atom_site_symmetry_multiplicity
 _atom_site_fract_x
 _atom_site_fract_y
 _atom_site_fract_z
 _atom_site_occupancy
  O  O0  1  1.68055646  -0.02874614  0.82831107  1.0
  O  O1  1  1.02874614  0.31944354  0.32831107  1.0
  O  O2  1  0.97125386  0.68055646  0.67168893  1.0
  O  O3  1  1.31944354  0.02874614  0.17168893  1.0
  O  O4  1  1.35213411  -0.20028783  0.88105560  1.0
  O  O5  1  1.20028783  0.64786589  0.38105560  1.0
  O  O6  1  0.79971217  0.35213411  0.61894440  1.0
  O  O7  1  1.64786589  0.20028783  0.11894440  1.0
  Cu  Cu8  1  1.50000000  -0.00000000  0.00000000  1.0
  Cu  Cu9  1  1.00000000  0.50000000  0.50000000  1.0
  Cu  Cu10  1  0.00000000  0.00000000  0.00000000  1.0
  Cu  Cu11  1  -0.00000000  0.00000000  0.50000000  1.0
  La  La12  1  0.62498848  0.62498848  0.75000000  1.0
  La  La13  1  1.37501152  0.37501152  0.25000000  1.0
