# generated using pymatgen
data_InP(H2O3)2
_symmetry_space_group_name_H-M   'P 1'
_cell_length_a   5.43474274
_cell_length_b   10.55066579
_cell_length_c   10.18844183
_cell_angle_alpha   90.00000000
_cell_angle_beta   119.03265751
_cell_angle_gamma   90.00000000
_symmetry_Int_Tables_number   1
_chemical_formula_structural   InP(H2O3)2
_chemical_formula_sum   'In4 P4 H16 O24'
_cell_volume   510.79728570
_cell_formula_units_Z   4
loop_
 _symmetry_equiv_pos_site_id
 _symmetry_equiv_pos_as_xyz
  1  'x, y, z'
loop_
 _atom_site_type_symbol
 _atom_site_label
 _atom_site_symmetry_multiplicity
 _atom_site_fract_x
 _atom_site_fract_y
 _atom_site_fract_z
 _atom_site_occupancy
  In  In0  1  0.87585101  0.82998828  0.28626953  1.0
  In  In1  1  0.87585101  0.67001172  0.78626953  1.0
  In  In2  1  0.12414899  0.32998828  0.21373047  1.0
  In  In3  1  0.12414899  0.17001172  0.71373047  1.0
  P  P4  1  0.73136268  0.14315788  0.32632677  1.0
  P  P5  1  0.73136268  0.35684212  0.82632677  1.0
  P  P6  1  0.26863732  0.64315788  0.17367323  1.0
  P  P7  1  0.26863732  0.85684212  0.67367323  1.0
  H  H8  1  0.91739376  0.95841649  0.75586650  1.0
  H  H9  1  0.91739376  0.54158351  0.25586650  1.0
  H  H10  1  0.08260624  0.45841649  0.74413350  1.0
  H  H11  1  0.08260624  0.04158351  0.24413350  1.0
  H  H12  1  0.64475799  0.45611830  0.21253960  1.0
  H  H13  1  0.64475799  0.04388170  0.71253960  1.0
  H  H14  1  0.35524201  0.95611830  0.28746040  1.0
  H  H15  1  0.35524201  0.54388170  0.78746040  1.0
  H  H16  1  0.59843621  0.31006573  0.47356542  1.0
  H  H17  1  0.59843621  0.18993427  0.97356542  1.0
  H  H18  1  0.40156379  0.81006573  0.02643458  1.0
  H  H19  1  0.40156379  0.68993427  0.52643458  1.0
  H  H20  1  0.38075259  0.34213939  0.53059503  1.0
  H  H21  1  0.38075259  0.15786061  0.03059503  1.0
  H  H22  1  0.61924741  0.84213939  0.96940497  1.0
  H  H23  1  0.61924741  0.65786061  0.46940497  1.0
  O  O24  1  0.94680122  0.16648947  0.26911215  1.0
  O  O25  1  0.94680122  0.33351053  0.76911215  1.0
  O  O26  1  0.05319878  0.66648947  0.23088785  1.0
  O  O27  1  0.05319878  0.83351053  0.73088785  1.0
  O  O28  1  0.83311900  0.20752601  0.48242875  1.0
  O  O29  1  0.83311900  0.29247399  0.98242875  1.0
  O  O30  1  0.16688100  0.70752601  0.01757125  1.0
  O  O31  1  0.16688100  0.79247399  0.51757125  1.0
  O  O32  1  0.85418818  0.45291287  0.26179189  1.0
  O  O33  1  0.85418818  0.04708713  0.76179189  1.0
  O  O34  1  0.14581182  0.95291287  0.23820811  1.0
  O  O35  1  0.14581182  0.54708713  0.73820811  1.0
  O  O36  1  0.69767648  -0.00277608  0.33761333  1.0
  O  O37  1  0.69767648  0.50277608  0.83761333  1.0
  O  O38  1  0.30232352  0.49722392  0.16238667  1.0
  O  O39  1  0.30232352  1.00277608  0.66238667  1.0
  O  O40  1  0.44228997  0.20323745  0.21273231  1.0
  O  O41  1  0.44228997  0.29676255  0.71273231  1.0
  O  O42  1  0.55771003  0.70323745  0.28726769  1.0
  O  O43  1  0.55771003  0.79676255  0.78726769  1.0
  O  O44  1  0.42636159  0.36150036  0.44938620  1.0
  O  O45  1  0.42636159  0.13849964  0.94938620  1.0
  O  O46  1  0.57363841  0.86150036  0.05061380  1.0
  O  O47  1  0.57363841  0.63849964  0.55061380  1.0
