# generated using pymatgen
data_RbCoBr3
_symmetry_space_group_name_H-M   'P 1'
_cell_length_a   13.01276929
_cell_length_b   13.01276929
_cell_length_c   6.23007569
_cell_angle_alpha   90.00000000
_cell_angle_beta   90.00000000
_cell_angle_gamma   120.00000000
_symmetry_Int_Tables_number   1
_chemical_formula_structural   RbCoBr3
_chemical_formula_sum   'Rb6 Co6 Br18'
_cell_volume   913.61540658
_cell_formula_units_Z   6
loop_
 _symmetry_equiv_pos_site_id
 _symmetry_equiv_pos_as_xyz
  1  'x, y, z'
loop_
 _atom_site_type_symbol
 _atom_site_label
 _atom_site_symmetry_multiplicity
 _atom_site_fract_x
 _atom_site_fract_y
 _atom_site_fract_z
 _atom_site_occupancy
  Rb  Rb0  1  0.33344427  0.33344427  0.21119338  1.0
  Rb  Rb1  1  0.33344427  0.00000000  0.71119338  1.0
  Rb  Rb2  1  0.00000000  0.33344427  0.71119338  1.0
  Rb  Rb3  1  0.00000000  0.66655573  0.21119338  1.0
  Rb  Rb4  1  0.66655573  0.66655573  0.71119338  1.0
  Rb  Rb5  1  0.66655573  0.00000000  0.21119338  1.0
  Co  Co6  1  0.33333333  0.66666667  0.45200158  1.0
  Co  Co7  1  0.33333333  0.66666667  0.95200158  1.0
  Co  Co8  1  0.66666667  0.33333333  0.45200158  1.0
  Co  Co9  1  0.66666667  0.33333333  0.95200158  1.0
  Co  Co10  1  0.00000000  0.00000000  -0.02077548  1.0
  Co  Co11  1  0.00000000  0.00000000  0.47922452  1.0
  Br  Br12  1  0.33331987  0.82499422  0.20167750  1.0
  Br  Br13  1  0.33331987  0.50832564  0.70167750  1.0
  Br  Br14  1  0.82499422  0.33331987  0.20167750  1.0
  Br  Br15  1  0.82499422  0.49167436  0.70167750  1.0
  Br  Br16  1  0.49167436  0.82499422  0.70167750  1.0
  Br  Br17  1  0.49167436  0.66668013  0.20167750  1.0
  Br  Br18  1  0.17500578  0.66668013  0.70167750  1.0
  Br  Br19  1  0.17500578  0.50832564  0.20167750  1.0
  Br  Br20  1  0.66668013  0.49167436  0.20167750  1.0
  Br  Br21  1  0.66668013  0.17500578  0.70167750  1.0
  Br  Br22  1  0.50832564  0.33331987  0.70167750  1.0
  Br  Br23  1  0.50832564  0.17500578  0.20167750  1.0
  Br  Br24  1  0.84170975  0.84170975  0.22984239  1.0
  Br  Br25  1  0.84170975  0.00000000  0.72984239  1.0
  Br  Br26  1  0.00000000  0.84170975  0.72984239  1.0
  Br  Br27  1  -0.00000000  0.15829025  0.22984239  1.0
  Br  Br28  1  0.15829025  0.15829025  0.72984239  1.0
  Br  Br29  1  0.15829025  0.00000000  0.22984239  1.0
