# generated using pymatgen
data_FeHC2O3
_symmetry_space_group_name_H-M   'P 1'
_cell_length_a   3.51792732
_cell_length_b   9.73443250
_cell_length_c   9.40641801
_cell_angle_alpha   90.00000000
_cell_angle_beta   111.85736846
_cell_angle_gamma   90.00000000
_symmetry_Int_Tables_number   1
_chemical_formula_structural   FeHC2O3
_chemical_formula_sum   'Fe4 H4 C8 O12'
_cell_volume   298.96673942
_cell_formula_units_Z   4
loop_
 _symmetry_equiv_pos_site_id
 _symmetry_equiv_pos_as_xyz
  1  'x, y, z'
loop_
 _atom_site_type_symbol
 _atom_site_label
 _atom_site_symmetry_multiplicity
 _atom_site_fract_x
 _atom_site_fract_y
 _atom_site_fract_z
 _atom_site_occupancy
  Fe  Fe0  1  0.60875523  0.89973764  0.44068900  1.0
  Fe  Fe1  1  0.60875523  0.60026236  0.94068900  1.0
  Fe  Fe2  1  0.39124477  0.39973764  0.05931100  1.0
  Fe  Fe3  1  0.39124477  0.10026236  0.55931100  1.0
  H  H4  1  0.64700324  0.14900700  0.32896448  1.0
  H  H5  1  0.64700324  0.35099300  0.82896448  1.0
  H  H6  1  0.35299676  0.64900700  0.17103552  1.0
  H  H7  1  0.35299676  0.85099300  0.67103552  1.0
  C  C8  1  0.93709629  0.45460640  0.39382652  1.0
  C  C9  1  0.93709629  0.04539360  0.89382652  1.0
  C  C10  1  0.06290371  0.95460640  0.10617348  1.0
  C  C11  1  0.06290371  0.54539360  0.60617348  1.0
  C  C12  1  0.82719150  0.91460600  0.94683099  1.0
  C  C13  1  0.82719150  0.58539400  0.44683099  1.0
  C  C14  1  0.17280850  0.41460600  0.55316901  1.0
  C  C15  1  0.17280850  0.08539400  0.05316901  1.0
  O  O16  1  0.86809828  0.39857922  0.26586299  1.0
  O  O17  1  0.86809828  0.10142078  0.76586299  1.0
  O  O18  1  0.13190172  0.89857922  0.23413701  1.0
  O  O19  1  0.13190172  0.60142078  0.73413701  1.0
  O  O20  1  0.75796769  0.10685792  0.43223000  1.0
  O  O21  1  0.75796769  0.39314208  0.93223000  1.0
  O  O22  1  0.24203231  0.60685792  0.06777000  1.0
  O  O23  1  0.24203231  0.89314208  0.56777000  1.0
  O  O24  1  0.38538334  0.18698603  0.12098710  1.0
  O  O25  1  0.38538334  0.31301397  0.62098710  1.0
  O  O26  1  0.61461666  0.68698603  0.37901290  1.0
  O  O27  1  0.61461666  0.81301397  0.87901290  1.0
