# generated using pymatgen
data_NaScAs2O7
_symmetry_space_group_name_H-M   'P 1'
_cell_length_a   5.69793650
_cell_length_b   5.69793650
_cell_length_c   4.90362258
_cell_angle_alpha   82.50440471
_cell_angle_beta   97.49559529
_cell_angle_gamma   77.13309889
_symmetry_Int_Tables_number   1
_chemical_formula_structural   NaScAs2O7
_chemical_formula_sum   'Na1 Sc1 As2 O7'
_cell_volume   151.76992301
_cell_formula_units_Z   1
loop_
 _symmetry_equiv_pos_site_id
 _symmetry_equiv_pos_as_xyz
  1  'x, y, z'
loop_
 _atom_site_type_symbol
 _atom_site_label
 _atom_site_symmetry_multiplicity
 _atom_site_fract_x
 _atom_site_fract_y
 _atom_site_fract_z
 _atom_site_occupancy
  Na  Na0  1  0.00050924  0.00050924  -0.00000000  1.0
  Sc  Sc1  1  0.61484047  -0.38515953  0.00000000  1.0
  As  As2  1  1.06964673  0.49705055  0.58679137  1.0
  As  As3  1  1.49705055  0.06964673  0.41320863  1.0
  O  O4  1  1.28854117  0.61926674  0.74642827  1.0
  O  O5  1  1.61926674  0.28854117  0.25357173  1.0
  O  O6  1  0.88391909  -0.59165137  0.80902909  1.0
  O  O7  1  0.40834863  -0.11608091  0.19097091  1.0
  O  O8  1  0.67300695  -0.08459568  0.72207174  1.0
  O  O9  1  0.91540432  -0.32699305  0.27792826  1.0
  O  O10  1  1.20106609  0.20106609  0.50000000  1.0
