# generated using pymatgen
data_CN
_symmetry_space_group_name_H-M   'P 1'
_cell_length_a   6.58456864
_cell_length_b   7.10786652
_cell_length_c   6.83095771
_cell_angle_alpha   90.00000000
_cell_angle_beta   90.00000000
_cell_angle_gamma   90.00000000
_symmetry_Int_Tables_number   1
_chemical_formula_structural   CN
_chemical_formula_sum   'C8 N8'
_cell_volume   319.70408767
_cell_formula_units_Z   8
loop_
 _symmetry_equiv_pos_site_id
 _symmetry_equiv_pos_as_xyz
  1  'x, y, z'
loop_
 _atom_site_type_symbol
 _atom_site_label
 _atom_site_symmetry_multiplicity
 _atom_site_fract_x
 _atom_site_fract_y
 _atom_site_fract_z
 _atom_site_occupancy
  C  C0  1  0.41622255  0.45193409  0.03300173  1.0
  C  C1  1  0.41622255  0.04806591  0.53300173  1.0
  C  C2  1  0.91622255  0.45193409  0.46699827  1.0
  C  C3  1  0.91622255  0.04806591  0.96699827  1.0
  C  C4  1  0.58377745  0.95193409  0.46699827  1.0
  C  C5  1  0.58377745  0.54806591  0.96699827  1.0
  C  C6  1  0.08377745  0.95193409  0.03300173  1.0
  C  C7  1  0.08377745  0.54806591  0.53300173  1.0
  N  N8  1  0.27397434  0.37057681  0.08905929  1.0
  N  N9  1  0.27397434  0.12942319  0.58905929  1.0
  N  N10  1  0.77397434  0.37057681  0.41094071  1.0
  N  N11  1  0.77397434  0.12942319  0.91094071  1.0
  N  N12  1  0.72602566  0.87057681  0.41094071  1.0
  N  N13  1  0.72602566  0.62942319  0.91094071  1.0
  N  N14  1  0.22602566  0.87057681  0.08905929  1.0
  N  N15  1  0.22602566  0.62942319  0.58905929  1.0
