# generated using pymatgen
data_ZnAs4(HO2)8
_symmetry_space_group_name_H-M   'P 1'
_cell_length_a   7.67217917
_cell_length_b   5.57248459
_cell_length_c   8.35565273
_cell_angle_alpha   92.65293871
_cell_angle_beta   97.41290479
_cell_angle_gamma   92.88203817
_symmetry_Int_Tables_number   1
_chemical_formula_structural   ZnAs4(HO2)8
_chemical_formula_sum   'Zn1 As4 H8 O16'
_cell_volume   353.29368970
_cell_formula_units_Z   1
loop_
 _symmetry_equiv_pos_site_id
 _symmetry_equiv_pos_as_xyz
  1  'x, y, z'
loop_
 _atom_site_type_symbol
 _atom_site_label
 _atom_site_symmetry_multiplicity
 _atom_site_fract_x
 _atom_site_fract_y
 _atom_site_fract_z
 _atom_site_occupancy
  O  O0  1  -0.48560113  -0.93136330  -0.80082290  1.0
  O  O1  1  -0.51439887  -0.06863670  -0.19917710  1.0
  O  O2  1  -0.11736046  -0.92997756  -0.79406457  1.0
  O  O3  1  -0.88263954  -0.07002244  -0.20593543  1.0
  O  O4  1  -1.03134012  -0.49926901  -0.31983719  1.0
  O  O5  1  0.03134012  -0.50073099  -0.68016281  1.0
  O  O6  1  -0.60535586  -0.52768586  -0.68207551  1.0
  O  O7  1  -0.39464414  -0.47231414  -0.31792449  1.0
  O  O8  1  -0.78437424  -0.17526586  -0.85802290  1.0
  O  O9  1  -0.21562576  -0.82473414  -0.14197710  1.0
  O  O10  1  -0.33892936  -0.38084606  -0.85929840  1.0
  O  O11  1  -0.66107064  -0.61915394  -0.14070160  1.0
  O  O12  1  -0.72923032  -0.87311374  -0.45600974  1.0
  O  O13  1  -0.27076968  -0.12688626  -0.54399026  1.0
  O  O14  1  -0.84838871  -0.68220188  -0.96609268  1.0
  O  O15  1  -0.15161129  -0.31779812  -0.03390732  1.0
  H  H16  1  -0.40244891  -0.95601713  -0.17653834  1.0
  H  H17  1  -0.59755109  -0.04398287  -0.82346166  1.0
  H  H18  1  -0.66494119  -0.72726956  -0.48494299  1.0
  H  H19  1  -0.33505881  -0.27273044  -0.51505701  1.0
  H  H20  1  -0.55010987  -0.66734499  -0.73359252  1.0
  H  H21  1  -0.44989013  -0.33265501  -0.26640748  1.0
  H  H22  1  -0.96675411  -0.33739598  -0.29146824  1.0
  H  H23  1  -0.03324589  -0.66260402  -0.70853176  1.0
  As  As24  1  -0.70375284  -0.89960207  -0.24410232  1.0
  As  As25  1  -0.29624716  -0.10039793  -0.75589768  1.0
  As  As26  1  -0.80449874  -0.46579225  -0.80662564  1.0
  As  As27  1  -0.19550126  -0.53420775  -0.19337436  1.0
  Zn  Zn28  1  0.00000000  0.00000000  0.00000000  1.0
