# generated using pymatgen
data_LiH3(SeO3)2
_symmetry_space_group_name_H-M   'P 1'
_cell_length_a   5.55664894
_cell_length_b   8.22934680
_cell_length_c   7.18119038
_cell_angle_alpha   90.00000000
_cell_angle_beta   122.65656425
_cell_angle_gamma   90.00000000
_symmetry_Int_Tables_number   1
_chemical_formula_structural   LiH3(SeO3)2
_chemical_formula_sum   'Li2 H6 Se4 O12'
_cell_volume   276.46848979
_cell_formula_units_Z   2
loop_
 _symmetry_equiv_pos_site_id
 _symmetry_equiv_pos_as_xyz
  1  'x, y, z'
loop_
 _atom_site_type_symbol
 _atom_site_label
 _atom_site_symmetry_multiplicity
 _atom_site_fract_x
 _atom_site_fract_y
 _atom_site_fract_z
 _atom_site_occupancy
  Li  Li0  1  0.80002173  0.27142730  0.19588953  1.0
  Li  Li1  1  0.80002173  0.72857270  0.69588953  1.0
  H  H2  1  0.89069066  0.64797768  0.36138745  1.0
  H  H3  1  0.89069066  0.35202232  0.86138745  1.0
  H  H4  1  0.79762959  0.88423183  0.08515381  1.0
  H  H5  1  0.79762959  0.11576817  0.58515381  1.0
  H  H6  1  0.29730842  0.72883387  0.13518363  1.0
  H  H7  1  0.29730842  0.27116613  0.63518363  1.0
  Se  Se8  1  0.46877278  0.39596726  0.42115842  1.0
  Se  Se9  1  0.46877278  0.60403274  0.92115842  1.0
  Se  Se10  1  0.18539850  0.88447984  0.46315040  1.0
  Se  Se11  1  0.18539850  0.11552016  0.96315040  1.0
  O  O12  1  -0.00999071  0.72597638  0.49724270  1.0
  O  O13  1  -0.00999071  0.27402362  -0.00275730  1.0
  O  O14  1  0.90630577  0.97053730  0.20994482  1.0
  O  O15  1  0.90630577  0.02946270  0.70994482  1.0
  O  O16  1  0.71840507  0.52835604  0.17453932  1.0
  O  O17  1  0.71840507  0.47164396  0.67453932  1.0
  O  O18  1  0.63120265  0.76899700  0.89078750  1.0
  O  O19  1  0.63120265  0.23100300  0.39078750  1.0
  O  O20  1  0.38481935  0.78192058  0.39261838  1.0
  O  O21  1  0.38481935  0.21807942  0.89261838  1.0
  O  O22  1  0.22003618  0.70724623  0.97424405  1.0
  O  O23  1  0.22003618  0.29275377  0.47424405  1.0
