# generated using pymatgen
data_Ag2Te(H2O3)2
_symmetry_space_group_name_H-M   'P 1'
_cell_length_a   10.53442920
_cell_length_b   5.68436682
_cell_length_c   9.99854677
_cell_angle_alpha   79.19539282
_cell_angle_beta   32.00768633
_cell_angle_gamma   68.79692085
_symmetry_Int_Tables_number   1
_chemical_formula_structural   Ag2Te(H2O3)2
_chemical_formula_sum   'Ag4 Te2 H8 O12'
_cell_volume   287.12150500
_cell_formula_units_Z   2
loop_
 _symmetry_equiv_pos_site_id
 _symmetry_equiv_pos_as_xyz
  1  'x, y, z'
loop_
 _atom_site_type_symbol
 _atom_site_label
 _atom_site_symmetry_multiplicity
 _atom_site_fract_x
 _atom_site_fract_y
 _atom_site_fract_z
 _atom_site_occupancy
  Ag  Ag0  1  0.67090586  -0.12341431  1.17333662  1.0
  Ag  Ag1  1  -0.12341431  0.67090586  0.27917184  1.0
  Ag  Ag2  1  0.07666338  -0.02917184  1.57909414  1.0
  Ag  Ag3  1  -0.02917184  0.07666338  0.37341431  1.0
  Te  Te4  1  0.24420202  1.24420202  -0.24420202  1.0
  Te  Te5  1  0.49420202  0.49420202  1.00579798  1.0
  H  H6  1  1.23281450  0.79863148  0.74744109  1.0
  H  H7  1  0.79863148  1.23281450  -0.77888706  1.0
  H  H8  1  0.50255891  0.02888706  1.01718550  1.0
  H  H9  1  0.02888706  0.50255891  0.45136852  1.0
  H  H10  1  0.92897912  0.45647574  0.80936101  1.0
  H  H11  1  0.45647574  0.92897912  -0.19481588  1.0
  H  H12  1  1.44063899  0.44481588  0.32102088  1.0
  H  H13  1  0.44481588  1.44063899  -0.20647574  1.0
  O  O14  1  1.52777472  0.24526010  0.38548058  1.0
  O  O15  1  0.24526010  1.52777472  -0.15851541  1.0
  O  O16  1  0.86451942  0.40851541  0.72222528  1.0
  O  O17  1  0.40851541  0.86451942  0.00473990  1.0
  O  O18  1  0.21381851  -0.04054899  1.69339839  1.0
  O  O19  1  -0.04054899  0.21381851  0.13333210  1.0
  O  O20  1  0.55660161  0.11666790  1.03618149  1.0
  O  O21  1  0.11666790  0.55660161  0.29054899  1.0
  O  O22  1  0.96532091  0.51360034  0.86350615  1.0
  O  O23  1  0.51360034  0.96532091  -0.34242741  1.0
  O  O24  1  1.38649385  0.59242741  0.28467909  1.0
  O  O25  1  0.59242741  1.38649385  -0.26360034  1.0
