# generated using pymatgen
data_Te2W
_symmetry_space_group_name_H-M   'P 1'
_cell_length_a   3.53997597
_cell_length_b   3.53997597
_cell_length_c   14.84798344
_cell_angle_alpha   90.00000000
_cell_angle_beta   90.00000000
_cell_angle_gamma   120.00000000
_symmetry_Int_Tables_number   1
_chemical_formula_structural   Te2W
_chemical_formula_sum   'Te4 W2'
_cell_volume   161.13828348
_cell_formula_units_Z   2
loop_
 _symmetry_equiv_pos_site_id
 _symmetry_equiv_pos_as_xyz
  1  'x, y, z'
loop_
 _atom_site_type_symbol
 _atom_site_label
 _atom_site_symmetry_multiplicity
 _atom_site_fract_x
 _atom_site_fract_y
 _atom_site_fract_z
 _atom_site_occupancy
  Te  Te0  1  0.33333333  0.66666667  0.25002334  1.0
  Te  Te1  1  0.66666667  0.33333333  0.75002334  1.0
  Te  Te2  1  -0.00000000  -0.00000000  0.00001625  1.0
  Te  Te3  1  -0.00000000  -0.00000000  0.50001625  1.0
  W  W4  1  0.33333333  0.66666667  0.62496041  1.0
  W  W5  1  0.66666667  0.33333333  0.12496041  1.0
