# generated using pymatgen
data_SrTa2O6
_symmetry_space_group_name_H-M   'P 1'
_cell_length_a   11.16249533
_cell_length_b   7.70119019
_cell_length_c   5.66317416
_cell_angle_alpha   90.00000000
_cell_angle_beta   90.00000000
_cell_angle_gamma   90.00000000
_symmetry_Int_Tables_number   1
_chemical_formula_structural   SrTa2O6
_chemical_formula_sum   'Sr4 Ta8 O24'
_cell_volume   486.83193198
_cell_formula_units_Z   4
loop_
 _symmetry_equiv_pos_site_id
 _symmetry_equiv_pos_as_xyz
  1  'x, y, z'
loop_
 _atom_site_type_symbol
 _atom_site_label
 _atom_site_symmetry_multiplicity
 _atom_site_fract_x
 _atom_site_fract_y
 _atom_site_fract_z
 _atom_site_occupancy
  Sr  Sr0  1  0.95984565  0.25000000  0.03815600  1.0
  Sr  Sr1  1  0.45984565  0.25000000  0.46184400  1.0
  Sr  Sr2  1  0.04015435  0.75000000  0.96184400  1.0
  Sr  Sr3  1  0.54015435  0.75000000  0.53815600  1.0
  Ta  Ta4  1  0.64203666  0.49595275  0.03509817  1.0
  Ta  Ta5  1  0.64203666  0.00404725  0.03509817  1.0
  Ta  Ta6  1  0.14203666  0.49595275  0.46490183  1.0
  Ta  Ta7  1  0.14203666  0.00404725  0.46490183  1.0
  Ta  Ta8  1  0.35796334  0.99595275  0.96490183  1.0
  Ta  Ta9  1  0.35796334  0.50404725  0.96490183  1.0
  Ta  Ta10  1  0.85796334  0.99595275  0.53509817  1.0
  Ta  Ta11  1  0.85796334  0.50404725  0.53509817  1.0
  O  O12  1  0.97650837  0.96720703  0.28081094  1.0
  O  O13  1  0.97650837  0.53279297  0.28081094  1.0
  O  O14  1  0.47650837  0.96720703  0.21918906  1.0
  O  O15  1  0.47650837  0.53279297  0.21918906  1.0
  O  O16  1  0.02349163  0.46720703  0.71918906  1.0
  O  O17  1  0.02349163  0.03279297  0.71918906  1.0
  O  O18  1  0.52349163  0.46720703  0.78081094  1.0
  O  O19  1  0.52349163  0.03279297  0.78081094  1.0
  O  O20  1  0.71474020  0.95205480  0.35658464  1.0
  O  O21  1  0.71474020  0.54794520  0.35658464  1.0
  O  O22  1  0.21474020  0.95205480  0.14341536  1.0
  O  O23  1  0.21474020  0.54794520  0.14341536  1.0
  O  O24  1  0.28525980  0.45205480  0.64341536  1.0
  O  O25  1  0.28525980  0.04794520  0.64341536  1.0
  O  O26  1  0.78525980  0.45205480  0.85658464  1.0
  O  O27  1  0.78525980  0.04794520  0.85658464  1.0
  O  O28  1  0.85452697  0.25000000  0.47010909  1.0
  O  O29  1  0.35452697  0.25000000  0.02989091  1.0
  O  O30  1  0.14547303  0.75000000  0.52989091  1.0
  O  O31  1  0.64547303  0.75000000  0.97010909  1.0
  O  O32  1  0.62952728  0.25000000  0.13563274  1.0
  O  O33  1  0.12952728  0.25000000  0.36436726  1.0
  O  O34  1  0.37047272  0.75000000  0.86436726  1.0
  O  O35  1  0.87047272  0.75000000  0.63563274  1.0
