# generated using pymatgen
data_S3N2O5
_symmetry_space_group_name_H-M   'P 1'
_cell_length_a   8.45416692
_cell_length_b   10.27581198
_cell_length_c   8.72097431
_cell_angle_alpha   90.00000000
_cell_angle_beta   112.00754375
_cell_angle_gamma   90.00000000
_symmetry_Int_Tables_number   1
_chemical_formula_structural   S3N2O5
_chemical_formula_sum   'S12 N8 O20'
_cell_volume   702.41653836
_cell_formula_units_Z   4
loop_
 _symmetry_equiv_pos_site_id
 _symmetry_equiv_pos_as_xyz
  1  'x, y, z'
loop_
 _atom_site_type_symbol
 _atom_site_label
 _atom_site_symmetry_multiplicity
 _atom_site_fract_x
 _atom_site_fract_y
 _atom_site_fract_z
 _atom_site_occupancy
  S  S0  1  0.79453730  0.96244859  0.59265674  1.0
  S  S1  1  0.79453730  0.53755141  0.09265674  1.0
  S  S2  1  0.20546270  0.46244859  0.90734326  1.0
  S  S3  1  0.20546270  0.03755141  0.40734326  1.0
  S  S4  1  0.70842348  0.92156903  0.88552942  1.0
  S  S5  1  0.70842348  0.57843097  0.38552942  1.0
  S  S6  1  0.29157652  0.42156903  0.61447058  1.0
  S  S7  1  0.29157652  0.07843097  0.11447058  1.0
  S  S8  1  0.24856553  0.67688978  0.71970592  1.0
  S  S9  1  0.24856553  0.82311022  0.21970592  1.0
  S  S10  1  0.75143447  0.17688978  0.78029408  1.0
  S  S11  1  0.75143447  0.32311022  0.28029408  1.0
  N  N12  1  0.71008136  0.41796161  0.39912150  1.0
  N  N13  1  0.71008136  0.08203839  0.89912150  1.0
  N  N14  1  0.28991864  0.91796161  0.10087850  1.0
  N  N15  1  0.28991864  0.58203839  0.60087850  1.0
  N  N16  1  0.21348039  0.61981820  0.86945604  1.0
  N  N17  1  0.21348039  0.88018180  0.36945604  1.0
  N  N18  1  0.78651961  0.11981820  0.63054396  1.0
  N  N19  1  0.78651961  0.38018180  0.13054396  1.0
  O  O20  1  0.96748406  0.91873424  0.67120390  1.0
  O  O21  1  0.96748406  0.58126576  0.17120390  1.0
  O  O22  1  0.03251594  0.41873424  0.82879610  1.0
  O  O23  1  0.03251594  0.08126576  0.32879610  1.0
  O  O24  1  0.87384253  0.87292904  0.98664386  1.0
  O  O25  1  0.87384253  0.62707096  0.48664386  1.0
  O  O26  1  0.12615747  0.37292904  0.51335614  1.0
  O  O27  1  0.12615747  0.12707096  0.01335614  1.0
  O  O28  1  0.69609505  0.56046016  0.92135921  1.0
  O  O29  1  0.69609505  0.93953984  0.42135921  1.0
  O  O30  1  0.30390495  0.06046016  0.57864079  1.0
  O  O31  1  0.30390495  0.43953984  0.07864079  1.0
  O  O32  1  0.67449321  0.89682755  0.68684801  1.0
  O  O33  1  0.67449321  0.60317245  0.18684801  1.0
  O  O34  1  0.32550679  0.39682755  0.81315199  1.0
  O  O35  1  0.32550679  0.10317245  0.31315199  1.0
  O  O36  1  0.55602488  0.87307102  0.90002441  1.0
  O  O37  1  0.55602488  0.62692898  0.40002441  1.0
  O  O38  1  0.44397512  0.37307102  0.59997559  1.0
  O  O39  1  0.44397512  0.12692898  0.09997559  1.0
