# generated using pymatgen
data_SmSi3Os
_symmetry_space_group_name_H-M   'P 1'
_cell_length_a   5.83106697
_cell_length_b   5.83106697
_cell_length_c   5.83106697
_cell_angle_alpha   137.53549926
_cell_angle_beta   137.53549926
_cell_angle_gamma   61.61515291
_symmetry_Int_Tables_number   1
_chemical_formula_structural   SmSi3Os
_chemical_formula_sum   'Sm1 Si3 Os1'
_cell_volume   89.33425388
_cell_formula_units_Z   1
loop_
 _symmetry_equiv_pos_site_id
 _symmetry_equiv_pos_as_xyz
  1  'x, y, z'
loop_
 _atom_site_type_symbol
 _atom_site_label
 _atom_site_symmetry_multiplicity
 _atom_site_fract_x
 _atom_site_fract_y
 _atom_site_fract_z
 _atom_site_occupancy
  Sm  Sm0  1  0.56963203  0.56963203  1.00000000  1.0
  Si  Si1  1  -0.00891416  -0.00891416  0.00000000  1.0
  Si  Si2  1  0.83523560  0.33523560  0.50000000  1.0
  Si  Si3  1  0.33523560  0.83523560  0.50000000  1.0
  Os  Os4  1  0.22661094  0.22661094  0.00000000  1.0
