# generated using pymatgen
data_NaMg2V3O10
_symmetry_space_group_name_H-M   'P 1'
_cell_length_a   9.72525991
_cell_length_b   6.82531619
_cell_length_c   6.83240646
_cell_angle_alpha   101.44838643
_cell_angle_beta   104.91576548
_cell_angle_gamma   100.26888146
_symmetry_Int_Tables_number   1
_chemical_formula_structural   NaMg2V3O10
_chemical_formula_sum   'Na2 Mg4 V6 O20'
_cell_volume   416.73519534
_cell_formula_units_Z   2
loop_
 _symmetry_equiv_pos_site_id
 _symmetry_equiv_pos_as_xyz
  1  'x, y, z'
loop_
 _atom_site_type_symbol
 _atom_site_label
 _atom_site_symmetry_multiplicity
 _atom_site_fract_x
 _atom_site_fract_y
 _atom_site_fract_z
 _atom_site_occupancy
  Na  Na0  1  0.36596669  0.64237327  0.01914646  1.0
  Na  Na1  1  0.63403331  0.35762673  0.98085354  1.0
  Mg  Mg2  1  0.01723947  0.20767398  0.18305522  1.0
  Mg  Mg3  1  0.98276053  0.79232602  0.81694478  1.0
  Mg  Mg4  1  0.29329593  0.24211330  0.56880134  1.0
  Mg  Mg5  1  0.70670407  0.75788670  0.43119866  1.0
  V  V6  1  0.30912812  0.11392995  0.05015036  1.0
  V  V7  1  0.69087188  0.88607005  0.94984964  1.0
  V  V8  1  0.04583186  0.76574171  0.33799548  1.0
  V  V9  1  0.95416814  0.23425829  0.66200452  1.0
  V  V10  1  0.61291214  0.22785806  0.42805799  1.0
  V  V11  1  0.38708786  0.77214194  0.57194201  1.0
  O  O12  1  0.79043944  0.12522541  0.08510225  1.0
  O  O13  1  0.20956056  0.87477459  0.91489775  1.0
  O  O14  1  0.65629646  0.72836113  0.10649698  1.0
  O  O15  1  0.34370354  0.27163887  0.89350302  1.0
  O  O16  1  0.48149129  0.07177539  0.19353776  1.0
  O  O17  1  0.51850871  0.92822461  0.80646224  1.0
  O  O18  1  0.24249438  0.22473413  0.24150411  1.0
  O  O19  1  0.75750562  0.77526587  0.75849589  1.0
  O  O20  1  0.03900476  0.52076265  0.24081324  1.0
  O  O21  1  0.96099524  0.47923735  0.75918676  1.0
  O  O22  1  0.67565762  0.44420559  0.37020938  1.0
  O  O23  1  0.32434238  0.55579441  0.62979062  1.0
  O  O24  1  0.06602626  0.21459925  0.50408247  1.0
  O  O25  1  0.93397374  0.78540075  0.49591753  1.0
  O  O26  1  0.75768116  0.10082119  0.51867021  1.0
  O  O27  1  0.24231884  0.89917882  0.48132979  1.0
  O  O28  1  0.52202980  0.27210875  0.60302898  1.0
  O  O29  1  0.47797020  0.72789125  0.39697102  1.0
  O  O30  1  0.01023206  0.12991111  0.86629432  1.0
  O  O31  1  0.98976794  0.87008889  0.13370568  1.0
