# generated using pymatgen
data_ScCrGe2
_symmetry_space_group_name_H-M   'P 1'
_cell_length_a   9.34748701
_cell_length_b   10.02662334
_cell_length_c   8.20587830
_cell_angle_alpha   90.00000000
_cell_angle_beta   90.00000000
_cell_angle_gamma   90.00000000
_symmetry_Int_Tables_number   1
_chemical_formula_structural   ScCrGe2
_chemical_formula_sum   'Sc12 Cr12 Ge24'
_cell_volume   769.08553341
_cell_formula_units_Z   12
loop_
 _symmetry_equiv_pos_site_id
 _symmetry_equiv_pos_as_xyz
  1  'x, y, z'
loop_
 _atom_site_type_symbol
 _atom_site_label
 _atom_site_symmetry_multiplicity
 _atom_site_fract_x
 _atom_site_fract_y
 _atom_site_fract_z
 _atom_site_occupancy
  Sc  Sc0  1  0.16992613  0.54716358  0.75579223  1.0
  Sc  Sc1  1  0.16992613  0.54716358  0.24420777  1.0
  Sc  Sc2  1  0.66992613  0.95283642  0.75579223  1.0
  Sc  Sc3  1  0.66992613  0.95283642  0.24420777  1.0
  Sc  Sc4  1  0.83007387  0.45283642  0.75579223  1.0
  Sc  Sc5  1  0.83007387  0.45283642  0.24420777  1.0
  Sc  Sc6  1  0.33007387  0.04716358  0.75579223  1.0
  Sc  Sc7  1  0.33007387  0.04716358  0.24420777  1.0
  Sc  Sc8  1  0.16503380  0.81934634  0.00000000  1.0
  Sc  Sc9  1  0.66503380  0.68065366  0.00000000  1.0
  Sc  Sc10  1  0.83496620  0.18065366  0.00000000  1.0
  Sc  Sc11  1  0.33496620  0.31934634  0.00000000  1.0
  Cr  Cr12  1  0.42273378  0.74301618  0.75033513  1.0
  Cr  Cr13  1  0.42273378  0.74301618  0.24966487  1.0
  Cr  Cr14  1  0.92273378  0.75698382  0.75033513  1.0
  Cr  Cr15  1  0.92273378  0.75698382  0.24966487  1.0
  Cr  Cr16  1  0.57726622  0.25698382  0.75033513  1.0
  Cr  Cr17  1  0.57726622  0.25698382  0.24966487  1.0
  Cr  Cr18  1  0.07726622  0.24301618  0.75033513  1.0
  Cr  Cr19  1  0.07726622  0.24301618  0.24966487  1.0
  Cr  Cr20  1  0.50000000  0.50000000  0.75451260  1.0
  Cr  Cr21  1  0.50000000  0.50000000  0.24548740  1.0
  Cr  Cr22  1  0.00000000  0.00000000  0.75451260  1.0
  Cr  Cr23  1  0.00000000  0.00000000  0.24548740  1.0
  Ge  Ge24  1  0.17391961  0.81769061  0.66172425  1.0
  Ge  Ge25  1  0.17391961  0.81769061  0.33827575  1.0
  Ge  Ge26  1  0.67391961  0.68230939  0.66172425  1.0
  Ge  Ge27  1  0.67391961  0.68230939  0.33827575  1.0
  Ge  Ge28  1  0.82608039  0.18230939  0.66172425  1.0
  Ge  Ge29  1  0.82608039  0.18230939  0.33827575  1.0
  Ge  Ge30  1  0.32608039  0.31769061  0.66172425  1.0
  Ge  Ge31  1  0.32608039  0.31769061  0.33827575  1.0
  Ge  Ge32  1  0.46235293  0.87389657  0.50000000  1.0
  Ge  Ge33  1  0.96235293  0.62610343  0.50000000  1.0
  Ge  Ge34  1  0.53764707  0.12610343  0.50000000  1.0
  Ge  Ge35  1  0.03764707  0.37389657  0.50000000  1.0
  Ge  Ge36  1  0.37887539  0.59350750  0.50000000  1.0
  Ge  Ge37  1  0.87887539  0.90649250  0.50000000  1.0
  Ge  Ge38  1  0.62112461  0.40649250  0.50000000  1.0
  Ge  Ge39  1  0.12112461  0.09350750  0.50000000  1.0
  Ge  Ge40  1  0.45729405  0.87767307  0.00000000  1.0
  Ge  Ge41  1  0.95729405  0.62232693  0.00000000  1.0
  Ge  Ge42  1  0.54270595  0.12232693  0.00000000  1.0
  Ge  Ge43  1  0.04270595  0.37767307  0.00000000  1.0
  Ge  Ge44  1  0.37029803  0.60027505  0.00000000  1.0
  Ge  Ge45  1  0.87029803  0.89972495  0.00000000  1.0
  Ge  Ge46  1  0.62970197  0.39972495  0.00000000  1.0
  Ge  Ge47  1  0.12970197  0.10027505  0.00000000  1.0
