# generated using pymatgen
data_YSbO4
_symmetry_space_group_name_H-M   'P 1'
_cell_length_a   5.40037608
_cell_length_b   7.57233305
_cell_length_c   7.67939334
_cell_angle_alpha   81.10230016
_cell_angle_beta   91.83308098
_cell_angle_gamma   90.31515197
_symmetry_Int_Tables_number   1
_chemical_formula_structural   YSbO4
_chemical_formula_sum   'Y4 Sb4 O16'
_cell_volume   310.09894254
_cell_formula_units_Z   4
loop_
 _symmetry_equiv_pos_site_id
 _symmetry_equiv_pos_as_xyz
  1  'x, y, z'
loop_
 _atom_site_type_symbol
 _atom_site_label
 _atom_site_symmetry_multiplicity
 _atom_site_fract_x
 _atom_site_fract_y
 _atom_site_fract_z
 _atom_site_occupancy
  Sb  Sb0  1  -0.76058643  -0.80604071  -0.33620873  1.0
  Sb  Sb1  1  -0.23941357  -0.19395929  -0.66379127  1.0
  Sb  Sb2  1  -0.27354241  -0.69125846  -0.66402181  1.0
  Sb  Sb3  1  -0.72645759  -0.30874154  -0.33597819  1.0
  Y  Y4  1  -0.73592216  -0.38631572  -0.86623540  1.0
  Y  Y5  1  -0.26407784  -0.61368428  -0.13376460  1.0
  Y  Y6  1  -0.78440894  -0.89053507  -0.84394021  1.0
  Y  Y7  1  -0.21559106  -0.10946493  -0.15605979  1.0
  O  O8  1  -1.12537313  -0.93823577  -0.67042265  1.0
  O  O9  1  0.12537313  -0.06176423  -0.32957735  1.0
  O  O10  1  -0.91184695  -0.31002260  -0.56604344  1.0
  O  O11  1  -0.08815305  -0.68997740  -0.43395656  1.0
  O  O12  1  -1.00491736  -0.61801351  -0.83062787  1.0
  O  O13  1  0.00491736  -0.38198649  -0.16937213  1.0
  O  O14  1  -0.53221512  -0.12137480  -0.81480245  1.0
  O  O15  1  -0.46778488  -0.87862520  -0.18519755  1.0
  O  O16  1  -0.59862137  -0.80534781  -0.56909787  1.0
  O  O17  1  -0.40137863  -0.19465219  -0.43090213  1.0
  O  O18  1  -0.39166049  -0.43913306  -0.67408468  1.0
  O  O19  1  -0.60833951  -0.56086694  -0.32591532  1.0
  O  O20  1  -0.96085288  -0.82564882  -0.11369684  1.0
  O  O21  1  -0.03914712  -0.17435118  -0.88630316  1.0
  O  O22  1  -0.48934620  -0.67687530  -0.88858088  1.0
  O  O23  1  -0.51065380  -0.32312470  -0.11141912  1.0
