# generated using pymatgen
data_TbCO4
_symmetry_space_group_name_H-M   'P 1'
_cell_length_a   4.93671782
_cell_length_b   6.67348446
_cell_length_c   9.16649449
_cell_angle_alpha   90.00000000
_cell_angle_beta   90.00000000
_cell_angle_gamma   90.00000000
_symmetry_Int_Tables_number   1
_chemical_formula_structural   TbCO4
_chemical_formula_sum   'Tb4 C4 O16'
_cell_volume   301.99116612
_cell_formula_units_Z   4
loop_
 _symmetry_equiv_pos_site_id
 _symmetry_equiv_pos_as_xyz
  1  'x, y, z'
loop_
 _atom_site_type_symbol
 _atom_site_label
 _atom_site_symmetry_multiplicity
 _atom_site_fract_x
 _atom_site_fract_y
 _atom_site_fract_z
 _atom_site_occupancy
  C  C0  1  0.49991647  0.97062444  0.64895267  1.0
  C  C1  1  0.99991647  0.52937556  0.35104733  1.0
  C  C2  1  0.50008353  0.47062444  0.85104733  1.0
  C  C3  1  0.00008353  0.02937556  0.14895267  1.0
  Tb  Tb4  1  0.99988559  0.62966980  0.65556386  1.0
  Tb  Tb5  1  0.49988559  0.87033020  0.34443614  1.0
  Tb  Tb6  1  0.00011441  0.12966980  0.84443614  1.0
  Tb  Tb7  1  0.50011441  0.37033020  0.15556386  1.0
  O  O8  1  0.49995730  0.56483009  0.72998154  1.0
  O  O9  1  0.99995730  0.93516991  0.27001846  1.0
  O  O10  1  0.50004270  0.06483009  0.77001846  1.0
  O  O11  1  0.00004270  0.43516991  0.22998154  1.0
  O  O12  1  0.27761164  0.42090101  0.91784760  1.0
  O  O13  1  0.77761164  0.07909899  0.08215240  1.0
  O  O14  1  0.72238836  0.92090101  0.58215240  1.0
  O  O15  1  0.22238836  0.57909899  0.41784760  1.0
  O  O16  1  0.27734490  0.92111665  0.58217463  1.0
  O  O17  1  0.77734490  0.57888335  0.41782537  1.0
  O  O18  1  0.72265510  0.42111665  0.91782537  1.0
  O  O19  1  0.22265510  0.07888335  0.08217463  1.0
  O  O20  1  0.00018889  0.81897940  0.83582872  1.0
  O  O21  1  0.50018889  0.68102060  0.16417128  1.0
  O  O22  1  0.99981111  0.31897940  0.66417128  1.0
  O  O23  1  0.49981111  0.18102060  0.33582872  1.0
