# generated using pymatgen
data_Lu5(TeAu)2
_symmetry_space_group_name_H-M   'P 1'
_cell_length_a   8.53488657
_cell_length_b   8.53488657
_cell_length_c   7.82767057
_cell_angle_alpha   90.00000000
_cell_angle_beta   90.00000000
_cell_angle_gamma   54.53598540
_symmetry_Int_Tables_number   1
_chemical_formula_structural   Lu5(TeAu)2
_chemical_formula_sum   'Lu10 Te4 Au4'
_cell_volume   464.41743201
_cell_formula_units_Z   2
loop_
 _symmetry_equiv_pos_site_id
 _symmetry_equiv_pos_as_xyz
  1  'x, y, z'
loop_
 _atom_site_type_symbol
 _atom_site_label
 _atom_site_symmetry_multiplicity
 _atom_site_fract_x
 _atom_site_fract_y
 _atom_site_fract_z
 _atom_site_occupancy
  Lu  Lu0  1  0.54003543  1.21603849  0.16051517  1.0
  Lu  Lu1  1  0.04003543  1.71603849  0.33948483  1.0
  Lu  Lu2  1  0.21603849  1.54003543  0.83948483  1.0
  Lu  Lu3  1  0.71603849  1.04003543  0.66051517  1.0
  Lu  Lu4  1  -0.21603849  1.45996457  0.16051517  1.0
  Lu  Lu5  1  0.28396151  0.95996457  0.33948483  1.0
  Lu  Lu6  1  0.45996457  0.78396151  0.83948483  1.0
  Lu  Lu7  1  -0.04003543  1.28396151  0.66051517  1.0
  Lu  Lu8  1  -0.50000000  0.50000000  0.50000000  1.0
  Lu  Lu9  1  0.00000000  0.00000000  0.00000000  1.0
  Te  Te10  1  0.29156437  1.29156437  0.50000000  1.0
  Te  Te11  1  0.79156437  0.79156437  0.00000000  1.0
  Te  Te12  1  0.70843563  0.70843563  0.50000000  1.0
  Te  Te13  1  0.20843563  1.20843563  0.00000000  1.0
  Au  Au14  1  -0.13672268  0.13672268  0.36486718  1.0
  Au  Au15  1  -0.63672268  0.63672268  0.13513282  1.0
  Au  Au16  1  -0.86327732  0.86327732  0.63513282  1.0
  Au  Au17  1  -0.36327732  0.36327732  0.86486718  1.0
