# generated using pymatgen
data_Ta4NiP
_symmetry_space_group_name_H-M   'P 1'
_cell_length_a   6.15238619
_cell_length_b   6.15238619
_cell_length_c   4.94865298
_cell_angle_alpha   90.00000000
_cell_angle_beta   90.00000000
_cell_angle_gamma   90.00000000
_symmetry_Int_Tables_number   1
_chemical_formula_structural   Ta4NiP
_chemical_formula_sum   'Ta8 Ni2 P2'
_cell_volume   187.31569909
_cell_formula_units_Z   2
loop_
 _symmetry_equiv_pos_site_id
 _symmetry_equiv_pos_as_xyz
  1  'x, y, z'
loop_
 _atom_site_type_symbol
 _atom_site_label
 _atom_site_symmetry_multiplicity
 _atom_site_fract_x
 _atom_site_fract_y
 _atom_site_fract_z
 _atom_site_occupancy
  Ta  Ta0  1  0.83858522  0.66286951  0.00000000  1.0
  Ta  Ta1  1  0.83858522  0.33713049  0.50000000  1.0
  Ta  Ta2  1  0.66286951  0.83858522  0.50000000  1.0
  Ta  Ta3  1  0.66286951  0.16141478  -0.00000000  1.0
  Ta  Ta4  1  0.16141478  0.66286951  0.50000000  1.0
  Ta  Ta5  1  0.16141478  0.33713049  0.00000000  1.0
  Ta  Ta6  1  0.33713049  0.83858522  0.00000000  1.0
  Ta  Ta7  1  0.33713049  0.16141478  0.50000000  1.0
  Ni  Ni8  1  0.00000000  0.00000000  0.75000000  1.0
  Ni  Ni9  1  0.00000000  0.00000000  0.25000000  1.0
  P  P10  1  0.50000000  0.50000000  0.75000000  1.0
  P  P11  1  0.50000000  0.50000000  0.25000000  1.0
