# generated using pymatgen
data_In4As5(BrO4)3
_symmetry_space_group_name_H-M   'P 1'
_cell_length_a   8.17354356
_cell_length_b   12.70179528
_cell_length_c   10.78366626
_cell_angle_alpha   68.93593939
_cell_angle_beta   80.37242484
_cell_angle_gamma   79.28017642
_symmetry_Int_Tables_number   1
_chemical_formula_structural   In4As5(BrO4)3
_chemical_formula_sum   'In8 As10 Br6 O24'
_cell_volume   1020.33332877
_cell_formula_units_Z   2
loop_
 _symmetry_equiv_pos_site_id
 _symmetry_equiv_pos_as_xyz
  1  'x, y, z'
loop_
 _atom_site_type_symbol
 _atom_site_label
 _atom_site_symmetry_multiplicity
 _atom_site_fract_x
 _atom_site_fract_y
 _atom_site_fract_z
 _atom_site_occupancy
  In  In0  1  -0.85035776  -0.48372635  -0.80319155  1.0
  In  In1  1  -0.14964224  -0.51627365  -0.19680845  1.0
  In  In2  1  -0.74136148  -0.98567294  -0.79065766  1.0
  In  In3  1  -0.25863852  -0.01432706  -0.20934234  1.0
  In  In4  1  -0.34923773  -0.98479901  -0.71161240  1.0
  In  In5  1  -0.65076227  -0.01520099  -0.28838760  1.0
  In  In6  1  0.00000000  -0.00000000  -0.50000000  1.0
  In  In7  1  0.00000000  0.00000000  0.00000000  1.0
  As  As8  1  -0.97373058  -0.81163533  -0.32612048  1.0
  As  As9  1  -0.02626942  -0.18836467  -0.67387952  1.0
  As  As10  1  -0.74861117  -0.77660030  -0.62950910  1.0
  As  As11  1  -0.25138883  -0.22339970  -0.37049090  1.0
  As  As12  1  -0.60357862  -0.17976999  -0.98339767  1.0
  As  As13  1  -0.39642138  -0.82023001  -0.01660233  1.0
  As  As14  1  -0.37501490  -0.82460716  -0.52553308  1.0
  As  As15  1  -0.62498510  -0.17539284  -0.47446692  1.0
  As  As16  1  -0.07170589  -0.75068924  -0.92068036  1.0
  As  As17  1  -0.92829411  -0.24931076  -0.07931964  1.0
  Br  Br18  1  -0.90762697  -0.42787878  -0.35917470  1.0
  Br  Br19  1  -0.09237303  -0.57212122  -0.64082530  1.0
  Br  Br20  1  -0.75059710  -0.58669464  -0.97400997  1.0
  Br  Br21  1  -0.24940290  -0.41330536  -0.02599003  1.0
  Br  Br22  1  -0.60905036  -0.50209022  -0.67341171  1.0
  Br  Br23  1  -0.39094964  -0.49790978  -0.32658829  1.0
  O  O24  1  -0.92755004  -0.87933460  -0.92435491  1.0
  O  O25  1  -0.07244996  -0.12066540  -0.07564509  1.0
  O  O26  1  -0.91295747  -0.31063206  -0.90357936  1.0
  O  O27  1  -0.08704253  -0.68936794  -0.09642064  1.0
  O  O28  1  -0.90384972  -0.10075840  -0.63035673  1.0
  O  O29  1  -0.09615028  -0.89924160  -0.36964327  1.0
  O  O30  1  -0.86243049  -0.92463856  -0.19671636  1.0
  O  O31  1  -0.13756951  -0.07536144  -0.80328364  1.0
  O  O32  1  -0.84287158  -0.88088621  -0.66134266  1.0
  O  O33  1  -0.15712842  -0.11911379  -0.33865734  1.0
  O  O34  1  -0.78318206  -0.83266838  -0.44252637  1.0
  O  O35  1  -0.21681794  -0.16733162  -0.55747363  1.0
  O  O36  1  -0.76310509  -0.09031254  -0.90928140  1.0
  O  O37  1  -0.23689491  -0.90968746  -0.09071860  1.0
  O  O38  1  -0.52807868  -0.85382905  -0.61952279  1.0
  O  O39  1  -0.47192132  -0.14617095  -0.38047721  1.0
  O  O40  1  -0.50286103  -0.92956506  -0.88224554  1.0
  O  O41  1  -0.49713897  -0.07043494  -0.11775446  1.0
  O  O42  1  -0.44099296  -0.91901001  -0.35840327  1.0
  O  O43  1  -0.55900704  -0.08098999  -0.64159673  1.0
  O  O44  1  -0.27032685  -0.82425683  -0.88546042  1.0
  O  O45  1  -0.72967315  -0.17574317  -0.11453958  1.0
  O  O46  1  -0.22348104  -0.92032508  -0.59644022  1.0
  O  O47  1  -0.77651896  -0.07967492  -0.40355978  1.0
