# generated using pymatgen
data_Bi2Te2WO10
_symmetry_space_group_name_H-M   'P 1'
_cell_length_a   6.99051835
_cell_length_b   6.99051835
_cell_length_c   12.36657911
_cell_angle_alpha   88.66296453
_cell_angle_beta   91.33703547
_cell_angle_gamma   131.12312425
_symmetry_Int_Tables_number   1
_chemical_formula_structural   Bi2Te2WO10
_chemical_formula_sum   'Bi4 Te4 W2 O20'
_cell_volume   455.08495356
_cell_formula_units_Z   2
loop_
 _symmetry_equiv_pos_site_id
 _symmetry_equiv_pos_as_xyz
  1  'x, y, z'
loop_
 _atom_site_type_symbol
 _atom_site_label
 _atom_site_symmetry_multiplicity
 _atom_site_fract_x
 _atom_site_fract_y
 _atom_site_fract_z
 _atom_site_occupancy
  Bi  Bi0  1  0.65132018  -0.16823437  0.45480144  1.0
  Bi  Bi1  1  1.16823437  0.34867982  0.95480144  1.0
  Bi  Bi2  1  0.83176563  0.65132018  0.04519856  1.0
  Bi  Bi3  1  0.34867982  0.16823437  0.54519856  1.0
  Te  Te4  1  0.42145579  0.03654329  0.86050631  1.0
  Te  Te5  1  0.96345671  0.57854421  0.36050631  1.0
  Te  Te6  1  1.03654329  0.42145579  0.63949369  1.0
  Te  Te7  1  0.57854421  -0.03654329  0.13949369  1.0
  W  W8  1  0.67725589  0.67725589  0.75000000  1.0
  W  W9  1  0.32274411  0.32274411  0.25000000  1.0
  O  O10  1  0.58387191  -0.40951255  0.60072642  1.0
  O  O11  1  1.40951255  0.41612809  0.10072642  1.0
  O  O12  1  0.59048745  0.58387191  0.89927358  1.0
  O  O13  1  0.41612809  0.40951255  0.39927358  1.0
  O  O14  1  0.76093199  -0.02006414  0.75592910  1.0
  O  O15  1  1.02006414  0.23906801  0.25592910  1.0
  O  O16  1  0.97993586  0.76093199  0.74407090  1.0
  O  O17  1  0.23906801  0.02006414  0.24407090  1.0
  O  O18  1  0.71618622  0.27546053  0.95738765  1.0
  O  O19  1  0.72453947  0.28381378  0.45738765  1.0
  O  O20  1  1.27546053  0.71618622  0.54261235  1.0
  O  O21  1  0.28381378  -0.27546053  0.04261235  1.0
  O  O22  1  0.50367366  0.27146601  0.74171995  1.0
  O  O23  1  0.72853399  0.49632634  0.24171995  1.0
  O  O24  1  1.27146601  0.50367366  0.75828005  1.0
  O  O25  1  0.49632634  -0.27146601  0.25828005  1.0
  O  O26  1  0.17363267  0.02841147  0.93988630  1.0
  O  O27  1  0.97158853  0.82636733  0.43988630  1.0
  O  O28  1  1.02841147  0.17363267  0.56011370  1.0
  O  O29  1  0.82636733  -0.02841147  0.06011370  1.0
