# generated using pymatgen
data_ZrBi2
_symmetry_space_group_name_H-M   'P 1'
_cell_length_a   10.38447256
_cell_length_b   15.65827787
_cell_length_c   4.05675163
_cell_angle_alpha   90.00000000
_cell_angle_beta   90.00000000
_cell_angle_gamma   90.00000000
_symmetry_Int_Tables_number   1
_chemical_formula_structural   ZrBi2
_chemical_formula_sum   'Zr8 Bi16'
_cell_volume   659.63981033
_cell_formula_units_Z   8
loop_
 _symmetry_equiv_pos_site_id
 _symmetry_equiv_pos_as_xyz
  1  'x, y, z'
loop_
 _atom_site_type_symbol
 _atom_site_label
 _atom_site_symmetry_multiplicity
 _atom_site_fract_x
 _atom_site_fract_y
 _atom_site_fract_z
 _atom_site_occupancy
  Zr  Zr0  1  0.47756839  0.74889268  0.50000000  1.0
  Zr  Zr1  1  0.97756839  0.75110732  0.00000000  1.0
  Zr  Zr2  1  0.52243161  0.25110732  0.50000000  1.0
  Zr  Zr3  1  0.02243161  0.24889268  0.00000000  1.0
  Zr  Zr4  1  0.33695382  0.00587220  0.50000000  1.0
  Zr  Zr5  1  0.83695382  0.49412780  0.00000000  1.0
  Zr  Zr6  1  0.66304618  0.99412780  0.50000000  1.0
  Zr  Zr7  1  0.16304618  0.50587220  0.00000000  1.0
  Bi  Bi8  1  0.37698853  0.55711467  0.50000000  1.0
  Bi  Bi9  1  0.87698853  0.94288533  0.00000000  1.0
  Bi  Bi10  1  0.62301147  0.44288533  0.50000000  1.0
  Bi  Bi11  1  0.12301147  0.05711467  0.00000000  1.0
  Bi  Bi12  1  0.23426353  0.20005321  0.50000000  1.0
  Bi  Bi13  1  0.73426353  0.29994679  0.00000000  1.0
  Bi  Bi14  1  0.76573647  0.79994679  0.50000000  1.0
  Bi  Bi15  1  0.26573647  0.70005321  0.00000000  1.0
  Bi  Bi16  1  0.15409339  0.84953555  0.50000000  1.0
  Bi  Bi17  1  0.65409339  0.65046445  0.00000000  1.0
  Bi  Bi18  1  0.84590661  0.15046445  0.50000000  1.0
  Bi  Bi19  1  0.34590661  0.34953555  0.00000000  1.0
  Bi  Bi20  1  0.98748464  0.60586514  0.50000000  1.0
  Bi  Bi21  1  0.48748464  0.89413486  0.00000000  1.0
  Bi  Bi22  1  0.01251536  0.39413486  0.50000000  1.0
  Bi  Bi23  1  0.51251536  0.10586514  0.00000000  1.0
