# generated using pymatgen
data_CoMoP
_symmetry_space_group_name_H-M   'P 1'
_cell_length_a   5.80123609
_cell_length_b   3.73836943
_cell_length_c   6.72309055
_cell_angle_alpha   90.00000000
_cell_angle_beta   90.00000000
_cell_angle_gamma   90.00000000
_symmetry_Int_Tables_number   1
_chemical_formula_structural   CoMoP
_chemical_formula_sum   'Co4 Mo4 P4'
_cell_volume   145.80476517
_cell_formula_units_Z   4
loop_
 _symmetry_equiv_pos_site_id
 _symmetry_equiv_pos_as_xyz
  1  'x, y, z'
loop_
 _atom_site_type_symbol
 _atom_site_label
 _atom_site_symmetry_multiplicity
 _atom_site_fract_x
 _atom_site_fract_y
 _atom_site_fract_z
 _atom_site_occupancy
  Co  Co0  1  0.85982811  0.75000000  0.06711630  1.0
  Co  Co1  1  0.35982811  0.75000000  0.43288370  1.0
  Co  Co2  1  0.14017189  0.25000000  0.93288370  1.0
  Co  Co3  1  0.64017189  0.25000000  0.56711630  1.0
  Mo  Mo4  1  0.96764159  0.75000000  0.67004854  1.0
  Mo  Mo5  1  0.46764159  0.75000000  0.82995146  1.0
  Mo  Mo6  1  0.03235841  0.25000000  0.32995146  1.0
  Mo  Mo7  1  0.53235841  0.25000000  0.17004854  1.0
  P  P8  1  0.73407851  0.75000000  0.38056772  1.0
  P  P9  1  0.23407851  0.75000000  0.11943228  1.0
  P  P10  1  0.26592149  0.25000000  0.61943228  1.0
  P  P11  1  0.76592149  0.25000000  0.88056772  1.0
