# generated using pymatgen
data_Rb2TaCuSe4
_symmetry_space_group_name_H-M   'P 1'
_cell_length_a   14.48575669
_cell_length_b   12.92396159
_cell_length_c   7.72062424
_cell_angle_alpha   85.17097188
_cell_angle_beta   62.74999897
_cell_angle_gamma   32.07902915
_symmetry_Int_Tables_number   1
_chemical_formula_structural   Rb2TaCuSe4
_chemical_formula_sum   'Rb4 Ta2 Cu2 Se8'
_cell_volume   522.42796538
_cell_formula_units_Z   2
loop_
 _symmetry_equiv_pos_site_id
 _symmetry_equiv_pos_as_xyz
  1  'x, y, z'
loop_
 _atom_site_type_symbol
 _atom_site_label
 _atom_site_symmetry_multiplicity
 _atom_site_fract_x
 _atom_site_fract_y
 _atom_site_fract_z
 _atom_site_occupancy
  Rb  Rb0  1  0.17874471  1.17874471  -0.17874471  1.0
  Rb  Rb1  1  0.82125529  0.82125529  -0.82125529  1.0
  Rb  Rb2  1  0.07125529  0.07125529  1.42874471  1.0
  Rb  Rb3  1  1.42874471  0.42874471  0.07125529  1.0
  Ta  Ta4  1  0.00000000  0.00000000  0.00000000  1.0
  Ta  Ta5  1  1.25000000  0.25000000  0.25000000  1.0
  Cu  Cu6  1  -0.50000000  0.50000000  0.50000000  1.0
  Cu  Cu7  1  0.75000000  0.75000000  0.75000000  1.0
  Se  Se8  1  0.79926007  1.09037086  -0.60341569  1.0
  Se  Se9  1  0.71378476  -0.60341569  1.09037086  1.0
  Se  Se10  1  -0.60341569  0.71378476  0.79926007  1.0
  Se  Se11  1  1.09037086  0.79926007  0.71378476  1.0
  Se  Se12  1  1.45073993  0.15962914  -0.14658431  1.0
  Se  Se13  1  1.53621524  -0.14658431  0.15962914  1.0
  Se  Se14  1  0.85341569  0.53621524  0.45073993  1.0
  Se  Se15  1  1.15962914  0.45073993  0.53621524  1.0
