# generated using pymatgen
data_NaZn2(PO4)2
_symmetry_space_group_name_H-M   'P 1'
_cell_length_a   8.88935976
_cell_length_b   8.99037903
_cell_length_c   5.16810097
_cell_angle_alpha   73.00899696
_cell_angle_beta   79.71016671
_cell_angle_gamma   79.60157801
_symmetry_Int_Tables_number   1
_chemical_formula_structural   NaZn2(PO4)2
_chemical_formula_sum   'Na2 Zn4 P4 O16'
_cell_volume   385.01747807
_cell_formula_units_Z   2
loop_
 _symmetry_equiv_pos_site_id
 _symmetry_equiv_pos_as_xyz
  1  'x, y, z'
loop_
 _atom_site_type_symbol
 _atom_site_label
 _atom_site_symmetry_multiplicity
 _atom_site_fract_x
 _atom_site_fract_y
 _atom_site_fract_z
 _atom_site_occupancy
  O  O0  1  -0.65476490  0.39802446  0.54999390  1.0
  O  O1  1  -0.34523510  0.60197554  -0.54999390  1.0
  O  O2  1  -0.46591297  0.78398405  0.03653709  1.0
  O  O3  1  -0.53408703  0.21601595  -0.03653709  1.0
  O  O4  1  -0.37242036  0.88978665  -0.61041312  1.0
  O  O5  1  -0.62757964  0.11021335  0.61041312  1.0
  O  O6  1  -0.60986296  0.75979779  -0.47439098  1.0
  O  O7  1  -0.39013704  0.24020221  0.47439098  1.0
  O  O8  1  -0.92718211  0.67112398  -0.56011322  1.0
  O  O9  1  -0.07281789  0.32887602  0.56011322  1.0
  O  O10  1  -0.07437589  0.75414961  0.03222548  1.0
  O  O11  1  -0.92562411  0.24585039  -0.03222548  1.0
  O  O12  1  -0.83028805  0.85941727  -0.01029598  1.0
  O  O13  1  -0.16971195  0.14058273  0.01029598  1.0
  O  O14  1  -0.82140890  0.56722161  0.02645357  1.0
  O  O15  1  -0.17859110  0.43277839  -0.02645357  1.0
  Zn  Zn16  1  -0.62234692  0.88945384  -0.20068187  1.0
  Zn  Zn17  1  -0.37765308  0.11054616  0.20068187  1.0
  Zn  Zn18  1  -0.74581669  0.59095363  -0.36152375  1.0
  Zn  Zn19  1  -0.25418331  0.40904637  0.36152375  1.0
  P  P20  1  -0.55309536  0.24139341  0.66205495  1.0
  P  P21  1  -0.44690464  0.75860659  -0.66205495  1.0
  P  P22  1  -0.91225198  0.71159580  0.12372553  1.0
  P  P23  1  -0.08774802  0.28840420  -0.12372553  1.0
  Na  Na24  1  -0.80945273  0.29372770  0.30358313  1.0
  Na  Na25  1  -0.19054727  0.70627230  -0.30358313  1.0
