# generated using pymatgen
data_NdVO4
_symmetry_space_group_name_H-M   'P 1'
_cell_length_a   6.14288034
_cell_length_b   6.14288034
_cell_length_c   6.14288034
_cell_angle_alpha   106.01864364
_cell_angle_beta   106.01864364
_cell_angle_gamma   116.62183060
_symmetry_Int_Tables_number   1
_chemical_formula_structural   NdVO4
_chemical_formula_sum   'Nd2 V2 O8'
_cell_volume   176.33151710
_cell_formula_units_Z   2
loop_
 _symmetry_equiv_pos_site_id
 _symmetry_equiv_pos_as_xyz
  1  'x, y, z'
loop_
 _atom_site_type_symbol
 _atom_site_label
 _atom_site_symmetry_multiplicity
 _atom_site_fract_x
 _atom_site_fract_y
 _atom_site_fract_z
 _atom_site_occupancy
  Nd  Nd0  1  0.25000000  0.75000000  0.50000000  1.0
  Nd  Nd1  1  0.50000000  0.50000000  -0.00000000  1.0
  V  V2  1  -0.00000000  -0.00000000  -0.00000000  1.0
  V  V3  1  0.75000000  1.25000000  0.50000000  1.0
  O  O4  1  0.16985800  0.34961883  0.17976083  1.0
  O  O5  1  1.09961883  1.41985800  0.67976083  1.0
  O  O6  1  0.74009717  0.41985800  0.32023917  1.0
  O  O7  1  0.16985800  0.99009717  0.82023917  1.0
  O  O8  1  0.58014200  0.90038117  0.32023917  1.0
  O  O9  1  1.65038117  0.83014200  0.82023917  1.0
  O  O10  1  1.00990283  0.83014200  1.17976083  1.0
  O  O11  1  0.58014200  1.25990283  0.67976083  1.0
