# generated using pymatgen
data_K3Ag2F7
_symmetry_space_group_name_H-M   'P 1'
_cell_length_a   11.48895936
_cell_length_b   11.48895936
_cell_length_c   6.22666867
_cell_angle_alpha   90.00000000
_cell_angle_beta   90.00000000
_cell_angle_gamma   148.70364191
_symmetry_Int_Tables_number   1
_chemical_formula_structural   K3Ag2F7
_chemical_formula_sum   'K6 Ag4 F14'
_cell_volume   426.94631164
_cell_formula_units_Z   2
loop_
 _symmetry_equiv_pos_site_id
 _symmetry_equiv_pos_as_xyz
  1  'x, y, z'
loop_
 _atom_site_type_symbol
 _atom_site_label
 _atom_site_symmetry_multiplicity
 _atom_site_fract_x
 _atom_site_fract_y
 _atom_site_fract_z
 _atom_site_occupancy
  K  K0  1  -0.18475484  0.18475484  0.50000000  1.0
  K  K1  1  -0.31524516  0.31524516  0.00000000  1.0
  K  K2  1  0.31524516  0.68475484  0.00000000  1.0
  K  K3  1  0.18475484  0.81524516  0.50000000  1.0
  K  K4  1  0.00000000  0.00000000  0.50000000  1.0
  K  K5  1  0.50000000  0.50000000  0.00000000  1.0
  Ag  Ag6  1  0.40155601  0.59844399  0.50000000  1.0
  Ag  Ag7  1  0.09844399  0.90155601  0.00000000  1.0
  Ag  Ag8  1  -0.09844399  0.09844399  0.00000000  1.0
  Ag  Ag9  1  -0.40155601  0.40155601  0.50000000  1.0
  F  F10  1  0.50000000  0.50000000  0.50000000  1.0
  F  F11  1  0.00000000  0.00000000  0.00000000  1.0
  F  F12  1  0.30174266  0.69825734  0.50000000  1.0
  F  F13  1  0.19825734  0.80174266  -0.00000000  1.0
  F  F14  1  -0.19825734  0.19825734  -0.00000000  1.0
  F  F15  1  -0.30174266  0.30174266  0.50000000  1.0
  F  F16  1  0.68048950  0.87229424  0.28484900  1.0
  F  F17  1  0.37229424  1.18048950  0.78484900  1.0
  F  F18  1  0.62770576  0.81951050  0.78484900  1.0
  F  F19  1  0.31951050  1.12770576  0.28484900  1.0
  F  F20  1  -0.18048950  0.62770576  0.21515100  1.0
  F  F21  1  0.12770576  0.31951050  0.71515100  1.0
  F  F22  1  -0.12770576  0.68048950  0.71515100  1.0
  F  F23  1  0.18048950  0.37229424  0.21515100  1.0
