# generated using pymatgen
data_K4Al4Si19
_symmetry_space_group_name_H-M   'P 1'
_cell_length_a   10.56010608
_cell_length_b   10.54213093
_cell_length_c   10.53901461
_cell_angle_alpha   89.79367282
_cell_angle_beta   89.93107074
_cell_angle_gamma   89.91374581
_symmetry_Int_Tables_number   1
_chemical_formula_structural   K4Al4Si19
_chemical_formula_sum   'K8 Al8 Si38'
_cell_volume   1173.25678256
_cell_formula_units_Z   2
loop_
 _symmetry_equiv_pos_site_id
 _symmetry_equiv_pos_as_xyz
  1  'x, y, z'
loop_
 _atom_site_type_symbol
 _atom_site_label
 _atom_site_symmetry_multiplicity
 _atom_site_fract_x
 _atom_site_fract_y
 _atom_site_fract_z
 _atom_site_occupancy
  K  K0  1  0.00424806  -0.00477016  -0.00126562  1.0
  K  K1  1  0.00019389  -0.49670675  -0.75070351  1.0
  K  K2  1  -0.00169852  -0.49878456  -0.24990894  1.0
  K  K3  1  -0.50207796  -0.74887036  0.00016755  1.0
  K  K4  1  -0.49767650  -0.25093718  -0.00424329  1.0
  K  K5  1  -0.75263339  -0.00536118  -0.49952651  1.0
  K  K6  1  -0.24719701  0.00132240  -0.49731357  1.0
  K  K7  1  -0.49918497  -0.49804591  -0.50296391  1.0
  Al  Al8  1  -0.49872363  0.00161296  -0.25274107  1.0
  Al  Al9  1  -0.25054827  -0.50040913  0.00009937  1.0
  Al  Al10  1  -0.00159695  -0.74916160  -0.49849494  1.0
  Al  Al11  1  -0.69195094  0.00043152  -0.87831061  1.0
  Al  Al12  1  -0.87928815  -0.30722985  -0.00172315  1.0
  Al  Al13  1  -0.00122647  -0.12082951  -0.30509162  1.0
  Al  Al14  1  -0.19507034  -0.38061891  -0.49857295  1.0
  Al  Al15  1  -0.62107497  -0.50064802  -0.80833563  1.0
  Si  Si16  1  -0.49258116  0.00185543  -0.74442969  1.0
  Si  Si17  1  -0.75066857  -0.50847623  -0.00890787  1.0
  Si  Si18  1  0.00456656  -0.25180709  -0.50454523  1.0
  Si  Si19  1  -0.82072808  -0.81334204  -0.81068150  1.0
  Si  Si20  1  -0.80524920  -0.18031665  -0.18773247  1.0
  Si  Si21  1  -0.18671245  -0.18527156  -0.81761796  1.0
  Si  Si22  1  -0.18298332  -0.81467160  -0.18143468  1.0
  Si  Si23  1  -0.68048007  -0.31307988  -0.31648137  1.0
  Si  Si24  1  -0.68926958  -0.68791703  -0.68050438  1.0
  Si  Si25  1  -0.31830128  -0.31608328  -0.69044242  1.0
  Si  Si26  1  -0.31815472  -0.68492927  -0.31683934  1.0
  Si  Si27  1  -0.19430454  -0.18287991  -0.17760502  1.0
  Si  Si28  1  -0.18150219  -0.81406702  -0.81473504  1.0
  Si  Si29  1  -0.81591682  -0.81792011  -0.18643040  1.0
  Si  Si30  1  -0.81769487  -0.18630051  -0.80857814  1.0
  Si  Si31  1  -0.31519939  -0.68266656  -0.68417490  1.0
  Si  Si32  1  -0.32091790  -0.31670692  -0.30738003  1.0
  Si  Si33  1  -0.68567702  -0.68529989  -0.31969244  1.0
  Si  Si34  1  -0.68368214  -0.30907912  -0.68198638  1.0
  Si  Si35  1  -0.69229786  0.00222338  -0.11932703  1.0
  Si  Si36  1  -0.30220472  0.00305315  -0.87667316  1.0
  Si  Si37  1  -0.30514489  0.00383610  -0.11114982  1.0
  Si  Si38  1  -0.87894948  -0.69878289  -0.00048259  1.0
  Si  Si39  1  -0.11249923  -0.69689584  0.00030041  1.0
  Si  Si40  1  -0.12046637  -0.30323112  -0.00007730  1.0
  Si  Si41  1  -0.00178526  -0.88662927  -0.69486844  1.0
  Si  Si42  1  -0.00169084  -0.12224552  -0.69555007  1.0
  Si  Si43  1  -0.00099022  -0.88015844  -0.30168029  1.0
  Si  Si44  1  -0.80151958  -0.37677853  -0.49969294  1.0
  Si  Si45  1  -0.80449531  -0.61249920  -0.49983736  1.0
  Si  Si46  1  -0.19878100  -0.62065598  -0.49972381  1.0
  Si  Si47  1  -0.62178391  -0.50314941  -0.19946744  1.0
  Si  Si48  1  -0.38898055  -0.50341929  -0.19601496  1.0
  Si  Si49  1  -0.38243086  -0.50072167  -0.80474437  1.0
  Si  Si50  1  -0.49696699  -0.19661835  -0.38551297  1.0
  Si  Si51  1  -0.49718873  -0.19396530  -0.61941549  1.0
  Si  Si52  1  -0.50047962  -0.80182584  -0.38737907  1.0
  Si  Si53  1  -0.50038170  -0.80357051  -0.61957561  1.0
