# generated using pymatgen
data_TlPPbS4
_symmetry_space_group_name_H-M   'P 1'
_cell_length_a   12.78980043
_cell_length_b   6.67485216
_cell_length_c   8.82957803
_cell_angle_alpha   90.00000000
_cell_angle_beta   90.00000000
_cell_angle_gamma   90.00000000
_symmetry_Int_Tables_number   1
_chemical_formula_structural   TlPPbS4
_chemical_formula_sum   'Tl4 P4 Pb4 S16'
_cell_volume   753.78131519
_cell_formula_units_Z   4
loop_
 _symmetry_equiv_pos_site_id
 _symmetry_equiv_pos_as_xyz
  1  'x, y, z'
loop_
 _atom_site_type_symbol
 _atom_site_label
 _atom_site_symmetry_multiplicity
 _atom_site_fract_x
 _atom_site_fract_y
 _atom_site_fract_z
 _atom_site_occupancy
  Tl  Tl0  1  0.11326368  0.75000000  0.12050663  1.0
  Tl  Tl1  1  0.61326368  0.75000000  0.37949337  1.0
  Tl  Tl2  1  0.88673632  0.25000000  0.87949337  1.0
  Tl  Tl3  1  0.38673632  0.25000000  0.62050663  1.0
  P  P4  1  0.35143735  0.75000000  0.86957792  1.0
  P  P5  1  0.85143735  0.75000000  0.63042208  1.0
  P  P6  1  0.64856265  0.25000000  0.13042208  1.0
  P  P7  1  0.14856265  0.25000000  0.36957792  1.0
  Pb  Pb8  1  0.12776466  0.75000000  0.60363284  1.0
  Pb  Pb9  1  0.62776466  0.75000000  0.89636716  1.0
  Pb  Pb10  1  0.87223534  0.25000000  0.39636716  1.0
  Pb  Pb11  1  0.37223534  0.25000000  0.10363284  1.0
  S  S12  1  0.25448235  0.99605716  0.85987923  1.0
  S  S13  1  0.25448235  0.50394284  0.85987923  1.0
  S  S14  1  0.75448235  0.99605716  0.64012077  1.0
  S  S15  1  0.75448235  0.50394284  0.64012077  1.0
  S  S16  1  0.74551765  0.49605716  0.14012077  1.0
  S  S17  1  0.74551765  0.00394284  0.14012077  1.0
  S  S18  1  0.24551765  0.49605716  0.35987923  1.0
  S  S19  1  0.24551765  0.00394284  0.35987923  1.0
  S  S20  1  0.45328376  0.75000000  0.68899571  1.0
  S  S21  1  0.95328376  0.75000000  0.81100429  1.0
  S  S22  1  0.54671624  0.25000000  0.31100429  1.0
  S  S23  1  0.04671624  0.25000000  0.18899571  1.0
  S  S24  1  0.43295310  0.75000000  0.07221994  1.0
  S  S25  1  0.93295310  0.75000000  0.42778006  1.0
  S  S26  1  0.56704690  0.25000000  0.92778006  1.0
  S  S27  1  0.06704690  0.25000000  0.57221994  1.0
