# generated using pymatgen
data_In(IO4)3
_symmetry_space_group_name_H-M   'P 1'
_cell_length_a   7.01976680
_cell_length_b   7.09576770
_cell_length_c   10.85357224
_cell_angle_alpha   70.68453088
_cell_angle_beta   83.26678704
_cell_angle_gamma   87.66752238
_symmetry_Int_Tables_number   1
_chemical_formula_structural   In(IO4)3
_chemical_formula_sum   'In2 I6 O24'
_cell_volume   506.67260921
_cell_formula_units_Z   2
loop_
 _symmetry_equiv_pos_site_id
 _symmetry_equiv_pos_as_xyz
  1  'x, y, z'
loop_
 _atom_site_type_symbol
 _atom_site_label
 _atom_site_symmetry_multiplicity
 _atom_site_fract_x
 _atom_site_fract_y
 _atom_site_fract_z
 _atom_site_occupancy
  O  O0  1  -0.26915469  0.33162063  0.66870334  1.0
  O  O1  1  -0.73084531  -0.33162063  0.33129666  1.0
  O  O2  1  -0.54078092  0.32055783  0.48808625  1.0
  O  O3  1  -0.45921908  -0.32055783  0.51191375  1.0
  O  O4  1  -0.94055434  0.32080685  0.48663321  1.0
  O  O5  1  -0.05944566  -0.32080685  0.51336679  1.0
  O  O6  1  -0.53950077  -0.18047437  0.97412796  1.0
  O  O7  1  -0.46049923  0.18047437  0.02587204  1.0
  O  O8  1  -0.41273611  -0.09649216  0.70182380  1.0
  O  O9  1  -0.58726389  0.09649216  0.29817620  1.0
  O  O10  1  -0.78528134  -0.10030903  0.56650839  1.0
  O  O11  1  -0.21471866  0.10030903  0.43349161  1.0
  O  O12  1  -0.97989701  -0.69856623  0.97285018  1.0
  O  O13  1  -0.02010299  0.69856623  0.02714982  1.0
  O  O14  1  -0.71069510  -0.53395104  0.87858557  1.0
  O  O15  1  -0.28930490  0.53395104  0.12141443  1.0
  O  O16  1  -0.19336736  -0.47642948  0.90710077  1.0
  O  O17  1  -0.80663264  0.47642948  0.09289923  1.0
  O  O18  1  -0.94368512  -0.28832125  0.81890228  1.0
  O  O19  1  -0.05631488  0.28832125  0.18109772  1.0
  O  O20  1  -0.18271855  0.00996914  0.86484718  1.0
  O  O21  1  -0.81728145  -0.00996914  0.13515282  1.0
  O  O22  1  -0.79130188  0.12375154  0.74853871  1.0
  O  O23  1  -0.20869812  -0.12375154  0.25146129  1.0
  In  In24  1  -0.50000000  0.00000000  0.50000000  1.0
  In  In25  1  -0.50000000  0.50000000  -0.00000000  1.0
  I  I26  1  -0.75495011  0.49751576  0.50690103  1.0
  I  I27  1  -0.24504989  -0.49751576  0.49309897  1.0
  I  I28  1  -0.44012303  0.04434991  0.82408121  1.0
  I  I29  1  -0.55987697  -0.04434991  0.17591879  1.0
  I  I30  1  -0.96087315  -0.01933078  0.69192973  1.0
  I  I31  1  -0.03912685  0.01933078  0.30807027  1.0
