# generated using pymatgen
data_CsH7O4
_symmetry_space_group_name_H-M   'P 1'
_cell_length_a   8.72779775
_cell_length_b   6.11227671
_cell_length_c   12.49278584
_cell_angle_alpha   90.00000000
_cell_angle_beta   126.31655322
_cell_angle_gamma   90.00000000
_symmetry_Int_Tables_number   1
_chemical_formula_structural   CsH7O4
_chemical_formula_sum   'Cs4 H28 O16'
_cell_volume   536.99615622
_cell_formula_units_Z   4
loop_
 _symmetry_equiv_pos_site_id
 _symmetry_equiv_pos_as_xyz
  1  'x, y, z'
loop_
 _atom_site_type_symbol
 _atom_site_label
 _atom_site_symmetry_multiplicity
 _atom_site_fract_x
 _atom_site_fract_y
 _atom_site_fract_z
 _atom_site_occupancy
  Cs  Cs0  1  0.84324155  0.85858416  0.27334282  1.0
  Cs  Cs1  1  0.84324155  0.64141584  0.77334282  1.0
  Cs  Cs2  1  0.15675845  0.35858416  0.22665718  1.0
  Cs  Cs3  1  0.15675845  0.14141584  0.72665718  1.0
  H  H4  1  0.88885158  0.88089683  0.02046505  1.0
  H  H5  1  0.88885158  0.61910317  0.52046505  1.0
  H  H6  1  0.11114842  0.38089683  0.47953495  1.0
  H  H7  1  0.11114842  0.11910317  0.97953495  1.0
  H  H8  1  0.88533601  0.37693371  0.39014000  1.0
  H  H9  1  0.88533601  0.12306629  0.89014000  1.0
  H  H10  1  0.11466399  0.87693371  0.10986000  1.0
  H  H11  1  0.11466399  0.62306629  0.60986000  1.0
  H  H12  1  0.69053036  0.37787977  0.43576034  1.0
  H  H13  1  0.69053036  0.12212023  0.93576034  1.0
  H  H14  1  0.30946964  0.87787977  0.06423966  1.0
  H  H15  1  0.30946964  0.62212023  0.56423966  1.0
  H  H16  1  0.64147891  0.03158292  0.47720189  1.0
  H  H17  1  0.64147891  0.46841708  0.97720189  1.0
  H  H18  1  0.35852109  0.53158292  0.02279811  1.0
  H  H19  1  0.35852109  0.96841708  0.52279811  1.0
  H  H20  1  0.63397173  0.33335971  0.08158785  1.0
  H  H21  1  0.63397173  0.16664029  0.58158785  1.0
  H  H22  1  0.36602827  0.83335971  0.41841215  1.0
  H  H23  1  0.36602827  0.66664029  0.91841215  1.0
  H  H24  1  0.57262396  0.38761282  0.23579695  1.0
  H  H25  1  0.57262396  0.11238718  0.73579695  1.0
  H  H26  1  0.42737604  0.88761282  0.26420305  1.0
  H  H27  1  0.42737604  0.61238718  0.76420305  1.0
  H  H28  1  0.42498299  0.19245186  0.13381519  1.0
  H  H29  1  0.42498299  0.30754814  0.63381519  1.0
  H  H30  1  0.57501701  0.69245186  0.36618481  1.0
  H  H31  1  0.57501701  0.80754814  0.86618481  1.0
  O  O32  1  0.99706814  0.31359684  0.39682637  1.0
  O  O33  1  0.99706814  0.18640316  0.89682637  1.0
  O  O34  1  0.00293186  0.81359684  0.10317363  1.0
  O  O35  1  0.00293186  0.68640316  0.60317363  1.0
  O  O36  1  0.70787802  0.34917684  0.04445220  1.0
  O  O37  1  0.70787802  0.15082316  0.54445220  1.0
  O  O38  1  0.29212198  0.84917684  0.45554780  1.0
  O  O39  1  0.29212198  0.65082316  0.95554780  1.0
  O  O40  1  0.70002454  0.48977326  0.38306240  1.0
  O  O41  1  0.70002454  0.01022674  0.88306240  1.0
  O  O42  1  0.29997546  0.98977326  0.11693760  1.0
  O  O43  1  0.29997546  0.51022674  0.61693760  1.0
  O  O44  1  0.49768716  0.33011304  0.14055056  1.0
  O  O45  1  0.49768716  0.16988696  0.64055056  1.0
  O  O46  1  0.50231284  0.83011304  0.35944944  1.0
  O  O47  1  0.50231284  0.66988696  0.85944944  1.0
