# generated using pymatgen
data_LaB2Rh2C
_symmetry_space_group_name_H-M   'P 1'
_cell_length_a   5.85634343
_cell_length_b   5.85634343
_cell_length_c   5.85634343
_cell_angle_alpha   141.12624070
_cell_angle_beta   141.12624070
_cell_angle_gamma   56.14718815
_symmetry_Int_Tables_number   1
_chemical_formula_structural   LaB2Rh2C
_chemical_formula_sum   'La1 B2 Rh2 C1'
_cell_volume   78.49844758
_cell_formula_units_Z   1
loop_
 _symmetry_equiv_pos_site_id
 _symmetry_equiv_pos_as_xyz
  1  'x, y, z'
loop_
 _atom_site_type_symbol
 _atom_site_label
 _atom_site_symmetry_multiplicity
 _atom_site_fract_x
 _atom_site_fract_y
 _atom_site_fract_z
 _atom_site_occupancy
  La  La0  1  0.50000000  0.50000000  1.00000000  1.0
  B  B1  1  0.85461039  0.85461039  1.00000000  1.0
  B  B2  1  0.14538961  0.14538961  0.00000000  1.0
  Rh  Rh3  1  0.25000000  0.75000000  0.50000000  1.0
  Rh  Rh4  1  0.75000000  0.25000000  0.50000000  1.0
  C  C5  1  0.00000000  0.00000000  0.00000000  1.0
