# generated using pymatgen
data_As(CF3)2
_symmetry_space_group_name_H-M   'P 1'
_cell_length_a   8.10796058
_cell_length_b   7.95506085
_cell_length_c   10.27525725
_cell_angle_alpha   90.00000000
_cell_angle_beta   105.60919193
_cell_angle_gamma   90.00000000
_symmetry_Int_Tables_number   1
_chemical_formula_structural   As(CF3)2
_chemical_formula_sum   'As4 C8 F24'
_cell_volume   638.30460037
_cell_formula_units_Z   4
loop_
 _symmetry_equiv_pos_site_id
 _symmetry_equiv_pos_as_xyz
  1  'x, y, z'
loop_
 _atom_site_type_symbol
 _atom_site_label
 _atom_site_symmetry_multiplicity
 _atom_site_fract_x
 _atom_site_fract_y
 _atom_site_fract_z
 _atom_site_occupancy
  As  As0  1  0.36710316  0.50110093  0.54096002  1.0
  As  As1  1  0.63289684  1.00110093  0.95903998  1.0
  As  As2  1  0.63289684  0.49889907  0.45903998  1.0
  As  As3  1  0.36710316  -0.00110093  0.04096002  1.0
  C  C4  1  0.21385146  0.39260815  0.36787138  1.0
  C  C5  1  0.78614854  0.89260815  0.13212862  1.0
  C  C6  1  0.78614854  0.60739185  0.63212862  1.0
  C  C7  1  0.21385146  0.10739185  0.86787138  1.0
  C  C8  1  0.30632268  0.74364135  0.47579986  1.0
  C  C9  1  0.69367732  0.24364135  0.02420014  1.0
  C  C10  1  0.69367732  0.25635865  0.52420014  1.0
  C  C11  1  0.30632268  0.75635865  0.97579986  1.0
  F  F12  1  0.26815029  0.41038417  0.25429904  1.0
  F  F13  1  0.73184971  0.91038417  0.24570096  1.0
  F  F14  1  0.73184971  0.58961583  0.74570096  1.0
  F  F15  1  0.26815029  0.08961583  0.75429904  1.0
  F  F16  1  0.05253597  0.45669450  0.34087007  1.0
  F  F17  1  0.94746403  0.95669450  0.15912993  1.0
  F  F18  1  0.94746403  0.54330550  0.65912993  1.0
  F  F19  1  0.05253597  0.04330550  0.84087007  1.0
  F  F20  1  0.20380016  0.22498287  0.39100056  1.0
  F  F21  1  0.79619984  0.72498287  0.10899944  1.0
  F  F22  1  0.79619984  0.77501713  0.60899944  1.0
  F  F23  1  0.20380016  0.27501713  0.89100056  1.0
  F  F24  1  0.31580576  0.77825889  0.34815387  1.0
  F  F25  1  0.68419424  0.27825889  0.15184613  1.0
  F  F26  1  0.68419424  0.22174111  0.65184613  1.0
  F  F27  1  0.31580576  0.72174111  0.84815387  1.0
  F  F28  1  0.14527386  0.78132764  0.48165868  1.0
  F  F29  1  0.85472614  0.28132764  0.01834132  1.0
  F  F30  1  0.85472614  0.21867236  0.51834132  1.0
  F  F31  1  0.14527386  0.71867236  0.98165868  1.0
  F  F32  1  0.41629339  0.84967530  0.56145191  1.0
  F  F33  1  0.58370661  0.34967530  0.93854809  1.0
  F  F34  1  0.58370661  0.15032470  0.43854809  1.0
  F  F35  1  0.41629339  0.65032470  0.06145191  1.0
