# generated using pymatgen
data_NiC4NO7
_symmetry_space_group_name_H-M   'P 1'
_cell_length_a   6.85336386
_cell_length_b   7.96309904
_cell_length_c   6.81136403
_cell_angle_alpha   56.92395737
_cell_angle_beta   87.49940332
_cell_angle_gamma   82.58818604
_symmetry_Int_Tables_number   1
_chemical_formula_structural   NiC4NO7
_chemical_formula_sum   'Ni2 C8 N2 O14'
_cell_volume   308.72163010
_cell_formula_units_Z   2
loop_
 _symmetry_equiv_pos_site_id
 _symmetry_equiv_pos_as_xyz
  1  'x, y, z'
loop_
 _atom_site_type_symbol
 _atom_site_label
 _atom_site_symmetry_multiplicity
 _atom_site_fract_x
 _atom_site_fract_y
 _atom_site_fract_z
 _atom_site_occupancy
  C  C0  1  -0.61201965  -0.59818141  -0.05058151  1.0
  C  C1  1  -0.38798035  -0.40181859  -0.94941849  1.0
  C  C2  1  -0.63062914  -0.61318961  -0.83542962  1.0
  C  C3  1  -0.36937086  -0.38681039  -0.16457038  1.0
  C  C4  1  -0.72850863  -0.70160785  -0.12504390  1.0
  C  C5  1  -0.27149137  -0.29839215  -0.87495610  1.0
  C  C6  1  -0.78762773  -0.73372642  -0.65766281  1.0
  C  C7  1  -0.21237227  -0.26627358  -0.34233719  1.0
  O  O8  1  -0.69983383  -0.66048818  -0.33260830  1.0
  O  O9  1  -0.30016617  -0.33951182  -0.66739170  1.0
  O  O10  1  -0.13576045  -0.75948354  -0.32048398  1.0
  O  O11  1  -0.86423955  -0.24051646  -0.67951602  1.0
  O  O12  1  -0.81038060  -0.07066290  -0.12810576  1.0
  O  O13  1  -0.18961940  -0.92933710  -0.87189424  1.0
  O  O14  1  -0.31649255  -0.76410106  -0.33725821  1.0
  O  O15  1  -0.68350745  -0.23589894  -0.66274179  1.0
  O  O16  1  -0.71775754  -0.91132095  -0.50857544  1.0
  O  O17  1  -0.28224246  -0.08867905  -0.49142456  1.0
  O  O18  1  -0.94801875  -0.62770801  -0.69577821  1.0
  O  O19  1  -0.05198125  -0.37229199  -0.30422179  1.0
  O  O20  1  -0.84246062  -0.81995859  -0.98110326  1.0
  O  O21  1  -0.15753938  -0.18004141  -0.01889674  1.0
  N  N22  1  -0.48384478  -0.48589870  -0.21026465  1.0
  N  N23  1  -0.51615522  -0.51410130  -0.78973535  1.0
  Ni  Ni24  1  0.00000000  0.00000000  0.00000000  1.0
  Ni  Ni25  1  -0.50000000  -0.50000000  -0.50000000  1.0
