# generated using pymatgen
data_La5GaGe3
_symmetry_space_group_name_H-M   'P 1'
_cell_length_a   7.96830791
_cell_length_b   15.66167141
_cell_length_c   8.36355949
_cell_angle_alpha   90.00000000
_cell_angle_beta   90.00000000
_cell_angle_gamma   90.00000000
_symmetry_Int_Tables_number   1
_chemical_formula_structural   La5GaGe3
_chemical_formula_sum   'La20 Ga4 Ge12'
_cell_volume   1043.74730171
_cell_formula_units_Z   4
loop_
 _symmetry_equiv_pos_site_id
 _symmetry_equiv_pos_as_xyz
  1  'x, y, z'
loop_
 _atom_site_type_symbol
 _atom_site_label
 _atom_site_symmetry_multiplicity
 _atom_site_fract_x
 _atom_site_fract_y
 _atom_site_fract_z
 _atom_site_occupancy
  La  La0  1  0.52654926  0.40574078  0.18854193  1.0
  La  La1  1  0.52654926  0.09425922  0.18854193  1.0
  La  La2  1  0.02654926  0.40574078  0.31145807  1.0
  La  La3  1  0.02654926  0.09425922  0.31145807  1.0
  La  La4  1  0.47345074  0.90574078  0.81145807  1.0
  La  La5  1  0.47345074  0.59425922  0.81145807  1.0
  La  La6  1  0.97345074  0.90574078  0.68854193  1.0
  La  La7  1  0.97345074  0.59425922  0.68854193  1.0
  La  La8  1  0.18380069  0.37866532  0.82301698  1.0
  La  La9  1  0.18380069  0.12133468  0.82301698  1.0
  La  La10  1  0.68380069  0.37866532  0.67698302  1.0
  La  La11  1  0.68380069  0.12133468  0.67698302  1.0
  La  La12  1  0.81619931  0.87866532  0.17698302  1.0
  La  La13  1  0.81619931  0.62133468  0.17698302  1.0
  La  La14  1  0.31619931  0.87866532  0.32301698  1.0
  La  La15  1  0.31619931  0.62133468  0.32301698  1.0
  La  La16  1  0.34876487  0.25000000  0.47265473  1.0
  La  La17  1  0.84876487  0.25000000  0.02734527  1.0
  La  La18  1  0.65123513  0.75000000  0.52734527  1.0
  La  La19  1  0.15123513  0.75000000  0.97265473  1.0
  Ga  Ga20  1  0.48006242  0.25000000  0.90348605  1.0
  Ga  Ga21  1  0.98006242  0.25000000  0.59651395  1.0
  Ga  Ga22  1  0.51993758  0.75000000  0.09651395  1.0
  Ga  Ga23  1  0.01993758  0.75000000  0.40348605  1.0
  Ge  Ge24  1  0.34915314  0.45829969  0.52696673  1.0
  Ge  Ge25  1  0.34915314  0.04170031  0.52696673  1.0
  Ge  Ge26  1  0.84915314  0.45829969  0.97303327  1.0
  Ge  Ge27  1  0.84915314  0.04170031  0.97303327  1.0
  Ge  Ge28  1  0.65084686  0.95829969  0.47303327  1.0
  Ge  Ge29  1  0.65084686  0.54170031  0.47303327  1.0
  Ge  Ge30  1  0.15084686  0.95829969  0.02696673  1.0
  Ge  Ge31  1  0.15084686  0.54170031  0.02696673  1.0
  Ge  Ge32  1  0.23768713  0.25000000  0.12077308  1.0
  Ge  Ge33  1  0.73768713  0.25000000  0.37922692  1.0
  Ge  Ge34  1  0.76231287  0.75000000  0.87922692  1.0
  Ge  Ge35  1  0.26231287  0.75000000  0.62077308  1.0
