# generated using pymatgen
data_Ga3SiCN3
_symmetry_space_group_name_H-M   'P 1'
_cell_length_a   5.18954353
_cell_length_b   3.17294369
_cell_length_c   5.50610503
_cell_angle_alpha   90.00000000
_cell_angle_beta   90.33260325
_cell_angle_gamma   90.00000000
_symmetry_Int_Tables_number   1
_chemical_formula_structural   Ga3SiCN3
_chemical_formula_sum   'Ga3 Si1 C1 N3'
_cell_volume   90.66271027
_cell_formula_units_Z   1
loop_
 _symmetry_equiv_pos_site_id
 _symmetry_equiv_pos_as_xyz
  1  'x, y, z'
loop_
 _atom_site_type_symbol
 _atom_site_label
 _atom_site_symmetry_multiplicity
 _atom_site_fract_x
 _atom_site_fract_y
 _atom_site_fract_z
 _atom_site_occupancy
  Ga  Ga0  1  0.00546294  0.00000000  0.66335984  1.0
  Ga  Ga1  1  0.50523112  0.50000000  0.83850908  1.0
  Ga  Ga2  1  0.50163328  0.00000000  0.33074535  1.0
  Si  Si3  1  0.00230635  0.50000000  0.16458675  1.0
  C  C4  1  0.88849735  0.00000000  0.31358220  1.0
  N  N5  1  0.38606822  0.00000000  0.66953406  1.0
  N  N6  1  0.88942189  0.50000000  0.85511225  1.0
  N  N7  1  0.34927886  0.50000000  0.16457048  1.0
