# generated using pymatgen
data_Na3Y3(BO3)4
_symmetry_space_group_name_H-M   'P 1'
_cell_length_a   10.23632547
_cell_length_b   10.23632547
_cell_length_c   6.77104235
_cell_angle_alpha   90.00000000
_cell_angle_beta   90.00000000
_cell_angle_gamma   120.00000000
_symmetry_Int_Tables_number   1
_chemical_formula_structural   Na3Y3(BO3)4
_chemical_formula_sum   'Na6 Y6 B8 O24'
_cell_volume   614.43271845
_cell_formula_units_Z   2
loop_
 _symmetry_equiv_pos_site_id
 _symmetry_equiv_pos_as_xyz
  1  'x, y, z'
loop_
 _atom_site_type_symbol
 _atom_site_label
 _atom_site_symmetry_multiplicity
 _atom_site_fract_x
 _atom_site_fract_y
 _atom_site_fract_z
 _atom_site_occupancy
  Na  Na0  1  0.35135588  0.17567794  0.40819697  1.0
  Na  Na1  1  0.82432206  0.17567794  0.40819697  1.0
  Na  Na2  1  0.82432206  0.64864412  0.40819697  1.0
  Na  Na3  1  0.64864412  0.82432206  0.90819697  1.0
  Na  Na4  1  0.17567794  0.82432206  0.90819697  1.0
  Na  Na5  1  0.17567794  0.35135588  0.90819697  1.0
  Y  Y6  1  0.52281143  0.47718857  0.71735878  1.0
  Y  Y7  1  0.52281143  0.04562285  0.71735878  1.0
  Y  Y8  1  0.95437715  0.47718857  0.71735878  1.0
  Y  Y9  1  0.47718857  0.52281143  0.21735878  1.0
  Y  Y10  1  0.47718857  0.95437715  0.21735878  1.0
  Y  Y11  1  0.04562285  0.52281143  0.21735878  1.0
  B  B12  1  0.66666667  0.33333333  0.39044428  1.0
  B  B13  1  0.33333333  0.66666667  0.89044428  1.0
  B  B14  1  0.59630887  0.79815443  0.44035715  1.0
  B  B15  1  0.20184557  0.79815443  0.44035715  1.0
  B  B16  1  0.20184557  0.40369113  0.44035715  1.0
  B  B17  1  0.40369113  0.20184557  0.94035715  1.0
  B  B18  1  0.79815443  0.20184557  0.94035715  1.0
  B  B19  1  0.79815443  0.59630887  0.94035715  1.0
  O  O20  1  0.58816214  0.41183786  0.39291058  1.0
  O  O21  1  0.58816214  0.17632427  0.39291058  1.0
  O  O22  1  0.82367573  0.41183786  0.39291058  1.0
  O  O23  1  0.41183786  0.58816214  0.89291058  1.0
  O  O24  1  0.41183786  0.82367573  0.89291058  1.0
  O  O25  1  0.17632427  0.58816214  0.89291058  1.0
  O  O26  1  0.77042120  0.54084240  0.74798556  1.0
  O  O27  1  0.45915760  0.22957880  0.74798556  1.0
  O  O28  1  0.77042120  0.22957880  0.74798556  1.0
  O  O29  1  0.22957880  0.45915760  0.24798556  1.0
  O  O30  1  0.54084240  0.77042120  0.24798556  1.0
  O  O31  1  0.22957880  0.77042120  0.24798556  1.0
  O  O32  1  0.62066067  0.69012202  0.52650476  1.0
  O  O33  1  0.30987798  0.93053865  0.52650476  1.0
  O  O34  1  0.06946135  0.37933933  0.52650476  1.0
  O  O35  1  0.30987798  0.37933933  0.52650476  1.0
  O  O36  1  0.06946135  0.69012202  0.52650476  1.0
  O  O37  1  0.62066067  0.93053865  0.52650476  1.0
  O  O38  1  0.37933933  0.30987798  0.02650476  1.0
  O  O39  1  0.69012202  0.06946135  0.02650476  1.0
  O  O40  1  0.93053865  0.62066067  0.02650476  1.0
  O  O41  1  0.69012202  0.62066067  0.02650476  1.0
  O  O42  1  0.93053865  0.30987798  0.02650476  1.0
  O  O43  1  0.37933933  0.06946135  0.02650476  1.0
