# generated using pymatgen
data_Y3Si2Cl5O6
_symmetry_space_group_name_H-M   'P 1'
_cell_length_a   7.46697195
_cell_length_b   7.46697195
_cell_length_c   11.69340675
_cell_angle_alpha   80.54347617
_cell_angle_beta   99.45652383
_cell_angle_gamma   91.31658099
_symmetry_Int_Tables_number   1
_chemical_formula_structural   Y3Si2Cl5O6
_chemical_formula_sum   'Y6 Si4 Cl10 O12'
_cell_volume   634.36880299
_cell_formula_units_Z   2
loop_
 _symmetry_equiv_pos_site_id
 _symmetry_equiv_pos_as_xyz
  1  'x, y, z'
loop_
 _atom_site_type_symbol
 _atom_site_label
 _atom_site_symmetry_multiplicity
 _atom_site_fract_x
 _atom_site_fract_y
 _atom_site_fract_z
 _atom_site_occupancy
  Y  Y0  1  0.41621310  0.08191687  0.67006484  1.0
  Y  Y1  1  0.91808313  0.58378690  0.67006484  1.0
  Y  Y2  1  1.08191687  -0.58378690  0.32993516  1.0
  Y  Y3  1  1.58378690  -0.08191687  0.32993516  1.0
  Y  Y4  1  1.50000000  0.00000000  0.00000000  1.0
  Y  Y5  1  1.00000000  0.50000000  0.00000000  1.0
  Si  Si6  1  1.81777475  -0.10939570  0.85521608  1.0
  Si  Si7  1  1.10939570  -0.81777475  0.85521608  1.0
  Si  Si8  1  0.89060430  0.81777475  0.14478392  1.0
  Si  Si9  1  0.18222525  0.10939570  0.14478392  1.0
  Cl  Cl10  1  1.66916528  -0.12018176  0.57911708  1.0
  Cl  Cl11  1  1.12018176  -0.66916528  0.57911708  1.0
  Cl  Cl12  1  0.87981824  0.66916528  0.42088292  1.0
  Cl  Cl13  1  0.33083472  0.12018176  0.42088292  1.0
  Cl  Cl14  1  0.78485975  0.21514025  0.33874742  1.0
  Cl  Cl15  1  1.21514025  -0.21514025  0.66125258  1.0
  Cl  Cl16  1  0.68710311  0.31289689  0.99789357  1.0
  Cl  Cl17  1  1.31289689  -0.31289689  0.00210643  1.0
  Cl  Cl18  1  0.62492202  0.37507798  0.64266376  1.0
  Cl  Cl19  1  1.37507798  -0.37507798  0.35733624  1.0
  O  O20  1  1.60629566  -0.04426138  0.82828816  1.0
  O  O21  1  1.04426138  -0.60629566  0.82828816  1.0
  O  O22  1  0.95573862  0.60629566  0.17171184  1.0
  O  O23  1  0.39370434  0.04426138  0.17171184  1.0
  O  O24  1  0.30785619  0.13216251  0.82822895  1.0
  O  O25  1  0.86783749  0.69214381  0.82822895  1.0
  O  O26  1  1.13216251  -0.69214381  0.17177105  1.0
  O  O27  1  1.69214381  -0.13216251  0.17177105  1.0
  O  O28  1  0.95139574  0.04860426  0.80357285  1.0
  O  O29  1  1.04860426  -0.04860426  0.19642715  1.0
  O  O30  1  0.85908473  0.85908473  0.00000000  1.0
  O  O31  1  0.14091527  0.14091527  -0.00000000  1.0
