# generated using pymatgen
data_Y3In5S12
_symmetry_space_group_name_H-M   'P 1'
_cell_length_a   10.99566535
_cell_length_b   3.91849567
_cell_length_c   21.47375031
_cell_angle_alpha   90.00000000
_cell_angle_beta   95.76993667
_cell_angle_gamma   90.00000000
_symmetry_Int_Tables_number   1
_chemical_formula_structural   Y3In5S12
_chemical_formula_sum   'Y6 In10 S24'
_cell_volume   920.54045610
_cell_formula_units_Z   2
loop_
 _symmetry_equiv_pos_site_id
 _symmetry_equiv_pos_as_xyz
  1  'x, y, z'
loop_
 _atom_site_type_symbol
 _atom_site_label
 _atom_site_symmetry_multiplicity
 _atom_site_fract_x
 _atom_site_fract_y
 _atom_site_fract_z
 _atom_site_occupancy
  Y  Y0  1  0.78614631  0.25000000  0.78516753  1.0
  Y  Y1  1  0.21385369  0.75000000  0.21483247  1.0
  Y  Y2  1  0.58322379  0.25000000  0.26352458  1.0
  Y  Y3  1  0.41677621  0.75000000  0.73647542  1.0
  Y  Y4  1  0.47048584  0.25000000  0.08796162  1.0
  Y  Y5  1  0.52951416  0.75000000  0.91203838  1.0
  In  In6  1  0.95377262  0.25000000  0.32415299  1.0
  In  In7  1  0.04622738  0.75000000  0.67584701  1.0
  In  In8  1  0.84860337  0.25000000  0.97229940  1.0
  In  In9  1  0.15139663  0.75000000  0.02770060  1.0
  In  In10  1  0.66766497  0.25000000  0.61374206  1.0
  In  In11  1  0.33233503  0.75000000  0.38625794  1.0
  In  In12  1  0.26244604  0.25000000  0.56038789  1.0
  In  In13  1  0.73755396  0.75000000  0.43961211  1.0
  In  In14  1  0.15022863  0.25000000  0.83401349  1.0
  In  In15  1  0.84977137  0.75000000  0.16598651  1.0
  S  S16  1  0.89225530  0.25000000  0.66100976  1.0
  S  S17  1  0.10774470  0.75000000  0.33899024  1.0
  S  S18  1  0.87897558  0.25000000  0.43671084  1.0
  S  S19  1  0.12102442  0.75000000  0.56328916  1.0
  S  S20  1  0.69900112  0.25000000  0.15060137  1.0
  S  S21  1  0.30099888  0.75000000  0.84939863  1.0
  S  S22  1  0.62229125  0.25000000  0.99054936  1.0
  S  S23  1  0.37770875  0.75000000  0.00945064  1.0
  S  S24  1  0.53723627  0.25000000  0.81638904  1.0
  S  S25  1  0.46276373  0.75000000  0.18361096  1.0
  S  S26  1  0.44160451  0.25000000  0.64279456  1.0
  S  S27  1  0.55839549  0.75000000  0.35720544  1.0
  S  S28  1  0.36631327  0.25000000  0.46245805  1.0
  S  S29  1  0.63368673  0.75000000  0.53754195  1.0
  S  S30  1  0.33521353  0.25000000  0.28815050  1.0
  S  S31  1  0.66478647  0.75000000  0.71184950  1.0
  S  S32  1  0.22311328  0.25000000  0.11327059  1.0
  S  S33  1  0.77688672  0.75000000  0.88672941  1.0
  S  S34  1  0.21135428  0.25000000  0.71843731  1.0
  S  S35  1  0.78864572  0.75000000  0.28156269  1.0
  S  S36  1  0.07941875  0.25000000  0.94806400  1.0
  S  S37  1  0.92058125  0.75000000  0.05193600  1.0
  S  S38  1  0.01364382  0.25000000  0.20891034  1.0
  S  S39  1  0.98635618  0.75000000  0.79108966  1.0
