# generated using pymatgen
data_Sc(PO4)3
_symmetry_space_group_name_H-M   'P 1'
_cell_length_a   9.95036006
_cell_length_b   9.95036006
_cell_length_c   9.95036006
_cell_angle_alpha   48.34975382
_cell_angle_beta   48.34975382
_cell_angle_gamma   48.34975381
_symmetry_Int_Tables_number   1
_chemical_formula_structural   Sc(PO4)3
_chemical_formula_sum   'Sc2 P6 O24'
_cell_volume   504.31637320
_cell_formula_units_Z   2
loop_
 _symmetry_equiv_pos_site_id
 _symmetry_equiv_pos_as_xyz
  1  'x, y, z'
loop_
 _atom_site_type_symbol
 _atom_site_label
 _atom_site_symmetry_multiplicity
 _atom_site_fract_x
 _atom_site_fract_y
 _atom_site_fract_z
 _atom_site_occupancy
  Sc  Sc0  1  -0.00046129  -0.00046129  -0.00046129  1.0
  Sc  Sc1  1  0.49953871  0.49953871  -0.50046129  1.0
  P  P2  1  0.55276319  0.94627531  -0.75030191  1.0
  P  P3  1  0.05276319  0.74969809  -0.55372469  1.0
  P  P4  1  0.74969809  0.44627531  -0.94723681  1.0
  P  P5  1  0.24969809  0.55276319  -0.05372469  1.0
  P  P6  1  0.44627531  0.05276319  -0.25030191  1.0
  P  P7  1  0.94627531  0.24969809  -0.44723681  1.0
  O  O8  1  0.75313955  -0.06375751  0.16889992  1.0
  O  O9  1  0.25313955  0.66889992  -0.56375751  1.0
  O  O10  1  0.66889992  0.43624249  -0.74686045  1.0
  O  O11  1  1.16889992  -0.24686045  -0.06375751  1.0
  O  O12  1  0.43624249  0.25313955  -0.33110008  1.0
  O  O13  1  0.93624249  0.16889992  -0.24686045  1.0
  O  O14  1  0.56262294  0.74606705  -0.66975157  1.0
  O  O15  1  0.06262294  0.83024843  -0.75393295  1.0
  O  O16  1  0.83024843  0.24606705  -0.93737706  1.0
  O  O17  1  0.33024843  0.56262294  -0.25393295  1.0
  O  O18  1  0.24606705  0.06262294  -0.16975157  1.0
  O  O19  1  0.74606705  0.33024843  -0.43737706  1.0
  O  O20  1  0.91069984  -0.46880042  -0.09704692  1.0
  O  O21  1  0.41069984  0.40295308  0.03119958  1.0
  O  O22  1  0.40295308  1.03119958  -0.58930016  1.0
  O  O23  1  0.90295308  -0.08930016  -0.46880042  1.0
  O  O24  1  1.03119958  0.41069984  -0.59704692  1.0
  O  O25  1  0.53119958  -0.09704692  -0.08930016  1.0
  O  O26  1  1.08888742  -0.53247581  0.09644020  1.0
  O  O27  1  0.58888742  -0.40355980  -0.03247581  1.0
  O  O28  1  0.59644020  -0.03247581  -0.41111258  1.0
  O  O29  1  1.09644020  0.08888742  -0.53247581  1.0
  O  O30  1  0.96752419  -0.41111258  -0.40355980  1.0
  O  O31  1  0.46752419  0.09644020  0.08888742  1.0
