# generated using pymatgen
data_TlVCl3
_symmetry_space_group_name_H-M   'P 1'
_cell_length_a   7.02746933
_cell_length_b   7.02746933
_cell_length_c   6.22187000
_cell_angle_alpha   90.00000000
_cell_angle_beta   90.00000000
_cell_angle_gamma   120.00000000
_symmetry_Int_Tables_number   1
_chemical_formula_structural   TlVCl3
_chemical_formula_sum   'Tl2 V2 Cl6'
_cell_volume   266.10282309
_cell_formula_units_Z   2
loop_
 _symmetry_equiv_pos_site_id
 _symmetry_equiv_pos_as_xyz
  1  'x, y, z'
loop_
 _atom_site_type_symbol
 _atom_site_label
 _atom_site_symmetry_multiplicity
 _atom_site_fract_x
 _atom_site_fract_y
 _atom_site_fract_z
 _atom_site_occupancy
  Tl  Tl0  1  0.33333333  0.66666667  0.75000000  1.0
  Tl  Tl1  1  0.66666667  0.33333333  0.25000000  1.0
  V  V2  1  0.00000000  0.00000000  0.50000000  1.0
  V  V3  1  0.00000000  0.00000000  0.00000000  1.0
  Cl  Cl4  1  0.15878999  0.84121001  0.25000000  1.0
  Cl  Cl5  1  0.15878999  0.31757998  0.25000000  1.0
  Cl  Cl6  1  0.84121001  0.15878999  0.75000000  1.0
  Cl  Cl7  1  0.84121001  0.68242002  0.75000000  1.0
  Cl  Cl8  1  0.68242002  0.84121001  0.25000000  1.0
  Cl  Cl9  1  0.31757998  0.15878999  0.75000000  1.0
