# generated using pymatgen
data_PrAlSi2
_symmetry_space_group_name_H-M   'P 1'
_cell_length_a   4.13693882
_cell_length_b   4.13693882
_cell_length_c   11.15679864
_cell_angle_alpha   90.00000000
_cell_angle_beta   90.00000000
_cell_angle_gamma   120.00000000
_symmetry_Int_Tables_number   1
_chemical_formula_structural   PrAlSi2
_chemical_formula_sum   'Pr2 Al2 Si4'
_cell_volume   165.35922316
_cell_formula_units_Z   2
loop_
 _symmetry_equiv_pos_site_id
 _symmetry_equiv_pos_as_xyz
  1  'x, y, z'
loop_
 _atom_site_type_symbol
 _atom_site_label
 _atom_site_symmetry_multiplicity
 _atom_site_fract_x
 _atom_site_fract_y
 _atom_site_fract_z
 _atom_site_occupancy
  Pr  Pr0  1  0.00000000  0.00000000  0.18304276  1.0
  Pr  Pr1  1  0.00000000  0.00000000  0.81695724  1.0
  Al  Al2  1  0.33333333  0.66666667  0.58326571  1.0
  Al  Al3  1  0.66666667  0.33333333  0.41673429  1.0
  Si  Si4  1  0.33333333  0.66666667  -0.01067192  1.0
  Si  Si5  1  0.66666667  0.33333333  0.01067192  1.0
  Si  Si6  1  0.33333333  0.66666667  0.35227595  1.0
  Si  Si7  1  0.66666667  0.33333333  0.64772405  1.0
