# generated using pymatgen
data_CsNa2Be6(BO3)5
_symmetry_space_group_name_H-M   'P 1'
_cell_length_a   7.33743390
_cell_length_b   7.33743390
_cell_length_c   10.96383088
_cell_angle_alpha   77.30157793
_cell_angle_beta   102.69842207
_cell_angle_gamma   144.59558533
_symmetry_Int_Tables_number   1
_chemical_formula_structural   CsNa2Be6(BO3)5
_chemical_formula_sum   'Cs1 Na2 Be6 B5 O15'
_cell_volume   332.74107309
_cell_formula_units_Z   1
loop_
 _symmetry_equiv_pos_site_id
 _symmetry_equiv_pos_as_xyz
  1  'x, y, z'
loop_
 _atom_site_type_symbol
 _atom_site_label
 _atom_site_symmetry_multiplicity
 _atom_site_fract_x
 _atom_site_fract_y
 _atom_site_fract_z
 _atom_site_occupancy
  Cs  Cs0  1  0.03422987  0.03422987  0.50000000  1.0
  Na  Na1  1  0.32679571  -0.29792002  0.95755846  1.0
  Na  Na2  1  0.70207998  0.32679571  0.04244154  1.0
  Be  Be3  1  0.49583975  -0.48079196  0.86511853  1.0
  Be  Be4  1  0.51920804  0.49583975  0.13488147  1.0
  Be  Be5  1  0.86618674  0.14961044  0.79743713  1.0
  Be  Be6  1  0.14961044  -0.13381326  0.20256287  1.0
  Be  Be7  1  0.75340558  0.26863643  0.57776674  1.0
  Be  Be8  1  0.26863643  -0.24659442  0.42223326  1.0
  B  B9  1  0.34736865  -0.32907971  0.66399307  1.0
  B  B10  1  0.67092029  0.34736865  0.33600693  1.0
  B  B11  1  0.68784242  0.35502742  0.77510761  1.0
  B  B12  1  0.35502742  -0.31215758  0.22489239  1.0
  B  B13  1  0.00277769  0.00277769  -0.00000000  1.0
  O  O14  1  1.24596770  0.46424995  0.76800791  1.0
  O  O15  1  0.46424995  0.24596770  0.23199209  1.0
  O  O16  1  1.14128908  0.56439597  0.56076635  1.0
  O  O17  1  0.56439597  0.14128908  0.43923365  1.0
  O  O18  1  0.77747275  0.25368983  0.85674724  1.0
  O  O19  1  0.25368983  -0.22252725  0.14325276  1.0
  O  O20  1  0.68101774  0.37112423  0.64766683  1.0
  O  O21  1  0.37112423  -0.31898226  0.35233317  1.0
  O  O22  1  0.61159409  0.43261280  0.83239907  1.0
  O  O23  1  0.43261280  -0.38840591  0.16760093  1.0
  O  O24  1  0.79367751  -0.10182950  0.89803990  1.0
  O  O25  1  0.89817050  0.79367751  0.10196010  1.0
  O  O26  1  0.65395437  -0.01880557  0.66522207  1.0
  O  O27  1  0.98119443  0.65395437  0.33477793  1.0
  O  O28  1  0.31126004  0.31126004  -0.00000000  1.0
