# generated using pymatgen
data_TmV2O2
_symmetry_space_group_name_H-M   'P 1'
_cell_length_a   7.27505820
_cell_length_b   7.27505820
_cell_length_c   7.27505820
_cell_angle_alpha   111.63223119
_cell_angle_beta   111.63223119
_cell_angle_gamma   105.23062431
_symmetry_Int_Tables_number   1
_chemical_formula_structural   TmV2O2
_chemical_formula_sum   'Tm4 V8 O8'
_cell_volume   295.20041270
_cell_formula_units_Z   4
loop_
 _symmetry_equiv_pos_site_id
 _symmetry_equiv_pos_as_xyz
  1  'x, y, z'
loop_
 _atom_site_type_symbol
 _atom_site_label
 _atom_site_symmetry_multiplicity
 _atom_site_fract_x
 _atom_site_fract_y
 _atom_site_fract_z
 _atom_site_occupancy
  Tm  Tm0  1  1.37500000  1.12500000  1.25000000  1.0
  Tm  Tm1  1  0.87500000  1.12500000  0.75000000  1.0
  Tm  Tm2  1  0.87500000  1.12500000  0.25000000  1.0
  Tm  Tm3  1  0.87500000  1.62500000  0.75000000  1.0
  V  V4  1  1.21812723  1.53924727  0.67887996  1.0
  V  V5  1  0.88963269  0.71075273  0.17887996  1.0
  V  V6  1  0.86036731  0.53924727  0.32112004  1.0
  V  V7  1  1.53187277  0.71075273  0.82112004  1.0
  V  V8  1  0.46075273  0.13963269  0.67887996  1.0
  V  V9  1  1.28924727  1.46812723  1.17887996  1.0
  V  V10  1  0.46075273  0.78187277  0.32112004  1.0
  V  V11  1  1.28924727  1.11036731  0.82112004  1.0
  O  O12  1  1.19755533  1.36144095  0.83611438  1.0
  O  O13  1  1.22467343  0.88855905  1.33611438  1.0
  O  O14  1  0.52532657  0.36144095  0.16388562  1.0
  O  O15  1  0.55244467  0.88855905  0.66388562  1.0
  O  O16  1  0.63855905  0.47467343  0.83611438  1.0
  O  O17  1  1.11144095  1.44755533  0.33611438  1.0
  O  O18  1  0.63855905  0.80244467  0.16388562  1.0
  O  O19  1  1.11144095  1.77532657  0.66388562  1.0
