# generated using pymatgen
data_Na3H6Ir
_symmetry_space_group_name_H-M   'P 1'
_cell_length_a   9.38707235
_cell_length_b   5.26469139
_cell_length_c   9.63097010
_cell_angle_alpha   90.00000000
_cell_angle_beta   90.00000000
_cell_angle_gamma   90.00000000
_symmetry_Int_Tables_number   1
_chemical_formula_structural   Na3H6Ir
_chemical_formula_sum   'Na12 H24 Ir4'
_cell_volume   475.96291831
_cell_formula_units_Z   4
loop_
 _symmetry_equiv_pos_site_id
 _symmetry_equiv_pos_as_xyz
  1  'x, y, z'
loop_
 _atom_site_type_symbol
 _atom_site_label
 _atom_site_symmetry_multiplicity
 _atom_site_fract_x
 _atom_site_fract_y
 _atom_site_fract_z
 _atom_site_occupancy
  Na  Na0  1  0.95584888  0.75000000  0.12825430  1.0
  Na  Na1  1  0.45584888  0.75000000  0.37174570  1.0
  Na  Na2  1  0.04415112  0.25000000  0.87174570  1.0
  Na  Na3  1  0.54415112  0.25000000  0.62825430  1.0
  Na  Na4  1  0.77738736  0.75000000  0.74855789  1.0
  Na  Na5  1  0.27738736  0.75000000  0.75144211  1.0
  Na  Na6  1  0.22261264  0.25000000  0.25144211  1.0
  Na  Na7  1  0.72261264  0.25000000  0.24855789  1.0
  Na  Na8  1  0.60351735  0.75000000  0.03309241  1.0
  Na  Na9  1  0.10351735  0.75000000  0.46690759  1.0
  Na  Na10  1  0.39648265  0.25000000  0.96690759  1.0
  Na  Na11  1  0.89648265  0.25000000  0.53309241  1.0
  H  H12  1  0.89095431  0.96975390  0.33781365  1.0
  H  H13  1  0.89095431  0.53024610  0.33781365  1.0
  H  H14  1  0.39095431  0.96975390  0.16218635  1.0
  H  H15  1  0.39095431  0.53024610  0.16218635  1.0
  H  H16  1  0.10904569  0.46975390  0.66218635  1.0
  H  H17  1  0.10904569  0.03024610  0.66218635  1.0
  H  H18  1  0.60904569  0.46975390  0.83781365  1.0
  H  H19  1  0.60904569  0.03024610  0.83781365  1.0
  H  H20  1  0.66931837  0.97704000  0.46533643  1.0
  H  H21  1  0.66931837  0.52296000  0.46533643  1.0
  H  H22  1  0.16931837  0.97704000  0.03466357  1.0
  H  H23  1  0.16931837  0.52296000  0.03466357  1.0
  H  H24  1  0.33068163  0.47704000  0.53466357  1.0
  H  H25  1  0.33068163  0.02296000  0.53466357  1.0
  H  H26  1  0.83068163  0.47704000  0.96533643  1.0
  H  H27  1  0.83068163  0.02296000  0.96533643  1.0
  H  H28  1  0.87479705  0.75000000  0.54640883  1.0
  H  H29  1  0.37479705  0.75000000  0.95359117  1.0
  H  H30  1  0.12520295  0.25000000  0.45359117  1.0
  H  H31  1  0.62520295  0.25000000  0.04640883  1.0
  H  H32  1  0.68677327  0.75000000  0.25102742  1.0
  H  H33  1  0.18677327  0.75000000  0.24897258  1.0
  H  H34  1  0.31322673  0.25000000  0.74897258  1.0
  H  H35  1  0.81322673  0.25000000  0.75102742  1.0
  Ir  Ir36  1  0.77831113  0.75000000  0.40060951  1.0
  Ir  Ir37  1  0.27831113  0.75000000  0.09939049  1.0
  Ir  Ir38  1  0.22168887  0.25000000  0.59939049  1.0
  Ir  Ir39  1  0.72168887  0.25000000  0.90060951  1.0
