# generated using pymatgen
data_K3YF6
_symmetry_space_group_name_H-M   'P 1'
_cell_length_a   6.39778775
_cell_length_b   6.63790143
_cell_length_c   11.10533037
_cell_angle_alpha   90.00000000
_cell_angle_beta   124.37426164
_cell_angle_gamma   90.00000000
_symmetry_Int_Tables_number   1
_chemical_formula_structural   K3YF6
_chemical_formula_sum   'K6 Y2 F12'
_cell_volume   389.25958966
_cell_formula_units_Z   2
loop_
 _symmetry_equiv_pos_site_id
 _symmetry_equiv_pos_as_xyz
  1  'x, y, z'
loop_
 _atom_site_type_symbol
 _atom_site_label
 _atom_site_symmetry_multiplicity
 _atom_site_fract_x
 _atom_site_fract_y
 _atom_site_fract_z
 _atom_site_occupancy
  K  K0  1  0.72595193  0.05039882  0.24284858  1.0
  K  K1  1  0.72595193  0.44960118  0.74284858  1.0
  K  K2  1  0.27404807  0.55039882  0.25715142  1.0
  K  K3  1  0.27404807  0.94960118  0.75715142  1.0
  K  K4  1  0.50000000  0.50000000  -0.00000000  1.0
  K  K5  1  0.50000000  0.00000000  0.50000000  1.0
  Y  Y6  1  -0.00000000  0.50000000  0.50000000  1.0
  Y  Y7  1  0.00000000  0.00000000  0.00000000  1.0
  F  F8  1  0.89525418  0.43753636  0.27858142  1.0
  F  F9  1  0.89525418  0.06246364  0.77858142  1.0
  F  F10  1  0.10474582  0.93753636  0.22141858  1.0
  F  F11  1  0.10474582  0.56246364  0.72141858  1.0
  F  F12  1  0.75456856  0.76707636  0.42443414  1.0
  F  F13  1  0.75456856  0.73292364  0.92443414  1.0
  F  F14  1  0.24543144  0.26707636  0.07556586  1.0
  F  F15  1  0.24543144  0.23292364  0.57556586  1.0
  F  F16  1  0.67349150  0.32211189  0.45062790  1.0
  F  F17  1  0.67349150  0.17788811  0.95062790  1.0
  F  F18  1  0.32650850  0.82211189  0.04937210  1.0
  F  F19  1  0.32650850  0.67788811  0.54937210  1.0
