# generated using pymatgen
data_Sr2MnMoO6
_symmetry_space_group_name_H-M   'P 1'
_cell_length_a   7.71514756
_cell_length_b   7.71514756
_cell_length_c   8.36529071
_cell_angle_alpha   90.00000000
_cell_angle_beta   90.00000000
_cell_angle_gamma   90.00000000
_symmetry_Int_Tables_number   1
_chemical_formula_structural   Sr2MnMoO6
_chemical_formula_sum   'Sr8 Mn4 Mo4 O24'
_cell_volume   497.93139648
_cell_formula_units_Z   4
loop_
 _symmetry_equiv_pos_site_id
 _symmetry_equiv_pos_as_xyz
  1  'x, y, z'
loop_
 _atom_site_type_symbol
 _atom_site_label
 _atom_site_symmetry_multiplicity
 _atom_site_fract_x
 _atom_site_fract_y
 _atom_site_fract_z
 _atom_site_occupancy
  Sr  Sr0  1  0.00000000  0.00000000  0.00000000  1.0
  Sr  Sr1  1  0.50000000  0.50000000  0.50000000  1.0
  Sr  Sr2  1  0.00000000  0.00000000  0.50000000  1.0
  Sr  Sr3  1  0.50000000  0.50000000  0.00000000  1.0
  Sr  Sr4  1  0.00000000  0.50000000  0.99998604  1.0
  Sr  Sr5  1  0.00000000  0.50000000  0.49998604  1.0
  Sr  Sr6  1  0.50000000  0.00000000  0.50001396  1.0
  Sr  Sr7  1  0.50000000  0.00000000  0.00001396  1.0
  Mn  Mn8  1  0.25000000  0.75000000  0.25000000  1.0
  Mn  Mn9  1  0.75000000  0.25000000  0.25000000  1.0
  Mn  Mn10  1  0.25000000  0.25000000  0.75000000  1.0
  Mn  Mn11  1  0.75000000  0.75000000  0.75000000  1.0
  Mo  Mo12  1  0.25000000  0.75000000  0.75000000  1.0
  Mo  Mo13  1  0.75000000  0.25000000  0.75000000  1.0
  Mo  Mo14  1  0.25000000  0.25000000  0.25000000  1.0
  Mo  Mo15  1  0.75000000  0.75000000  0.25000000  1.0
  O  O16  1  0.28908076  -0.00136787  0.24994935  1.0
  O  O17  1  0.71091924  1.00136787  0.24994935  1.0
  O  O18  1  0.49863213  0.21091924  0.74994935  1.0
  O  O19  1  0.50136787  0.78908076  0.74994935  1.0
  O  O20  1  0.21091924  0.50136787  0.25005065  1.0
  O  O21  1  0.78908076  0.49863213  0.25005065  1.0
  O  O22  1  1.00136787  0.28908076  0.75005065  1.0
  O  O23  1  -0.00136787  0.71091924  0.75005065  1.0
  O  O24  1  0.21093094  1.00135267  0.74995164  1.0
  O  O25  1  0.78906906  -0.00135267  0.74995164  1.0
  O  O26  1  0.50135267  0.28906906  0.24995164  1.0
  O  O27  1  0.49864733  0.71093094  0.24995164  1.0
  O  O28  1  0.28906906  0.49864733  0.75004836  1.0
  O  O29  1  0.71093094  0.50135267  0.75004836  1.0
  O  O30  1  -0.00135267  0.21093094  0.25004836  1.0
  O  O31  1  1.00135267  0.78906906  0.25004836  1.0
  O  O32  1  0.25003556  0.75006411  0.98396508  1.0
  O  O33  1  0.74996444  0.24993589  0.98396508  1.0
  O  O34  1  0.25006411  0.24996444  0.48396508  1.0
  O  O35  1  0.74993589  0.75003556  0.48396508  1.0
  O  O36  1  0.24996444  0.74993589  0.51603492  1.0
  O  O37  1  0.75003556  0.25006411  0.51603492  1.0
  O  O38  1  0.24993589  0.25003556  0.01603492  1.0
  O  O39  1  0.75006411  0.74996444  0.01603492  1.0
