# generated using pymatgen
data_AgAsS
_symmetry_space_group_name_H-M   'P 1'
_cell_length_a   12.07377783
_cell_length_b   3.97190317
_cell_length_c   6.06569173
_cell_angle_alpha   90.00000000
_cell_angle_beta   90.00000000
_cell_angle_gamma   90.00000000
_symmetry_Int_Tables_number   1
_chemical_formula_structural   AgAsS
_chemical_formula_sum   'Ag4 As4 S4'
_cell_volume   290.88556325
_cell_formula_units_Z   4
loop_
 _symmetry_equiv_pos_site_id
 _symmetry_equiv_pos_as_xyz
  1  'x, y, z'
loop_
 _atom_site_type_symbol
 _atom_site_label
 _atom_site_symmetry_multiplicity
 _atom_site_fract_x
 _atom_site_fract_y
 _atom_site_fract_z
 _atom_site_occupancy
  Ag  Ag0  1  0.33174590  0.75000000  0.55921147  1.0
  Ag  Ag1  1  0.83174590  0.75000000  0.94078853  1.0
  Ag  Ag2  1  0.66825410  0.25000000  0.44078853  1.0
  Ag  Ag3  1  0.16825410  0.25000000  0.05921147  1.0
  As  As4  1  0.48827691  0.75000000  0.86502076  1.0
  As  As5  1  0.98827691  0.75000000  0.63497924  1.0
  As  As6  1  0.51172309  0.25000000  0.13497924  1.0
  As  As7  1  0.01172309  0.25000000  0.36502076  1.0
  S  S8  1  0.15698981  0.75000000  0.79527644  1.0
  S  S9  1  0.65698981  0.75000000  0.70472356  1.0
  S  S10  1  0.84301019  0.25000000  0.20472356  1.0
  S  S11  1  0.34301019  0.25000000  0.29527644  1.0
