# generated using pymatgen
data_Zr6SiI14
_symmetry_space_group_name_H-M   'P 1'
_cell_length_a   10.99665676
_cell_length_b   10.99665676
_cell_length_c   13.15514966
_cell_angle_alpha   90.00000000
_cell_angle_beta   90.00000000
_cell_angle_gamma   84.54996959
_symmetry_Int_Tables_number   1
_chemical_formula_structural   Zr6SiI14
_chemical_formula_sum   'Zr12 Si2 I28'
_cell_volume   1583.61429620
_cell_formula_units_Z   2
loop_
 _symmetry_equiv_pos_site_id
 _symmetry_equiv_pos_as_xyz
  1  'x, y, z'
loop_
 _atom_site_type_symbol
 _atom_site_label
 _atom_site_symmetry_multiplicity
 _atom_site_fract_x
 _atom_site_fract_y
 _atom_site_fract_z
 _atom_site_occupancy
  Zr  Zr0  1  0.45385972  1.32141450  0.38438929  1.0
  Zr  Zr1  1  -0.04614028  0.82141450  0.11561071  1.0
  Zr  Zr2  1  0.32141450  1.45385972  0.61561071  1.0
  Zr  Zr3  1  -0.17858550  0.95385972  0.88438929  1.0
  Zr  Zr4  1  -0.32141450  0.54614028  0.38438929  1.0
  Zr  Zr5  1  0.17858550  1.04614028  0.11561071  1.0
  Zr  Zr6  1  -0.45385972  0.67858550  0.61561071  1.0
  Zr  Zr7  1  0.04614028  1.17858550  0.88438929  1.0
  Zr  Zr8  1  -0.14219341  1.14219341  0.10362499  1.0
  Zr  Zr9  1  0.35780659  0.64219341  0.39637501  1.0
  Zr  Zr10  1  0.14219341  0.85780659  0.89637501  1.0
  Zr  Zr11  1  -0.35780659  1.35780659  0.60362499  1.0
  Si  Si12  1  -0.50000000  0.50000000  0.50000000  1.0
  Si  Si13  1  0.00000000  1.00000000  0.00000000  1.0
  I  I14  1  -0.38555308  1.13665143  0.49007456  1.0
  I  I15  1  0.11444692  0.63665143  0.00992544  1.0
  I  I16  1  0.13665143  0.61444692  0.50992544  1.0
  I  I17  1  -0.36334857  1.11444692  0.99007456  1.0
  I  I18  1  -0.13665143  1.38555308  0.49007456  1.0
  I  I19  1  0.36334857  0.88555308  0.00992544  1.0
  I  I20  1  0.38555308  0.86334857  0.50992544  1.0
  I  I21  1  -0.11444692  1.36334857  0.99007456  1.0
  I  I22  1  -0.21267960  0.96560093  0.24984572  1.0
  I  I23  1  0.28732040  1.46560093  0.25015428  1.0
  I  I24  1  -0.03439907  0.78732040  0.75015428  1.0
  I  I25  1  0.46560093  1.28732040  0.74984572  1.0
  I  I26  1  0.03439907  1.21267960  0.24984572  1.0
  I  I27  1  -0.46560093  0.71267960  0.25015428  1.0
  I  I28  1  0.21267960  1.03439907  0.75015428  1.0
  I  I29  1  -0.28732040  0.53439907  0.74984572  1.0
  I  I30  1  -0.34702410  1.34702410  0.23473803  1.0
  I  I31  1  0.15297590  0.84702410  0.26526197  1.0
  I  I32  1  0.34702410  0.65297590  0.76526197  1.0
  I  I33  1  -0.15297590  1.15297590  0.73473803  1.0
  I  I34  1  0.39942323  1.10057677  0.25000000  1.0
  I  I35  1  -0.10057677  0.60057677  0.25000000  1.0
  I  I36  1  0.10057677  1.39942323  0.75000000  1.0
  I  I37  1  -0.39942323  0.89942323  0.75000000  1.0
  I  I38  1  0.24989625  1.24989625  0.50000000  1.0
  I  I39  1  -0.25010375  0.74989625  0.00000000  1.0
  I  I40  1  -0.24989625  0.75010375  0.50000000  1.0
  I  I41  1  0.25010375  1.25010375  0.00000000  1.0
