# generated using pymatgen
data_Rb3Pb4Au
_symmetry_space_group_name_H-M   'P 1'
_cell_length_a   7.20288256
_cell_length_b   13.65388840
_cell_length_c   7.00504417
_cell_angle_alpha   90.00000000
_cell_angle_beta   90.00000000
_cell_angle_gamma   90.00000000
_symmetry_Int_Tables_number   1
_chemical_formula_structural   Rb3Pb4Au
_chemical_formula_sum   'Rb6 Pb8 Au2'
_cell_volume   688.92756319
_cell_formula_units_Z   2
loop_
 _symmetry_equiv_pos_site_id
 _symmetry_equiv_pos_as_xyz
  1  'x, y, z'
loop_
 _atom_site_type_symbol
 _atom_site_label
 _atom_site_symmetry_multiplicity
 _atom_site_fract_x
 _atom_site_fract_y
 _atom_site_fract_z
 _atom_site_occupancy
  Rb  Rb0  1  0.00000000  0.25153701  1.17725259  1.0
  Rb  Rb1  1  0.00000000  0.74846299  1.17725259  1.0
  Rb  Rb2  1  0.50000000  0.24846299  -0.17725259  1.0
  Rb  Rb3  1  0.50000000  0.75153701  -0.17725259  1.0
  Rb  Rb4  1  0.50000000  0.50000000  0.44871500  1.0
  Rb  Rb5  1  0.00000000  0.00000000  0.55128500  1.0
  Pb  Pb6  1  0.76804199  0.50000000  0.96414323  1.0
  Pb  Pb7  1  0.23195801  0.50000000  0.96414323  1.0
  Pb  Pb8  1  0.73195801  0.00000000  0.03585677  1.0
  Pb  Pb9  1  0.26804199  0.00000000  0.03585677  1.0
  Pb  Pb10  1  0.50000000  0.87982394  0.33184931  1.0
  Pb  Pb11  1  0.50000000  0.12017606  0.33184931  1.0
  Pb  Pb12  1  0.00000000  0.62017606  0.66815069  1.0
  Pb  Pb13  1  -0.00000000  0.37982394  0.66815069  1.0
  Au  Au14  1  0.50000000  0.00000000  0.68431378  1.0
  Au  Au15  1  0.00000000  0.50000000  0.31568622  1.0
