# generated using pymatgen
data_NaSnAu
_symmetry_space_group_name_H-M   'P 1'
_cell_length_a   7.61562803
_cell_length_b   4.63679268
_cell_length_c   8.23889737
_cell_angle_alpha   90.00000000
_cell_angle_beta   90.00000000
_cell_angle_gamma   90.00000000
_symmetry_Int_Tables_number   1
_chemical_formula_structural   NaSnAu
_chemical_formula_sum   'Na4 Sn4 Au4'
_cell_volume   290.93267109
_cell_formula_units_Z   4
loop_
 _symmetry_equiv_pos_site_id
 _symmetry_equiv_pos_as_xyz
  1  'x, y, z'
loop_
 _atom_site_type_symbol
 _atom_site_label
 _atom_site_symmetry_multiplicity
 _atom_site_fract_x
 _atom_site_fract_y
 _atom_site_fract_z
 _atom_site_occupancy
  Na  Na0  1  0.98495100  0.75000000  0.67449514  1.0
  Na  Na1  1  0.48495100  0.75000000  0.82550486  1.0
  Na  Na2  1  0.01504900  0.25000000  0.32550486  1.0
  Na  Na3  1  0.51504900  0.25000000  0.17449514  1.0
  Sn  Sn4  1  0.83667882  0.75000000  0.06518503  1.0
  Sn  Sn5  1  0.33667882  0.75000000  0.43481497  1.0
  Sn  Sn6  1  0.16332118  0.25000000  0.93481497  1.0
  Sn  Sn7  1  0.66332118  0.25000000  0.56518503  1.0
  Au  Au8  1  0.70708374  0.75000000  0.37867820  1.0
  Au  Au9  1  0.20708374  0.75000000  0.12132180  1.0
  Au  Au10  1  0.29291626  0.25000000  0.62132180  1.0
  Au  Au11  1  0.79291626  0.25000000  0.87867820  1.0
