# generated using pymatgen
data_AgI3O8
_symmetry_space_group_name_H-M   'P 1'
_cell_length_a   8.17312058
_cell_length_b   8.22000187
_cell_length_c   11.98154707
_cell_angle_alpha   90.00000000
_cell_angle_beta   90.00000000
_cell_angle_gamma   90.00000000
_symmetry_Int_Tables_number   1
_chemical_formula_structural   AgI3O8
_chemical_formula_sum   'Ag4 I12 O32'
_cell_volume   804.95707245
_cell_formula_units_Z   4
loop_
 _symmetry_equiv_pos_site_id
 _symmetry_equiv_pos_as_xyz
  1  'x, y, z'
loop_
 _atom_site_type_symbol
 _atom_site_label
 _atom_site_symmetry_multiplicity
 _atom_site_fract_x
 _atom_site_fract_y
 _atom_site_fract_z
 _atom_site_occupancy
  Ag  Ag0  1  0.50000000  0.00000000  0.44897152  1.0
  Ag  Ag1  1  0.50000000  0.50000000  0.94897152  1.0
  Ag  Ag2  1  0.00000000  0.00000000  0.42554208  1.0
  Ag  Ag3  1  0.00000000  0.50000000  0.92554208  1.0
  I  I4  1  0.77685191  0.75215876  0.24435829  1.0
  I  I5  1  0.77685191  0.74784124  0.74435829  1.0
  I  I6  1  0.22314809  0.25215876  0.74435829  1.0
  I  I7  1  0.22314809  0.24784124  0.24435829  1.0
  I  I8  1  0.74773474  0.27842356  0.13202366  1.0
  I  I9  1  0.74773474  0.22157644  0.63202366  1.0
  I  I10  1  0.25226526  0.77842356  0.63202366  1.0
  I  I11  1  0.25226526  0.72157644  0.13202366  1.0
  I  I12  1  0.50000000  0.00000000  0.88007386  1.0
  I  I13  1  0.50000000  0.50000000  0.38007386  1.0
  I  I14  1  0.00000000  0.00000000  0.00198035  1.0
  I  I15  1  0.00000000  0.50000000  0.50198035  1.0
  O  O16  1  1.00286890  0.73296946  0.26611432  1.0
  O  O17  1  1.00286890  0.76703054  0.76611432  1.0
  O  O18  1  -0.00286890  0.23296946  0.76611432  1.0
  O  O19  1  -0.00286890  0.26703054  0.26611432  1.0
  O  O20  1  0.92288241  0.24340830  0.01374123  1.0
  O  O21  1  0.92288241  0.25659170  0.51374123  1.0
  O  O22  1  0.07711759  0.74340830  0.51374123  1.0
  O  O23  1  0.07711759  0.75659170  0.01374123  1.0
  O  O24  1  0.82324217  0.96070216  0.10345843  1.0
  O  O25  1  0.82324217  0.53929784  0.60345843  1.0
  O  O26  1  0.17675783  0.46070216  0.60345843  1.0
  O  O27  1  0.17675783  0.03929784  0.10345843  1.0
  O  O28  1  0.76514951  0.50258569  0.10610159  1.0
  O  O29  1  0.76514951  -0.00258569  0.60610159  1.0
  O  O30  1  0.23485049  1.00258569  0.60610159  1.0
  O  O31  1  0.23485049  0.49741431  0.10610159  1.0
  O  O32  1  0.74403089  0.57755022  0.36506973  1.0
  O  O33  1  0.74403089  0.92244978  0.86506973  1.0
  O  O34  1  0.25596911  0.07755022  0.86506973  1.0
  O  O35  1  0.25596911  0.42244978  0.36506973  1.0
  O  O36  1  0.73946733  0.93067315  0.33936798  1.0
  O  O37  1  0.73946733  0.56932685  0.83936798  1.0
  O  O38  1  0.26053267  0.43067315  0.83936798  1.0
  O  O39  1  0.26053267  0.06932685  0.33936798  1.0
  O  O40  1  0.45855448  0.67669816  0.28026628  1.0
  O  O41  1  0.45855448  0.82330184  0.78026628  1.0
  O  O42  1  0.54144552  0.17669816  0.78026628  1.0
  O  O43  1  0.54144552  0.32330184  0.28026628  1.0
  O  O44  1  0.43255624  0.76134102  0.03756457  1.0
  O  O45  1  0.43255624  0.73865898  0.53756457  1.0
  O  O46  1  0.56744376  0.26134102  0.53756457  1.0
  O  O47  1  0.56744376  0.23865898  0.03756457  1.0
