# generated using pymatgen
data_K2Li14Pb3O14
_symmetry_space_group_name_H-M   'P 1'
_cell_length_a   8.47936907
_cell_length_b   8.47936907
_cell_length_c   8.47936907
_cell_angle_alpha   128.92387390
_cell_angle_beta   123.22694234
_cell_angle_gamma   79.84894550
_symmetry_Int_Tables_number   1
_chemical_formula_structural   K2Li14Pb3O14
_chemical_formula_sum   'K2 Li14 Pb3 O14'
_cell_volume   383.30816347
_cell_formula_units_Z   1
loop_
 _symmetry_equiv_pos_site_id
 _symmetry_equiv_pos_as_xyz
  1  'x, y, z'
loop_
 _atom_site_type_symbol
 _atom_site_label
 _atom_site_symmetry_multiplicity
 _atom_site_fract_x
 _atom_site_fract_y
 _atom_site_fract_z
 _atom_site_occupancy
  K  K0  1  0.50000000  0.75259675  1.25259675  1.0
  K  K1  1  0.50000000  0.24740325  0.74740325  1.0
  Li  Li2  1  0.70948536  0.59303012  0.57103594  1.0
  Li  Li3  1  0.97800583  0.86155059  1.57103594  1.0
  Li  Li4  1  1.02199417  0.59303012  0.88354476  1.0
  Li  Li5  1  0.29051464  0.86155059  0.88354476  1.0
  Li  Li6  1  0.70948536  1.13844941  1.11645524  1.0
  Li  Li7  1  0.97800583  0.40696988  1.11645524  1.0
  Li  Li8  1  1.02199417  1.13844941  1.42896406  1.0
  Li  Li9  1  0.29051464  0.40696988  0.42896406  1.0
  Li  Li10  1  0.41560114  0.77041305  0.64518809  1.0
  Li  Li11  1  0.87477503  0.22958695  0.64518809  1.0
  Li  Li12  1  1.12522497  0.77041305  1.35481191  1.0
  Li  Li13  1  0.58439886  0.22958695  0.35481191  1.0
  Li  Li14  1  0.15882426  0.50000000  0.65882426  1.0
  Li  Li15  1  0.84117574  0.50000000  1.34117574  1.0
  Pb  Pb16  1  0.00000000  0.00000000  0.00000000  1.0
  Pb  Pb17  1  0.72764389  0.72764389  1.00000000  1.0
  Pb  Pb18  1  0.27235611  0.27235611  -0.00000000  1.0
  O  O19  1  0.75071656  0.45684394  0.70612739  1.0
  O  O20  1  0.24928344  0.95541083  0.70612739  1.0
  O  O21  1  0.75071656  1.04458917  1.29387261  1.0
  O  O22  1  0.24928344  0.54315606  0.29387261  1.0
  O  O23  1  0.68444098  0.87282144  0.81161954  1.0
  O  O24  1  0.93879810  0.12717856  0.81161954  1.0
  O  O25  1  1.06120190  0.87282144  1.18838046  1.0
  O  O26  1  0.31555902  0.12717856  0.18838046  1.0
  O  O27  1  0.41017337  0.62671733  0.78345605  1.0
  O  O28  1  1.15673872  0.37328267  0.78345605  1.0
  O  O29  1  0.84326128  0.62671733  1.21654395  1.0
  O  O30  1  0.58982663  0.37328267  0.21654395  1.0
  O  O31  1  -0.00000000  0.70279158  0.70279158  1.0
  O  O32  1  -0.00000000  0.29720842  0.29720842  1.0
