# generated using pymatgen
data_K2VCuS4
_symmetry_space_group_name_H-M   'P 1'
_cell_length_a   13.27420937
_cell_length_b   11.84910756
_cell_length_c   7.10765009
_cell_angle_alpha   84.98804465
_cell_angle_beta   62.77643275
_cell_angle_gamma   32.23552259
_symmetry_Int_Tables_number   1
_chemical_formula_structural   K2VCuS4
_chemical_formula_sum   'K4 V2 Cu2 S8'
_cell_volume   411.09658519
_cell_formula_units_Z   2
loop_
 _symmetry_equiv_pos_site_id
 _symmetry_equiv_pos_as_xyz
  1  'x, y, z'
loop_
 _atom_site_type_symbol
 _atom_site_label
 _atom_site_symmetry_multiplicity
 _atom_site_fract_x
 _atom_site_fract_y
 _atom_site_fract_z
 _atom_site_occupancy
  K  K0  1  1.42842039  0.42842039  0.07157961  1.0
  K  K1  1  0.07157961  0.07157961  1.42842039  1.0
  K  K2  1  0.82157961  0.82157961  -0.82157961  1.0
  K  K3  1  0.17842039  1.17842039  -0.17842039  1.0
  V  V4  1  0.00000000  0.00000000  0.00000000  1.0
  V  V5  1  1.25000000  0.25000000  0.25000000  1.0
  Cu  Cu6  1  -0.50000000  0.50000000  0.50000000  1.0
  Cu  Cu7  1  0.75000000  0.75000000  0.75000000  1.0
  S  S8  1  0.81201961  1.07942091  -0.61866092  1.0
  S  S9  1  0.72722040  -0.61866092  1.07942091  1.0
  S  S10  1  -0.61866092  0.72722040  0.81201961  1.0
  S  S11  1  1.07942091  0.81201961  0.72722040  1.0
  S  S12  1  1.43798039  0.17057909  -0.13133908  1.0
  S  S13  1  1.52277960  -0.13133908  0.17057909  1.0
  S  S14  1  0.86866092  0.52277960  0.43798039  1.0
  S  S15  1  1.17057909  0.43798039  0.52277960  1.0
