# generated using pymatgen
data_Ba2GaAsSe5
_symmetry_space_group_name_H-M   'P 1'
_cell_length_a   12.86826081
_cell_length_b   9.07617720
_cell_length_c   9.39884126
_cell_angle_alpha   90.00000000
_cell_angle_beta   90.00000000
_cell_angle_gamma   90.00000000
_symmetry_Int_Tables_number   1
_chemical_formula_structural   Ba2GaAsSe5
_chemical_formula_sum   'Ba8 Ga4 As4 Se20'
_cell_volume   1097.73405016
_cell_formula_units_Z   4
loop_
 _symmetry_equiv_pos_site_id
 _symmetry_equiv_pos_as_xyz
  1  'x, y, z'
loop_
 _atom_site_type_symbol
 _atom_site_label
 _atom_site_symmetry_multiplicity
 _atom_site_fract_x
 _atom_site_fract_y
 _atom_site_fract_z
 _atom_site_occupancy
  Ba  Ba0  1  0.17422668  0.99442012  0.86719540  1.0
  Ba  Ba1  1  0.17422668  0.50557988  0.86719540  1.0
  Ba  Ba2  1  0.67422668  0.99442012  0.63280460  1.0
  Ba  Ba3  1  0.67422668  0.50557988  0.63280460  1.0
  Ba  Ba4  1  0.82577332  0.49442012  0.13280460  1.0
  Ba  Ba5  1  0.82577332  0.00557988  0.13280460  1.0
  Ba  Ba6  1  0.32577332  0.49442012  0.36719540  1.0
  Ba  Ba7  1  0.32577332  0.00557988  0.36719540  1.0
  Ga  Ga8  1  0.40347714  0.75000000  0.66516259  1.0
  Ga  Ga9  1  0.90347714  0.75000000  0.83483741  1.0
  Ga  Ga10  1  0.59652286  0.25000000  0.33483741  1.0
  Ga  Ga11  1  0.09652286  0.25000000  0.16516259  1.0
  As  As12  1  0.46219794  0.75000000  0.00653993  1.0
  As  As13  1  0.96219794  0.75000000  0.49346007  1.0
  As  As14  1  0.53780206  0.25000000  0.99346007  1.0
  As  As15  1  0.03780206  0.25000000  0.50653993  1.0
  Se  Se16  1  0.44302960  0.95453277  0.83040508  1.0
  Se  Se17  1  0.44302960  0.54546723  0.83040508  1.0
  Se  Se18  1  0.94302960  0.95453277  0.66959492  1.0
  Se  Se19  1  0.94302960  0.54546723  0.66959492  1.0
  Se  Se20  1  0.55697040  0.45453277  0.16959492  1.0
  Se  Se21  1  0.55697040  0.04546723  0.16959492  1.0
  Se  Se22  1  0.05697040  0.45453277  0.33040508  1.0
  Se  Se23  1  0.05697040  0.04546723  0.33040508  1.0
  Se  Se24  1  0.28722911  0.75000000  0.10291506  1.0
  Se  Se25  1  0.78722911  0.75000000  0.39708494  1.0
  Se  Se26  1  0.71277089  0.25000000  0.89708494  1.0
  Se  Se27  1  0.21277089  0.25000000  0.60291506  1.0
  Se  Se28  1  0.22301240  0.75000000  0.60219371  1.0
  Se  Se29  1  0.72301240  0.75000000  0.89780629  1.0
  Se  Se30  1  0.77698760  0.25000000  0.39780629  1.0
  Se  Se31  1  0.27698760  0.25000000  0.10219371  1.0
  Se  Se32  1  0.01173850  0.75000000  0.04034640  1.0
  Se  Se33  1  0.51173850  0.75000000  0.45965360  1.0
  Se  Se34  1  0.98826150  0.25000000  0.95965360  1.0
  Se  Se35  1  0.48826150  0.25000000  0.54034640  1.0
