# generated using pymatgen
data_SrMgSi
_symmetry_space_group_name_H-M   'P 1'
_cell_length_a   7.81405125
_cell_length_b   4.59637272
_cell_length_c   8.50555497
_cell_angle_alpha   90.00000000
_cell_angle_beta   90.00000000
_cell_angle_gamma   90.00000000
_symmetry_Int_Tables_number   1
_chemical_formula_structural   SrMgSi
_chemical_formula_sum   'Sr4 Mg4 Si4'
_cell_volume   305.48799598
_cell_formula_units_Z   4
loop_
 _symmetry_equiv_pos_site_id
 _symmetry_equiv_pos_as_xyz
  1  'x, y, z'
loop_
 _atom_site_type_symbol
 _atom_site_label
 _atom_site_symmetry_multiplicity
 _atom_site_fract_x
 _atom_site_fract_y
 _atom_site_fract_z
 _atom_site_occupancy
  Sr  Sr0  1  0.98517777  0.75000000  0.68380022  1.0
  Sr  Sr1  1  0.48517777  0.75000000  0.81619978  1.0
  Sr  Sr2  1  0.01482223  0.25000000  0.31619978  1.0
  Sr  Sr3  1  0.51482223  0.25000000  0.18380022  1.0
  Mg  Mg4  1  0.85651366  0.75000000  0.06419727  1.0
  Mg  Mg5  1  0.35651366  0.75000000  0.43580273  1.0
  Mg  Mg6  1  0.14348634  0.25000000  0.93580273  1.0
  Mg  Mg7  1  0.64348634  0.25000000  0.56419727  1.0
  Si  Si8  1  0.71849391  0.75000000  0.39063031  1.0
  Si  Si9  1  0.21849391  0.75000000  0.10936969  1.0
  Si  Si10  1  0.28150609  0.25000000  0.60936969  1.0
  Si  Si11  1  0.78150609  0.25000000  0.89063031  1.0
