# generated using pymatgen
data_Sm2SeO2
_symmetry_space_group_name_H-M   'P 1'
_cell_length_a   3.95577702
_cell_length_b   3.95577702
_cell_length_c   7.00480969
_cell_angle_alpha   90.00000000
_cell_angle_beta   90.00000000
_cell_angle_gamma   120.00000000
_symmetry_Int_Tables_number   1
_chemical_formula_structural   Sm2SeO2
_chemical_formula_sum   'Sm2 Se1 O2'
_cell_volume   94.92717990
_cell_formula_units_Z   1
loop_
 _symmetry_equiv_pos_site_id
 _symmetry_equiv_pos_as_xyz
  1  'x, y, z'
loop_
 _atom_site_type_symbol
 _atom_site_label
 _atom_site_symmetry_multiplicity
 _atom_site_fract_x
 _atom_site_fract_y
 _atom_site_fract_z
 _atom_site_occupancy
  Sm  Sm0  1  0.33333333  0.66666667  0.29101411  1.0
  Sm  Sm1  1  0.66666667  0.33333333  0.70898589  1.0
  Se  Se2  1  0.00000000  0.00000000  0.00000000  1.0
  O  O3  1  0.33333333  0.66666667  0.62522634  1.0
  O  O4  1  0.66666667  0.33333333  0.37477366  1.0
