# generated using pymatgen
data_MgTeMoO6
_symmetry_space_group_name_H-M   'P 1'
_cell_length_a   5.07972457
_cell_length_b   5.38621955
_cell_length_c   9.37415693
_cell_angle_alpha   90.00000000
_cell_angle_beta   90.00000000
_cell_angle_gamma   90.00000000
_symmetry_Int_Tables_number   1
_chemical_formula_structural   MgTeMoO6
_chemical_formula_sum   'Mg2 Te2 Mo2 O12'
_cell_volume   256.48173100
_cell_formula_units_Z   2
loop_
 _symmetry_equiv_pos_site_id
 _symmetry_equiv_pos_as_xyz
  1  'x, y, z'
loop_
 _atom_site_type_symbol
 _atom_site_label
 _atom_site_symmetry_multiplicity
 _atom_site_fract_x
 _atom_site_fract_y
 _atom_site_fract_z
 _atom_site_occupancy
  Mg  Mg0  1  0.50000000  0.00000000  0.96658938  1.0
  Mg  Mg1  1  0.00000000  0.50000000  0.03341062  1.0
  Te  Te2  1  0.50000000  0.50000000  0.76490439  1.0
  Te  Te3  1  0.00000000  0.00000000  0.23509561  1.0
  Mo  Mo4  1  0.50000000  0.50000000  0.30033039  1.0
  Mo  Mo5  1  0.00000000  0.00000000  0.69966961  1.0
  O  O6  1  0.27350047  0.67486199  0.90155162  1.0
  O  O7  1  0.77350047  0.82513801  0.09844838  1.0
  O  O8  1  0.72649953  0.32513801  0.90155162  1.0
  O  O9  1  0.22649953  0.17486199  0.09844838  1.0
  O  O10  1  0.26550513  0.16975780  0.79798328  1.0
  O  O11  1  0.76550513  0.33024220  0.20201672  1.0
  O  O12  1  0.73449487  0.83024220  0.79798328  1.0
  O  O13  1  0.23449487  0.66975780  0.20201672  1.0
  O  O14  1  0.15040283  0.78629200  0.59027583  1.0
  O  O15  1  0.65040283  0.71370800  0.40972417  1.0
  O  O16  1  0.84959717  0.21370800  0.59027583  1.0
  O  O17  1  0.34959717  0.28629200  0.40972417  1.0
