# generated using pymatgen
data_MnNF3
_symmetry_space_group_name_H-M   'P 1'
_cell_length_a   5.54851197
_cell_length_b   7.85206703
_cell_length_c   5.55080096
_cell_angle_alpha   90.00000000
_cell_angle_beta   90.00000000
_cell_angle_gamma   90.00000000
_symmetry_Int_Tables_number   1
_chemical_formula_structural   MnNF3
_chemical_formula_sum   'Mn4 N4 F12'
_cell_volume   241.83334362
_cell_formula_units_Z   4
loop_
 _symmetry_equiv_pos_site_id
 _symmetry_equiv_pos_as_xyz
  1  'x, y, z'
loop_
 _atom_site_type_symbol
 _atom_site_label
 _atom_site_symmetry_multiplicity
 _atom_site_fract_x
 _atom_site_fract_y
 _atom_site_fract_z
 _atom_site_occupancy
  Mn  Mn0  1  0.50000000  -0.00000000  0.50000000  1.0
  Mn  Mn1  1  0.50000000  0.50000000  0.50000000  1.0
  Mn  Mn2  1  0.00000000  0.00000000  0.00000000  1.0
  Mn  Mn3  1  0.00000000  0.50000000  0.00000000  1.0
  N  N4  1  -0.00000212  0.75000000  0.49995923  1.0
  N  N5  1  0.49999788  0.75000000  0.00004077  1.0
  N  N6  1  0.00000212  0.25000000  0.50004077  1.0
  N  N7  1  0.50000212  0.25000000  -0.00004077  1.0
  F  F8  1  0.24993618  0.99998485  0.74999154  1.0
  F  F9  1  0.24993618  0.50001515  0.74999154  1.0
  F  F10  1  0.74993618  0.99998485  0.75000846  1.0
  F  F11  1  0.74993618  0.50001515  0.75000846  1.0
  F  F12  1  0.75006382  0.49998485  0.25000846  1.0
  F  F13  1  0.75006382  0.00001515  0.25000846  1.0
  F  F14  1  0.25006382  0.49998485  0.24999154  1.0
  F  F15  1  0.25006382  0.00001515  0.24999154  1.0
  F  F16  1  0.00004428  0.75000000  -0.00005987  1.0
  F  F17  1  0.50004428  0.75000000  0.50005987  1.0
  F  F18  1  -0.00004428  0.25000000  1.00005987  1.0
  F  F19  1  0.49995572  0.25000000  0.49994013  1.0
