# generated using pymatgen
data_KCdAg3(CN)6
_symmetry_space_group_name_H-M   'P 1'
_cell_length_a   7.11636183
_cell_length_b   7.11636183
_cell_length_c   8.31021107
_cell_angle_alpha   90.00000000
_cell_angle_beta   90.00000000
_cell_angle_gamma   120.00000000
_symmetry_Int_Tables_number   1
_chemical_formula_structural   KCdAg3(CN)6
_chemical_formula_sum   'K1 Cd1 Ag3 C6 N6'
_cell_volume   364.46743389
_cell_formula_units_Z   1
loop_
 _symmetry_equiv_pos_site_id
 _symmetry_equiv_pos_as_xyz
  1  'x, y, z'
loop_
 _atom_site_type_symbol
 _atom_site_label
 _atom_site_symmetry_multiplicity
 _atom_site_fract_x
 _atom_site_fract_y
 _atom_site_fract_z
 _atom_site_occupancy
  K  K0  1  0.00000000  0.00000000  0.00000000  1.0
  Cd  Cd1  1  0.33333333  0.66666667  0.00000000  1.0
  Ag  Ag2  1  0.35432050  0.17716025  0.50000000  1.0
  Ag  Ag3  1  0.82283975  0.17716025  0.50000000  1.0
  Ag  Ag4  1  0.82283975  0.64567950  0.50000000  1.0
  C  C5  1  0.68096200  0.66013720  0.28959344  1.0
  C  C6  1  0.68096200  0.02082480  0.71040656  1.0
  C  C7  1  0.97917520  0.66013720  0.71040656  1.0
  C  C8  1  0.97917520  0.31903800  0.28959344  1.0
  C  C9  1  0.33986280  0.31903800  0.71040656  1.0
  C  C10  1  0.33986280  0.02082480  0.28959344  1.0
  N  N11  1  0.60292089  0.67580451  0.17017092  1.0
  N  N12  1  0.60292089  0.92711638  0.82982908  1.0
  N  N13  1  0.07288362  0.67580451  0.82982908  1.0
  N  N14  1  0.07288362  0.39707911  0.17017092  1.0
  N  N15  1  0.32419549  0.39707911  0.82982908  1.0
  N  N16  1  0.32419549  0.92711638  0.17017092  1.0
