# generated using pymatgen
data_SiC
_symmetry_space_group_name_H-M   'P 1'
_cell_length_a   3.09525664
_cell_length_b   3.09525664
_cell_length_c   48.12002085
_cell_angle_alpha   90.00000000
_cell_angle_beta   90.00000000
_cell_angle_gamma   120.00000000
_symmetry_Int_Tables_number   1
_chemical_formula_structural   SiC
_chemical_formula_sum   'Si19 C19'
_cell_volume   399.25445015
_cell_formula_units_Z   19
loop_
 _symmetry_equiv_pos_site_id
 _symmetry_equiv_pos_as_xyz
  1  'x, y, z'
loop_
 _atom_site_type_symbol
 _atom_site_label
 _atom_site_symmetry_multiplicity
 _atom_site_fract_x
 _atom_site_fract_y
 _atom_site_fract_z
 _atom_site_occupancy
  Si  Si0  1  0.00000000  0.00000000  0.01313096  1.0
  Si  Si1  1  0.00000000  0.00000000  0.22367860  1.0
  Si  Si2  1  0.00000000  0.00000000  0.43415035  1.0
  Si  Si3  1  0.00000000  0.00000000  0.53944357  1.0
  Si  Si4  1  0.00000000  0.00000000  0.64474419  1.0
  Si  Si5  1  0.00000000  0.00000000  0.85526410  1.0
  Si  Si6  1  0.66666667  0.33333333  0.11840908  1.0
  Si  Si7  1  0.66666667  0.33333333  0.32895291  1.0
  Si  Si8  1  0.66666667  0.33333333  0.48680416  1.0
  Si  Si9  1  0.66666667  0.33333333  0.69731108  1.0
  Si  Si10  1  0.66666667  0.33333333  0.80260553  1.0
  Si  Si11  1  0.66666667  0.33333333  0.90790890  1.0
  Si  Si12  1  0.33333333  0.66666667  0.06576352  1.0
  Si  Si13  1  0.33333333  0.66666667  0.17103512  1.0
  Si  Si14  1  0.33333333  0.66666667  0.27630229  1.0
  Si  Si15  1  0.33333333  0.66666667  0.38159388  1.0
  Si  Si16  1  0.33333333  0.66666667  0.59209895  1.0
  Si  Si17  1  0.33333333  0.66666667  0.74996812  1.0
  Si  Si18  1  0.33333333  0.66666667  0.96047245  1.0
  C  C19  1  0.00000000  0.00000000  0.05272038  1.0
  C  C20  1  0.00000000  0.00000000  0.26325234  1.0
  C  C21  1  0.00000000  0.00000000  0.47361177  1.0
  C  C22  1  0.00000000  0.00000000  0.57889824  1.0
  C  C23  1  0.00000000  0.00000000  0.68421295  1.0
  C  C24  1  0.00000000  0.00000000  0.89484523  1.0
  C  C25  1  0.66666667  0.33333333  0.15799267  1.0
  C  C26  1  0.66666667  0.33333333  0.36853290  1.0
  C  C27  1  0.66666667  0.33333333  0.52638911  1.0
  C  C28  1  0.66666667  0.33333333  0.73677793  1.0
  C  C29  1  0.66666667  0.33333333  0.84206362  1.0
  C  C30  1  0.66666667  0.33333333  0.94737434  1.0
  C  C31  1  0.33333333  0.66666667  -0.00005598  1.0
  C  C32  1  0.33333333  0.66666667  0.10522128  1.0
  C  C33  1  0.33333333  0.66666667  0.21049362  1.0
  C  C34  1  0.33333333  0.66666667  0.31575375  1.0
  C  C35  1  0.33333333  0.66666667  0.42105453  1.0
  C  C36  1  0.33333333  0.66666667  0.63167597  1.0
  C  C37  1  0.33333333  0.66666667  0.78954761  1.0
