# generated using pymatgen
data_Ba5Si3
_symmetry_space_group_name_H-M   'P 1'
_cell_length_a   8.48078538
_cell_length_b   8.48078538
_cell_length_c   16.66764817
_cell_angle_alpha   90.00000000
_cell_angle_beta   90.00000000
_cell_angle_gamma   90.00000000
_symmetry_Int_Tables_number   1
_chemical_formula_structural   Ba5Si3
_chemical_formula_sum   'Ba20 Si12'
_cell_volume   1198.79926994
_cell_formula_units_Z   4
loop_
 _symmetry_equiv_pos_site_id
 _symmetry_equiv_pos_as_xyz
  1  'x, y, z'
loop_
 _atom_site_type_symbol
 _atom_site_label
 _atom_site_symmetry_multiplicity
 _atom_site_fract_x
 _atom_site_fract_y
 _atom_site_fract_z
 _atom_site_occupancy
  Ba  Ba0  1  0.00000000  0.50000000  0.78007189  1.0
  Ba  Ba1  1  0.00000000  0.50000000  0.28007189  1.0
  Ba  Ba2  1  0.50000000  0.00000000  0.21992811  1.0
  Ba  Ba3  1  0.50000000  0.00000000  0.71992811  1.0
  Ba  Ba4  1  0.80321429  0.83159310  0.39136968  1.0
  Ba  Ba5  1  0.19678571  0.83159310  0.89136968  1.0
  Ba  Ba6  1  0.80321429  0.16840690  0.89136968  1.0
  Ba  Ba7  1  0.19678571  0.16840690  0.39136968  1.0
  Ba  Ba8  1  0.33159310  0.30321429  0.89136968  1.0
  Ba  Ba9  1  0.66840690  0.30321429  0.39136968  1.0
  Ba  Ba10  1  0.33159310  0.69678571  0.39136968  1.0
  Ba  Ba11  1  0.66840690  0.69678571  0.89136968  1.0
  Ba  Ba12  1  0.69678571  0.66840690  0.60863032  1.0
  Ba  Ba13  1  0.30321429  0.66840690  0.10863032  1.0
  Ba  Ba14  1  0.69678571  0.33159310  0.10863032  1.0
  Ba  Ba15  1  0.30321429  0.33159310  0.60863032  1.0
  Ba  Ba16  1  0.16840690  0.19678571  0.10863032  1.0
  Ba  Ba17  1  0.83159310  0.19678571  0.60863032  1.0
  Ba  Ba18  1  0.16840690  0.80321429  0.60863032  1.0
  Ba  Ba19  1  0.83159310  0.80321429  0.10863032  1.0
  Si  Si20  1  0.00000000  0.50000000  0.48862953  1.0
  Si  Si21  1  0.00000000  0.50000000  0.98862953  1.0
  Si  Si22  1  0.50000000  0.00000000  0.51137047  1.0
  Si  Si23  1  0.50000000  0.00000000  0.01137047  1.0
  Si  Si24  1  0.10193702  0.89806298  0.25000000  1.0
  Si  Si25  1  0.89806298  0.89806298  0.75000000  1.0
  Si  Si26  1  0.10193702  0.10193702  0.75000000  1.0
  Si  Si27  1  0.89806298  0.10193702  0.25000000  1.0
  Si  Si28  1  0.39806298  0.60193702  0.75000000  1.0
  Si  Si29  1  0.60193702  0.60193702  0.25000000  1.0
  Si  Si30  1  0.39806298  0.39806298  0.25000000  1.0
  Si  Si31  1  0.60193702  0.39806298  0.75000000  1.0
