# generated using pymatgen
data_BaCdO2
_symmetry_space_group_name_H-M   'P 1'
_cell_length_a   6.23620593
_cell_length_b   3.69880985
_cell_length_c   12.15018744
_cell_angle_alpha   90.00000000
_cell_angle_beta   90.00000000
_cell_angle_gamma   90.00000000
_symmetry_Int_Tables_number   1
_chemical_formula_structural   BaCdO2
_chemical_formula_sum   'Ba4 Cd4 O8'
_cell_volume   280.26278388
_cell_formula_units_Z   4
loop_
 _symmetry_equiv_pos_site_id
 _symmetry_equiv_pos_as_xyz
  1  'x, y, z'
loop_
 _atom_site_type_symbol
 _atom_site_label
 _atom_site_symmetry_multiplicity
 _atom_site_fract_x
 _atom_site_fract_y
 _atom_site_fract_z
 _atom_site_occupancy
  Ba  Ba0  1  0.89642389  0.75000000  0.35630979  1.0
  Ba  Ba1  1  0.39642389  0.75000000  0.14369021  1.0
  Ba  Ba2  1  0.10357611  0.25000000  0.64369021  1.0
  Ba  Ba3  1  0.60357611  0.25000000  0.85630979  1.0
  Cd  Cd4  1  0.59484009  0.75000000  0.60603705  1.0
  Cd  Cd5  1  0.09484009  0.75000000  0.89396295  1.0
  Cd  Cd6  1  0.40515991  0.25000000  0.39396295  1.0
  Cd  Cd7  1  0.90515991  0.25000000  0.10603705  1.0
  O  O8  1  0.85967543  0.75000000  0.75265948  1.0
  O  O9  1  0.35967543  0.75000000  0.74734052  1.0
  O  O10  1  0.14032457  0.25000000  0.24734052  1.0
  O  O11  1  0.64032457  0.25000000  0.25265948  1.0
  O  O12  1  0.77590966  0.75000000  0.01824894  1.0
  O  O13  1  0.27590966  0.75000000  0.48175106  1.0
  O  O14  1  0.22409034  0.25000000  0.98175106  1.0
  O  O15  1  0.72409034  0.25000000  0.51824894  1.0
