# generated using pymatgen
data_CdSnF6
_symmetry_space_group_name_H-M   'P 1'
_cell_length_a   5.91376194
_cell_length_b   5.91376194
_cell_length_c   5.91376194
_cell_angle_alpha   57.03938902
_cell_angle_beta   57.03938902
_cell_angle_gamma   57.03938902
_symmetry_Int_Tables_number   1
_chemical_formula_structural   CdSnF6
_chemical_formula_sum   'Cd1 Sn1 F6'
_cell_volume   136.26213438
_cell_formula_units_Z   1
loop_
 _symmetry_equiv_pos_site_id
 _symmetry_equiv_pos_as_xyz
  1  'x, y, z'
loop_
 _atom_site_type_symbol
 _atom_site_label
 _atom_site_symmetry_multiplicity
 _atom_site_fract_x
 _atom_site_fract_y
 _atom_site_fract_z
 _atom_site_occupancy
  Cd  Cd0  1  0.00000000  0.00000000  0.00000000  1.0
  Sn  Sn1  1  0.50000000  0.50000000  -0.50000000  1.0
  F  F2  1  1.16017077  -0.26694982  -0.62766991  1.0
  F  F3  1  0.62766991  0.83982923  -0.73305018  1.0
  F  F4  1  0.26694982  0.62766991  -0.16017077  1.0
  F  F5  1  0.83982923  0.26694982  -0.37233009  1.0
  F  F6  1  0.37233009  0.16017077  -0.26694982  1.0
  F  F7  1  0.73305018  -0.62766991  0.16017077  1.0
