# generated using pymatgen
data_HfZn2
_symmetry_space_group_name_H-M   'P 1'
_cell_length_a   5.19791594
_cell_length_b   5.19791594
_cell_length_c   16.84492325
_cell_angle_alpha   90.00000000
_cell_angle_beta   90.00000000
_cell_angle_gamma   120.00000000
_symmetry_Int_Tables_number   1
_chemical_formula_structural   HfZn2
_chemical_formula_sum   'Hf8 Zn16'
_cell_volume   394.14695191
_cell_formula_units_Z   8
loop_
 _symmetry_equiv_pos_site_id
 _symmetry_equiv_pos_as_xyz
  1  'x, y, z'
loop_
 _atom_site_type_symbol
 _atom_site_label
 _atom_site_symmetry_multiplicity
 _atom_site_fract_x
 _atom_site_fract_y
 _atom_site_fract_z
 _atom_site_occupancy
  Hf  Hf0  1  0.33333333  0.66666667  0.84333696  1.0
  Hf  Hf1  1  0.33333333  0.66666667  0.65666304  1.0
  Hf  Hf2  1  0.66666667  0.33333333  0.34333696  1.0
  Hf  Hf3  1  0.66666667  0.33333333  0.15666304  1.0
  Hf  Hf4  1  -0.00000000  -0.00000000  0.40833908  1.0
  Hf  Hf5  1  -0.00000000  -0.00000000  0.09166092  1.0
  Hf  Hf6  1  -0.00000000  -0.00000000  0.90833908  1.0
  Hf  Hf7  1  0.00000000  0.00000000  0.59166092  1.0
  Zn  Zn8  1  0.16093064  0.83906936  0.25000000  1.0
  Zn  Zn9  1  0.16093064  0.32186127  0.25000000  1.0
  Zn  Zn10  1  0.83906936  0.16093064  0.75000000  1.0
  Zn  Zn11  1  0.83906936  0.67813873  0.75000000  1.0
  Zn  Zn12  1  0.67813873  0.83906936  0.25000000  1.0
  Zn  Zn13  1  0.32186127  0.16093064  0.75000000  1.0
  Zn  Zn14  1  0.50000000  0.50000000  0.50000000  1.0
  Zn  Zn15  1  0.50000000  0.50000000  0.00000000  1.0
  Zn  Zn16  1  0.50000000  0.00000000  0.50000000  1.0
  Zn  Zn17  1  0.50000000  -0.00000000  0.00000000  1.0
  Zn  Zn18  1  -0.00000000  0.50000000  0.50000000  1.0
  Zn  Zn19  1  -0.00000000  0.50000000  -0.00000000  1.0
  Zn  Zn20  1  0.33333333  0.66666667  0.37281372  1.0
  Zn  Zn21  1  0.33333333  0.66666667  0.12718628  1.0
  Zn  Zn22  1  0.66666667  0.33333333  0.87281372  1.0
  Zn  Zn23  1  0.66666667  0.33333333  0.62718628  1.0
