# generated using pymatgen
data_Lu2SiO5
_symmetry_space_group_name_H-M   'P 1'
_cell_length_a   9.20554369
_cell_length_b   6.64720916
_cell_length_c   6.75201534
_cell_angle_alpha   90.00000000
_cell_angle_beta   100.40328511
_cell_angle_gamma   90.00000000
_symmetry_Int_Tables_number   1
_chemical_formula_structural   Lu2SiO5
_chemical_formula_sum   'Lu8 Si4 O20'
_cell_volume   406.37179823
_cell_formula_units_Z   4
loop_
 _symmetry_equiv_pos_site_id
 _symmetry_equiv_pos_as_xyz
  1  'x, y, z'
loop_
 _atom_site_type_symbol
 _atom_site_label
 _atom_site_symmetry_multiplicity
 _atom_site_fract_x
 _atom_site_fract_y
 _atom_site_fract_z
 _atom_site_occupancy
  Lu  Lu0  1  0.96221244  0.38307852  0.27693522  1.0
  Lu  Lu1  1  0.96221244  0.11692148  0.77693522  1.0
  Lu  Lu2  1  0.03778756  0.88307852  0.22306478  1.0
  Lu  Lu3  1  0.03778756  0.61692148  0.72306478  1.0
  Lu  Lu4  1  0.64834072  0.35847769  0.51185268  1.0
  Lu  Lu5  1  0.64834072  0.14152231  1.01185268  1.0
  Lu  Lu6  1  0.35165928  0.85847769  -0.01185268  1.0
  Lu  Lu7  1  0.35165928  0.64152231  0.48814732  1.0
  Si  Si8  1  0.70265779  0.90155440  0.51565246  1.0
  Si  Si9  1  0.70265779  0.59844560  1.01565246  1.0
  Si  Si10  1  0.29734221  0.40155440  -0.01565246  1.0
  Si  Si11  1  0.29734221  0.09844560  0.48434754  1.0
  O  O12  1  0.89382034  0.12368194  0.07878963  1.0
  O  O13  1  0.89382034  0.37631806  0.57878963  1.0
  O  O14  1  0.10617966  0.62368194  0.42121037  1.0
  O  O15  1  0.10617966  0.87631806  0.92121037  1.0
  O  O16  1  0.70757630  0.44021399  0.21091023  1.0
  O  O17  1  0.70757630  0.05978601  0.71091023  1.0
  O  O18  1  0.29242370  0.94021399  0.28908977  1.0
  O  O19  1  0.29242370  0.55978601  0.78908977  1.0
  O  O20  1  0.65350985  0.06402445  0.33350388  1.0
  O  O21  1  0.65350985  0.43597555  0.83350388  1.0
  O  O22  1  0.34649015  0.56402445  0.16649612  1.0
  O  O23  1  0.34649015  0.93597555  0.66649612  1.0
  O  O24  1  0.40146296  0.20203975  -0.00599918  1.0
  O  O25  1  0.40146296  0.29796025  0.49400082  1.0
  O  O26  1  0.59853704  0.70203975  0.50599918  1.0
  O  O27  1  0.59853704  0.79796025  1.00599918  1.0
  O  O28  1  0.11639761  0.14885788  0.45601808  1.0
  O  O29  1  0.11639761  0.35114212  0.95601808  1.0
  O  O30  1  0.88360239  0.64885788  0.04398192  1.0
  O  O31  1  0.88360239  0.85114212  0.54398192  1.0
