# generated using pymatgen
data_KZrPdF7
_symmetry_space_group_name_H-M   'P 1'
_cell_length_a   11.56468373
_cell_length_b   8.14152374
_cell_length_c   6.54658797
_cell_angle_alpha   90.00000000
_cell_angle_beta   90.00000000
_cell_angle_gamma   90.00000000
_symmetry_Int_Tables_number   1
_chemical_formula_structural   KZrPdF7
_chemical_formula_sum   'K4 Zr4 Pd4 F28'
_cell_volume   616.38840665
_cell_formula_units_Z   4
loop_
 _symmetry_equiv_pos_site_id
 _symmetry_equiv_pos_as_xyz
  1  'x, y, z'
loop_
 _atom_site_type_symbol
 _atom_site_label
 _atom_site_symmetry_multiplicity
 _atom_site_fract_x
 _atom_site_fract_y
 _atom_site_fract_z
 _atom_site_occupancy
  K  K0  1  0.25000000  0.50000000  0.26718588  1.0
  K  K1  1  0.25000000  0.00000000  0.23281412  1.0
  K  K2  1  0.75000000  0.50000000  0.73281412  1.0
  K  K3  1  0.75000000  0.00000000  0.76718588  1.0
  Zr  Zr4  1  0.40796376  0.25000000  0.75000000  1.0
  Zr  Zr5  1  0.90796376  0.25000000  0.25000000  1.0
  Zr  Zr6  1  0.59203624  0.75000000  0.25000000  1.0
  Zr  Zr7  1  0.09203624  0.75000000  0.75000000  1.0
  Pd  Pd8  1  0.09902849  0.25000000  0.75000000  1.0
  Pd  Pd9  1  0.59902849  0.25000000  0.25000000  1.0
  Pd  Pd10  1  0.90097151  0.75000000  0.25000000  1.0
  Pd  Pd11  1  0.40097151  0.75000000  0.75000000  1.0
  F  F12  1  0.45394072  0.31584637  0.05005869  1.0
  F  F13  1  0.45394072  0.18415363  0.44994131  1.0
  F  F14  1  0.95394072  0.31584637  0.94994131  1.0
  F  F15  1  0.95394072  0.18415363  0.55005869  1.0
  F  F16  1  0.54605928  0.81584637  0.55005869  1.0
  F  F17  1  0.54605928  0.68415363  0.94994131  1.0
  F  F18  1  0.04605928  0.81584637  0.44994131  1.0
  F  F19  1  0.04605928  0.68415363  0.05005869  1.0
  F  F20  1  0.39533019  0.48806282  0.65383220  1.0
  F  F21  1  0.39533019  0.01193718  0.84616780  1.0
  F  F22  1  0.89533019  0.48806282  0.34616780  1.0
  F  F23  1  0.89533019  0.01193718  0.15383220  1.0
  F  F24  1  0.60466981  0.98806282  0.15383220  1.0
  F  F25  1  0.60466981  0.51193718  0.34616780  1.0
  F  F26  1  0.10466981  0.98806282  0.84616780  1.0
  F  F27  1  0.10466981  0.51193718  0.65383220  1.0
  F  F28  1  0.25495773  0.20839438  0.56726045  1.0
  F  F29  1  0.25495773  0.29160562  0.93273955  1.0
  F  F30  1  0.75495773  0.20839438  0.43273955  1.0
  F  F31  1  0.75495773  0.29160562  0.06726045  1.0
  F  F32  1  0.74504227  0.70839438  0.06726045  1.0
  F  F33  1  0.74504227  0.79160562  0.43273955  1.0
  F  F34  1  0.24504227  0.70839438  0.93273955  1.0
  F  F35  1  0.24504227  0.79160562  0.56726045  1.0
  F  F36  1  0.58150792  0.25000000  0.75000000  1.0
  F  F37  1  0.08150792  0.25000000  0.25000000  1.0
  F  F38  1  0.41849208  0.75000000  0.25000000  1.0
  F  F39  1  0.91849208  0.75000000  0.75000000  1.0
