# generated using pymatgen
data_Tb4Ni
_symmetry_space_group_name_H-M   'P 1'
_cell_length_a   7.57476361
_cell_length_b   7.57476361
_cell_length_c   7.57476361
_cell_angle_alpha   60.00000000
_cell_angle_beta   60.00000000
_cell_angle_gamma   60.00000000
_symmetry_Int_Tables_number   1
_chemical_formula_structural   Tb4Ni
_chemical_formula_sum   'Tb8 Ni2'
_cell_volume   307.32101239
_cell_formula_units_Z   2
loop_
 _symmetry_equiv_pos_site_id
 _symmetry_equiv_pos_as_xyz
  1  'x, y, z'
loop_
 _atom_site_type_symbol
 _atom_site_label
 _atom_site_symmetry_multiplicity
 _atom_site_fract_x
 _atom_site_fract_y
 _atom_site_fract_z
 _atom_site_occupancy
  Tb  Tb0  1  -0.11309451  0.88690549  0.33928354  1.0
  Tb  Tb1  1  0.88690549  -0.66071646  0.88690549  1.0
  Tb  Tb2  1  0.36309451  0.36309451  0.36309451  1.0
  Tb  Tb3  1  -0.08928354  0.36309451  0.36309451  1.0
  Tb  Tb4  1  -0.66071646  0.88690549  0.88690549  1.0
  Tb  Tb5  1  0.88690549  -0.11309451  0.88690549  1.0
  Tb  Tb6  1  0.36309451  -0.08928354  0.36309451  1.0
  Tb  Tb7  1  0.36309451  0.36309451  -0.08928354  1.0
  Ni  Ni8  1  0.50000000  0.50000000  -0.50000000  1.0
  Ni  Ni9  1  0.75000000  -0.25000000  0.75000000  1.0
