# generated using pymatgen
data_K2RuBr5NO
_symmetry_space_group_name_H-M   'P 1'
_cell_length_a   14.48646230
_cell_length_b   10.91195966
_cell_length_c   7.53242796
_cell_angle_alpha   90.00000000
_cell_angle_beta   90.00000000
_cell_angle_gamma   90.00000000
_symmetry_Int_Tables_number   1
_chemical_formula_structural   K2RuBr5NO
_chemical_formula_sum   'K8 Ru4 Br20 N4 O4'
_cell_volume   1190.69376384
_cell_formula_units_Z   4
loop_
 _symmetry_equiv_pos_site_id
 _symmetry_equiv_pos_as_xyz
  1  'x, y, z'
loop_
 _atom_site_type_symbol
 _atom_site_label
 _atom_site_symmetry_multiplicity
 _atom_site_fract_x
 _atom_site_fract_y
 _atom_site_fract_z
 _atom_site_occupancy
  K  K0  1  0.64913314  0.50026963  0.14209960  1.0
  K  K1  1  0.64913314  0.99973037  0.14209960  1.0
  K  K2  1  0.14913314  0.50026963  0.35790040  1.0
  K  K3  1  0.14913314  0.99973037  0.35790040  1.0
  K  K4  1  0.35086686  0.00026963  0.85790040  1.0
  K  K5  1  0.35086686  0.49973037  0.85790040  1.0
  K  K6  1  0.85086686  0.00026963  0.64209960  1.0
  K  K7  1  0.85086686  0.49973037  0.64209960  1.0
  Ru  Ru8  1  0.88887812  0.25000000  0.18633835  1.0
  Ru  Ru9  1  0.38887812  0.25000000  0.31366165  1.0
  Ru  Ru10  1  0.11112188  0.75000000  0.81366165  1.0
  Ru  Ru11  1  0.61112188  0.75000000  0.68633835  1.0
  Br  Br12  1  0.88476896  0.48383850  0.19460830  1.0
  Br  Br13  1  0.88476896  0.01616150  0.19460830  1.0
  Br  Br14  1  0.38476896  0.48383850  0.30539170  1.0
  Br  Br15  1  0.38476896  0.01616150  0.30539170  1.0
  Br  Br16  1  0.11523104  0.98383850  0.80539170  1.0
  Br  Br17  1  0.11523104  0.51616150  0.80539170  1.0
  Br  Br18  1  0.61523104  0.98383850  0.69460830  1.0
  Br  Br19  1  0.61523104  0.51616150  0.69460830  1.0
  Br  Br20  1  0.99222878  0.25000000  0.46192066  1.0
  Br  Br21  1  0.49222878  0.25000000  0.03807934  1.0
  Br  Br22  1  0.00777122  0.75000000  0.53807934  1.0
  Br  Br23  1  0.50777122  0.75000000  0.96192066  1.0
  Br  Br24  1  0.77719940  0.25000000  0.92181377  1.0
  Br  Br25  1  0.27719940  0.25000000  0.57818623  1.0
  Br  Br26  1  0.22280060  0.75000000  0.07818623  1.0
  Br  Br27  1  0.72280060  0.75000000  0.42181377  1.0
  Br  Br28  1  0.74830062  0.25000000  0.38908852  1.0
  Br  Br29  1  0.24830062  0.25000000  0.11091148  1.0
  Br  Br30  1  0.25169938  0.75000000  0.61091148  1.0
  Br  Br31  1  0.75169938  0.75000000  0.88908852  1.0
  N  N32  1  0.97939868  0.25000000  0.03748108  1.0
  N  N33  1  0.47939868  0.25000000  0.46251892  1.0
  N  N34  1  0.02060132  0.75000000  0.96251892  1.0
  N  N35  1  0.52060132  0.75000000  0.53748108  1.0
  O  O36  1  0.53575341  0.25000000  0.57136466  1.0
  O  O37  1  0.03575341  0.25000000  0.92863534  1.0
  O  O38  1  0.46424659  0.75000000  0.42863534  1.0
  O  O39  1  0.96424659  0.75000000  0.07136466  1.0
