# generated using pymatgen
data_La(BOs)2
_symmetry_space_group_name_H-M   'P 1'
_cell_length_a   6.86819832
_cell_length_b   6.07340920
_cell_length_c   5.66830765
_cell_angle_alpha   71.50277892
_cell_angle_beta   56.99227016
_cell_angle_gamma   51.50495092
_symmetry_Int_Tables_number   1
_chemical_formula_structural   La(BOs)2
_chemical_formula_sum   'La2 B4 Os4'
_cell_volume   155.10157314
_cell_formula_units_Z   2
loop_
 _symmetry_equiv_pos_site_id
 _symmetry_equiv_pos_as_xyz
  1  'x, y, z'
loop_
 _atom_site_type_symbol
 _atom_site_label
 _atom_site_symmetry_multiplicity
 _atom_site_fract_x
 _atom_site_fract_y
 _atom_site_fract_z
 _atom_site_occupancy
  La  La0  1  -0.25000000  0.75000000  0.75000000  1.0
  La  La1  1  0.00000000  0.00000000  0.00000000  1.0
  B  B2  1  0.43159981  0.06840019  1.43159981  1.0
  B  B3  1  0.06840019  0.43159981  1.06840019  1.0
  B  B4  1  -0.31840303  0.31840303  0.68159697  1.0
  B  B5  1  0.31840303  -0.31840303  1.31840303  1.0
  Os  Os6  1  0.36335181  0.36335181  -0.36335181  1.0
  Os  Os7  1  -0.36335181  0.63664819  0.36335181  1.0
  Os  Os8  1  0.11334957  0.11334957  1.38665043  1.0
  Os  Os9  1  0.38665043  0.38665043  1.11334957  1.0
