# generated using pymatgen
data_Na3(CuS)4
_symmetry_space_group_name_H-M   'P 1'
_cell_length_a   7.35521697
_cell_length_b   14.57689181
_cell_length_c   3.72337909
_cell_angle_alpha   90.00000000
_cell_angle_beta   90.00000000
_cell_angle_gamma   90.00000000
_symmetry_Int_Tables_number   1
_chemical_formula_structural   Na3(CuS)4
_chemical_formula_sum   'Na6 Cu8 S8'
_cell_volume   399.20656474
_cell_formula_units_Z   2
loop_
 _symmetry_equiv_pos_site_id
 _symmetry_equiv_pos_as_xyz
  1  'x, y, z'
loop_
 _atom_site_type_symbol
 _atom_site_label
 _atom_site_symmetry_multiplicity
 _atom_site_fract_x
 _atom_site_fract_y
 _atom_site_fract_z
 _atom_site_occupancy
  Na  Na0  1  0.46563766  0.73775005  0.50000000  1.0
  Na  Na1  1  0.96563766  0.76224995  0.50000000  1.0
  Na  Na2  1  0.53436234  0.26224995  0.50000000  1.0
  Na  Na3  1  0.03436234  0.23775005  0.50000000  1.0
  Na  Na4  1  0.50000000  0.50000000  0.00000000  1.0
  Na  Na5  1  0.00000000  0.00000000  0.00000000  1.0
  Cu  Cu6  1  0.16424806  0.55533214  0.50000000  1.0
  Cu  Cu7  1  0.66424806  0.94466786  0.50000000  1.0
  Cu  Cu8  1  0.83575194  0.44466786  0.50000000  1.0
  Cu  Cu9  1  0.33575194  0.05533214  0.50000000  1.0
  Cu  Cu10  1  0.41301071  0.91462516  0.00000000  1.0
  Cu  Cu11  1  0.91301071  0.58537484  0.00000000  1.0
  Cu  Cu12  1  0.58698929  0.08537484  0.00000000  1.0
  Cu  Cu13  1  0.08698929  0.41462516  0.00000000  1.0
  S  S14  1  0.23613299  0.90493530  0.50000000  1.0
  S  S15  1  0.73613299  0.59506470  0.50000000  1.0
  S  S16  1  0.76386701  0.09506470  0.50000000  1.0
  S  S17  1  0.26386701  0.40493530  0.50000000  1.0
  S  S18  1  0.20293219  0.64715932  -0.00000000  1.0
  S  S19  1  0.70293219  0.85284068  0.00000000  1.0
  S  S20  1  0.79706781  0.35284068  -0.00000000  1.0
  S  S21  1  0.29706781  0.14715932  0.00000000  1.0
