# generated using pymatgen
data_SiO2
_symmetry_space_group_name_H-M   'P 1'
_cell_length_a   11.01584312
_cell_length_b   11.01584312
_cell_length_c   11.01584312
_cell_angle_alpha   114.34436010
_cell_angle_beta   114.34436010
_cell_angle_gamma   114.34436010
_symmetry_Int_Tables_number   1
_chemical_formula_structural   SiO2
_chemical_formula_sum   'Si12 O24'
_cell_volume   790.98573462
_cell_formula_units_Z   12
loop_
 _symmetry_equiv_pos_site_id
 _symmetry_equiv_pos_as_xyz
  1  'x, y, z'
loop_
 _atom_site_type_symbol
 _atom_site_label
 _atom_site_symmetry_multiplicity
 _atom_site_fract_x
 _atom_site_fract_y
 _atom_site_fract_z
 _atom_site_occupancy
  Si  Si0  1  0.95647989  0.52818001  0.36113086  1.0
  Si  Si1  1  0.52818001  0.36113086  -0.04352011  1.0
  Si  Si2  1  1.36113086  0.95647989  0.52818001  1.0
  Si  Si3  1  0.45647989  0.86113086  0.02818001  1.0
  Si  Si4  1  0.86113086  1.02818001  0.45647989  1.0
  Si  Si5  1  1.02818001  -0.54352011  -0.13886914  1.0
  Si  Si6  1  1.04352011  -0.52818001  -0.36113086  1.0
  Si  Si7  1  0.47181999  0.63886914  0.04352011  1.0
  Si  Si8  1  1.63886914  0.04352011  0.47181999  1.0
  Si  Si9  1  0.54352011  0.13886914  -0.02818001  1.0
  Si  Si10  1  1.13886914  0.97181999  0.54352011  1.0
  Si  Si11  1  0.97181999  0.54352011  0.13886914  1.0
  O  O12  1  1.02006236  0.47993764  0.25000000  1.0
  O  O13  1  0.47993764  0.25000000  0.02006236  1.0
  O  O14  1  1.25000000  1.02006236  0.47993764  1.0
  O  O15  1  0.52006236  0.75000000  -0.02006236  1.0
  O  O16  1  0.75000000  0.97993764  0.52006236  1.0
  O  O17  1  0.97993764  -0.47993764  -0.25000000  1.0
  O  O18  1  0.31950189  0.18049811  -0.25000000  1.0
  O  O19  1  1.18049811  0.75000000  0.31950189  1.0
  O  O20  1  0.75000000  0.31950189  0.18049811  1.0
  O  O21  1  1.81950189  0.25000000  0.68049811  1.0
  O  O22  1  0.25000000  0.68049811  -0.18049811  1.0
  O  O23  1  0.68049811  0.81950189  0.25000000  1.0
  O  O24  1  0.75000000  0.46692161  0.03307839  1.0
  O  O25  1  0.46692161  0.03307839  -0.25000000  1.0
  O  O26  1  1.03307839  0.75000000  0.46692161  1.0
  O  O27  1  0.25000000  0.53307839  -0.03307839  1.0
  O  O28  1  1.53307839  -0.03307839  0.25000000  1.0
  O  O29  1  0.96692161  1.25000000  0.53307839  1.0
  O  O30  1  1.00000000  0.50000000  0.50000000  1.0
  O  O31  1  0.50000000  0.50000000  0.00000000  1.0
  O  O32  1  1.50000000  -0.00000000  0.50000000  1.0
  O  O33  1  0.50000000  -0.00000000  -0.00000000  1.0
  O  O34  1  1.00000000  1.00000000  0.50000000  1.0
  O  O35  1  1.00000000  -0.50000000  -0.00000000  1.0
