# generated using pymatgen
data_FeBiO3
_symmetry_space_group_name_H-M   'P 1'
_cell_length_a   5.76179447
_cell_length_b   7.73857281
_cell_length_c   5.43176256
_cell_angle_alpha   90.00000000
_cell_angle_beta   90.00000000
_cell_angle_gamma   90.00000000
_symmetry_Int_Tables_number   1
_chemical_formula_structural   FeBiO3
_chemical_formula_sum   'Fe4 Bi4 O12'
_cell_volume   242.19178771
_cell_formula_units_Z   4
loop_
 _symmetry_equiv_pos_site_id
 _symmetry_equiv_pos_as_xyz
  1  'x, y, z'
loop_
 _atom_site_type_symbol
 _atom_site_label
 _atom_site_symmetry_multiplicity
 _atom_site_fract_x
 _atom_site_fract_y
 _atom_site_fract_z
 _atom_site_occupancy
  Fe  Fe0  1  0.50000000  0.00000000  0.50000000  1.0
  Fe  Fe1  1  0.50000000  0.50000000  0.50000000  1.0
  Fe  Fe2  1  0.00000000  0.00000000  0.00000000  1.0
  Fe  Fe3  1  0.00000000  0.50000000  0.00000000  1.0
  Bi  Bi4  1  0.06521418  0.75000000  0.51049211  1.0
  Bi  Bi5  1  0.56521418  0.75000000  0.98950789  1.0
  Bi  Bi6  1  0.93478582  0.25000000  0.48950789  1.0
  Bi  Bi7  1  0.43478582  0.25000000  0.01049211  1.0
  O  O8  1  0.31197945  0.95698446  0.79304138  1.0
  O  O9  1  0.31197945  0.54301554  0.79304138  1.0
  O  O10  1  0.81197945  0.95698446  0.70695862  1.0
  O  O11  1  0.81197945  0.54301554  0.70695862  1.0
  O  O12  1  0.68802055  0.45698446  0.20695862  1.0
  O  O13  1  0.68802055  0.04301554  0.20695862  1.0
  O  O14  1  0.18802055  0.45698446  0.29304138  1.0
  O  O15  1  0.18802055  0.04301554  0.29304138  1.0
  O  O16  1  0.97962495  0.75000000  0.08835413  1.0
  O  O17  1  0.47962495  0.75000000  0.41164587  1.0
  O  O18  1  0.02037505  0.25000000  0.91164587  1.0
  O  O19  1  0.52037505  0.25000000  0.58835413  1.0
