# generated using pymatgen
data_V2HgO6
_symmetry_space_group_name_H-M   'P 1'
_cell_length_a   4.95621456
_cell_length_b   14.48681072
_cell_length_c   6.15866680
_cell_angle_alpha   90.00000000
_cell_angle_beta   90.00000000
_cell_angle_gamma   90.00000000
_symmetry_Int_Tables_number   1
_chemical_formula_structural   V2HgO6
_chemical_formula_sum   'V8 Hg4 O24'
_cell_volume   442.19068856
_cell_formula_units_Z   4
loop_
 _symmetry_equiv_pos_site_id
 _symmetry_equiv_pos_as_xyz
  1  'x, y, z'
loop_
 _atom_site_type_symbol
 _atom_site_label
 _atom_site_symmetry_multiplicity
 _atom_site_fract_x
 _atom_site_fract_y
 _atom_site_fract_z
 _atom_site_occupancy
  V  V0  1  0.04756796  0.32945232  -0.06002186  1.0
  V  V1  1  0.04756796  0.17054768  0.43997814  1.0
  V  V2  1  0.54756796  0.32945232  0.56002186  1.0
  V  V3  1  0.54756796  0.17054768  1.06002186  1.0
  V  V4  1  0.95243204  0.82945232  0.56002186  1.0
  V  V5  1  0.95243204  0.67054768  1.06002186  1.0
  V  V6  1  0.45243204  0.82945232  -0.06002186  1.0
  V  V7  1  0.45243204  0.67054768  0.43997814  1.0
  Hg  Hg8  1  0.50000000  0.50000000  0.00000000  1.0
  Hg  Hg9  1  0.50000000  0.00000000  0.50000000  1.0
  Hg  Hg10  1  0.00000000  0.50000000  0.50000000  1.0
  Hg  Hg11  1  0.00000000  0.00000000  0.00000000  1.0
  O  O12  1  0.34585869  0.10902621  0.32119051  1.0
  O  O13  1  0.34585869  0.39097379  0.82119051  1.0
  O  O14  1  0.84585869  0.10902621  0.17880949  1.0
  O  O15  1  0.84585869  0.39097379  0.67880949  1.0
  O  O16  1  0.65414131  0.60902621  0.17880949  1.0
  O  O17  1  0.65414131  0.89097379  0.67880949  1.0
  O  O18  1  0.15414131  0.60902621  0.32119051  1.0
  O  O19  1  0.15414131  0.89097379  0.82119051  1.0
  O  O20  1  0.44957856  0.40300500  0.38016534  1.0
  O  O21  1  0.44957856  0.09699500  0.88016534  1.0
  O  O22  1  0.94957856  0.40300500  0.11983466  1.0
  O  O23  1  0.94957856  0.09699500  0.61983466  1.0
  O  O24  1  0.55042144  0.90300500  0.11983466  1.0
  O  O25  1  0.55042144  0.59699500  0.61983466  1.0
  O  O26  1  0.05042144  0.90300500  0.38016534  1.0
  O  O27  1  0.05042144  0.59699500  0.88016534  1.0
  O  O28  1  0.24222386  0.24843793  0.09224790  1.0
  O  O29  1  0.24222386  0.25156207  0.59224790  1.0
  O  O30  1  0.74222386  0.24843793  0.40775210  1.0
  O  O31  1  0.74222386  0.25156207  0.90775210  1.0
  O  O32  1  0.75777614  0.74843793  0.40775210  1.0
  O  O33  1  0.75777614  0.75156207  0.90775210  1.0
  O  O34  1  0.25777614  0.74843793  0.09224790  1.0
  O  O35  1  0.25777614  0.75156207  0.59224790  1.0
