# generated using pymatgen
data_In3Ru
_symmetry_space_group_name_H-M   'P 1'
_cell_length_a   7.09252555
_cell_length_b   7.09252555
_cell_length_c   7.34857162
_cell_angle_alpha   90.00000000
_cell_angle_beta   90.00000000
_cell_angle_gamma   90.00000000
_symmetry_Int_Tables_number   1
_chemical_formula_structural   In3Ru
_chemical_formula_sum   'In12 Ru4'
_cell_volume   369.66194868
_cell_formula_units_Z   4
loop_
 _symmetry_equiv_pos_site_id
 _symmetry_equiv_pos_as_xyz
  1  'x, y, z'
loop_
 _atom_site_type_symbol
 _atom_site_label
 _atom_site_symmetry_multiplicity
 _atom_site_fract_x
 _atom_site_fract_y
 _atom_site_fract_z
 _atom_site_occupancy
  In  In0  1  0.50000000  0.00000000  0.50000000  1.0
  In  In1  1  0.00000000  0.50000000  0.00000000  1.0
  In  In2  1  0.00000000  0.50000000  0.50000000  1.0
  In  In3  1  0.50000000  0.00000000  0.00000000  1.0
  In  In4  1  0.15593291  0.84406709  0.23693861  1.0
  In  In5  1  0.15593291  0.84406709  0.76306139  1.0
  In  In6  1  0.65593291  0.65593291  0.73693861  1.0
  In  In7  1  0.65593291  0.65593291  0.26306139  1.0
  In  In8  1  0.84406709  0.15593291  0.23693861  1.0
  In  In9  1  0.84406709  0.15593291  0.76306139  1.0
  In  In10  1  0.34406709  0.34406709  0.73693861  1.0
  In  In11  1  0.34406709  0.34406709  0.26306139  1.0
  Ru  Ru12  1  0.34495321  0.65504679  0.50000000  1.0
  Ru  Ru13  1  0.84495321  0.84495321  0.00000000  1.0
  Ru  Ru14  1  0.65504679  0.34495321  0.50000000  1.0
  Ru  Ru15  1  0.15504679  0.15504679  0.00000000  1.0
