# generated using pymatgen
data_CoSn2H12(OF)6
_symmetry_space_group_name_H-M   'P 1'
_cell_length_a   6.79835240
_cell_length_b   7.31333153
_cell_length_c   7.06211970
_cell_angle_alpha   74.12074071
_cell_angle_beta   72.02244874
_cell_angle_gamma   79.97500344
_symmetry_Int_Tables_number   1
_chemical_formula_structural   CoSn2H12(OF)6
_chemical_formula_sum   'Co1 Sn2 H12 O6 F6'
_cell_volume   319.68658390
_cell_formula_units_Z   1
loop_
 _symmetry_equiv_pos_site_id
 _symmetry_equiv_pos_as_xyz
  1  'x, y, z'
loop_
 _atom_site_type_symbol
 _atom_site_label
 _atom_site_symmetry_multiplicity
 _atom_site_fract_x
 _atom_site_fract_y
 _atom_site_fract_z
 _atom_site_occupancy
  Co  Co0  1  0.00000000  0.00000000  0.00000000  1.0
  Sn  Sn1  1  0.65163683  0.64663584  0.69127570  1.0
  Sn  Sn2  1  0.34836317  0.35336416  0.30872430  1.0
  H  H3  1  0.92339620  0.63598238  0.19573025  1.0
  H  H4  1  0.07660380  0.36401762  0.80426975  1.0
  H  H5  1  0.73438379  0.73221226  0.10532334  1.0
  H  H6  1  0.26561621  0.26778774  0.89467666  1.0
  H  H7  1  0.75064862  0.04572135  0.75546755  1.0
  H  H8  1  0.24935138  0.95427865  0.24453245  1.0
  H  H9  1  0.65324720  0.18205324  0.91260137  1.0
  H  H10  1  0.34675280  0.81794676  0.08739863  1.0
  H  H11  1  0.21764288  0.92898491  0.63597925  1.0
  H  H12  1  0.78235712  0.07101509  0.36402075  1.0
  H  H13  1  0.09516032  0.74845535  0.75789768  1.0
  H  H14  1  0.90483968  0.25154465  0.24210232  1.0
  O  O15  1  0.83369054  0.75750015  0.17017081  1.0
  O  O16  1  0.16630946  0.24249985  0.82982919  1.0
  O  O17  1  0.78407540  0.11567754  0.84225776  1.0
  O  O18  1  0.21592460  0.88432246  0.15774224  1.0
  O  O19  1  0.17768445  0.84013386  0.77303866  1.0
  O  O20  1  0.82231555  0.15986614  0.22696134  1.0
  F  F21  1  0.95335832  0.58337716  0.73463896  1.0
  F  F22  1  0.04664168  0.41662284  0.26536104  1.0
  F  F23  1  0.70851417  0.93666670  0.60087576  1.0
  F  F24  1  0.29148583  0.06333330  0.39912424  1.0
  F  F25  1  0.56114360  0.68782815  0.99544077  1.0
  F  F26  1  0.43885640  0.31217185  0.00455923  1.0
