# generated using pymatgen
data_Li7VN4
_symmetry_space_group_name_H-M   'P 1'
_cell_length_a   6.74801787
_cell_length_b   6.74801787
_cell_length_c   4.87395122
_cell_angle_alpha   90.00000000
_cell_angle_beta   90.00000000
_cell_angle_gamma   90.00000000
_symmetry_Int_Tables_number   1
_chemical_formula_structural   Li7VN4
_chemical_formula_sum   'Li14 V2 N8'
_cell_volume   221.93900079
_cell_formula_units_Z   2
loop_
 _symmetry_equiv_pos_site_id
 _symmetry_equiv_pos_as_xyz
  1  'x, y, z'
loop_
 _atom_site_type_symbol
 _atom_site_label
 _atom_site_symmetry_multiplicity
 _atom_site_fract_x
 _atom_site_fract_y
 _atom_site_fract_z
 _atom_site_occupancy
  Li  Li0  1  0.76321521  0.23678479  0.00000000  1.0
  Li  Li1  1  0.23678479  0.23678479  0.00000000  1.0
  Li  Li2  1  0.76321521  0.76321521  0.00000000  1.0
  Li  Li3  1  0.23678479  0.76321521  0.00000000  1.0
  Li  Li4  1  0.73678479  0.26321521  0.50000000  1.0
  Li  Li5  1  0.26321521  0.26321521  0.50000000  1.0
  Li  Li6  1  0.73678479  0.73678479  0.50000000  1.0
  Li  Li7  1  0.26321521  0.73678479  0.50000000  1.0
  Li  Li8  1  0.50000000  0.00000000  0.41203170  1.0
  Li  Li9  1  0.50000000  0.00000000  0.91203170  1.0
  Li  Li10  1  0.00000000  0.50000000  0.08796830  1.0
  Li  Li11  1  0.00000000  0.50000000  0.58796830  1.0
  Li  Li12  1  0.50000000  0.50000000  0.50000000  1.0
  Li  Li13  1  0.00000000  0.00000000  0.00000000  1.0
  V  V14  1  0.00000000  0.00000000  0.50000000  1.0
  V  V15  1  0.50000000  0.50000000  0.00000000  1.0
  N  N16  1  0.22485665  0.00000000  0.71191999  1.0
  N  N17  1  0.77514335  0.00000000  0.71191999  1.0
  N  N18  1  0.50000000  0.72485665  0.21191999  1.0
  N  N19  1  0.50000000  0.27514335  0.21191999  1.0
  N  N20  1  0.27514335  0.50000000  0.78808001  1.0
  N  N21  1  0.72485665  0.50000000  0.78808001  1.0
  N  N22  1  0.00000000  0.77514335  0.28808001  1.0
  N  N23  1  0.00000000  0.22485665  0.28808001  1.0
