# generated using pymatgen
data_Nb3Br8
_symmetry_space_group_name_H-M   'P 1'
_cell_length_a   14.56634386
_cell_length_b   14.56634386
_cell_length_c   14.56634386
_cell_angle_alpha   28.43935032
_cell_angle_beta   28.43935032
_cell_angle_gamma   28.43935032
_symmetry_Int_Tables_number   1
_chemical_formula_structural   Nb3Br8
_chemical_formula_sum   'Nb6 Br16'
_cell_volume   619.48187576
_cell_formula_units_Z   2
loop_
 _symmetry_equiv_pos_site_id
 _symmetry_equiv_pos_as_xyz
  1  'x, y, z'
loop_
 _atom_site_type_symbol
 _atom_site_label
 _atom_site_symmetry_multiplicity
 _atom_site_fract_x
 _atom_site_fract_y
 _atom_site_fract_z
 _atom_site_occupancy
  Nb  Nb0  1  1.05133349  1.05133349  0.64746753  1.0
  Nb  Nb1  1  1.05133349  1.64746753  0.05133349  1.0
  Nb  Nb2  1  1.35253247  0.94866651  -0.05133349  1.0
  Nb  Nb3  1  0.94866651  1.35253247  -0.05133349  1.0
  Nb  Nb4  1  0.94866651  0.94866651  0.35253247  1.0
  Nb  Nb5  1  1.64746753  1.05133349  0.05133349  1.0
  Br  Br6  1  1.38418625  0.38418625  0.87891247  1.0
  Br  Br7  1  1.38418625  0.87891247  0.38418625  1.0
  Br  Br8  1  1.12108753  0.61581375  0.61581375  1.0
  Br  Br9  1  1.61581375  0.12108753  0.61581375  1.0
  Br  Br10  1  1.61581375  0.61581375  0.12108753  1.0
  Br  Br11  1  1.87891247  0.38418625  0.38418625  1.0
  Br  Br12  1  1.20579303  0.20579303  0.71208291  1.0
  Br  Br13  1  1.20579303  0.71208291  0.20579303  1.0
  Br  Br14  1  1.28791709  0.79420697  0.79420697  1.0
  Br  Br15  1  1.79420697  0.28791709  0.79420697  1.0
  Br  Br16  1  1.79420697  0.79420697  0.28791709  1.0
  Br  Br17  1  0.71208291  1.20579303  0.20579303  1.0
  Br  Br18  1  0.86943929  0.86943929  0.86943929  1.0
  Br  Br19  1  1.13056071  1.13056071  0.13056071  1.0
  Br  Br20  1  0.71642304  0.71642304  0.71642304  1.0
  Br  Br21  1  1.28357696  1.28357696  0.28357696  1.0
