# generated using pymatgen
data_LiSbS2
_symmetry_space_group_name_H-M   'P 1'
_cell_length_a   8.71745720
_cell_length_b   8.71745720
_cell_length_c   8.71745720
_cell_angle_alpha   107.73235913
_cell_angle_beta   107.73235913
_cell_angle_gamma   107.73235913
_symmetry_Int_Tables_number   1
_chemical_formula_structural   LiSbS2
_chemical_formula_sum   'Li6 Sb6 S12'
_cell_volume   540.31454099
_cell_formula_units_Z   6
loop_
 _symmetry_equiv_pos_site_id
 _symmetry_equiv_pos_as_xyz
  1  'x, y, z'
loop_
 _atom_site_type_symbol
 _atom_site_label
 _atom_site_symmetry_multiplicity
 _atom_site_fract_x
 _atom_site_fract_y
 _atom_site_fract_z
 _atom_site_occupancy
  Li  Li0  1  0.91394701  0.74565461  0.31237193  1.0
  Li  Li1  1  1.25434539  -0.31237193  0.08605299  1.0
  Li  Li2  1  0.68762807  0.08605299  0.25434539  1.0
  Li  Li3  1  1.08605299  0.25434539  -0.31237193  1.0
  Li  Li4  1  0.74565461  1.31237193  -0.08605299  1.0
  Li  Li5  1  1.31237193  0.91394701  -0.25434539  1.0
  Sb  Sb6  1  1.55815049  0.62725508  -0.14664513  1.0
  Sb  Sb7  1  0.37274492  1.14664513  -0.55815049  1.0
  Sb  Sb8  1  1.14664513  0.44184951  -0.62725508  1.0
  Sb  Sb9  1  0.44184951  0.37274492  0.14664513  1.0
  Sb  Sb10  1  1.62725508  -0.14664513  0.55815049  1.0
  Sb  Sb11  1  0.85335487  0.55815049  0.62725508  1.0
  S  S12  1  1.63584127  0.94321511  -0.13797595  1.0
  S  S13  1  1.05678489  0.13797595  -0.63584127  1.0
  S  S14  1  1.13797595  -0.63584127  0.05678489  1.0
  S  S15  1  0.36415873  0.05678489  0.13797595  1.0
  S  S16  1  0.94321511  0.86202405  0.63584127  1.0
  S  S17  1  0.86202405  1.63584127  -0.05678489  1.0
  S  S18  1  0.58831504  0.74175790  0.15819538  1.0
  S  S19  1  1.25824210  -0.15819538  0.41168496  1.0
  S  S20  1  0.84180462  0.41168496  0.25824210  1.0
  S  S21  1  1.41168496  0.25824210  -0.15819538  1.0
  S  S22  1  0.74175790  1.15819538  -0.41168496  1.0
  S  S23  1  1.15819538  0.58831504  -0.25824210  1.0
