# generated using pymatgen
data_In3Te3Br
_symmetry_space_group_name_H-M   'P 1'
_cell_length_a   11.87430213
_cell_length_b   4.39458451
_cell_length_c   20.66976532
_cell_angle_alpha   90.00000000
_cell_angle_beta   90.00000000
_cell_angle_gamma   90.00000000
_symmetry_Int_Tables_number   1
_chemical_formula_structural   In3Te3Br
_chemical_formula_sum   'In12 Te12 Br4'
_cell_volume   1078.60259538
_cell_formula_units_Z   4
loop_
 _symmetry_equiv_pos_site_id
 _symmetry_equiv_pos_as_xyz
  1  'x, y, z'
loop_
 _atom_site_type_symbol
 _atom_site_label
 _atom_site_symmetry_multiplicity
 _atom_site_fract_x
 _atom_site_fract_y
 _atom_site_fract_z
 _atom_site_occupancy
  In  In0  1  0.94763123  0.75000000  0.60472678  1.0
  In  In1  1  0.44763123  0.75000000  0.89527322  1.0
  In  In2  1  0.05236877  0.25000000  0.39527322  1.0
  In  In3  1  0.55236877  0.25000000  0.10472678  1.0
  In  In4  1  0.84321754  0.75000000  0.13519574  1.0
  In  In5  1  0.34321754  0.75000000  0.36480426  1.0
  In  In6  1  0.15678246  0.25000000  0.86480426  1.0
  In  In7  1  0.65678246  0.25000000  0.63519574  1.0
  In  In8  1  0.82012290  0.75000000  0.48965409  1.0
  In  In9  1  0.32012290  0.75000000  0.01034591  1.0
  In  In10  1  0.17987710  0.25000000  0.51034591  1.0
  In  In11  1  0.67987710  0.25000000  0.98965409  1.0
  Te  Te12  1  0.90689560  0.75000000  0.36030722  1.0
  Te  Te13  1  0.40689560  0.75000000  0.13969278  1.0
  Te  Te14  1  0.09310440  0.25000000  0.63969278  1.0
  Te  Te15  1  0.59310440  0.25000000  0.86030722  1.0
  Te  Te16  1  0.83905407  0.75000000  -0.00269737  1.0
  Te  Te17  1  0.33905407  0.75000000  0.50269737  1.0
  Te  Te18  1  0.16094593  0.25000000  0.00269737  1.0
  Te  Te19  1  0.66094593  0.25000000  0.49730263  1.0
  Te  Te20  1  0.76580900  0.75000000  0.69843935  1.0
  Te  Te21  1  0.26580900  0.75000000  0.80156065  1.0
  Te  Te22  1  0.23419100  0.25000000  0.30156065  1.0
  Te  Te23  1  0.73419100  0.25000000  0.19843935  1.0
  Br  Br24  1  0.55028137  0.75000000  0.33051838  1.0
  Br  Br25  1  0.05028137  0.75000000  0.16948162  1.0
  Br  Br26  1  0.44971863  0.25000000  0.66948162  1.0
  Br  Br27  1  0.94971863  0.25000000  0.83051838  1.0
