# generated using pymatgen
data_V2Cd(P2O7)2
_symmetry_space_group_name_H-M   'P 1'
_cell_length_a   7.91955122
_cell_length_b   7.04192606
_cell_length_c   4.86236951
_cell_angle_alpha   106.08373291
_cell_angle_beta   93.11487149
_cell_angle_gamma   89.68686381
_symmetry_Int_Tables_number   1
_chemical_formula_structural   V2Cd(P2O7)2
_chemical_formula_sum   'V2 Cd1 P4 O14'
_cell_volume   260.15689684
_cell_formula_units_Z   1
loop_
 _symmetry_equiv_pos_site_id
 _symmetry_equiv_pos_as_xyz
  1  'x, y, z'
loop_
 _atom_site_type_symbol
 _atom_site_label
 _atom_site_symmetry_multiplicity
 _atom_site_fract_x
 _atom_site_fract_y
 _atom_site_fract_z
 _atom_site_occupancy
  V  V0  1  0.50000000  0.50000000  -0.50000000  1.0
  V  V1  1  0.00000000  0.00000000  0.00000000  1.0
  Cd  Cd2  1  0.50000000  0.00000000  0.00000000  1.0
  P  P3  1  0.25200161  0.61630422  -0.98118725  1.0
  P  P4  1  0.74799839  0.38369578  -0.01881275  1.0
  P  P5  1  0.78201556  0.78735543  -0.61390314  1.0
  P  P6  1  0.21798444  0.21264457  -0.38609686  1.0
  O  O7  1  0.12307827  0.77929597  -0.92586264  1.0
  O  O8  1  0.87692173  0.22070403  -0.07413736  1.0
  O  O9  1  0.58972753  0.32660572  -0.87651243  1.0
  O  O10  1  0.41027247  0.67339428  -0.12348757  1.0
  O  O11  1  0.77328166  0.91781818  -0.82548332  1.0
  O  O12  1  0.22671834  0.08218182  -0.17451668  1.0
  O  O13  1  0.83757417  0.56698668  -0.78701130  1.0
  O  O14  1  0.16242583  0.43301332  -0.21298870  1.0
  O  O15  1  0.29870690  0.55355534  -0.71084240  1.0
  O  O16  1  0.70129310  0.44644466  -0.28915760  1.0
  O  O17  1  0.60366344  0.77063436  -0.50306961  1.0
  O  O18  1  0.39633656  0.22936564  -0.49693039  1.0
  O  O19  1  0.92256284  0.84589318  -0.38161694  1.0
  O  O20  1  0.07743716  0.15410682  -0.61838306  1.0
