# generated using pymatgen
data_YFeCl2O3
_symmetry_space_group_name_H-M   'P 1'
_cell_length_a   8.91846460
_cell_length_b   8.91846460
_cell_length_c   11.19176930
_cell_angle_alpha   51.66290421
_cell_angle_beta   128.33709579
_cell_angle_gamma   157.71032198
_symmetry_Int_Tables_number   1
_chemical_formula_structural   YFeCl2O3
_chemical_formula_sum   'Y2 Fe2 Cl4 O6'
_cell_volume   261.60014335
_cell_formula_units_Z   2
loop_
 _symmetry_equiv_pos_site_id
 _symmetry_equiv_pos_as_xyz
  1  'x, y, z'
loop_
 _atom_site_type_symbol
 _atom_site_label
 _atom_site_symmetry_multiplicity
 _atom_site_fract_x
 _atom_site_fract_y
 _atom_site_fract_z
 _atom_site_occupancy
  O  O0  1  0.77094512  0.22905488  0.58106007  1.0
  O  O1  1  1.22905488  -0.22905488  0.41893993  1.0
  O  O2  1  0.97568821  -0.97568821  0.82116948  1.0
  O  O3  1  0.02431179  -0.02431179  0.17883052  1.0
  O  O4  1  0.91079775  -0.91079775  0.52632361  1.0
  O  O5  1  0.08920225  -0.08920225  0.47367639  1.0
  Y  Y6  1  1.38902808  -0.38902808  0.64092390  1.0
  Y  Y7  1  0.61097192  0.38902808  0.35907610  1.0
  Fe  Fe8  1  0.00000000  0.00000000  0.00000000  1.0
  Fe  Fe9  1  0.00000000  -0.00000000  0.50000000  1.0
  Cl  Cl10  1  0.37385695  -0.37385695  0.89788260  1.0
  Cl  Cl11  1  0.62614305  -0.62614305  0.10211740  1.0
  Cl  Cl12  1  0.58829014  0.41170986  0.69728886  1.0
  Cl  Cl13  1  1.41170986  -0.41170986  0.30271114  1.0
