# generated using pymatgen
data_RbSrCl3
_symmetry_space_group_name_H-M   'P 1'
_cell_length_a   8.05353937
_cell_length_b   11.08949505
_cell_length_c   7.74138012
_cell_angle_alpha   90.00000000
_cell_angle_beta   90.00499660
_cell_angle_gamma   90.00000000
_symmetry_Int_Tables_number   1
_chemical_formula_structural   RbSrCl3
_chemical_formula_sum   'Rb4 Sr4 Cl12'
_cell_volume   691.38021744
_cell_formula_units_Z   4
loop_
 _symmetry_equiv_pos_site_id
 _symmetry_equiv_pos_as_xyz
  1  'x, y, z'
loop_
 _atom_site_type_symbol
 _atom_site_label
 _atom_site_symmetry_multiplicity
 _atom_site_fract_x
 _atom_site_fract_y
 _atom_site_fract_z
 _atom_site_occupancy
  Rb  Rb0  1  1.06119969  0.25000000  0.47963470  1.0
  Rb  Rb1  1  -0.06119969  0.75000000  0.52036530  1.0
  Rb  Rb2  1  0.56121998  0.25000000  1.02015052  1.0
  Rb  Rb3  1  0.43878002  0.75000000  -0.02015052  1.0
  Sr  Sr4  1  0.50000000  0.50000000  0.50000000  1.0
  Sr  Sr5  1  0.50000000  0.00000000  0.50000000  1.0
  Sr  Sr6  1  0.00000000  0.50000000  0.00000000  1.0
  Sr  Sr7  1  0.00000000  0.00000000  0.00000000  1.0
  Cl  Cl8  1  0.79475688  0.44541036  0.29786267  1.0
  Cl  Cl9  1  0.79475688  0.05458964  0.29786267  1.0
  Cl  Cl10  1  0.20524312  0.94541036  0.70213733  1.0
  Cl  Cl11  1  0.20524312  0.55458964  0.70213733  1.0
  Cl  Cl12  1  0.70522939  0.94530894  0.79788890  1.0
  Cl  Cl13  1  0.70522939  0.55469106  0.79788890  1.0
  Cl  Cl14  1  0.29477061  0.44530894  0.20211110  1.0
  Cl  Cl15  1  0.29477061  0.05469106  0.20211110  1.0
  Cl  Cl16  1  0.96389315  0.25000000  0.89695132  1.0
  Cl  Cl17  1  0.03610685  0.75000000  0.10304868  1.0
  Cl  Cl18  1  0.46405843  0.25000000  0.60289404  1.0
  Cl  Cl19  1  0.53594157  0.75000000  0.39710596  1.0
