# generated using pymatgen
data_ScCoGe
_symmetry_space_group_name_H-M   'P 1'
_cell_length_a   6.49219384
_cell_length_b   4.06712947
_cell_length_c   7.00267285
_cell_angle_alpha   90.00000000
_cell_angle_beta   90.00000000
_cell_angle_gamma   90.00000000
_symmetry_Int_Tables_number   1
_chemical_formula_structural   ScCoGe
_chemical_formula_sum   'Sc4 Co4 Ge4'
_cell_volume   184.90272566
_cell_formula_units_Z   4
loop_
 _symmetry_equiv_pos_site_id
 _symmetry_equiv_pos_as_xyz
  1  'x, y, z'
loop_
 _atom_site_type_symbol
 _atom_site_label
 _atom_site_symmetry_multiplicity
 _atom_site_fract_x
 _atom_site_fract_y
 _atom_site_fract_z
 _atom_site_occupancy
  Sc  Sc0  1  1.00401465  0.75000000  0.70002271  1.0
  Sc  Sc1  1  0.50401465  0.75000000  0.79997729  1.0
  Sc  Sc2  1  -0.00401465  0.25000000  0.29997729  1.0
  Sc  Sc3  1  0.49598535  0.25000000  0.20002271  1.0
  Co  Co4  1  0.84706908  0.75000000  0.06062679  1.0
  Co  Co5  1  0.34706908  0.75000000  0.43937321  1.0
  Co  Co6  1  0.15293092  0.25000000  0.93937321  1.0
  Co  Co7  1  0.65293092  0.25000000  0.56062679  1.0
  Ge  Ge8  1  0.71398622  0.75000000  0.39099291  1.0
  Ge  Ge9  1  0.21398622  0.75000000  0.10900709  1.0
  Ge  Ge10  1  0.28601378  0.25000000  0.60900709  1.0
  Ge  Ge11  1  0.78601378  0.25000000  0.89099291  1.0
