# generated using pymatgen
data_Rb2LaTa6(Br5O)3
_symmetry_space_group_name_H-M   'P 1'
_cell_length_a   9.60634671
_cell_length_b   9.60634671
_cell_length_c   18.51256979
_cell_angle_alpha   90.00000000
_cell_angle_beta   90.00000000
_cell_angle_gamma   120.00000000
_symmetry_Int_Tables_number   1
_chemical_formula_structural   Rb2LaTa6(Br5O)3
_chemical_formula_sum   'Rb4 La2 Ta12 Br30 O6'
_cell_volume   1479.49620146
_cell_formula_units_Z   2
loop_
 _symmetry_equiv_pos_site_id
 _symmetry_equiv_pos_as_xyz
  1  'x, y, z'
loop_
 _atom_site_type_symbol
 _atom_site_label
 _atom_site_symmetry_multiplicity
 _atom_site_fract_x
 _atom_site_fract_y
 _atom_site_fract_z
 _atom_site_occupancy
  Rb  Rb0  1  0.33333333  0.66666667  0.03565649  1.0
  Rb  Rb1  1  0.33333333  0.66666667  0.46434351  1.0
  Rb  Rb2  1  0.66666667  0.33333333  0.53565649  1.0
  Rb  Rb3  1  0.66666667  0.33333333  0.96434351  1.0
  La  La4  1  0.66666667  0.33333333  0.25000000  1.0
  La  La5  1  0.33333333  0.66666667  0.75000000  1.0
  Ta  Ta6  1  0.82795442  0.81168504  0.18721023  1.0
  Ta  Ta7  1  0.82795442  0.01626939  0.31278977  1.0
  Ta  Ta8  1  0.81168504  0.82795442  0.68721023  1.0
  Ta  Ta9  1  0.81168504  0.98373061  0.81278977  1.0
  Ta  Ta10  1  0.98373061  0.81168504  0.31278977  1.0
  Ta  Ta11  1  0.98373061  0.17204558  0.18721023  1.0
  Ta  Ta12  1  0.18831496  0.17204558  0.31278977  1.0
  Ta  Ta13  1  0.18831496  0.01626939  0.18721023  1.0
  Ta  Ta14  1  0.17204558  0.98373061  0.68721023  1.0
  Ta  Ta15  1  0.17204558  0.18831496  0.81278977  1.0
  Ta  Ta16  1  0.01626939  0.82795442  0.81278977  1.0
  Ta  Ta17  1  0.01626939  0.18831496  0.68721023  1.0
  Br  Br18  1  0.01898623  0.79665020  0.08891134  1.0
  Br  Br19  1  0.01898623  0.22233602  0.41108866  1.0
  Br  Br20  1  0.79665020  0.01898623  0.58891134  1.0
  Br  Br21  1  0.79665020  0.77766398  0.91108866  1.0
  Br  Br22  1  0.77766398  0.79665020  0.41108866  1.0
  Br  Br23  1  0.77766398  0.98101377  0.08891134  1.0
  Br  Br24  1  0.20334980  0.98101377  0.41108866  1.0
  Br  Br25  1  0.20334980  0.22233602  0.08891134  1.0
  Br  Br26  1  0.98101377  0.77766398  0.58891134  1.0
  Br  Br27  1  0.98101377  0.20334980  0.91108866  1.0
  Br  Br28  1  0.22233602  0.01898623  0.91108866  1.0
  Br  Br29  1  0.22233602  0.20334980  0.58891134  1.0
  Br  Br30  1  0.60356261  0.53175712  0.11810065  1.0
  Br  Br31  1  0.60356261  0.07180550  0.38189935  1.0
  Br  Br32  1  0.53175712  0.60356261  0.61810065  1.0
  Br  Br33  1  0.53175712  0.92819450  0.88189935  1.0
  Br  Br34  1  0.92819450  0.53175712  0.38189935  1.0
  Br  Br35  1  0.92819450  0.39643739  0.11810065  1.0
  Br  Br36  1  0.46824288  0.39643739  0.38189935  1.0
  Br  Br37  1  0.46824288  0.07180550  0.11810065  1.0
  Br  Br38  1  0.39643739  0.92819450  0.61810065  1.0
  Br  Br39  1  0.39643739  0.46824288  0.88189935  1.0
  Br  Br40  1  0.07180550  0.60356261  0.88189935  1.0
  Br  Br41  1  0.07180550  0.46824288  0.61810065  1.0
  Br  Br42  1  0.57309232  0.78654616  0.25000000  1.0
  Br  Br43  1  0.78654616  0.57309232  0.75000000  1.0
  Br  Br44  1  0.78654616  0.21345384  0.75000000  1.0
  Br  Br45  1  0.21345384  0.78654616  0.25000000  1.0
  Br  Br46  1  0.21345384  0.42690768  0.25000000  1.0
  Br  Br47  1  0.42690768  0.21345384  0.75000000  1.0
  O  O48  1  0.36056855  0.18028428  0.25000000  1.0
  O  O49  1  0.18028428  0.36056855  0.75000000  1.0
  O  O50  1  0.18028428  0.81971572  0.75000000  1.0
  O  O51  1  0.81971572  0.18028428  0.25000000  1.0
  O  O52  1  0.81971572  0.63943145  0.25000000  1.0
  O  O53  1  0.63943145  0.81971572  0.75000000  1.0
