# generated using pymatgen
data_La3CI5
_symmetry_space_group_name_H-M   'P 1'
_cell_length_a   8.12768469
_cell_length_b   9.96526804
_cell_length_c   9.83959399
_cell_angle_alpha   106.87746235
_cell_angle_beta   104.35762921
_cell_angle_gamma   96.94096984
_symmetry_Int_Tables_number   1
_chemical_formula_structural   La3CI5
_chemical_formula_sum   'La6 C2 I10'
_cell_volume   722.64655653
_cell_formula_units_Z   2
loop_
 _symmetry_equiv_pos_site_id
 _symmetry_equiv_pos_as_xyz
  1  'x, y, z'
loop_
 _atom_site_type_symbol
 _atom_site_label
 _atom_site_symmetry_multiplicity
 _atom_site_fract_x
 _atom_site_fract_y
 _atom_site_fract_z
 _atom_site_occupancy
  La  La0  1  -0.87229468  -0.68151991  -0.63467082  1.0
  La  La1  1  -0.12770532  -0.31848009  -0.36532918  1.0
  La  La2  1  -0.46550696  -0.57535545  -0.76842695  1.0
  La  La3  1  -0.53449304  -0.42464455  -0.23157305  1.0
  La  La4  1  -0.39095969  -0.72469153  -0.45821602  1.0
  La  La5  1  -0.60904031  -0.27530847  -0.54178398  1.0
  C  C6  1  -0.58529857  -0.54099046  -0.52999437  1.0
  C  C7  1  -0.41470143  -0.45900954  -0.47000563  1.0
  I  I8  1  -0.95822261  -0.59248405  -0.30821782  1.0
  I  I9  1  -0.04177739  -0.40751595  -0.69178218  1.0
  I  I10  1  -0.83793198  -0.77395835  -0.95796753  1.0
  I  I11  1  -0.16206802  -0.22604165  -0.04203247  1.0
  I  I12  1  -0.75083834  -0.96252970  -0.58405873  1.0
  I  I13  1  -0.24916166  -0.03747030  -0.41594127  1.0
  I  I14  1  -0.58934547  -0.31795761  -0.87253763  1.0
  I  I15  1  -0.41065453  -0.68204239  -0.12746237  1.0
  I  I16  1  -0.30401668  -0.85406795  -0.76543725  1.0
  I  I17  1  -0.69598332  -0.14593205  -0.23456275  1.0
