# generated using pymatgen
data_ZnS
_symmetry_space_group_name_H-M   'P 1'
_cell_length_a   3.85032351
_cell_length_b   3.85032351
_cell_length_c   62.90316592
_cell_angle_alpha   90.00000000
_cell_angle_beta   90.00000000
_cell_angle_gamma   120.00000000
_symmetry_Int_Tables_number   1
_chemical_formula_structural   ZnS
_chemical_formula_sum   'Zn20 S20'
_cell_volume   807.60235579
_cell_formula_units_Z   20
loop_
 _symmetry_equiv_pos_site_id
 _symmetry_equiv_pos_as_xyz
  1  'x, y, z'
loop_
 _atom_site_type_symbol
 _atom_site_label
 _atom_site_symmetry_multiplicity
 _atom_site_fract_x
 _atom_site_fract_y
 _atom_site_fract_z
 _atom_site_occupancy
  Zn  Zn0  1  -0.00000000  -0.00000000  0.15000423  1.0
  Zn  Zn1  1  -0.00000000  -0.00000000  0.29999866  1.0
  Zn  Zn2  1  -0.00000000  -0.00000000  0.44999767  1.0
  Zn  Zn3  1  0.00000000  0.00000000  0.59999237  1.0
  Zn  Zn4  1  -0.00000000  -0.00000000  0.80000346  1.0
  Zn  Zn5  1  -0.00000000  -0.00000000  0.94999326  1.0
  Zn  Zn6  1  0.66666667  0.33333333  0.04999798  1.0
  Zn  Zn7  1  0.66666667  0.33333333  0.19999795  1.0
  Zn  Zn8  1  0.66666667  0.33333333  0.34999809  1.0
  Zn  Zn9  1  0.66666667  0.33333333  0.49999837  1.0
  Zn  Zn10  1  0.66666667  0.33333333  0.64996049  1.0
  Zn  Zn11  1  0.66666667  0.33333333  0.75003140  1.0
  Zn  Zn12  1  0.66666667  0.33333333  0.89999818  1.0
  Zn  Zn13  1  0.33333333  0.66666667  -0.00004021  1.0
  Zn  Zn14  1  0.33333333  0.66666667  0.10003165  1.0
  Zn  Zn15  1  0.33333333  0.66666667  0.24999774  1.0
  Zn  Zn16  1  0.33333333  0.66666667  0.39999716  1.0
  Zn  Zn17  1  0.33333333  0.66666667  0.54999744  1.0
  Zn  Zn18  1  0.33333333  0.66666667  0.69999884  1.0
  Zn  Zn19  1  0.33333333  0.66666667  0.84999854  1.0
  S  S20  1  0.00000000  0.00000000  0.11251706  1.0
  S  S21  1  -0.00000000  -0.00000000  0.26250268  1.0
  S  S22  1  0.00000000  0.00000000  0.41250174  1.0
  S  S23  1  -0.00000000  -0.00000000  0.56249959  1.0
  S  S24  1  0.00000000  0.00000000  0.76251633  1.0
  S  S25  1  -0.00000000  -0.00000000  0.91250080  1.0
  S  S26  1  0.66666667  0.33333333  0.01245365  1.0
  S  S27  1  0.66666667  0.33333333  0.16250395  1.0
  S  S28  1  0.66666667  0.33333333  0.31250230  1.0
  S  S29  1  0.66666667  0.33333333  0.46250251  1.0
  S  S30  1  0.66666667  0.33333333  0.61248600  1.0
  S  S31  1  0.66666667  0.33333333  0.71255339  1.0
  S  S32  1  0.66666667  0.33333333  0.86250303  1.0
  S  S33  1  0.33333333  0.66666667  0.06255372  1.0
  S  S34  1  0.33333333  0.66666667  0.21250205  1.0
  S  S35  1  0.33333333  0.66666667  0.36250140  1.0
  S  S36  1  0.33333333  0.66666667  0.51250200  1.0
  S  S37  1  0.33333333  0.66666667  0.66245425  1.0
  S  S38  1  0.33333333  0.66666667  0.81250448  1.0
  S  S39  1  0.33333333  0.66666667  0.96248581  1.0
