# generated using pymatgen
data_Ba2CoCl6
_symmetry_space_group_name_H-M   'P 1'
_cell_length_a   9.22755472
_cell_length_b   8.15933021
_cell_length_c   15.86907614
_cell_angle_alpha   90.00000000
_cell_angle_beta   125.62857535
_cell_angle_gamma   90.00000000
_symmetry_Int_Tables_number   1
_chemical_formula_structural   Ba2CoCl6
_chemical_formula_sum   'Ba8 Co4 Cl24'
_cell_volume   971.14035220
_cell_formula_units_Z   4
loop_
 _symmetry_equiv_pos_site_id
 _symmetry_equiv_pos_as_xyz
  1  'x, y, z'
loop_
 _atom_site_type_symbol
 _atom_site_label
 _atom_site_symmetry_multiplicity
 _atom_site_fract_x
 _atom_site_fract_y
 _atom_site_fract_z
 _atom_site_occupancy
  Ba  Ba0  1  0.93383040  0.61045325  0.29433788  1.0
  Ba  Ba1  1  0.93383040  0.88954675  0.79433788  1.0
  Ba  Ba2  1  0.06616960  0.11045325  0.20566212  1.0
  Ba  Ba3  1  0.06616960  0.38954675  0.70566212  1.0
  Ba  Ba4  1  0.47332696  0.21880048  0.09634031  1.0
  Ba  Ba5  1  0.47332696  0.28119952  0.59634031  1.0
  Ba  Ba6  1  0.52667304  0.71880048  0.40365969  1.0
  Ba  Ba7  1  0.52667304  0.78119952  0.90365969  1.0
  Co  Co8  1  0.79980518  0.14288501  0.43258644  1.0
  Co  Co9  1  0.79980518  0.35711499  0.93258644  1.0
  Co  Co10  1  0.20019482  0.64288501  0.06741356  1.0
  Co  Co11  1  0.20019482  0.85711499  0.56741356  1.0
  Cl  Cl12  1  0.87179857  0.85470025  0.42684019  1.0
  Cl  Cl13  1  0.87179857  0.64529975  0.92684019  1.0
  Cl  Cl14  1  0.12820143  0.35470025  0.07315981  1.0
  Cl  Cl15  1  0.12820143  0.14529975  0.57315981  1.0
  Cl  Cl16  1  0.85854644  0.23410189  0.30285178  1.0
  Cl  Cl17  1  0.85854644  0.26589811  0.80285178  1.0
  Cl  Cl18  1  0.14145356  0.73410189  0.19714822  1.0
  Cl  Cl19  1  0.14145356  0.76589811  0.69714822  1.0
  Cl  Cl20  1  0.78782011  0.42103289  0.46209960  1.0
  Cl  Cl21  1  0.78782011  0.07896711  0.96209960  1.0
  Cl  Cl22  1  0.21217989  0.92103289  0.03790040  1.0
  Cl  Cl23  1  0.21217989  0.57896711  0.53790040  1.0
  Cl  Cl24  1  0.75009956  0.42787171  0.07051127  1.0
  Cl  Cl25  1  0.75009956  0.07212829  0.57051127  1.0
  Cl  Cl26  1  0.24990044  0.92787171  0.42948873  1.0
  Cl  Cl27  1  0.24990044  0.57212829  0.92948873  1.0
  Cl  Cl28  1  0.49489853  0.08038386  0.29724164  1.0
  Cl  Cl29  1  0.49489853  0.41961614  0.79724164  1.0
  Cl  Cl30  1  0.50510147  0.58038386  0.20275836  1.0
  Cl  Cl31  1  0.50510147  0.91961614  0.70275836  1.0
  Cl  Cl32  1  0.28600784  0.39899370  0.36680065  1.0
  Cl  Cl33  1  0.28600784  0.10100630  0.86680065  1.0
  Cl  Cl34  1  0.71399216  0.89899370  0.13319935  1.0
  Cl  Cl35  1  0.71399216  0.60100630  0.63319935  1.0
