# generated using pymatgen
data_KMoO4
_symmetry_space_group_name_H-M   'P 1'
_cell_length_a   7.72115930
_cell_length_b   7.93659777
_cell_length_c   8.49540754
_cell_angle_alpha   113.73951507
_cell_angle_beta   117.53271189
_cell_angle_gamma   86.63510980
_symmetry_Int_Tables_number   1
_chemical_formula_structural   KMoO4
_chemical_formula_sum   'K4 Mo4 O16'
_cell_volume   417.33865817
_cell_formula_units_Z   4
loop_
 _symmetry_equiv_pos_site_id
 _symmetry_equiv_pos_as_xyz
  1  'x, y, z'
loop_
 _atom_site_type_symbol
 _atom_site_label
 _atom_site_symmetry_multiplicity
 _atom_site_fract_x
 _atom_site_fract_y
 _atom_site_fract_z
 _atom_site_occupancy
  K  K0  1  0.41373097  0.85480161  -0.88434842  1.0
  K  K1  1  0.58626903  0.14519839  -0.11565158  1.0
  K  K2  1  0.78871259  0.56388177  -0.19767488  1.0
  K  K3  1  0.21128741  0.43611823  -0.80232512  1.0
  O  O4  1  0.75197634  0.92690513  -0.91500097  1.0
  O  O5  1  0.24802366  0.07309487  -0.08499903  1.0
  O  O6  1  0.90705076  0.85321696  -0.58563099  1.0
  O  O7  1  0.09294924  0.14678304  -0.41436901  1.0
  O  O8  1  0.12701944  0.81728089  -0.78885246  1.0
  O  O9  1  0.87298056  0.18271911  -0.21114754  1.0
  O  O10  1  0.43953944  0.75318649  -0.35475074  1.0
  O  O11  1  0.56046056  0.24681351  -0.64524926  1.0
  O  O12  1  0.84037901  0.41255579  -0.53620312  1.0
  O  O13  1  0.15962099  0.58744421  -0.46379688  1.0
  O  O14  1  0.55995009  0.61269256  -0.70830236  1.0
  O  O15  1  0.44004991  0.38730744  -0.29169764  1.0
  O  O16  1  0.90448507  0.80060889  -0.32713996  1.0
  O  O17  1  0.09551493  0.19939111  -0.67286004  1.0
  O  O18  1  0.82685798  0.48886866  -0.84095346  1.0
  O  O19  1  0.17314202  0.51113134  -0.15904654  1.0
  Mo  Mo20  1  0.98770185  0.97740237  -0.71212549  1.0
  Mo  Mo21  1  0.01229815  0.02259763  -0.28787451  1.0
  Mo  Mo22  1  0.80861810  0.59336311  -0.62569815  1.0
  Mo  Mo23  1  0.19138190  0.40663689  -0.37430185  1.0
