# generated using pymatgen
data_Fe2Re3
_symmetry_space_group_name_H-M   'P 1'
_cell_length_a   6.39754669
_cell_length_b   6.39754669
_cell_length_c   6.39754669
_cell_angle_alpha   90.00000000
_cell_angle_beta   90.00000000
_cell_angle_gamma   90.00000000
_symmetry_Int_Tables_number   1
_chemical_formula_structural   Fe2Re3
_chemical_formula_sum   'Fe8 Re12'
_cell_volume   261.84265325
_cell_formula_units_Z   4
loop_
 _symmetry_equiv_pos_site_id
 _symmetry_equiv_pos_as_xyz
  1  'x, y, z'
loop_
 _atom_site_type_symbol
 _atom_site_label
 _atom_site_symmetry_multiplicity
 _atom_site_fract_x
 _atom_site_fract_y
 _atom_site_fract_z
 _atom_site_occupancy
  Fe  Fe0  1  0.19204821  0.80795179  0.30795179  1.0
  Fe  Fe1  1  0.30795179  0.19204821  0.80795179  1.0
  Fe  Fe2  1  0.80795179  0.30795179  0.19204821  1.0
  Fe  Fe3  1  0.69204821  0.69204821  0.69204821  1.0
  Fe  Fe4  1  0.55795179  0.44204821  0.94204821  1.0
  Fe  Fe5  1  0.44204821  0.94204821  0.55795179  1.0
  Fe  Fe6  1  0.94204821  0.55795179  0.44204821  1.0
  Fe  Fe7  1  0.05795179  0.05795179  0.05795179  1.0
  Re  Re8  1  0.80241658  0.94758342  0.37500000  1.0
  Re  Re9  1  0.69758342  0.05241658  0.87500000  1.0
  Re  Re10  1  0.19758342  0.44758342  0.12500000  1.0
  Re  Re11  1  0.30241658  0.55241658  0.62500000  1.0
  Re  Re12  1  0.94758342  0.37500000  0.80241658  1.0
  Re  Re13  1  0.05241658  0.87500000  0.69758342  1.0
  Re  Re14  1  0.44758342  0.12500000  0.19758342  1.0
  Re  Re15  1  0.55241658  0.62500000  0.30241658  1.0
  Re  Re16  1  0.37500000  0.80241658  0.94758342  1.0
  Re  Re17  1  0.87500000  0.69758342  0.05241658  1.0
  Re  Re18  1  0.12500000  0.19758342  0.44758342  1.0
  Re  Re19  1  0.62500000  0.30241658  0.55241658  1.0
