# generated using pymatgen
data_FeSi2C4(Cl3O2)2
_symmetry_space_group_name_H-M   'P 1'
_cell_length_a   8.86323192
_cell_length_b   10.64217473
_cell_length_c   12.41969788
_cell_angle_alpha   90.00000000
_cell_angle_beta   128.92711662
_cell_angle_gamma   90.00000000
_symmetry_Int_Tables_number   1
_chemical_formula_structural   FeSi2C4(Cl3O2)2
_chemical_formula_sum   'Fe2 Si4 C8 Cl12 O8'
_cell_volume   911.34518989
_cell_formula_units_Z   2
loop_
 _symmetry_equiv_pos_site_id
 _symmetry_equiv_pos_as_xyz
  1  'x, y, z'
loop_
 _atom_site_type_symbol
 _atom_site_label
 _atom_site_symmetry_multiplicity
 _atom_site_fract_x
 _atom_site_fract_y
 _atom_site_fract_z
 _atom_site_occupancy
  Fe  Fe0  1  0.50000000  0.50000000  0.50000000  1.0
  Fe  Fe1  1  0.50000000  0.00000000  0.00000000  1.0
  Si  Si2  1  0.29918944  0.34859977  0.49233937  1.0
  Si  Si3  1  0.29918944  0.15140023  0.99233937  1.0
  Si  Si4  1  0.70081056  0.84859977  0.00766063  1.0
  Si  Si5  1  0.70081056  0.65140023  0.50766063  1.0
  C  C6  1  0.67085142  0.02231571  0.18544441  1.0
  C  C7  1  0.67085142  0.47768429  0.68544441  1.0
  C  C8  1  0.32914858  0.52231571  0.31455559  1.0
  C  C9  1  0.32914858  0.97768429  0.81455559  1.0
  C  C10  1  0.62388462  0.38135092  0.47730474  1.0
  C  C11  1  0.62388462  0.11864908  0.97730474  1.0
  C  C12  1  0.37611538  0.88135092  0.02269526  1.0
  C  C13  1  0.37611538  0.61864908  0.52269526  1.0
  Cl  Cl14  1  1.01650991  0.34829546  0.30804563  1.0
  Cl  Cl15  1  1.01650991  0.15170454  0.80804563  1.0
  Cl  Cl16  1  -0.01650991  0.84829546  0.19195437  1.0
  Cl  Cl17  1  -0.01650991  0.65170454  0.69195437  1.0
  Cl  Cl18  1  0.60317154  0.83502694  0.48017272  1.0
  Cl  Cl19  1  0.60317154  0.66497306  0.98017272  1.0
  Cl  Cl20  1  0.39682846  0.33502694  0.01982728  1.0
  Cl  Cl21  1  0.39682846  0.16497306  0.51982728  1.0
  Cl  Cl22  1  0.27343519  0.12401431  0.14594268  1.0
  Cl  Cl23  1  0.27343519  0.37598569  0.64594268  1.0
  Cl  Cl24  1  0.72656481  0.62401431  0.35405732  1.0
  Cl  Cl25  1  0.72656481  0.87598569  0.85405732  1.0
  O  O26  1  0.77841838  0.03686942  0.30300746  1.0
  O  O27  1  0.77841838  0.46313058  0.80300746  1.0
  O  O28  1  0.22158162  0.53686942  0.19699254  1.0
  O  O29  1  0.22158162  0.96313058  0.69699254  1.0
  O  O30  1  0.70308506  0.30657191  0.46289006  1.0
  O  O31  1  0.70308506  0.19342809  0.96289006  1.0
  O  O32  1  0.29691494  0.80657191  0.03710994  1.0
  O  O33  1  0.29691494  0.69342809  0.53710994  1.0
