# generated using pymatgen
data_Cd(FeO2)2
_symmetry_space_group_name_H-M   'P 1'
_cell_length_a   6.23658831
_cell_length_b   6.23658831
_cell_length_c   6.23658831
_cell_angle_alpha   60.00000000
_cell_angle_beta   60.00000000
_cell_angle_gamma   60.00000000
_symmetry_Int_Tables_number   1
_chemical_formula_structural   Cd(FeO2)2
_chemical_formula_sum   'Cd2 Fe4 O8'
_cell_volume   171.52452723
_cell_formula_units_Z   2
loop_
 _symmetry_equiv_pos_site_id
 _symmetry_equiv_pos_as_xyz
  1  'x, y, z'
loop_
 _atom_site_type_symbol
 _atom_site_label
 _atom_site_symmetry_multiplicity
 _atom_site_fract_x
 _atom_site_fract_y
 _atom_site_fract_z
 _atom_site_occupancy
  Cd  Cd0  1  0.75000000  -0.25000000  0.75000000  1.0
  Cd  Cd1  1  0.50000000  0.50000000  -0.50000000  1.0
  Fe  Fe2  1  0.12500000  0.12500000  1.62500000  1.0
  Fe  Fe3  1  0.12500000  0.62500000  0.12500000  1.0
  Fe  Fe4  1  0.62500000  0.12500000  1.12500000  1.0
  Fe  Fe5  1  0.12500000  0.12500000  0.12500000  1.0
  O  O6  1  0.35796650  0.35796650  -0.07389951  1.0
  O  O7  1  0.35796650  -0.07389951  0.35796650  1.0
  O  O8  1  -0.07389951  0.35796650  0.35796650  1.0
  O  O9  1  0.35796650  0.35796650  0.35796650  1.0
  O  O10  1  -0.10796650  0.89203350  0.32389951  1.0
  O  O11  1  0.89203350  -0.67610049  0.89203350  1.0
  O  O12  1  -0.67610049  0.89203350  0.89203350  1.0
  O  O13  1  0.89203350  -0.10796650  0.89203350  1.0
