# generated using pymatgen
data_BPH4NO4F
_symmetry_space_group_name_H-M   'P 1'
_cell_length_a   7.72832500
_cell_length_b   7.72832500
_cell_length_c   7.72832500
_cell_angle_alpha   90.00000000
_cell_angle_beta   90.00000000
_cell_angle_gamma   90.00000000
_symmetry_Int_Tables_number   1
_chemical_formula_structural   BPH4NO4F
_chemical_formula_sum   'B4 P4 H16 N4 O16 F4'
_cell_volume   461.58972338
_cell_formula_units_Z   4
loop_
 _symmetry_equiv_pos_site_id
 _symmetry_equiv_pos_as_xyz
  1  'x, y, z'
loop_
 _atom_site_type_symbol
 _atom_site_label
 _atom_site_symmetry_multiplicity
 _atom_site_fract_x
 _atom_site_fract_y
 _atom_site_fract_z
 _atom_site_occupancy
  B  B0  1  0.38617872  0.88617872  0.61382128  1.0
  B  B1  1  0.88617872  0.61382128  0.38617872  1.0
  B  B2  1  0.61382128  0.38617872  0.88617872  1.0
  B  B3  1  0.11382128  0.11382128  0.11382128  1.0
  P  P4  1  0.84628356  0.34628356  0.15371644  1.0
  P  P5  1  0.34628356  0.15371644  0.84628356  1.0
  P  P6  1  0.15371644  0.84628356  0.34628356  1.0
  P  P7  1  0.65371644  0.65371644  0.65371644  1.0
  H  H8  1  0.15609146  0.64296025  1.00666287  1.0
  H  H9  1  0.65609146  0.85703975  -0.00666287  1.0
  H  H10  1  0.14296025  0.49333713  0.84390854  1.0
  H  H11  1  0.64296025  1.00666287  0.15609146  1.0
  H  H12  1  -0.00666287  0.65609146  0.85703975  1.0
  H  H13  1  0.49333713  0.84390854  0.14296025  1.0
  H  H14  1  0.84390854  0.14296025  0.49333713  1.0
  H  H15  1  0.34390854  0.35703975  0.50666287  1.0
  H  H16  1  0.85703975  -0.00666287  0.65609146  1.0
  H  H17  1  0.35703975  0.50666287  0.34390854  1.0
  H  H18  1  1.00666287  0.15609146  0.64296025  1.0
  H  H19  1  0.50666287  0.34390854  0.35703975  1.0
  H  H20  1  0.19812448  0.69812448  0.80187552  1.0
  H  H21  1  0.69812448  0.80187552  0.19812448  1.0
  H  H22  1  0.80187552  0.19812448  0.69812448  1.0
  H  H23  1  0.30187552  0.30187552  0.30187552  1.0
  N  N24  1  0.12139664  0.62139664  0.87860336  1.0
  N  N25  1  0.62139664  0.87860336  0.12139664  1.0
  N  N26  1  0.87860336  0.12139664  0.62139664  1.0
  N  N27  1  0.37860336  0.37860336  0.37860336  1.0
  O  O28  1  0.45969219  0.71246036  0.63977146  1.0
  O  O29  1  0.95969219  0.78753964  0.36022854  1.0
  O  O30  1  0.21246036  0.86022854  0.54030781  1.0
  O  O31  1  0.71246036  0.63977146  0.45969219  1.0
  O  O32  1  0.36022854  0.95969219  0.78753964  1.0
  O  O33  1  0.86022854  0.54030781  0.21246036  1.0
  O  O34  1  0.54030781  0.21246036  0.86022854  1.0
  O  O35  1  0.04030781  0.28753964  0.13977146  1.0
  O  O36  1  0.78753964  0.36022854  0.95969219  1.0
  O  O37  1  0.28753964  0.13977146  0.04030781  1.0
  O  O38  1  0.63977146  0.45969219  0.71246036  1.0
  O  O39  1  0.13977146  0.04030781  0.28753964  1.0
  O  O40  1  0.73306949  0.23306949  0.26693051  1.0
  O  O41  1  0.23306949  0.26693051  0.73306949  1.0
  O  O42  1  0.26693051  0.73306949  0.23306949  1.0
  O  O43  1  0.76693051  0.76693051  0.76693051  1.0
  F  F44  1  0.49170383  0.99170383  0.50829617  1.0
  F  F45  1  0.99170383  0.50829617  0.49170383  1.0
  F  F46  1  0.50829617  0.49170383  0.99170383  1.0
  F  F47  1  0.00829617  0.00829617  0.00829617  1.0
