# generated using pymatgen
data_Ta9P2O25
_symmetry_space_group_name_H-M   'P 1'
_cell_length_a   11.51060708
_cell_length_b   11.51060708
_cell_length_c   11.51060708
_cell_angle_alpha   91.64198488
_cell_angle_beta   91.64198488
_cell_angle_gamma   160.50863020
_symmetry_Int_Tables_number   1
_chemical_formula_structural   Ta9P2O25
_chemical_formula_sum   'Ta9 P2 O25'
_cell_volume   501.52446458
_cell_formula_units_Z   1
loop_
 _symmetry_equiv_pos_site_id
 _symmetry_equiv_pos_as_xyz
  1  'x, y, z'
loop_
 _atom_site_type_symbol
 _atom_site_label
 _atom_site_symmetry_multiplicity
 _atom_site_fract_x
 _atom_site_fract_y
 _atom_site_fract_z
 _atom_site_occupancy
  O  O0  1  0.98412920  0.72186654  0.70599574  1.0
  O  O1  1  0.72186654  0.01587080  0.73773733  1.0
  O  O2  1  1.01587080  1.27813346  1.29400426  1.0
  O  O3  1  0.27813346  0.98412920  1.26226267  1.0
  O  O4  1  0.88374824  0.95123948  1.83498772  1.0
  O  O5  1  0.95123948  1.11625176  1.06749125  1.0
  O  O6  1  0.11625176  0.04876052  0.16501228  1.0
  O  O7  1  1.04876052  0.88374824  0.93250875  1.0
  O  O8  1  0.82123972  0.78945430  0.61069402  1.0
  O  O9  1  0.78945430  0.17876028  0.96821458  1.0
  O  O10  1  1.17876028  1.21054570  1.38930598  1.0
  O  O11  1  0.21054570  0.82123972  1.03178542  1.0
  O  O12  1  0.74991043  0.61092923  0.36083965  1.0
  O  O13  1  0.61092923  0.25008957  0.86101880  1.0
  O  O14  1  1.25008957  1.38907077  1.63916035  1.0
  O  O15  1  0.38907077  0.74991043  1.13898120  1.0
  O  O16  1  0.65122559  0.83738741  1.48861300  1.0
  O  O17  1  0.83738741  1.34877441  1.18616183  1.0
  O  O18  1  0.34877441  0.16261259  0.51138700  1.0
  O  O19  1  1.16261259  0.65122559  0.81383817  1.0
  O  O20  1  0.50000000  0.50000000  -0.00000000  1.0
  O  O21  1  0.91495035  0.56260690  0.47755725  1.0
  O  O22  1  0.56260690  0.08504965  0.64765655  1.0
  O  O23  1  1.08504965  1.43739310  1.52244275  1.0
  O  O24  1  0.43739310  0.91495035  1.35234345  1.0
  P  P25  1  1.25000000  0.75000000  0.50000000  1.0
  P  P26  1  0.75000000  0.25000000  0.50000000  1.0
  Ta  Ta27  1  0.87459508  0.68336250  0.55795758  1.0
  Ta  Ta28  1  0.68336250  0.12540492  0.80876742  1.0
  Ta  Ta29  1  1.12540492  1.31663750  1.44204242  1.0
  Ta  Ta30  1  0.31663750  0.87459508  1.19123258  1.0
  Ta  Ta31  1  0.77892846  0.90287575  1.68180422  1.0
  Ta  Ta32  1  0.90287575  1.22107154  1.12394729  1.0
  Ta  Ta33  1  0.22107154  0.09712425  0.31819578  1.0
  Ta  Ta34  1  1.09712425  0.77892846  0.87605271  1.0
  Ta  Ta35  1  0.00000000  0.00000000  0.00000000  1.0
