# generated using pymatgen
data_CaCu
_symmetry_space_group_name_H-M   'P 1'
_cell_length_a   5.80146818
_cell_length_b   4.28111900
_cell_length_c   19.28963773
_cell_angle_alpha   90.00000000
_cell_angle_beta   94.41619067
_cell_angle_gamma   90.00000000
_symmetry_Int_Tables_number   1
_chemical_formula_structural   CaCu
_chemical_formula_sum   'Ca10 Cu10'
_cell_volume   477.66999556
_cell_formula_units_Z   10
loop_
 _symmetry_equiv_pos_site_id
 _symmetry_equiv_pos_as_xyz
  1  'x, y, z'
loop_
 _atom_site_type_symbol
 _atom_site_label
 _atom_site_symmetry_multiplicity
 _atom_site_fract_x
 _atom_site_fract_y
 _atom_site_fract_z
 _atom_site_occupancy
  Ca  Ca0  1  0.05698654  0.25000000  0.72815557  1.0
  Ca  Ca1  1  0.94301346  0.75000000  0.27184443  1.0
  Ca  Ca2  1  0.85505072  0.25000000  0.92814358  1.0
  Ca  Ca3  1  0.14494928  0.75000000  0.07185642  1.0
  Ca  Ca4  1  0.75929900  0.25000000  0.52801293  1.0
  Ca  Ca5  1  0.24070100  0.75000000  0.47198707  1.0
  Ca  Ca6  1  0.65437236  0.25000000  0.12834356  1.0
  Ca  Ca7  1  0.34562764  0.75000000  0.87165644  1.0
  Ca  Ca8  1  0.45716904  0.25000000  0.32856434  1.0
  Ca  Ca9  1  0.54283096  0.75000000  0.67143566  1.0
  Cu  Cu10  1  0.95257375  0.25000000  0.38789207  1.0
  Cu  Cu11  1  0.04742625  0.75000000  0.61210793  1.0
  Cu  Cu12  1  0.59219787  0.25000000  0.78775632  1.0
  Cu  Cu13  1  0.40780213  0.75000000  0.21224368  1.0
  Cu  Cu14  1  0.39137720  0.25000000  0.98778371  1.0
  Cu  Cu15  1  0.60862280  0.75000000  0.01221629  1.0
  Cu  Cu16  1  0.25315376  0.25000000  0.58783678  1.0
  Cu  Cu17  1  0.74684624  0.75000000  0.41216322  1.0
  Cu  Cu18  1  0.19057063  0.25000000  0.18802814  1.0
  Cu  Cu19  1  0.80942937  0.75000000  0.81197186  1.0
