# generated using pymatgen
data_Ca11InSb9
_symmetry_space_group_name_H-M   'P 1'
_cell_length_a   12.08649463
_cell_length_b   12.08649463
_cell_length_c   12.08649463
_cell_angle_alpha   120.92578878
_cell_angle_beta   117.17428192
_cell_angle_gamma   91.68324449
_symmetry_Int_Tables_number   1
_chemical_formula_structural   Ca11InSb9
_chemical_formula_sum   'Ca22 In2 Sb18'
_cell_volume   1264.19194462
_cell_formula_units_Z   2
loop_
 _symmetry_equiv_pos_site_id
 _symmetry_equiv_pos_as_xyz
  1  'x, y, z'
loop_
 _atom_site_type_symbol
 _atom_site_label
 _atom_site_symmetry_multiplicity
 _atom_site_fract_x
 _atom_site_fract_y
 _atom_site_fract_z
 _atom_site_occupancy
  Ca  Ca0  1  0.73633217  0.94198685  1.64900431  1.0
  Ca  Ca1  1  0.79298254  0.44198685  1.20565468  1.0
  Ca  Ca2  1  0.23633217  0.58732786  0.79434532  1.0
  Ca  Ca3  1  0.29298254  0.08732786  0.35099569  1.0
  Ca  Ca4  1  1.05957211  1.24564843  0.64102109  1.0
  Ca  Ca5  1  1.10462733  1.74564843  1.18607632  1.0
  Ca  Ca6  1  1.55957211  0.91855101  0.81392368  1.0
  Ca  Ca7  1  1.60462733  1.41855101  1.35897891  1.0
  Ca  Ca8  1  1.24406563  0.98400735  0.62680240  1.0
  Ca  Ca9  1  0.85720495  0.48400735  0.73994172  1.0
  Ca  Ca10  1  0.74406563  1.11726323  1.26005828  1.0
  Ca  Ca11  1  1.35720495  1.61726323  1.37319760  1.0
  Ca  Ca12  1  0.99001830  0.72592156  1.62898959  1.0
  Ca  Ca13  1  0.59693197  0.22592156  0.73590326  1.0
  Ca  Ca14  1  0.49001830  0.86102871  1.26409674  1.0
  Ca  Ca15  1  0.09693197  0.36102871  0.37101041  1.0
  Ca  Ca16  1  0.84954956  0.83725144  1.33947080  1.0
  Ca  Ca17  1  0.99778064  0.33725144  0.98770187  1.0
  Ca  Ca18  1  0.34954956  1.01007877  1.01229813  1.0
  Ca  Ca19  1  0.49778064  0.51007877  0.66052920  1.0
  Ca  Ca20  1  -0.00139760  -0.00139760  -0.00000000  1.0
  Ca  Ca21  1  0.49860240  0.49860240  1.00000000  1.0
  In  In22  1  1.28267042  1.28267042  1.00000000  1.0
  In  In23  1  0.78267042  0.78267042  1.00000000  1.0
  Sb  Sb24  1  0.78506996  1.13992846  1.57360627  1.0
  Sb  Sb25  1  1.06632220  1.63992846  1.35485850  1.0
  Sb  Sb26  1  1.28506996  0.71146370  0.64514150  1.0
  Sb  Sb27  1  0.56632220  0.21146370  0.42639373  1.0
  Sb  Sb28  1  1.04838877  1.03252150  0.74584944  1.0
  Sb  Sb29  1  0.78667206  0.53252150  0.98413273  1.0
  Sb  Sb30  1  0.54838877  0.80253934  1.01586727  1.0
  Sb  Sb31  1  1.28667206  1.30253934  1.25415056  1.0
  Sb  Sb32  1  1.31353625  1.31512262  0.64747154  1.0
  Sb  Sb33  1  1.16765108  1.81512262  1.00158637  1.0
  Sb  Sb34  1  1.81353625  1.16606470  0.99841363  1.0
  Sb  Sb35  1  1.66765108  1.66606470  1.35252846  1.0
  Sb  Sb36  1  1.00952579  1.01833853  0.29829108  1.0
  Sb  Sb37  1  1.22004744  1.51833853  1.00881274  1.0
  Sb  Sb38  1  1.50952579  1.21123471  0.99118726  1.0
  Sb  Sb39  1  1.72004744  1.71123471  1.70170892  1.0
  Sb  Sb40  1  0.92114842  0.42114842  0.50000000  1.0
  Sb  Sb41  1  1.42114842  0.92114842  0.50000000  1.0
