# generated using pymatgen
data_Sr2CaCu2(BiO4)2
_symmetry_space_group_name_H-M   'P 1'
_cell_length_a   15.97897450
_cell_length_b   15.97897450
_cell_length_c   15.97897450
_cell_angle_alpha   166.51641084
_cell_angle_beta   166.51641084
_cell_angle_gamma   19.11320213
_symmetry_Int_Tables_number   1
_chemical_formula_structural   Sr2CaCu2(BiO4)2
_chemical_formula_sum   'Sr2 Ca1 Cu2 Bi2 O8'
_cell_volume   221.78792376
_cell_formula_units_Z   1
loop_
 _symmetry_equiv_pos_site_id
 _symmetry_equiv_pos_as_xyz
  1  'x, y, z'
loop_
 _atom_site_type_symbol
 _atom_site_label
 _atom_site_symmetry_multiplicity
 _atom_site_fract_x
 _atom_site_fract_y
 _atom_site_fract_z
 _atom_site_occupancy
  Sr  Sr0  1  0.89065713  0.89065713  1.00000000  1.0
  Sr  Sr1  1  0.10934287  0.10934287  -0.00000000  1.0
  Ca  Ca2  1  0.00000000  0.00000000  0.00000000  1.0
  Cu  Cu3  1  0.54910061  0.54910061  1.00000000  1.0
  Cu  Cu4  1  0.45089939  0.45089939  -0.00000000  1.0
  Bi  Bi5  1  0.69970581  0.69970581  1.00000000  1.0
  Bi  Bi6  1  0.30029419  0.30029419  -0.00000000  1.0
  O  O7  1  0.44889059  0.94889059  0.50000000  1.0
  O  O8  1  0.55110941  0.05110941  0.50000000  1.0
  O  O9  1  0.94889059  0.44889059  0.50000000  1.0
  O  O10  1  0.05110941  0.55110941  0.50000000  1.0
  O  O11  1  0.80157275  0.80157275  1.00000000  1.0
  O  O12  1  0.19842725  0.19842725  -0.00000000  1.0
  O  O13  1  0.63442371  0.63442371  1.00000000  1.0
  O  O14  1  0.36557629  0.36557629  -0.00000000  1.0
