# generated using pymatgen
data_La4InRu
_symmetry_space_group_name_H-M   'P 1'
_cell_length_a   10.09383128
_cell_length_b   10.09383128
_cell_length_c   10.09383128
_cell_angle_alpha   60.00000000
_cell_angle_beta   60.00000000
_cell_angle_gamma   60.00000000
_symmetry_Int_Tables_number   1
_chemical_formula_structural   La4InRu
_chemical_formula_sum   'La16 In4 Ru4'
_cell_volume   727.19875248
_cell_formula_units_Z   4
loop_
 _symmetry_equiv_pos_site_id
 _symmetry_equiv_pos_as_xyz
  1  'x, y, z'
loop_
 _atom_site_type_symbol
 _atom_site_label
 _atom_site_symmetry_multiplicity
 _atom_site_fract_x
 _atom_site_fract_y
 _atom_site_fract_z
 _atom_site_occupancy
  La  La0  1  0.05846197  0.44153803  0.44153803  1.0
  La  La1  1  0.44153803  0.44153803  0.05846197  1.0
  La  La2  1  0.44153803  0.05846197  0.44153803  1.0
  La  La3  1  0.05846197  0.05846197  0.44153803  1.0
  La  La4  1  0.05846197  0.44153803  0.05846197  1.0
  La  La5  1  0.44153803  0.05846197  0.05846197  1.0
  La  La6  1  -0.80867102  0.80867102  0.80867102  1.0
  La  La7  1  -0.19132898  0.80867102  0.19132898  1.0
  La  La8  1  -0.19132898  0.19132898  0.80867102  1.0
  La  La9  1  0.19132898  1.19132898  -0.19132898  1.0
  La  La10  1  0.19132898  -0.19132898  0.19132898  1.0
  La  La11  1  -0.19132898  0.19132898  0.19132898  1.0
  La  La12  1  -0.34652408  0.65347592  0.65347592  1.0
  La  La13  1  1.03957225  0.65347592  -0.34652408  1.0
  La  La14  1  -0.34652408  0.65347592  1.03957225  1.0
  La  La15  1  0.65347592  1.03957225  -0.34652408  1.0
  In  In16  1  0.41988139  1.41988139  0.41988139  1.0
  In  In17  1  -0.25964417  0.41988139  0.41988139  1.0
  In  In18  1  0.41988139  1.41988139  -0.25964417  1.0
  In  In19  1  0.41988139  -0.25964417  0.41988139  1.0
  Ru  Ru20  1  0.86330190  0.86330190  -0.13669810  1.0
  Ru  Ru21  1  0.41009430  0.86330190  -0.13669810  1.0
  Ru  Ru22  1  0.86330190  0.86330190  -0.58990570  1.0
  Ru  Ru23  1  0.86330190  0.41009430  -0.13669810  1.0
