# generated using pymatgen
data_Sr(AlCl4)2
_symmetry_space_group_name_H-M   'P 1'
_cell_length_a   13.32590171
_cell_length_b   13.32590171
_cell_length_c   13.32590171
_cell_angle_alpha   127.71829644
_cell_angle_beta   127.71829644
_cell_angle_gamma   77.08182303
_symmetry_Int_Tables_number   1
_chemical_formula_structural   Sr(AlCl4)2
_chemical_formula_sum   'Sr4 Al8 Cl32'
_cell_volume   1437.12850939
_cell_formula_units_Z   4
loop_
 _symmetry_equiv_pos_site_id
 _symmetry_equiv_pos_as_xyz
  1  'x, y, z'
loop_
 _atom_site_type_symbol
 _atom_site_label
 _atom_site_symmetry_multiplicity
 _atom_site_fract_x
 _atom_site_fract_y
 _atom_site_fract_z
 _atom_site_occupancy
  Sr  Sr0  1  0.75000000  0.75000000  -0.00000000  1.0
  Sr  Sr1  1  1.25000000  1.25000000  1.00000000  1.0
  Sr  Sr2  1  0.00000000  0.50000000  0.50000000  1.0
  Sr  Sr3  1  0.50000000  -0.00000000  0.50000000  1.0
  Al  Al4  1  0.66124065  1.37500000  0.78624065  1.0
  Al  Al5  1  1.16124065  1.37500000  1.28624065  1.0
  Al  Al6  1  1.62500000  1.41124065  1.28624065  1.0
  Al  Al7  1  1.12500000  1.83875935  1.21375935  1.0
  Al  Al8  1  1.08875935  0.87500000  0.71375935  1.0
  Al  Al9  1  1.58875935  0.87500000  1.21375935  1.0
  Al  Al10  1  1.62500000  0.91124065  0.78624065  1.0
  Al  Al11  1  1.12500000  1.33875935  0.71375935  1.0
  Cl  Cl12  1  0.47295678  0.28719993  0.68237715  1.0
  Cl  Cl13  1  0.97295678  0.29057963  1.18575685  1.0
  Cl  Cl14  1  1.53719993  1.22295678  1.18237715  1.0
  Cl  Cl15  1  1.03719993  0.85482278  0.31424315  1.0
  Cl  Cl16  1  1.27704322  0.96280007  0.81762285  1.0
  Cl  Cl17  1  0.77704322  0.95942037  0.31424315  1.0
  Cl  Cl18  1  1.21280007  1.02704322  0.31762285  1.0
  Cl  Cl19  1  1.71280007  1.39517722  1.18575685  1.0
  Cl  Cl20  1  0.10482278  0.78719993  0.81424315  1.0
  Cl  Cl21  1  0.60482278  0.79057963  1.31762285  1.0
  Cl  Cl22  1  1.54057963  1.72295678  1.68575685  1.0
  Cl  Cl23  1  1.04057963  1.35482278  0.81762285  1.0
  Cl  Cl24  1  1.64517722  1.46280007  1.68575685  1.0
  Cl  Cl25  1  1.14517722  1.45942037  1.18237715  1.0
  Cl  Cl26  1  1.20942037  1.52704322  0.81424315  1.0
  Cl  Cl27  1  1.70942037  1.89517722  1.68237715  1.0
  Cl  Cl28  1  0.77233193  1.53949895  1.04029455  1.0
  Cl  Cl29  1  1.27233193  1.23203738  1.23283299  1.0
  Cl  Cl30  1  1.78949895  1.52233193  1.54029455  1.0
  Cl  Cl31  1  1.28949895  1.74920439  1.26716701  1.0
  Cl  Cl32  1  0.97766807  0.71050105  1.45970545  1.0
  Cl  Cl33  1  0.47766807  1.01796262  1.26716701  1.0
  Cl  Cl34  1  0.96050105  1.72766807  0.95970545  1.0
  Cl  Cl35  1  1.46050105  1.50079561  1.23283299  1.0
  Cl  Cl36  1  0.99920439  1.03949895  0.76716701  1.0
  Cl  Cl37  1  1.49920439  0.73203738  0.95970545  1.0
  Cl  Cl38  1  1.48203738  1.02233193  0.73283299  1.0
  Cl  Cl39  1  0.98203738  1.24920439  0.45970545  1.0
  Cl  Cl40  1  0.75079561  0.21050105  0.73283299  1.0
  Cl  Cl41  1  0.25079561  0.51796262  0.54029455  1.0
  Cl  Cl42  1  1.26796262  1.22766807  0.76716701  1.0
  Cl  Cl43  1  1.76796262  1.00079561  1.04029455  1.0
