# generated using pymatgen
data_NaAlBr4
_symmetry_space_group_name_H-M   'P 1'
_cell_length_a   14.11792668
_cell_length_b   7.70898694
_cell_length_c   7.87546475
_cell_angle_alpha   90.00000000
_cell_angle_beta   90.00000000
_cell_angle_gamma   90.00000000
_symmetry_Int_Tables_number   1
_chemical_formula_structural   NaAlBr4
_chemical_formula_sum   'Na4 Al4 Br16'
_cell_volume   857.12551743
_cell_formula_units_Z   4
loop_
 _symmetry_equiv_pos_site_id
 _symmetry_equiv_pos_as_xyz
  1  'x, y, z'
loop_
 _atom_site_type_symbol
 _atom_site_label
 _atom_site_symmetry_multiplicity
 _atom_site_fract_x
 _atom_site_fract_y
 _atom_site_fract_z
 _atom_site_occupancy
  Na  Na0  1  0.65400700  0.25000000  0.05394722  1.0
  Na  Na1  1  0.15400700  0.25000000  0.44605278  1.0
  Na  Na2  1  0.34599300  0.75000000  0.94605278  1.0
  Na  Na3  1  0.84599300  0.75000000  0.55394722  1.0
  Al  Al4  1  0.89820879  0.25000000  0.30956538  1.0
  Al  Al5  1  0.39820879  0.25000000  0.19043462  1.0
  Al  Al6  1  0.10179121  0.75000000  0.69043462  1.0
  Al  Al7  1  0.60179121  0.75000000  0.80956538  1.0
  Br  Br8  1  0.80175451  0.49091458  0.25342838  1.0
  Br  Br9  1  0.80175451  0.00908542  0.25342838  1.0
  Br  Br10  1  0.30175451  0.49091458  0.24657162  1.0
  Br  Br11  1  0.30175451  0.00908542  0.24657162  1.0
  Br  Br12  1  0.19824549  0.99091458  0.74657162  1.0
  Br  Br13  1  0.19824549  0.50908542  0.74657162  1.0
  Br  Br14  1  0.69824549  0.99091458  0.75342838  1.0
  Br  Br15  1  0.69824549  0.50908542  0.75342838  1.0
  Br  Br16  1  0.94782424  0.25000000  0.59122940  1.0
  Br  Br17  1  0.44782424  0.25000000  0.90877060  1.0
  Br  Br18  1  0.05217576  0.75000000  0.40877060  1.0
  Br  Br19  1  0.55217576  0.75000000  0.09122940  1.0
  Br  Br20  1  0.53113928  0.25000000  0.36208184  1.0
  Br  Br21  1  0.03113928  0.25000000  0.13791816  1.0
  Br  Br22  1  0.46886072  0.75000000  0.63791816  1.0
  Br  Br23  1  0.96886072  0.75000000  0.86208184  1.0
