# generated using pymatgen
data_BaSb2Pd
_symmetry_space_group_name_H-M   'P 1'
_cell_length_a   9.73054535
_cell_length_b   9.73054535
_cell_length_c   4.95016795
_cell_angle_alpha   90.00000000
_cell_angle_beta   90.00000000
_cell_angle_gamma   150.45644424
_symmetry_Int_Tables_number   1
_chemical_formula_structural   BaSb2Pd
_chemical_formula_sum   'Ba2 Sb4 Pd2'
_cell_volume   231.10861540
_cell_formula_units_Z   2
loop_
 _symmetry_equiv_pos_site_id
 _symmetry_equiv_pos_as_xyz
  1  'x, y, z'
loop_
 _atom_site_type_symbol
 _atom_site_label
 _atom_site_symmetry_multiplicity
 _atom_site_fract_x
 _atom_site_fract_y
 _atom_site_fract_z
 _atom_site_occupancy
  Ba  Ba0  1  -0.60678913  0.60678913  0.25000000  1.0
  Ba  Ba1  1  -0.39321087  1.39321087  0.75000000  1.0
  Sb  Sb2  1  -0.95668373  0.95668373  0.25000000  1.0
  Sb  Sb3  1  -0.04331627  1.04331627  0.75000000  1.0
  Sb  Sb4  1  -0.25000055  1.25000055  0.25000000  1.0
  Sb  Sb5  1  -0.74999945  0.74999945  0.75000000  1.0
  Pd  Pd6  1  -0.81367133  0.81367133  0.25000000  1.0
  Pd  Pd7  1  -0.18632867  1.18632867  0.75000000  1.0
