# generated using pymatgen
data_GaNi9B8
_symmetry_space_group_name_H-M   'P 1'
_cell_length_a   5.41284079
_cell_length_b   5.41284079
_cell_length_c   10.77555994
_cell_angle_alpha   90.00000000
_cell_angle_beta   90.00000000
_cell_angle_gamma   97.43114759
_symmetry_Int_Tables_number   1
_chemical_formula_structural   GaNi9B8
_chemical_formula_sum   'Ga2 Ni18 B16'
_cell_volume   313.05980459
_cell_formula_units_Z   2
loop_
 _symmetry_equiv_pos_site_id
 _symmetry_equiv_pos_as_xyz
  1  'x, y, z'
loop_
 _atom_site_type_symbol
 _atom_site_label
 _atom_site_symmetry_multiplicity
 _atom_site_fract_x
 _atom_site_fract_y
 _atom_site_fract_z
 _atom_site_occupancy
  Ga  Ga0  1  0.08841969  0.91158031  0.25000000  1.0
  Ga  Ga1  1  -0.08841969  1.08841969  0.75000000  1.0
  Ni  Ni2  1  -0.23958791  1.62073808  0.38613932  1.0
  Ni  Ni3  1  -0.23958791  1.62073808  0.11386068  1.0
  Ni  Ni4  1  0.62073808  0.76041209  0.88613932  1.0
  Ni  Ni5  1  0.62073808  0.76041209  0.61386068  1.0
  Ni  Ni6  1  -0.62073808  1.23958791  0.38613932  1.0
  Ni  Ni7  1  -0.62073808  1.23958791  0.11386068  1.0
  Ni  Ni8  1  0.23958791  0.37926192  0.88613932  1.0
  Ni  Ni9  1  0.23958791  0.37926192  0.61386068  1.0
  Ni  Ni10  1  0.05080202  0.38993316  0.25000000  1.0
  Ni  Ni11  1  -0.61006684  1.05080202  0.75000000  1.0
  Ni  Ni12  1  0.61006684  0.94919798  0.25000000  1.0
  Ni  Ni13  1  -0.05080202  1.61006684  0.75000000  1.0
  Ni  Ni14  1  0.29093946  0.70906054  0.41821500  1.0
  Ni  Ni15  1  0.29093946  0.70906054  0.08178500  1.0
  Ni  Ni16  1  -0.29093946  1.29093946  0.91821500  1.0
  Ni  Ni17  1  -0.29093946  1.29093946  0.58178500  1.0
  Ni  Ni18  1  0.00000000  0.00000000  0.50000000  1.0
  Ni  Ni19  1  0.00000000  0.00000000  0.00000000  1.0
  B  B20  1  0.03946818  0.38301417  0.44897374  1.0
  B  B21  1  0.03946818  0.38301417  0.05102626  1.0
  B  B22  1  -0.61698583  1.03946818  0.94897374  1.0
  B  B23  1  -0.61698583  1.03946818  0.55102626  1.0
  B  B24  1  0.61698583  0.96053182  0.44897374  1.0
  B  B25  1  0.61698583  0.96053182  0.05102626  1.0
  B  B26  1  -0.03946818  1.61698583  0.94897374  1.0
  B  B27  1  -0.03946818  1.61698583  0.55102626  1.0
  B  B28  1  0.22098064  0.77901936  0.88123399  1.0
  B  B29  1  0.22098064  0.77901936  0.61876601  1.0
  B  B30  1  -0.22098064  1.22098064  0.38123399  1.0
  B  B31  1  -0.22098064  1.22098064  0.11876601  1.0
  B  B32  1  0.43648689  0.56351311  0.25000000  1.0
  B  B33  1  -0.43648689  1.43648689  0.75000000  1.0
  B  B34  1  -0.35084219  1.35084219  0.25000000  1.0
  B  B35  1  0.35084219  0.64915781  0.75000000  1.0
