# generated using pymatgen
data_H4CN5
_symmetry_space_group_name_H-M   'P 1'
_cell_length_a   7.15303387
_cell_length_b   7.15303387
_cell_length_c   4.06084330
_cell_angle_alpha   85.37004028
_cell_angle_beta   94.62995972
_cell_angle_gamma   76.19627669
_symmetry_Int_Tables_number   1
_chemical_formula_structural   H4CN5
_chemical_formula_sum   'H8 C2 N10'
_cell_volume   200.04167511
_cell_formula_units_Z   2
loop_
 _symmetry_equiv_pos_site_id
 _symmetry_equiv_pos_as_xyz
  1  'x, y, z'
loop_
 _atom_site_type_symbol
 _atom_site_label
 _atom_site_symmetry_multiplicity
 _atom_site_fract_x
 _atom_site_fract_y
 _atom_site_fract_z
 _atom_site_occupancy
  H  H0  1  0.77164955  -0.07874092  0.61624912  1.0
  H  H1  1  1.07874092  0.22835045  0.61624912  1.0
  H  H2  1  0.92125908  -0.22835045  0.38375088  1.0
  H  H3  1  1.22835045  0.07874092  0.38375088  1.0
  H  H4  1  1.32523439  0.19987798  0.67393743  1.0
  H  H5  1  0.80012202  -0.32523439  0.67393743  1.0
  H  H6  1  1.19987798  0.32523439  0.32606257  1.0
  H  H7  1  0.67476561  -0.19987798  0.32606257  1.0
  C  C8  1  0.57545341  -0.57545341  0.94719285  1.0
  C  C9  1  0.42454659  -0.42454659  0.05280715  1.0
  N  N10  1  1.72666813  0.15606485  0.79898271  1.0
  N  N11  1  0.84393515  -0.72666813  0.79898271  1.0
  N  N12  1  1.15606485  0.72666813  0.20101729  1.0
  N  N13  1  0.27333187  -0.15606485  0.20101729  1.0
  N  N14  1  1.55582399  0.24674205  0.89119153  1.0
  N  N15  1  0.75325795  -0.55582399  0.89119153  1.0
  N  N16  1  1.24674205  0.55582399  0.10880847  1.0
  N  N17  1  0.44417601  -0.24674205  0.10880847  1.0
  N  N18  1  0.79289107  -0.20710893  0.50000000  1.0
  N  N19  1  1.20710893  0.20710893  0.50000000  1.0
