# generated using pymatgen
data_RbFeH4Cl3O2
_symmetry_space_group_name_H-M   'P 1'
_cell_length_a   8.85672869
_cell_length_b   7.16781909
_cell_length_c   11.54149362
_cell_angle_alpha   90.00000000
_cell_angle_beta   90.00000000
_cell_angle_gamma   90.00000000
_symmetry_Int_Tables_number   1
_chemical_formula_structural   RbFeH4Cl3O2
_chemical_formula_sum   'Rb4 Fe4 H16 Cl12 O8'
_cell_volume   732.69359082
_cell_formula_units_Z   4
loop_
 _symmetry_equiv_pos_site_id
 _symmetry_equiv_pos_as_xyz
  1  'x, y, z'
loop_
 _atom_site_type_symbol
 _atom_site_label
 _atom_site_symmetry_multiplicity
 _atom_site_fract_x
 _atom_site_fract_y
 _atom_site_fract_z
 _atom_site_occupancy
  Rb  Rb0  1  0.75000000  0.50000000  0.34285870  1.0
  Rb  Rb1  1  0.75000000  0.50000000  0.84285870  1.0
  Rb  Rb2  1  0.25000000  0.50000000  0.65714130  1.0
  Rb  Rb3  1  0.25000000  0.50000000  0.15714130  1.0
  Fe  Fe4  1  0.00000000  0.97129552  0.25000000  1.0
  Fe  Fe5  1  0.00000000  0.02870448  0.75000000  1.0
  Fe  Fe6  1  0.50000000  0.97129552  0.75000000  1.0
  Fe  Fe7  1  0.50000000  0.02870448  0.25000000  1.0
  H  H8  1  0.67994028  0.80041229  0.11873557  1.0
  H  H9  1  0.67994028  0.19958771  0.61873557  1.0
  H  H10  1  0.17994028  0.80041229  0.88126443  1.0
  H  H11  1  0.17994028  0.19958771  0.38126443  1.0
  H  H12  1  0.32005972  0.80041229  0.38126443  1.0
  H  H13  1  0.32005972  0.19958771  0.88126443  1.0
  H  H14  1  0.82005972  0.80041229  0.61873557  1.0
  H  H15  1  0.82005972  0.19958771  0.11873557  1.0
  H  H16  1  0.52239796  0.80722040  0.05438547  1.0
  H  H17  1  0.52239796  0.19277960  0.55438547  1.0
  H  H18  1  0.02239796  0.80722040  0.94561453  1.0
  H  H19  1  0.02239796  0.19277960  0.44561453  1.0
  H  H20  1  0.47760204  0.80722040  0.44561453  1.0
  H  H21  1  0.47760204  0.19277960  0.94561453  1.0
  H  H22  1  0.97760204  0.80722040  0.55438547  1.0
  H  H23  1  0.97760204  0.19277960  0.05438547  1.0
  Cl  Cl24  1  0.91749331  0.72489595  0.10997292  1.0
  Cl  Cl25  1  0.91749331  0.27510405  0.60997292  1.0
  Cl  Cl26  1  0.41749331  0.72489595  0.89002708  1.0
  Cl  Cl27  1  0.41749331  0.27510405  0.39002708  1.0
  Cl  Cl28  1  0.08250669  0.72489595  0.39002708  1.0
  Cl  Cl29  1  0.08250669  0.27510405  0.89002708  1.0
  Cl  Cl30  1  0.58250669  0.72489595  0.60997292  1.0
  Cl  Cl31  1  0.58250669  0.27510405  0.10997292  1.0
  Cl  Cl32  1  0.75000000  0.00000000  0.34073872  1.0
  Cl  Cl33  1  0.75000000  0.00000000  0.84073872  1.0
  Cl  Cl34  1  0.25000000  0.00000000  0.65926128  1.0
  Cl  Cl35  1  0.25000000  0.00000000  0.15926128  1.0
  O  O36  1  0.57000388  0.81233482  0.13179618  1.0
  O  O37  1  0.57000388  0.18766518  0.63179618  1.0
  O  O38  1  0.07000388  0.81233482  0.86820382  1.0
  O  O39  1  0.07000388  0.18766518  0.36820382  1.0
  O  O40  1  0.42999612  0.81233482  0.36820382  1.0
  O  O41  1  0.42999612  0.18766518  0.86820382  1.0
  O  O42  1  0.92999612  0.81233482  0.63179618  1.0
  O  O43  1  0.92999612  0.18766518  0.13179618  1.0
