# generated using pymatgen
data_NaCa6Ti(Si2O9)2
_symmetry_space_group_name_H-M   'P 1'
_cell_length_a   7.59006495
_cell_length_b   5.68772229
_cell_length_c   9.81108549
_cell_angle_alpha   100.51008342
_cell_angle_beta   101.60082074
_cell_angle_gamma   89.50999988
_symmetry_Int_Tables_number   1
_chemical_formula_structural   NaCa6Ti(Si2O9)2
_chemical_formula_sum   'Na1 Ca6 Ti1 Si4 O18'
_cell_volume   407.75952542
_cell_formula_units_Z   1
loop_
 _symmetry_equiv_pos_site_id
 _symmetry_equiv_pos_as_xyz
  1  'x, y, z'
loop_
 _atom_site_type_symbol
 _atom_site_label
 _atom_site_symmetry_multiplicity
 _atom_site_fract_x
 _atom_site_fract_y
 _atom_site_fract_z
 _atom_site_occupancy
  Ca  Ca0  1  -0.91019388  -0.20755183  -0.64507635  1.0
  Ca  Ca1  1  -0.08980612  -0.79244817  -0.35492365  1.0
  Ca  Ca2  1  -0.19754213  -0.49022295  -0.97390062  1.0
  Ca  Ca3  1  -0.80245787  -0.50977705  -0.02609938  1.0
  Ca  Ca4  1  -0.40429005  -0.19275427  -0.62682621  1.0
  Ca  Ca5  1  -0.59570995  -0.80724573  -0.37317379  1.0
  Na  Na6  1  -0.50000000  -0.00000000  -0.00000000  1.0
  O  O7  1  -0.44735853  -0.82920821  -0.75894365  1.0
  O  O8  1  -0.55264147  -0.17079179  -0.24105635  1.0
  O  O9  1  -0.67421838  -0.91998289  -0.61147952  1.0
  O  O10  1  -0.32578162  -0.08001711  -0.38852048  1.0
  O  O11  1  -0.13565856  -0.90687193  -0.60824883  1.0
  O  O12  1  -0.86434144  -0.09312807  -0.39175117  1.0
  O  O13  1  -0.19177419  -0.46367049  -0.69650804  1.0
  O  O14  1  -0.80822581  -0.53632951  -0.30349196  1.0
  O  O15  1  -0.78981476  -0.79483463  -0.87384751  1.0
  O  O16  1  -0.21018524  -0.20516537  -0.12615249  1.0
  O  O17  1  -0.17853730  -0.85123008  -0.88536233  1.0
  O  O18  1  -0.82146270  -0.14876992  -0.11463767  1.0
  O  O19  1  -0.49498995  -0.39826191  -0.95026385  1.0
  O  O20  1  -0.50501005  -0.60173809  -0.04973615  1.0
  O  O21  1  -0.95573989  -0.24668346  -0.89124117  1.0
  O  O22  1  -0.04426011  -0.75331654  -0.10875883  1.0
  O  O23  1  -0.64475003  -0.45682823  -0.65398260  1.0
  O  O24  1  -0.35524997  -0.54317177  -0.34601740  1.0
  Ti  Ti25  1  0.00000000  0.00000000  0.00000000  1.0
  Si  Si26  1  -0.64888394  -0.74056261  -0.71963736  1.0
  Si  Si27  1  -0.35111606  -0.25943739  -0.28036264  1.0
  Si  Si28  1  -0.22477642  -0.75389510  -0.72776087  1.0
  Si  Si29  1  -0.77522358  -0.24610490  -0.27223913  1.0
