# generated using pymatgen
data_Sc3IrC4
_symmetry_space_group_name_H-M   'P 1'
_cell_length_a   6.73451751
_cell_length_b   6.73451751
_cell_length_c   6.73451751
_cell_angle_alpha   150.26126626
_cell_angle_beta   141.46459411
_cell_angle_gamma   49.41920386
_symmetry_Int_Tables_number   1
_chemical_formula_structural   Sc3IrC4
_chemical_formula_sum   'Sc3 Ir1 C4'
_cell_volume   93.98301354
_cell_formula_units_Z   1
loop_
 _symmetry_equiv_pos_site_id
 _symmetry_equiv_pos_as_xyz
  1  'x, y, z'
loop_
 _atom_site_type_symbol
 _atom_site_label
 _atom_site_symmetry_multiplicity
 _atom_site_fract_x
 _atom_site_fract_y
 _atom_site_fract_z
 _atom_site_occupancy
  Sc  Sc0  1  0.80952836  0.30952836  0.50000000  1.0
  Sc  Sc1  1  0.19047164  0.69047164  0.50000000  1.0
  Sc  Sc2  1  0.50000000  0.50000000  1.00000000  1.0
  Ir  Ir3  1  0.00000000  0.00000000  0.00000000  1.0
  C  C4  1  0.53574608  0.87255729  0.66318879  1.0
  C  C5  1  0.79063150  0.12744271  0.66318879  1.0
  C  C6  1  1.20936850  0.87255729  1.33681121  1.0
  C  C7  1  0.46425392  0.12744271  0.33681121  1.0
