# generated using pymatgen
data_Na5P3H2O11
_symmetry_space_group_name_H-M   'P 1'
_cell_length_a   6.93969246
_cell_length_b   11.03388322
_cell_length_c   7.10302823
_cell_angle_alpha   80.91116619
_cell_angle_beta   74.57800677
_cell_angle_gamma   81.99536871
_symmetry_Int_Tables_number   1
_chemical_formula_structural   Na5P3H2O11
_chemical_formula_sum   'Na10 P6 H4 O22'
_cell_volume   515.01598566
_cell_formula_units_Z   2
loop_
 _symmetry_equiv_pos_site_id
 _symmetry_equiv_pos_as_xyz
  1  'x, y, z'
loop_
 _atom_site_type_symbol
 _atom_site_label
 _atom_site_symmetry_multiplicity
 _atom_site_fract_x
 _atom_site_fract_y
 _atom_site_fract_z
 _atom_site_occupancy
  Na  Na0  1  -0.92290611  -0.25333538  -0.55327359  1.0
  Na  Na1  1  -0.07709389  -0.74666462  -0.44672641  1.0
  Na  Na2  1  -0.71365618  -0.50031704  -0.31679515  1.0
  Na  Na3  1  -0.28634382  -0.49968296  -0.68320485  1.0
  Na  Na4  1  -0.49587121  -0.24443606  -0.92732883  1.0
  Na  Na5  1  -0.50412879  -0.75556394  -0.07267117  1.0
  Na  Na6  1  -0.28831680  -1.00193304  -0.74785734  1.0
  Na  Na7  1  -0.71168320  0.00193304  -0.25214266  1.0
  Na  Na8  1  -0.07152729  -0.74772949  -0.96125995  1.0
  Na  Na9  1  -0.92847271  -0.25227051  -0.03874005  1.0
  P  P10  1  -0.81455942  -0.53566548  -0.79412204  1.0
  P  P11  1  -0.18544058  -0.46433452  -0.20587796  1.0
  P  P12  1  -0.80246954  -0.98185577  -0.81308974  1.0
  P  P13  1  -0.19753046  -0.01814423  -0.18691026  1.0
  P  P14  1  -0.55474670  -0.71572984  -0.57243400  1.0
  P  P15  1  -0.44525330  -0.28427016  -0.42756600  1.0
  H  H16  1  -0.66813527  -0.90840232  -0.61428649  1.0
  H  H17  1  -0.33186473  -0.09159768  -0.38571351  1.0
  H  H18  1  -0.50000000  -0.50000000  0.00000000  1.0
  H  H19  1  -0.00000000  0.00000000  -0.50000000  1.0
  O  O20  1  -0.97561691  -0.62285391  -0.76455966  1.0
  O  O21  1  -0.02438309  -0.37714609  -0.23544034  1.0
  O  O22  1  -0.89389391  -0.40207470  -0.76951280  1.0
  O  O23  1  -0.10610609  -0.59792530  -0.23048720  1.0
  O  O24  1  -0.79377728  -0.11210655  -0.86592959  1.0
  O  O25  1  -0.20622272  -0.88789345  -0.13407041  1.0
  O  O26  1  -0.76957842  -0.88151069  -0.99026042  1.0
  O  O27  1  -0.23042158  -0.11848931  -0.00973958  1.0
  O  O28  1  -0.71234018  -0.80892522  -0.48389902  1.0
  O  O29  1  -0.28765982  -0.19107478  -0.51610098  1.0
  O  O30  1  -0.68590850  -0.58085701  -0.62646791  1.0
  O  O31  1  -0.31409150  -0.41914299  -0.37353209  1.0
  O  O32  1  -0.65037891  -0.54801339  -0.99512082  1.0
  O  O33  1  -0.34962109  -0.45198661  -0.00487918  1.0
  O  O34  1  -0.63618811  -0.98505250  -0.69046357  1.0
  O  O35  1  -0.36381189  -0.01494750  -0.30953643  1.0
  O  O36  1  -0.45739345  -0.67813861  -0.42270181  1.0
  O  O37  1  -0.54260655  -0.32186139  -0.57729819  1.0
  O  O38  1  -0.40636143  -0.75110195  -0.76142402  1.0
  O  O39  1  -0.59363857  -0.24889805  -0.23857598  1.0
  O  O40  1  -0.00814524  -0.94584331  -0.66119960  1.0
  O  O41  1  -0.99185476  -0.05415669  -0.33880040  1.0
