# generated using pymatgen
data_LiB
_symmetry_space_group_name_H-M   'P 1'
_cell_length_a   6.13947172
_cell_length_b   3.07385613
_cell_length_c   5.69886886
_cell_angle_alpha   90.00000000
_cell_angle_beta   90.00000000
_cell_angle_gamma   90.00000000
_symmetry_Int_Tables_number   1
_chemical_formula_structural   LiB
_chemical_formula_sum   'Li4 B4'
_cell_volume   107.54821404
_cell_formula_units_Z   4
loop_
 _symmetry_equiv_pos_site_id
 _symmetry_equiv_pos_as_xyz
  1  'x, y, z'
loop_
 _atom_site_type_symbol
 _atom_site_label
 _atom_site_symmetry_multiplicity
 _atom_site_fract_x
 _atom_site_fract_y
 _atom_site_fract_z
 _atom_site_occupancy
  Li  Li0  1  0.75005161  0.25000000  0.25003708  1.0
  Li  Li1  1  0.25005161  0.25000000  0.24996292  1.0
  Li  Li2  1  0.24994839  0.75000000  0.74996292  1.0
  Li  Li3  1  0.74994839  0.75000000  0.75003708  1.0
  B  B4  1  -0.00001217  0.25000000  0.97346579  1.0
  B  B5  1  0.49998783  0.25000000  0.52653421  1.0
  B  B6  1  0.00001217  0.75000000  0.02653421  1.0
  B  B7  1  0.50001217  0.75000000  0.47346579  1.0
