# generated using pymatgen
data_La3Tl5
_symmetry_space_group_name_H-M   'P 1'
_cell_length_a   6.80405452
_cell_length_b   6.80405452
_cell_length_c   10.87267744
_cell_angle_alpha   90.00000000
_cell_angle_beta   90.00000000
_cell_angle_gamma   77.71022802
_symmetry_Int_Tables_number   1
_chemical_formula_structural   La3Tl5
_chemical_formula_sum   'La6 Tl10'
_cell_volume   491.81728891
_cell_formula_units_Z   2
loop_
 _symmetry_equiv_pos_site_id
 _symmetry_equiv_pos_as_xyz
  1  'x, y, z'
loop_
 _atom_site_type_symbol
 _atom_site_label
 _atom_site_symmetry_multiplicity
 _atom_site_fract_x
 _atom_site_fract_y
 _atom_site_fract_z
 _atom_site_occupancy
  La  La0  1  0.79590402  0.79590402  0.50000000  1.0
  La  La1  1  0.79590402  0.79590402  0.00000000  1.0
  La  La2  1  0.20409598  0.20409598  0.50000000  1.0
  La  La3  1  0.20409598  0.20409598  0.00000000  1.0
  La  La4  1  -0.37532430  1.37532430  0.25000000  1.0
  La  La5  1  0.37532430  0.62467570  0.75000000  1.0
  Tl  Tl6  1  0.07244094  0.49635245  0.25000000  1.0
  Tl  Tl7  1  -0.50364755  1.07244094  0.75000000  1.0
  Tl  Tl8  1  0.50364755  0.92755906  0.25000000  1.0
  Tl  Tl9  1  -0.07244094  1.50364755  0.75000000  1.0
  Tl  Tl10  1  0.30495838  0.69504162  0.45470596  1.0
  Tl  Tl11  1  0.30495838  0.69504162  0.04529404  1.0
  Tl  Tl12  1  -0.30495838  1.30495838  0.95470596  1.0
  Tl  Tl13  1  -0.30495838  1.30495838  0.54529404  1.0
  Tl  Tl14  1  0.00774236  0.99225764  0.25000000  1.0
  Tl  Tl15  1  -0.00774236  1.00774236  0.75000000  1.0
