# generated using pymatgen
data_EuHfS3
_symmetry_space_group_name_H-M   'P 1'
_cell_length_a   7.11141713
_cell_length_b   9.63671731
_cell_length_c   6.58647026
_cell_angle_alpha   90.00000000
_cell_angle_beta   90.00000000
_cell_angle_gamma   90.00000000
_symmetry_Int_Tables_number   1
_chemical_formula_structural   EuHfS3
_chemical_formula_sum   'Eu4 Hf4 S12'
_cell_volume   451.37552679
_cell_formula_units_Z   4
loop_
 _symmetry_equiv_pos_site_id
 _symmetry_equiv_pos_as_xyz
  1  'x, y, z'
loop_
 _atom_site_type_symbol
 _atom_site_label
 _atom_site_symmetry_multiplicity
 _atom_site_fract_x
 _atom_site_fract_y
 _atom_site_fract_z
 _atom_site_occupancy
  Eu  Eu0  1  0.09379057  0.75000000  0.53402418  1.0
  Eu  Eu1  1  0.59379057  0.75000000  0.96597582  1.0
  Eu  Eu2  1  0.90620943  0.25000000  0.46597582  1.0
  Eu  Eu3  1  0.40620943  0.25000000  0.03402418  1.0
  Hf  Hf4  1  0.50000000  0.00000000  0.50000000  1.0
  Hf  Hf5  1  0.50000000  0.50000000  0.50000000  1.0
  Hf  Hf6  1  0.00000000  0.00000000  0.00000000  1.0
  Hf  Hf7  1  0.00000000  0.50000000  0.00000000  1.0
  S  S8  1  0.30780911  0.94356674  0.81622793  1.0
  S  S9  1  0.30780911  0.55643326  0.81622793  1.0
  S  S10  1  0.80780911  0.94356674  0.68377207  1.0
  S  S11  1  0.80780911  0.55643326  0.68377207  1.0
  S  S12  1  0.69219089  0.44356674  0.18377207  1.0
  S  S13  1  0.69219089  0.05643326  0.18377207  1.0
  S  S14  1  0.19219089  0.44356674  0.31622793  1.0
  S  S15  1  0.19219089  0.05643326  0.31622793  1.0
  S  S16  1  0.97487912  0.75000000  0.11346087  1.0
  S  S17  1  0.47487912  0.75000000  0.38653913  1.0
  S  S18  1  0.02512088  0.25000000  0.88653913  1.0
  S  S19  1  0.52512088  0.25000000  0.61346087  1.0
