# generated using pymatgen
data_BeCl2
_symmetry_space_group_name_H-M   'P 1'
_cell_length_a   8.56863073
_cell_length_b   8.56863073
_cell_length_c   8.56863073
_cell_angle_alpha   109.47122063
_cell_angle_beta   109.47122063
_cell_angle_gamma   109.47122063
_symmetry_Int_Tables_number   1
_chemical_formula_structural   BeCl2
_chemical_formula_sum   'Be6 Cl12'
_cell_volume   484.29768135
_cell_formula_units_Z   6
loop_
 _symmetry_equiv_pos_site_id
 _symmetry_equiv_pos_as_xyz
  1  'x, y, z'
loop_
 _atom_site_type_symbol
 _atom_site_label
 _atom_site_symmetry_multiplicity
 _atom_site_fract_x
 _atom_site_fract_y
 _atom_site_fract_z
 _atom_site_occupancy
  Be  Be0  1  0.75000000  0.25000000  0.50000000  1.0
  Be  Be1  1  0.25000000  0.50000000  0.75000000  1.0
  Be  Be2  1  0.25000000  0.75000000  0.50000000  1.0
  Be  Be3  1  0.75000000  0.50000000  0.25000000  1.0
  Be  Be4  1  0.50000000  0.25000000  0.75000000  1.0
  Be  Be5  1  0.50000000  0.75000000  0.25000000  1.0
  Cl  Cl6  1  0.72964553  1.25914480  1.25914480  1.0
  Cl  Cl7  1  1.00000000  1.47050074  0.74085520  1.0
  Cl  Cl8  1  0.27035447  0.52949926  0.52949926  1.0
  Cl  Cl9  1  1.00000000  0.74085520  1.47050074  1.0
  Cl  Cl10  1  1.47050074  0.74085520  1.00000000  1.0
  Cl  Cl11  1  1.25914480  0.72964553  1.25914480  1.0
  Cl  Cl12  1  0.52949926  0.52949926  0.27035447  1.0
  Cl  Cl13  1  0.74085520  1.00000000  1.47050074  1.0
  Cl  Cl14  1  0.74085520  1.47050074  1.00000000  1.0
  Cl  Cl15  1  0.52949926  0.27035447  0.52949926  1.0
  Cl  Cl16  1  1.25914480  1.25914480  0.72964553  1.0
  Cl  Cl17  1  1.47050074  1.00000000  0.74085520  1.0
