# generated using pymatgen
data_Na3As
_symmetry_space_group_name_H-M   'P 1'
_cell_length_a   8.84430468
_cell_length_b   8.84430468
_cell_length_c   9.06668855
_cell_angle_alpha   90.00000000
_cell_angle_beta   90.00000000
_cell_angle_gamma   120.00000000
_symmetry_Int_Tables_number   1
_chemical_formula_structural   Na3As
_chemical_formula_sum   'Na18 As6'
_cell_volume   614.19562743
_cell_formula_units_Z   6
loop_
 _symmetry_equiv_pos_site_id
 _symmetry_equiv_pos_as_xyz
  1  'x, y, z'
loop_
 _atom_site_type_symbol
 _atom_site_label
 _atom_site_symmetry_multiplicity
 _atom_site_fract_x
 _atom_site_fract_y
 _atom_site_fract_z
 _atom_site_occupancy
  Na  Na0  1  0.63564800  0.63564800  0.35459652  1.0
  Na  Na1  1  0.63564800  0.00000000  0.85459652  1.0
  Na  Na2  1  -0.00000000  0.63564800  0.85459652  1.0
  Na  Na3  1  0.00000000  0.36435200  0.35459652  1.0
  Na  Na4  1  0.36435200  0.36435200  0.85459652  1.0
  Na  Na5  1  0.36435200  0.00000000  0.35459652  1.0
  Na  Na6  1  0.29699523  0.29699523  0.19389426  1.0
  Na  Na7  1  0.29699523  0.00000000  0.69389426  1.0
  Na  Na8  1  -0.00000000  0.29699523  0.69389426  1.0
  Na  Na9  1  0.00000000  0.70300477  0.19389426  1.0
  Na  Na10  1  0.70300477  0.70300477  0.69389426  1.0
  Na  Na11  1  0.70300477  0.00000000  0.19389426  1.0
  Na  Na12  1  0.33333333  0.66666667  0.04932732  1.0
  Na  Na13  1  0.33333333  0.66666667  0.54932732  1.0
  Na  Na14  1  0.66666667  0.33333333  0.04932732  1.0
  Na  Na15  1  0.66666667  0.33333333  0.54932732  1.0
  Na  Na16  1  0.00000000  0.00000000  -0.02170236  1.0
  Na  Na17  1  0.00000000  0.00000000  0.47829764  1.0
  As  As18  1  0.66987016  0.66987016  0.02435847  1.0
  As  As19  1  0.66987016  0.00000000  0.52435847  1.0
  As  As20  1  -0.00000000  0.66987016  0.52435847  1.0
  As  As21  1  0.00000000  0.33012984  0.02435847  1.0
  As  As22  1  0.33012984  0.33012984  0.52435847  1.0
  As  As23  1  0.33012984  0.00000000  0.02435847  1.0
