# generated using pymatgen
data_Zn5Cl2O9
_symmetry_space_group_name_H-M   'P 1'
_cell_length_a   8.51248296
_cell_length_b   8.51248296
_cell_length_c   8.51248296
_cell_angle_alpha   42.22720784
_cell_angle_beta   42.22720784
_cell_angle_gamma   42.22720784
_symmetry_Int_Tables_number   1
_chemical_formula_structural   Zn5Cl2O9
_chemical_formula_sum   'Zn5 Cl2 O9'
_cell_volume   252.13967317
_cell_formula_units_Z   1
loop_
 _symmetry_equiv_pos_site_id
 _symmetry_equiv_pos_as_xyz
  1  'x, y, z'
loop_
 _atom_site_type_symbol
 _atom_site_label
 _atom_site_symmetry_multiplicity
 _atom_site_fract_x
 _atom_site_fract_y
 _atom_site_fract_z
 _atom_site_occupancy
  Cl  Cl0  1  0.66711328  0.66711328  0.66711328  1.0
  Cl  Cl1  1  1.33288672  1.33288672  0.33288672  1.0
  Zn  Zn2  1  1.00000000  1.50000000  -0.00000000  1.0
  Zn  Zn3  1  1.00000000  1.00000000  0.50000000  1.0
  Zn  Zn4  1  1.50000000  1.00000000  -0.00000000  1.0
  Zn  Zn5  1  1.57006114  0.57006114  0.57006114  1.0
  Zn  Zn6  1  1.42993886  0.42993886  0.42993886  1.0
  O  O7  1  1.27906896  1.27906896  -0.18182015  1.0
  O  O8  1  1.27906896  0.81817985  0.27906896  1.0
  O  O9  1  1.18182015  0.72093104  0.72093104  1.0
  O  O10  1  1.72093104  0.18182015  0.72093104  1.0
  O  O11  1  1.72093104  0.72093104  0.18182015  1.0
  O  O12  1  0.81817985  1.27906896  0.27906896  1.0
  O  O13  1  0.94380965  0.94380965  0.94380965  1.0
  O  O14  1  1.05619035  1.05619035  0.05619035  1.0
  O  O15  1  0.00000000  0.00000000  -0.00000000  1.0
