# generated using pymatgen
data_LiCaSi2
_symmetry_space_group_name_H-M   'P 1'
_cell_length_a   7.93946797
_cell_length_b   3.80615416
_cell_length_c   10.62493544
_cell_angle_alpha   90.00000000
_cell_angle_beta   90.00000000
_cell_angle_gamma   90.00000000
_symmetry_Int_Tables_number   1
_chemical_formula_structural   LiCaSi2
_chemical_formula_sum   'Li4 Ca4 Si8'
_cell_volume   321.07321354
_cell_formula_units_Z   4
loop_
 _symmetry_equiv_pos_site_id
 _symmetry_equiv_pos_as_xyz
  1  'x, y, z'
loop_
 _atom_site_type_symbol
 _atom_site_label
 _atom_site_symmetry_multiplicity
 _atom_site_fract_x
 _atom_site_fract_y
 _atom_site_fract_z
 _atom_site_occupancy
  Li  Li0  1  0.50099364  0.75000000  0.61198569  1.0
  Li  Li1  1  0.00099364  0.75000000  0.88801431  1.0
  Li  Li2  1  0.49900636  0.25000000  0.38801431  1.0
  Li  Li3  1  0.99900636  0.25000000  0.11198569  1.0
  Ca  Ca4  1  0.86728235  0.75000000  0.36442931  1.0
  Ca  Ca5  1  0.36728235  0.75000000  0.13557069  1.0
  Ca  Ca6  1  0.13271765  0.25000000  0.63557069  1.0
  Ca  Ca7  1  0.63271765  0.25000000  0.86442931  1.0
  Si  Si8  1  0.83292162  0.75000000  0.67470738  1.0
  Si  Si9  1  0.33292162  0.75000000  0.82529262  1.0
  Si  Si10  1  0.16707838  0.25000000  0.32529262  1.0
  Si  Si11  1  0.66707838  0.25000000  0.17470738  1.0
  Si  Si12  1  0.77022516  0.75000000  0.06803227  1.0
  Si  Si13  1  0.27022516  0.75000000  0.43196773  1.0
  Si  Si14  1  0.22977484  0.25000000  0.93196773  1.0
  Si  Si15  1  0.72977484  0.25000000  0.56803227  1.0
