# generated using pymatgen
data_Na2Cu(Si2O5)2
_symmetry_space_group_name_H-M   'P 1'
_cell_length_a   7.00853271
_cell_length_b   9.93222438
_cell_length_c   8.07601980
_cell_angle_alpha   65.62859548
_cell_angle_beta   61.88464985
_cell_angle_gamma   76.92039204
_symmetry_Int_Tables_number   1
_chemical_formula_structural   Na2Cu(Si2O5)2
_chemical_formula_sum   'Na4 Cu2 Si8 O20'
_cell_volume   451.29891432
_cell_formula_units_Z   2
loop_
 _symmetry_equiv_pos_site_id
 _symmetry_equiv_pos_as_xyz
  1  'x, y, z'
loop_
 _atom_site_type_symbol
 _atom_site_label
 _atom_site_symmetry_multiplicity
 _atom_site_fract_x
 _atom_site_fract_y
 _atom_site_fract_z
 _atom_site_occupancy
  Na  Na0  1  -0.09897655  -0.97552060  0.25752080  1.0
  Na  Na1  1  0.09897655  -0.02447940  -0.25752080  1.0
  Na  Na2  1  -0.45145306  -0.57915931  0.21808044  1.0
  Na  Na3  1  0.45145306  -0.42084069  -0.21808044  1.0
  Cu  Cu4  1  -0.03959300  -0.42686993  -0.22786560  1.0
  Cu  Cu5  1  0.03959300  -0.57313007  0.22786560  1.0
  Si  Si6  1  0.24388068  -0.73586134  -0.15695380  1.0
  Si  Si7  1  -0.24388068  -0.26413866  0.15695380  1.0
  Si  Si8  1  -0.29613580  -0.81175806  0.56623874  1.0
  Si  Si9  1  0.29613580  -0.18824194  -0.56623874  1.0
  Si  Si10  1  0.36489666  -0.84956999  0.20496475  1.0
  Si  Si11  1  -0.36489666  -0.15043001  -0.20496475  1.0
  Si  Si12  1  0.80407697  -0.75095323  -0.12128060  1.0
  Si  Si13  1  -0.80407697  -0.24904677  0.12128060  1.0
  O  O14  1  -0.24158142  -0.57981817  -0.14846438  1.0
  O  O15  1  0.24158142  -0.42018183  0.14846438  1.0
  O  O16  1  0.04390127  -0.82054662  -0.12537846  1.0
  O  O17  1  -0.04390127  -0.17945338  0.12537846  1.0
  O  O18  1  -0.26723485  -0.28634214  -0.28127815  1.0
  O  O19  1  0.26723485  -0.71365786  0.28127815  1.0
  O  O20  1  0.19946640  -0.20077210  -0.70867727  1.0
  O  O21  1  -0.19946640  -0.79922790  0.70867727  1.0
  O  O22  1  -0.29018619  -0.99080599  0.60626601  1.0
  O  O23  1  0.29018619  -0.00919401  -0.60626601  1.0
  O  O24  1  -0.54900023  -0.74744700  0.63545658  1.0
  O  O25  1  0.54900023  -0.25255300  -0.63545658  1.0
  O  O26  1  -0.15797388  -0.73385167  0.32924476  1.0
  O  O27  1  0.15797388  -0.26614833  -0.32924476  1.0
  O  O28  1  0.18557967  -0.56872970  -0.16494231  1.0
  O  O29  1  -0.18557967  -0.43127030  0.16494231  1.0
  O  O30  1  0.29620057  -0.84873949  0.03565391  1.0
  O  O31  1  -0.29620057  -0.15126051  -0.03565391  1.0
  O  O32  1  0.63466156  -0.85600795  0.10477858  1.0
  O  O33  1  -0.63466156  -0.14399205  -0.10477858  1.0
