# generated using pymatgen
data_Ag2PdCl4
_symmetry_space_group_name_H-M   'P 1'
_cell_length_a   6.52874228
_cell_length_b   6.52874228
_cell_length_c   8.26021101
_cell_angle_alpha   90.00000000
_cell_angle_beta   90.00000000
_cell_angle_gamma   79.30617385
_symmetry_Int_Tables_number   1
_chemical_formula_structural   Ag2PdCl4
_chemical_formula_sum   'Ag4 Pd2 Cl8'
_cell_volume   345.97239460
_cell_formula_units_Z   2
loop_
 _symmetry_equiv_pos_site_id
 _symmetry_equiv_pos_as_xyz
  1  'x, y, z'
loop_
 _atom_site_type_symbol
 _atom_site_label
 _atom_site_symmetry_multiplicity
 _atom_site_fract_x
 _atom_site_fract_y
 _atom_site_fract_z
 _atom_site_occupancy
  Ag  Ag0  1  -0.47082120  0.97082120  0.25000000  1.0
  Ag  Ag1  1  0.02917880  1.47082120  0.25000000  1.0
  Ag  Ag2  1  -0.02917880  0.52917880  0.75000000  1.0
  Ag  Ag3  1  0.47082120  1.02917880  0.75000000  1.0
  Pd  Pd4  1  -0.50000000  0.50000000  0.50000000  1.0
  Pd  Pd5  1  0.00000000  1.00000000  0.00000000  1.0
  Cl  Cl6  1  -0.29987923  1.29987923  0.30316734  1.0
  Cl  Cl7  1  0.20012077  0.79987923  0.19683266  1.0
  Cl  Cl8  1  0.29987923  0.70012077  0.69683266  1.0
  Cl  Cl9  1  -0.20012077  1.20012077  0.80316734  1.0
  Cl  Cl10  1  0.26891010  1.26891010  0.50000000  1.0
  Cl  Cl11  1  -0.23108990  0.76891010  0.00000000  1.0
  Cl  Cl12  1  -0.26891010  0.73108990  0.50000000  1.0
  Cl  Cl13  1  0.23108990  1.23108990  0.00000000  1.0
