# generated using pymatgen
data_P4H36W(C6Cl)2
_symmetry_space_group_name_H-M   'P 1'
_cell_length_a   9.58408072
_cell_length_b   9.58408072
_cell_length_c   9.58408072
_cell_angle_alpha   116.55541810
_cell_angle_beta   116.55541810
_cell_angle_gamma   96.07749956
_symmetry_Int_Tables_number   1
_chemical_formula_structural   P4H36W(C6Cl)2
_chemical_formula_sum   'P4 H36 W1 C12 Cl2'
_cell_volume   650.94056538
_cell_formula_units_Z   1
loop_
 _symmetry_equiv_pos_site_id
 _symmetry_equiv_pos_as_xyz
  1  'x, y, z'
loop_
 _atom_site_type_symbol
 _atom_site_label
 _atom_site_symmetry_multiplicity
 _atom_site_fract_x
 _atom_site_fract_y
 _atom_site_fract_z
 _atom_site_occupancy
  P  P0  1  0.35802393  0.35802393  0.65542085  1.0
  P  P1  1  0.70260308  0.70260308  0.34457915  1.0
  P  P2  1  1.29739692  0.64197607  1.00000000  1.0
  P  P3  1  0.64197607  1.29739692  1.00000000  1.0
  H  H4  1  1.24671087  1.41749607  1.40951449  1.0
  H  H5  1  1.00798158  0.83719638  0.59048551  1.0
  H  H6  1  0.99201842  1.58250393  0.82921480  1.0
  H  H7  1  1.75328913  1.16280362  1.17078520  1.0
  H  H8  1  1.16280362  1.75328913  1.17078520  1.0
  H  H9  1  1.58250393  0.99201842  0.82921480  1.0
  H  H10  1  1.41749607  1.24671087  1.40951449  1.0
  H  H11  1  0.83719638  1.00798158  0.59048551  1.0
  H  H12  1  0.19281666  0.52177823  0.57472809  1.0
  H  H13  1  0.94705014  0.61808856  0.42527191  1.0
  H  H14  1  1.05294986  1.47822177  0.67103842  1.0
  H  H15  1  0.80718334  1.38191144  1.32896158  1.0
  H  H16  1  1.38191144  0.80718334  1.32896158  1.0
  H  H17  1  1.47822177  1.05294986  0.67103842  1.0
  H  H18  1  0.52177823  0.19281666  0.57472809  1.0
  H  H19  1  0.61808856  0.94705014  0.42527191  1.0
  H  H20  1  0.40262827  0.60206871  0.63831834  1.0
  H  H21  1  0.96375037  0.76430993  0.36168166  1.0
  H  H22  1  1.03624963  1.39793129  0.80055956  1.0
  H  H23  1  0.59737173  1.23569007  1.19944044  1.0
  H  H24  1  1.23569007  0.59737173  1.19944044  1.0
  H  H25  1  1.39793129  1.03624963  0.80055956  1.0
  H  H26  1  0.60206871  0.40262827  0.63831834  1.0
  H  H27  1  0.76430993  0.96375037  0.36168166  1.0
  H  H28  1  1.11666698  1.11666698  0.34634495  1.0
  H  H29  1  0.77032204  0.77032204  0.65365505  1.0
  H  H30  1  1.22967796  0.88333302  1.00000000  1.0
  H  H31  1  0.88333302  1.22967796  1.00000000  1.0
  H  H32  1  1.06740031  1.19155624  0.51979248  1.0
  H  H33  1  0.67176376  0.54760783  0.48020752  1.0
  H  H34  1  0.32823624  0.80844376  0.87584406  1.0
  H  H35  1  0.93259969  1.45239217  1.12415594  1.0
  H  H36  1  1.45239217  0.93259969  1.12415594  1.0
  H  H37  1  0.80844376  0.32823624  0.87584406  1.0
  H  H38  1  1.19155624  1.06740031  0.51979248  1.0
  H  H39  1  0.54760783  0.67176376  0.48020752  1.0
  W  W40  1  0.50000000  0.50000000  -0.00000000  1.0
  C  C41  1  1.16471152  1.16471152  0.49354473  1.0
  C  C42  1  0.67116679  0.67116679  0.50645527  1.0
  C  C43  1  1.32883321  0.83528848  1.00000000  1.0
  C  C44  1  0.83528848  1.32883321  1.00000000  1.0
  C  C45  1  0.29226732  0.48633975  0.55875050  1.0
  C  C46  1  0.92758926  0.73351682  0.44124950  1.0
  C  C47  1  1.07241074  1.51366025  0.80592756  1.0
  C  C48  1  0.70773268  1.26648318  1.19407244  1.0
  C  C49  1  1.26648318  0.70773268  1.19407244  1.0
  C  C50  1  1.51366025  1.07241074  0.80592756  1.0
  C  C51  1  0.48633975  0.29226732  0.55875050  1.0
  C  C52  1  0.73351682  0.92758926  0.44124950  1.0
  Cl  Cl53  1  0.69205449  0.69205449  -0.00000000  1.0
  Cl  Cl54  1  0.30794551  0.30794551  -0.00000000  1.0
