# generated using pymatgen
data_CsZr2(PO4)3
_symmetry_space_group_name_H-M   'P 1'
_cell_length_a   9.78282157
_cell_length_b   9.78282157
_cell_length_c   9.78282157
_cell_angle_alpha   52.97039783
_cell_angle_beta   52.97039783
_cell_angle_gamma   52.97039783
_symmetry_Int_Tables_number   1
_chemical_formula_structural   CsZr2(PO4)3
_chemical_formula_sum   'Cs2 Zr4 P6 O24'
_cell_volume   552.93962827
_cell_formula_units_Z   2
loop_
 _symmetry_equiv_pos_site_id
 _symmetry_equiv_pos_as_xyz
  1  'x, y, z'
loop_
 _atom_site_type_symbol
 _atom_site_label
 _atom_site_symmetry_multiplicity
 _atom_site_fract_x
 _atom_site_fract_y
 _atom_site_fract_z
 _atom_site_occupancy
  Cs  Cs0  1  1.00000000  -0.00000000  -0.00000000  1.0
  Cs  Cs1  1  0.50000000  0.50000000  0.50000000  1.0
  Zr  Zr2  1  0.84746463  -0.15253537  -0.15253537  1.0
  Zr  Zr3  1  0.34746463  0.34746463  0.34746463  1.0
  Zr  Zr4  1  0.65253537  0.65253537  -0.34746463  1.0
  Zr  Zr5  1  1.15253537  0.15253537  0.15253537  1.0
  P  P6  1  0.46745453  0.75000000  0.03254547  1.0
  P  P7  1  0.96745453  -0.46745453  0.25000000  1.0
  P  P8  1  0.25000000  0.96745453  -0.46745453  1.0
  P  P9  1  0.75000000  1.03254547  -0.53254547  1.0
  P  P10  1  0.53254547  0.25000000  -0.03254547  1.0
  P  P11  1  1.03254547  0.46745453  -0.25000000  1.0
  O  O12  1  0.73454033  1.01343640  -0.35488120  1.0
  O  O13  1  1.23454033  0.14511880  -0.48656360  1.0
  O  O14  1  0.85488120  0.48656360  -0.23454033  1.0
  O  O15  1  0.35488120  0.26545967  -0.01343640  1.0
  O  O16  1  0.98656360  0.35488120  -0.73454033  1.0
  O  O17  1  0.48656360  0.76545967  -0.14511880  1.0
  O  O18  1  0.26545967  0.98656360  -0.64511880  1.0
  O  O19  1  0.76545967  0.85488120  -0.51343640  1.0
  O  O20  1  0.64511880  0.73454033  0.01343640  1.0
  O  O21  1  1.14511880  -0.48656360  0.23454033  1.0
  O  O22  1  0.51343640  0.23454033  0.14511880  1.0
  O  O23  1  1.01343640  0.64511880  -0.26545967  1.0
  O  O24  1  0.69323669  0.07491593  -0.07610579  1.0
  O  O25  1  1.19323669  0.42389421  -0.42508407  1.0
  O  O26  1  0.57610579  0.42508407  -0.19323669  1.0
  O  O27  1  1.07610579  0.30676331  -0.07491593  1.0
  O  O28  1  0.92508407  0.07610579  0.30676331  1.0
  O  O29  1  0.42508407  0.80676331  -0.42389421  1.0
  O  O30  1  1.30676331  -0.07491593  0.07610579  1.0
  O  O31  1  0.80676331  0.57610579  -0.57491593  1.0
  O  O32  1  0.92389421  -0.30676331  0.07491593  1.0
  O  O33  1  0.42389421  0.57491593  0.19323669  1.0
  O  O34  1  0.57491593  1.19323669  -0.57610579  1.0
  O  O35  1  1.07491593  -0.07610579  -0.30676331  1.0
