# generated using pymatgen
data_SrCr2O4
_symmetry_space_group_name_H-M   'P 1'
_cell_length_a   5.98237899
_cell_length_b   11.59947303
_cell_length_c   5.19054936
_cell_angle_alpha   90.00000000
_cell_angle_beta   90.00000000
_cell_angle_gamma   90.00000000
_symmetry_Int_Tables_number   1
_chemical_formula_structural   SrCr2O4
_chemical_formula_sum   'Sr4 Cr8 O16'
_cell_volume   360.18490387
_cell_formula_units_Z   4
loop_
 _symmetry_equiv_pos_site_id
 _symmetry_equiv_pos_as_xyz
  1  'x, y, z'
loop_
 _atom_site_type_symbol
 _atom_site_label
 _atom_site_symmetry_multiplicity
 _atom_site_fract_x
 _atom_site_fract_y
 _atom_site_fract_z
 _atom_site_occupancy
  Sr  Sr0  1  0.00000000  0.50000000  0.45636081  1.0
  Sr  Sr1  1  0.50000000  0.00000000  0.54363919  1.0
  Sr  Sr2  1  0.00000000  0.00000000  0.13972978  1.0
  Sr  Sr3  1  0.50000000  0.50000000  0.86027022  1.0
  Cr  Cr4  1  0.00000000  0.24254313  0.50314088  1.0
  Cr  Cr5  1  0.00000000  0.75745687  0.50314088  1.0
  Cr  Cr6  1  0.50000000  0.74254313  0.49685912  1.0
  Cr  Cr7  1  0.50000000  0.25745687  0.49685912  1.0
  Cr  Cr8  1  0.25000000  0.25000000  0.00000000  1.0
  Cr  Cr9  1  0.25000000  0.75000000  0.00000000  1.0
  Cr  Cr10  1  0.75000000  0.75000000  0.00000000  1.0
  Cr  Cr11  1  0.75000000  0.25000000  0.00000000  1.0
  O  O12  1  0.74708911  0.15662990  0.33489698  1.0
  O  O13  1  0.74708911  0.84337010  0.33489698  1.0
  O  O14  1  0.24708911  0.65662990  0.66510302  1.0
  O  O15  1  0.24708911  0.34337010  0.66510302  1.0
  O  O16  1  0.75291089  0.65662990  0.66510302  1.0
  O  O17  1  0.75291089  0.34337010  0.66510302  1.0
  O  O18  1  0.25291089  0.15662990  0.33489698  1.0
  O  O19  1  0.25291089  0.84337010  0.33489698  1.0
  O  O20  1  0.00000000  0.16003991  0.83599573  1.0
  O  O21  1  0.00000000  0.83996009  0.83599573  1.0
  O  O22  1  0.50000000  0.66003991  0.16400427  1.0
  O  O23  1  0.50000000  0.33996009  0.16400427  1.0
  O  O24  1  0.00000000  0.66651900  0.17238687  1.0
  O  O25  1  0.00000000  0.33348100  0.17238687  1.0
  O  O26  1  0.50000000  0.16651900  0.82761313  1.0
  O  O27  1  0.50000000  0.83348100  0.82761313  1.0
