# generated using pymatgen
data_Na3Sc2(PO4)3
_symmetry_space_group_name_H-M   'P 1'
_cell_length_a   9.42927651
_cell_length_b   9.42927651
_cell_length_c   9.42927651
_cell_angle_alpha   57.08270148
_cell_angle_beta   57.08270148
_cell_angle_gamma   57.08270148
_symmetry_Int_Tables_number   1
_chemical_formula_structural   Na3Sc2(PO4)3
_chemical_formula_sum   'Na6 Sc4 P6 O24'
_cell_volume   552.95614637
_cell_formula_units_Z   2
loop_
 _symmetry_equiv_pos_site_id
 _symmetry_equiv_pos_as_xyz
  1  'x, y, z'
loop_
 _atom_site_type_symbol
 _atom_site_label
 _atom_site_symmetry_multiplicity
 _atom_site_fract_x
 _atom_site_fract_y
 _atom_site_fract_z
 _atom_site_occupancy
  Na  Na0  1  0.87719160  -0.37719160  0.25000000  1.0
  Na  Na1  1  0.62280840  0.25000000  -0.12280840  1.0
  Na  Na2  1  0.25000000  0.87719160  -0.37719160  1.0
  Na  Na3  1  0.37719160  0.75000000  -0.87719160  1.0
  Na  Na4  1  0.75000000  0.12280840  -0.62280840  1.0
  Na  Na5  1  0.12280840  0.37719160  -0.25000000  1.0
  Sc  Sc6  1  0.15240864  0.15240864  0.15240864  1.0
  Sc  Sc7  1  0.65240864  0.65240864  -0.34759136  1.0
  Sc  Sc8  1  0.84759136  -0.15240864  -0.15240864  1.0
  Sc  Sc9  1  0.34759136  0.34759136  -0.65240864  1.0
  P  P10  1  0.96173073  0.25000000  -0.46173073  1.0
  P  P11  1  0.25000000  0.53826927  -0.03826927  1.0
  P  P12  1  0.53826927  -0.03826927  0.25000000  1.0
  P  P13  1  0.46173073  0.03826927  -0.25000000  1.0
  P  P14  1  1.03826927  -0.25000000  -0.53826927  1.0
  P  P15  1  0.75000000  -0.53826927  0.03826927  1.0
  O  O16  1  1.07406312  -0.07788046  -0.69991208  1.0
  O  O17  1  0.92211954  -0.69991208  0.07406312  1.0
  O  O18  1  0.30008792  0.07406312  -0.07788046  1.0
  O  O19  1  0.57406312  0.80008792  -0.57788046  1.0
  O  O20  1  0.80008792  0.42211954  -0.42593688  1.0
  O  O21  1  0.42211954  0.57406312  -0.19991208  1.0
  O  O22  1  0.92593688  0.07788046  -0.30008792  1.0
  O  O23  1  1.07788046  -0.30008792  -0.07406312  1.0
  O  O24  1  0.69991208  -0.07406312  0.07788046  1.0
  O  O25  1  0.42593688  0.19991208  -0.42211954  1.0
  O  O26  1  0.19991208  0.57788046  -0.57406312  1.0
  O  O27  1  0.57788046  0.42593688  -0.80008792  1.0
  O  O28  1  1.13864862  0.24612344  -0.48181285  1.0
  O  O29  1  1.24612344  -0.48181285  0.13864862  1.0
  O  O30  1  0.51818715  0.13864862  0.24612344  1.0
  O  O31  1  0.63864862  0.01818715  -0.25387656  1.0
  O  O32  1  1.01818715  -0.25387656  -0.36135138  1.0
  O  O33  1  0.74612344  -0.36135138  0.01818715  1.0
  O  O34  1  0.86135138  -0.24612344  -0.51818715  1.0
  O  O35  1  0.75387656  -0.51818715  -0.13864862  1.0
  O  O36  1  0.48181285  -0.13864862  -0.24612344  1.0
  O  O37  1  0.36135138  0.98181285  -0.74612344  1.0
  O  O38  1  0.98181285  0.25387656  -0.63864862  1.0
  O  O39  1  0.25387656  0.36135138  -0.01818715  1.0
