# generated using pymatgen
data_Li
_symmetry_space_group_name_H-M   'P 1'
_cell_length_a   8.01121655
_cell_length_b   8.01121655
_cell_length_c   5.73882357
_cell_angle_alpha   90.00000000
_cell_angle_beta   90.00000000
_cell_angle_gamma   42.00553587
_symmetry_Int_Tables_number   1
_chemical_formula_structural   Li
_chemical_formula_sum   Li12
_cell_volume   246.47751593
_cell_formula_units_Z   12
loop_
 _symmetry_equiv_pos_site_id
 _symmetry_equiv_pos_as_xyz
  1  'x, y, z'
loop_
 _atom_site_type_symbol
 _atom_site_label
 _atom_site_symmetry_multiplicity
 _atom_site_fract_x
 _atom_site_fract_y
 _atom_site_fract_z
 _atom_site_occupancy
  Li  Li0  1  -0.24999990  1.24999990  0.00010528  1.0
  Li  Li1  1  0.24999990  0.75000010  0.99989472  1.0
  Li  Li2  1  -0.25000010  1.25000010  0.50010528  1.0
  Li  Li3  1  0.25000010  0.74999990  0.49989472  1.0
  Li  Li4  1  0.15664158  1.15839210  0.24999950  1.0
  Li  Li5  1  0.15839210  1.15664158  0.75000050  1.0
  Li  Li6  1  -0.34160790  0.65664158  0.74999950  1.0
  Li  Li7  1  -0.34335842  0.65839210  0.25000050  1.0
  Li  Li8  1  -0.15664158  0.84160790  0.75000050  1.0
  Li  Li9  1  -0.15839210  0.84335842  0.24999950  1.0
  Li  Li10  1  0.34160790  1.34335842  0.25000050  1.0
  Li  Li11  1  0.34335842  1.34160790  0.74999950  1.0
