# generated using pymatgen
data_Hg2GeO4
_symmetry_space_group_name_H-M   'P 1'
_cell_length_a   8.25930408
_cell_length_b   6.66555960
_cell_length_c   6.80230058
_cell_angle_alpha   75.64363090
_cell_angle_beta   51.42885263
_cell_angle_gamma   52.92751648
_symmetry_Int_Tables_number   1
_chemical_formula_structural   Hg2GeO4
_chemical_formula_sum   'Hg4 Ge2 O8'
_cell_volume   228.64348177
_cell_formula_units_Z   2
loop_
 _symmetry_equiv_pos_site_id
 _symmetry_equiv_pos_as_xyz
  1  'x, y, z'
loop_
 _atom_site_type_symbol
 _atom_site_label
 _atom_site_symmetry_multiplicity
 _atom_site_fract_x
 _atom_site_fract_y
 _atom_site_fract_z
 _atom_site_occupancy
  Hg  Hg0  1  0.81859211  0.18140789  0.81859211  1.0
  Hg  Hg1  1  0.18140789  0.81859211  0.18140789  1.0
  Hg  Hg2  1  0.43140789  0.06859211  0.43140789  1.0
  Hg  Hg3  1  0.06859211  0.43140789  0.06859211  1.0
  Ge  Ge4  1  0.50000000  0.50000000  0.50000000  1.0
  Ge  Ge5  1  0.75000000  -0.25000000  0.75000000  1.0
  O  O6  1  -0.17291806  1.34116870  0.36157603  1.0
  O  O7  1  0.47017332  0.36157603  0.34116870  1.0
  O  O8  1  0.36157603  0.47017332  -0.17291806  1.0
  O  O9  1  0.34116870  0.82708194  0.47017332  1.0
  O  O10  1  -0.57708194  0.90883130  0.88842397  1.0
  O  O11  1  0.77982668  -0.11157603  0.90883130  1.0
  O  O12  1  -0.11157603  0.77982668  0.42291806  1.0
  O  O13  1  0.90883130  -0.57708194  0.77982668  1.0
