# generated using pymatgen
data_LiLaGe2
_symmetry_space_group_name_H-M   'P 1'
_cell_length_a   7.89769288
_cell_length_b   4.04013027
_cell_length_c   10.92451941
_cell_angle_alpha   90.00000000
_cell_angle_beta   90.00000000
_cell_angle_gamma   90.00000000
_symmetry_Int_Tables_number   1
_chemical_formula_structural   LiLaGe2
_chemical_formula_sum   'Li4 La4 Ge8'
_cell_volume   348.57637586
_cell_formula_units_Z   4
loop_
 _symmetry_equiv_pos_site_id
 _symmetry_equiv_pos_as_xyz
  1  'x, y, z'
loop_
 _atom_site_type_symbol
 _atom_site_label
 _atom_site_symmetry_multiplicity
 _atom_site_fract_x
 _atom_site_fract_y
 _atom_site_fract_z
 _atom_site_occupancy
  Li  Li0  1  0.50762948  0.75000000  0.61126125  1.0
  Li  Li1  1  0.00762948  0.75000000  0.88873875  1.0
  Li  Li2  1  0.49237052  0.25000000  0.38873875  1.0
  Li  Li3  1  0.99237052  0.25000000  0.11126125  1.0
  La  La4  1  0.86099995  0.75000000  0.36700291  1.0
  La  La5  1  0.36099995  0.75000000  0.13299709  1.0
  La  La6  1  0.13900005  0.25000000  0.63299709  1.0
  La  La7  1  0.63900005  0.25000000  0.86700291  1.0
  Ge  Ge8  1  0.84026966  0.75000000  0.68305407  1.0
  Ge  Ge9  1  0.34026966  0.75000000  0.81694593  1.0
  Ge  Ge10  1  0.15973034  0.25000000  0.31694593  1.0
  Ge  Ge11  1  0.65973034  0.25000000  0.18305407  1.0
  Ge  Ge12  1  0.78155699  0.75000000  0.06872343  1.0
  Ge  Ge13  1  0.28155699  0.75000000  0.43127657  1.0
  Ge  Ge14  1  0.21844301  0.25000000  0.93127657  1.0
  Ge  Ge15  1  0.71844301  0.25000000  0.56872343  1.0
