# generated using pymatgen
data_AsSe3(ClF2)3
_symmetry_space_group_name_H-M   'P 1'
_cell_length_a   13.01936748
_cell_length_b   8.09617255
_cell_length_c   12.70397768
_cell_angle_alpha   90.00000000
_cell_angle_beta   103.74840580
_cell_angle_gamma   90.00000000
_symmetry_Int_Tables_number   1
_chemical_formula_structural   AsSe3(ClF2)3
_chemical_formula_sum   'As4 Se12 Cl12 F24'
_cell_volume   1300.72209832
_cell_formula_units_Z   4
loop_
 _symmetry_equiv_pos_site_id
 _symmetry_equiv_pos_as_xyz
  1  'x, y, z'
loop_
 _atom_site_type_symbol
 _atom_site_label
 _atom_site_symmetry_multiplicity
 _atom_site_fract_x
 _atom_site_fract_y
 _atom_site_fract_z
 _atom_site_occupancy
  As  As0  1  0.72608547  0.79426530  0.49069421  1.0
  As  As1  1  0.27391453  0.29426530  0.00930579  1.0
  As  As2  1  0.27391453  0.20573470  0.50930579  1.0
  As  As3  1  0.72608547  0.70573470  0.99069421  1.0
  Se  Se4  1  0.16786059  0.63396917  0.63891863  1.0
  Se  Se5  1  0.83213941  0.13396917  0.86108137  1.0
  Se  Se6  1  0.83213941  0.36603083  0.36108137  1.0
  Se  Se7  1  0.16786059  0.86603083  0.13891863  1.0
  Se  Se8  1  0.11466964  0.85751307  0.71094789  1.0
  Se  Se9  1  0.88533036  0.35751307  0.78905211  1.0
  Se  Se10  1  0.88533036  0.14248693  0.28905211  1.0
  Se  Se11  1  0.11466964  0.64248693  0.21094789  1.0
  Se  Se12  1  0.35430381  0.56991174  0.76796906  1.0
  Se  Se13  1  0.64569619  0.06991174  0.73203094  1.0
  Se  Se14  1  0.64569619  0.43008826  0.23203094  1.0
  Se  Se15  1  0.35430381  0.93008826  0.26796906  1.0
  Cl  Cl16  1  0.45677464  0.65419536  0.66760064  1.0
  Cl  Cl17  1  0.54322536  0.15419536  0.83239936  1.0
  Cl  Cl18  1  0.54322536  0.34580464  0.33239936  1.0
  Cl  Cl19  1  0.45677464  0.84580464  0.16760064  1.0
  Cl  Cl20  1  0.35808688  0.77900039  0.87171773  1.0
  Cl  Cl21  1  0.64191312  0.27900039  0.62828227  1.0
  Cl  Cl22  1  0.64191312  0.22099961  0.12828227  1.0
  Cl  Cl23  1  0.35808688  0.72099961  0.37171773  1.0
  Cl  Cl24  1  0.02855093  0.76896478  0.83151727  1.0
  Cl  Cl25  1  0.97144907  0.26896478  0.66848273  1.0
  Cl  Cl26  1  0.97144907  0.23103522  0.16848273  1.0
  Cl  Cl27  1  0.02855093  0.73103522  0.33151727  1.0
  F  F28  1  0.62156019  0.93829093  0.44194634  1.0
  F  F29  1  0.37843981  0.43829093  0.05805366  1.0
  F  F30  1  0.37843981  0.06170907  0.55805366  1.0
  F  F31  1  0.62156019  0.56170907  0.94194634  1.0
  F  F32  1  0.69083705  0.68553309  0.36118482  1.0
  F  F33  1  0.30916295  0.18553309  0.13881518  1.0
  F  F34  1  0.30916295  0.31446691  0.63881518  1.0
  F  F35  1  0.69083705  0.81446691  0.86118482  1.0
  F  F36  1  0.83032834  0.64844315  0.53791615  1.0
  F  F37  1  0.16967166  0.14844315  0.96208385  1.0
  F  F38  1  0.16967166  0.35155685  0.46208385  1.0
  F  F39  1  0.83032834  0.85155685  0.03791615  1.0
  F  F40  1  0.76221772  0.90354471  0.61871398  1.0
  F  F41  1  0.23778228  0.40354471  0.88128602  1.0
  F  F42  1  0.23778228  0.09645529  0.38128602  1.0
  F  F43  1  0.76221772  0.59645529  0.11871398  1.0
  F  F44  1  0.63729726  0.66527192  0.54195822  1.0
  F  F45  1  0.36270274  0.16527192  0.95804178  1.0
  F  F46  1  0.36270274  0.33472808  0.45804178  1.0
  F  F47  1  0.63729726  0.83472808  0.04195822  1.0
  F  F48  1  0.81555565  0.92125541  0.43852090  1.0
  F  F49  1  0.18444435  0.42125541  0.06147910  1.0
  F  F50  1  0.18444435  0.07874459  0.56147910  1.0
  F  F51  1  0.81555565  0.57874459  0.93852090  1.0
