# generated using pymatgen
data_K2PAu
_symmetry_space_group_name_H-M   'P 1'
_cell_length_a   6.17625463
_cell_length_b   6.17625463
_cell_length_c   6.34745152
_cell_angle_alpha   90.00000000
_cell_angle_beta   90.00000000
_cell_angle_gamma   73.53007237
_symmetry_Int_Tables_number   1
_chemical_formula_structural   K2PAu
_chemical_formula_sum   'K4 P2 Au2'
_cell_volume   232.19571294
_cell_formula_units_Z   2
loop_
 _symmetry_equiv_pos_site_id
 _symmetry_equiv_pos_as_xyz
  1  'x, y, z'
loop_
 _atom_site_type_symbol
 _atom_site_label
 _atom_site_symmetry_multiplicity
 _atom_site_fract_x
 _atom_site_fract_y
 _atom_site_fract_z
 _atom_site_occupancy
  K  K0  1  -0.18105721  1.52807808  0.25000000  1.0
  K  K1  1  0.52807808  0.81894279  0.75000000  1.0
  K  K2  1  -0.52807808  1.18105721  0.25000000  1.0
  K  K3  1  0.18105721  0.47192192  0.75000000  1.0
  P  P4  1  0.24641956  0.75358044  0.25000000  1.0
  P  P5  1  -0.24641956  1.24641956  0.75000000  1.0
  Au  Au6  1  0.00000000  0.00000000  0.50000000  1.0
  Au  Au7  1  0.00000000  0.00000000  0.00000000  1.0
