# generated using pymatgen
data_Nb11Si2
_symmetry_space_group_name_H-M   'P 1'
_cell_length_a   10.04477253
_cell_length_b   10.04477253
_cell_length_c   10.04477253
_cell_angle_alpha   30.72015528
_cell_angle_beta   30.72015528
_cell_angle_gamma   30.72015528
_symmetry_Int_Tables_number   1
_chemical_formula_structural   Nb11Si2
_chemical_formula_sum   'Nb11 Si2'
_cell_volume   234.52811087
_cell_formula_units_Z   1
loop_
 _symmetry_equiv_pos_site_id
 _symmetry_equiv_pos_as_xyz
  1  'x, y, z'
loop_
 _atom_site_type_symbol
 _atom_site_label
 _atom_site_symmetry_multiplicity
 _atom_site_fract_x
 _atom_site_fract_y
 _atom_site_fract_z
 _atom_site_occupancy
  Nb  Nb0  1  0.00000000  0.00000000  0.00000000  1.0
  Nb  Nb1  1  0.64762056  0.64762056  -0.35237944  1.0
  Nb  Nb2  1  0.35237944  0.35237944  -0.64762056  1.0
  Nb  Nb3  1  0.83206716  -0.16793284  -0.16793284  1.0
  Nb  Nb4  1  0.16793284  0.16793284  0.16793284  1.0
  Nb  Nb5  1  0.41491469  -0.08899471  -0.08899471  1.0
  Nb  Nb6  1  0.91100529  -0.08899471  -0.58508531  1.0
  Nb  Nb7  1  0.91100529  -0.58508531  -0.08899471  1.0
  Nb  Nb8  1  0.58508531  0.08899471  0.08899471  1.0
  Nb  Nb9  1  1.08899471  0.08899471  -0.41491469  1.0
  Nb  Nb10  1  1.08899471  -0.41491469  0.08899471  1.0
  Si  Si11  1  0.54786949  0.54786949  -0.45213051  1.0
  Si  Si12  1  0.45213051  0.45213051  -0.54786949  1.0
