# generated using pymatgen
data_Sc3RuC4
_symmetry_space_group_name_H-M   'P 1'
_cell_length_a   6.80782800
_cell_length_b   6.80782800
_cell_length_c   6.80782800
_cell_angle_alpha   151.72227734
_cell_angle_beta   141.39748092
_cell_angle_gamma   48.53559279
_symmetry_Int_Tables_number   1
_chemical_formula_structural   Sc3RuC4
_chemical_formula_sum   'Sc3 Ru1 C4'
_cell_volume   92.89645561
_cell_formula_units_Z   1
loop_
 _symmetry_equiv_pos_site_id
 _symmetry_equiv_pos_as_xyz
  1  'x, y, z'
loop_
 _atom_site_type_symbol
 _atom_site_label
 _atom_site_symmetry_multiplicity
 _atom_site_fract_x
 _atom_site_fract_y
 _atom_site_fract_z
 _atom_site_occupancy
  Sc  Sc0  1  0.81048473  0.31048473  0.50000000  1.0
  Sc  Sc1  1  0.18951527  0.68951527  0.50000000  1.0
  Sc  Sc2  1  0.50000000  0.50000000  1.00000000  1.0
  Ru  Ru3  1  0.00000000  0.00000000  0.00000000  1.0
  C  C4  1  0.52988442  0.87109584  0.65878858  1.0
  C  C5  1  0.78769274  0.12890416  0.65878858  1.0
  C  C6  1  1.21230726  0.87109584  1.34121142  1.0
  C  C7  1  0.47011558  0.12890416  0.34121142  1.0
