# generated using pymatgen
data_HCNO
_symmetry_space_group_name_H-M   'P 1'
_cell_length_a   7.73828218
_cell_length_b   7.73828218
_cell_length_c   9.25708976
_cell_angle_alpha   46.21773906
_cell_angle_beta   133.78226094
_cell_angle_gamma   127.76941594
_symmetry_Int_Tables_number   1
_chemical_formula_structural   HCNO
_chemical_formula_sum   'H6 C6 N6 O6'
_cell_volume   279.26827842
_cell_formula_units_Z   6
loop_
 _symmetry_equiv_pos_site_id
 _symmetry_equiv_pos_as_xyz
  1  'x, y, z'
loop_
 _atom_site_type_symbol
 _atom_site_label
 _atom_site_symmetry_multiplicity
 _atom_site_fract_x
 _atom_site_fract_y
 _atom_site_fract_z
 _atom_site_occupancy
  H  H0  1  0.88654849  -0.11345151  0.75000000  1.0
  H  H1  1  0.11345151  0.11345151  0.25000000  1.0
  H  H2  1  1.18479792  0.54257599  0.40122724  1.0
  H  H3  1  0.54257599  0.18479792  0.09877276  1.0
  H  H4  1  0.81520208  0.45742401  0.59877276  1.0
  H  H5  1  0.45742401  -0.18479792  0.90122724  1.0
  C  C6  1  1.32952266  0.32952266  0.75000000  1.0
  C  C7  1  0.67047734  0.67047734  0.25000000  1.0
  C  C8  1  0.53406275  -0.25025382  0.54236570  1.0
  C  C9  1  0.74974618  -0.46593725  0.95763430  1.0
  C  C10  1  0.46593725  0.25025382  0.45763430  1.0
  C  C11  1  1.25025382  -0.53406275  0.04236570  1.0
  N  N12  1  0.73509656  -0.26490344  0.75000000  1.0
  N  N13  1  0.26490344  0.26490344  0.25000000  1.0
  N  N14  1  1.33764497  0.54071768  0.55274925  1.0
  N  N15  1  1.54071768  0.33764497  0.94725075  1.0
  N  N16  1  0.66235503  0.45928232  0.44725075  1.0
  N  N17  1  1.45928232  -0.33764497  0.05274925  1.0
  O  O18  1  1.14968745  0.14968745  0.75000000  1.0
  O  O19  1  0.85031255  0.85031255  0.25000000  1.0
  O  O20  1  0.52977130  -0.06613575  0.36211732  1.0
  O  O21  1  0.93386425  0.52977130  0.13788268  1.0
  O  O22  1  0.47022870  0.06613575  0.63788268  1.0
  O  O23  1  1.06613575  0.47022870  0.86211732  1.0
