# generated using pymatgen
data_Ni5(W3C)4
_symmetry_space_group_name_H-M   'P 1'
_cell_length_a   10.24043839
_cell_length_b   10.24043839
_cell_length_c   10.24043839
_cell_angle_alpha   60.00000000
_cell_angle_beta   60.00000000
_cell_angle_gamma   60.00000000
_symmetry_Int_Tables_number   1
_chemical_formula_structural   Ni5(W3C)4
_chemical_formula_sum   'Ni10 W24 C8'
_cell_volume   759.34764225
_cell_formula_units_Z   2
loop_
 _symmetry_equiv_pos_site_id
 _symmetry_equiv_pos_as_xyz
  1  'x, y, z'
loop_
 _atom_site_type_symbol
 _atom_site_label
 _atom_site_symmetry_multiplicity
 _atom_site_fract_x
 _atom_site_fract_y
 _atom_site_fract_z
 _atom_site_occupancy
  Ni  Ni0  1  0.66679732  -0.33320268  0.99960803  1.0
  Ni  Ni1  1  0.66679732  -0.00039197  0.66679732  1.0
  Ni  Ni2  1  0.58320268  -0.41679732  0.58320268  1.0
  Ni  Ni3  1  1.25039197  -0.41679732  0.58320268  1.0
  Ni  Ni4  1  0.99960803  -0.33320268  0.66679732  1.0
  Ni  Ni5  1  0.66679732  -0.33320268  0.66679732  1.0
  Ni  Ni6  1  0.58320268  0.25039197  0.58320268  1.0
  Ni  Ni7  1  0.58320268  -0.41679732  1.25039197  1.0
  Ni  Ni8  1  0.50000000  0.50000000  -0.50000000  1.0
  Ni  Ni9  1  0.75000000  -0.25000000  0.75000000  1.0
  W  W10  1  0.96989021  -0.59285775  0.65307733  1.0
  W  W11  1  -0.03010979  0.65307733  0.40714225  1.0
  W  W12  1  -0.15714225  0.28010979  0.28010979  1.0
  W  W13  1  0.59692267  0.28010979  0.28010979  1.0
  W  W14  1  -0.59285775  0.96989021  0.65307733  1.0
  W  W15  1  0.96989021  -0.03010979  0.65307733  1.0
  W  W16  1  0.96989021  -0.34692267  0.96989021  1.0
  W  W17  1  -0.59285775  0.65307733  0.96989021  1.0
  W  W18  1  0.28010979  -0.15714225  0.28010979  1.0
  W  W19  1  0.28010979  0.28010979  -0.15714225  1.0
  W  W20  1  0.59692267  0.28010979  -0.15714225  1.0
  W  W21  1  0.59692267  -0.15714225  0.28010979  1.0
  W  W22  1  0.65307733  -0.03010979  0.96989021  1.0
  W  W23  1  -0.59285775  0.96989021  0.96989021  1.0
  W  W24  1  0.28010979  0.59692267  -0.15714225  1.0
  W  W25  1  0.28010979  -0.15714225  0.59692267  1.0
  W  W26  1  -0.34692267  0.96989021  0.40714225  1.0
  W  W27  1  0.65307733  -0.59285775  0.96989021  1.0
  W  W28  1  0.96989021  -0.59285775  0.96989021  1.0
  W  W29  1  -0.03010979  0.96989021  0.40714225  1.0
  W  W30  1  0.28010979  0.59692267  0.28010979  1.0
  W  W31  1  -0.15714225  0.59692267  0.28010979  1.0
  W  W32  1  -0.15714225  0.28010979  0.59692267  1.0
  W  W33  1  0.28010979  0.28010979  0.59692267  1.0
  C  C34  1  -0.16675947  0.83324053  0.50027841  1.0
  C  C35  1  0.83324053  -0.49972159  0.83324053  1.0
  C  C36  1  0.41675947  0.41675947  0.41675947  1.0
  C  C37  1  -0.25027841  0.41675947  0.41675947  1.0
  C  C38  1  -0.49972159  0.83324053  0.83324053  1.0
  C  C39  1  0.83324053  -0.16675947  0.83324053  1.0
  C  C40  1  0.41675947  -0.25027841  0.41675947  1.0
  C  C41  1  0.41675947  0.41675947  -0.25027841  1.0
