# generated using pymatgen
data_KO3
_symmetry_space_group_name_H-M   'P 1'
_cell_length_a   7.20315702
_cell_length_b   7.20315702
_cell_length_c   7.20315702
_cell_angle_alpha   104.49645904
_cell_angle_beta   104.49645904
_cell_angle_gamma   119.95764439
_symmetry_Int_Tables_number   1
_chemical_formula_structural   KO3
_chemical_formula_sum   'K4 O12'
_cell_volume   280.36409258
_cell_formula_units_Z   4
loop_
 _symmetry_equiv_pos_site_id
 _symmetry_equiv_pos_as_xyz
  1  'x, y, z'
loop_
 _atom_site_type_symbol
 _atom_site_label
 _atom_site_symmetry_multiplicity
 _atom_site_fract_x
 _atom_site_fract_y
 _atom_site_fract_z
 _atom_site_occupancy
  K  K0  1  0.75000000  0.25000000  0.50000000  1.0
  K  K1  1  0.25000000  0.75000000  0.50000000  1.0
  K  K2  1  0.25000000  0.25000000  -0.00000000  1.0
  K  K3  1  0.75000000  0.75000000  0.00000000  1.0
  O  O4  1  0.43343755  0.24890874  0.68234630  1.0
  O  O5  1  1.06656245  0.74890874  0.81547119  1.0
  O  O6  1  0.74890874  0.93343755  0.68234630  1.0
  O  O7  1  0.75109126  0.43343755  1.18452881  1.0
  O  O8  1  0.93343755  0.25109126  1.18452881  1.0
  O  O9  1  0.56656245  0.75109126  0.31765370  1.0
  O  O10  1  1.24890874  0.56656245  0.81547119  1.0
  O  O11  1  0.25109126  0.06656245  0.31765370  1.0
  O  O12  1  0.78186386  0.28186386  1.06372773  1.0
  O  O13  1  0.71813614  0.78186386  0.50000000  1.0
  O  O14  1  0.28186386  0.21813614  0.50000000  1.0
  O  O15  1  1.21813614  0.71813614  0.93627227  1.0
