# generated using pymatgen
data_NaVAsO5
_symmetry_space_group_name_H-M   'P 1'
_cell_length_a   6.80317530
_cell_length_b   8.85609316
_cell_length_c   7.32947270
_cell_angle_alpha   90.00000000
_cell_angle_beta   115.45857901
_cell_angle_gamma   90.00000000
_symmetry_Int_Tables_number   1
_chemical_formula_structural   NaVAsO5
_chemical_formula_sum   'Na4 V4 As4 O20'
_cell_volume   398.71670630
_cell_formula_units_Z   4
loop_
 _symmetry_equiv_pos_site_id
 _symmetry_equiv_pos_as_xyz
  1  'x, y, z'
loop_
 _atom_site_type_symbol
 _atom_site_label
 _atom_site_symmetry_multiplicity
 _atom_site_fract_x
 _atom_site_fract_y
 _atom_site_fract_z
 _atom_site_occupancy
  Na  Na0  1  0.73944034  0.91972258  0.22273177  1.0
  Na  Na1  1  0.73944034  0.58027742  0.72273177  1.0
  Na  Na2  1  0.26055966  0.41972258  0.27726823  1.0
  Na  Na3  1  0.26055966  0.08027742  0.77726823  1.0
  V  V4  1  0.75712926  0.23785973  0.47434423  1.0
  V  V5  1  0.75712926  0.26214027  0.97434423  1.0
  V  V6  1  0.24287074  0.73785973  0.02565577  1.0
  V  V7  1  0.24287074  0.76214027  0.52565577  1.0
  As  As8  1  0.25142508  0.06246578  0.25304028  1.0
  As  As9  1  0.25142508  0.43753422  0.75304028  1.0
  As  As10  1  0.74857492  0.56246578  0.24695972  1.0
  As  As11  1  0.74857492  0.93753422  0.74695972  1.0
  O  O12  1  0.93273451  0.69459326  0.40373991  1.0
  O  O13  1  0.93273451  0.80540674  0.90373991  1.0
  O  O14  1  0.06726549  0.19459326  0.09626009  1.0
  O  O15  1  0.06726549  0.30540674  0.59626009  1.0
  O  O16  1  0.86966444  0.45422391  0.12414201  1.0
  O  O17  1  0.86966444  0.04577609  0.62414201  1.0
  O  O18  1  0.13033556  0.95422391  0.37585799  1.0
  O  O19  1  0.13033556  0.54577609  0.87585799  1.0
  O  O20  1  0.74642612  0.18856547  0.25301011  1.0
  O  O21  1  0.74642612  0.31143453  0.75301011  1.0
  O  O22  1  0.25357388  0.68856547  0.24698989  1.0
  O  O23  1  0.25357388  0.81143453  0.74698989  1.0
  O  O24  1  0.65303274  0.45309694  0.39107936  1.0
  O  O25  1  0.65303274  0.04690306  0.89107936  1.0
  O  O26  1  0.34696726  0.95309694  0.10892064  1.0
  O  O27  1  0.34696726  0.54690306  0.60892064  1.0
  O  O28  1  0.45377884  0.17676325  0.42627231  1.0
  O  O29  1  0.45377884  0.32323675  0.92627231  1.0
  O  O30  1  0.54622116  0.67676325  0.07372769  1.0
  O  O31  1  0.54622116  0.82323675  0.57372769  1.0
