# generated using pymatgen
data_Cs2IrF6
_symmetry_space_group_name_H-M   'P 1'
_cell_length_a   6.34094470
_cell_length_b   6.34094470
_cell_length_c   5.20543717
_cell_angle_alpha   90.00000000
_cell_angle_beta   90.00000000
_cell_angle_gamma   120.00000000
_symmetry_Int_Tables_number   1
_chemical_formula_structural   Cs2IrF6
_chemical_formula_sum   'Cs2 Ir1 F6'
_cell_volume   181.25741088
_cell_formula_units_Z   1
loop_
 _symmetry_equiv_pos_site_id
 _symmetry_equiv_pos_as_xyz
  1  'x, y, z'
loop_
 _atom_site_type_symbol
 _atom_site_label
 _atom_site_symmetry_multiplicity
 _atom_site_fract_x
 _atom_site_fract_y
 _atom_site_fract_z
 _atom_site_occupancy
  Cs  Cs0  1  0.33333333  0.66666667  0.29095566  1.0
  Cs  Cs1  1  0.66666667  0.33333333  0.70904434  1.0
  Ir  Ir2  1  0.00000000  0.00000000  0.00000000  1.0
  F  F3  1  0.29926542  0.14963271  0.20958468  1.0
  F  F4  1  0.14963271  0.29926542  0.79041532  1.0
  F  F5  1  0.14963271  0.85036729  0.79041532  1.0
  F  F6  1  0.85036729  0.14963271  0.20958468  1.0
  F  F7  1  0.85036729  0.70073458  0.20958468  1.0
  F  F8  1  0.70073458  0.85036729  0.79041532  1.0
