# generated using pymatgen
data_CdI2
_symmetry_space_group_name_H-M   'P 1'
_cell_length_a   4.32782120
_cell_length_b   4.32782120
_cell_length_c   83.44476952
_cell_angle_alpha   90.00000000
_cell_angle_beta   90.00000000
_cell_angle_gamma   120.00000000
_symmetry_Int_Tables_number   1
_chemical_formula_structural   CdI2
_chemical_formula_sum   'Cd11 I22'
_cell_volume   1353.53151155
_cell_formula_units_Z   11
loop_
 _symmetry_equiv_pos_site_id
 _symmetry_equiv_pos_as_xyz
  1  'x, y, z'
loop_
 _atom_site_type_symbol
 _atom_site_label
 _atom_site_symmetry_multiplicity
 _atom_site_fract_x
 _atom_site_fract_y
 _atom_site_fract_z
 _atom_site_occupancy
  Cd  Cd0  1  0.00000000  0.00000000  0.02274917  1.0
  Cd  Cd1  1  0.00000000  0.00000000  0.11364259  1.0
  Cd  Cd2  1  0.00000000  0.00000000  0.20455731  1.0
  Cd  Cd3  1  0.00000000  0.00000000  0.29545196  1.0
  Cd  Cd4  1  0.00000000  0.00000000  0.47726628  1.0
  Cd  Cd5  1  0.00000000  0.00000000  0.65909420  1.0
  Cd  Cd6  1  0.00000000  0.00000000  0.84090470  1.0
  Cd  Cd7  1  0.66666667  0.33333333  0.38636591  1.0
  Cd  Cd8  1  0.66666667  0.33333333  0.56817406  1.0
  Cd  Cd9  1  0.66666667  0.33333333  0.75000088  1.0
  Cd  Cd10  1  0.33333333  0.66666667  0.93182559  1.0
  I  I11  1  0.00000000  0.00000000  0.40697240  1.0
  I  I12  1  0.00000000  0.00000000  0.58878082  1.0
  I  I13  1  0.00000000  0.00000000  0.77059738  1.0
  I  I14  1  0.00000000  0.00000000  0.91121813  1.0
  I  I15  1  0.66666667  0.33333333  0.04335234  1.0
  I  I16  1  0.66666667  0.33333333  0.13424455  1.0
  I  I17  1  0.66666667  0.33333333  0.22516509  1.0
  I  I18  1  0.66666667  0.33333333  0.31606080  1.0
  I  I19  1  0.66666667  0.33333333  0.49787268  1.0
  I  I20  1  0.66666667  0.33333333  0.67969082  1.0
  I  I21  1  0.66666667  0.33333333  0.86149917  1.0
  I  I22  1  0.66666667  0.33333333  0.95242663  1.0
  I  I23  1  0.33333333  0.66666667  0.00214062  1.0
  I  I24  1  0.33333333  0.66666667  0.09303363  1.0
  I  I25  1  0.33333333  0.66666667  0.18395416  1.0
  I  I26  1  0.33333333  0.66666667  0.27484918  1.0
  I  I27  1  0.33333333  0.66666667  0.36576383  1.0
  I  I28  1  0.33333333  0.66666667  0.45666422  1.0
  I  I29  1  0.33333333  0.66666667  0.54757259  1.0
  I  I30  1  0.33333333  0.66666667  0.63849702  1.0
  I  I31  1  0.33333333  0.66666667  0.72940321  1.0
  I  I32  1  0.33333333  0.66666667  0.82030811  1.0
