# generated using pymatgen
data_Li3BO3
_symmetry_space_group_name_H-M   'P 1'
_cell_length_a   3.29540819
_cell_length_b   9.21575517
_cell_length_c   8.37422111
_cell_angle_alpha   90.00000000
_cell_angle_beta   101.45284732
_cell_angle_gamma   90.00000000
_symmetry_Int_Tables_number   1
_chemical_formula_structural   Li3BO3
_chemical_formula_sum   'Li12 B4 O12'
_cell_volume   249.25842012
_cell_formula_units_Z   4
loop_
 _symmetry_equiv_pos_site_id
 _symmetry_equiv_pos_as_xyz
  1  'x, y, z'
loop_
 _atom_site_type_symbol
 _atom_site_label
 _atom_site_symmetry_multiplicity
 _atom_site_fract_x
 _atom_site_fract_y
 _atom_site_fract_z
 _atom_site_occupancy
  Li  Li0  1  0.90647206  0.92655929  0.36721364  1.0
  Li  Li1  1  0.90647206  0.57344071  0.86721364  1.0
  Li  Li2  1  0.09352794  0.42655929  0.13278636  1.0
  Li  Li3  1  0.09352794  0.07344071  0.63278636  1.0
  Li  Li4  1  0.72456963  0.47702782  0.38747050  1.0
  Li  Li5  1  0.72456963  0.02297218  0.88747050  1.0
  Li  Li6  1  0.27543037  0.97702782  0.11252950  1.0
  Li  Li7  1  0.27543037  0.52297218  0.61252950  1.0
  Li  Li8  1  0.50861036  0.23081430  0.48185602  1.0
  Li  Li9  1  0.50861036  0.26918570  0.98185602  1.0
  Li  Li10  1  0.49138964  0.73081430  0.01814398  1.0
  Li  Li11  1  0.49138964  0.76918570  0.51814398  1.0
  B  B12  1  0.80133380  0.18619105  0.24494552  1.0
  B  B13  1  0.80133380  0.31380895  0.74494552  1.0
  B  B14  1  0.19866620  0.68619105  0.25505448  1.0
  B  B15  1  0.19866620  0.81380895  0.75505448  1.0
  O  O16  1  0.96985726  0.13754967  0.40037512  1.0
  O  O17  1  0.96985726  0.36245033  0.90037512  1.0
  O  O18  1  0.03014274  0.63754967  0.09962488  1.0
  O  O19  1  0.03014274  0.86245033  0.59962488  1.0
  O  O20  1  0.77015648  0.09352852  0.11170504  1.0
  O  O21  1  0.77015648  0.40647148  0.61170504  1.0
  O  O22  1  0.22984352  0.59352852  0.38829496  1.0
  O  O23  1  0.22984352  0.90647148  0.88829496  1.0
  O  O24  1  0.64085772  0.32689359  0.22001374  1.0
  O  O25  1  0.64085772  0.17310641  0.72001374  1.0
  O  O26  1  0.35914228  0.82689359  0.27998626  1.0
  O  O27  1  0.35914228  0.67310641  0.77998626  1.0
