# generated using pymatgen
data_FeB2
_symmetry_space_group_name_H-M   'P 1'
_cell_length_a   4.81250240
_cell_length_b   4.80260726
_cell_length_c   3.73840899
_cell_angle_alpha   90.00000000
_cell_angle_beta   90.00000000
_cell_angle_gamma   90.00000000
_symmetry_Int_Tables_number   1
_chemical_formula_structural   FeB2
_chemical_formula_sum   'Fe4 B8'
_cell_volume   86.40419829
_cell_formula_units_Z   4
loop_
 _symmetry_equiv_pos_site_id
 _symmetry_equiv_pos_as_xyz
  1  'x, y, z'
loop_
 _atom_site_type_symbol
 _atom_site_label
 _atom_site_symmetry_multiplicity
 _atom_site_fract_x
 _atom_site_fract_y
 _atom_site_fract_z
 _atom_site_occupancy
  Fe  Fe0  1  0.48032497  0.75000000  0.37600813  1.0
  Fe  Fe1  1  0.98032497  0.75000000  0.12399187  1.0
  Fe  Fe2  1  0.51967503  0.25000000  0.62399187  1.0
  Fe  Fe3  1  0.01967503  0.25000000  0.87600813  1.0
  B  B4  1  0.66068983  0.06953154  0.10703437  1.0
  B  B5  1  0.16068983  0.43046846  0.39296563  1.0
  B  B6  1  0.33931017  0.56953154  0.89296563  1.0
  B  B7  1  0.83931017  0.93046846  0.60703437  1.0
  B  B8  1  0.33931017  0.93046846  0.89296563  1.0
  B  B9  1  0.83931017  0.56953154  0.60703437  1.0
  B  B10  1  0.66068983  0.43046846  0.10703437  1.0
  B  B11  1  0.16068983  0.06953154  0.39296563  1.0
