# generated using pymatgen
data_Ba7B4S13
_symmetry_space_group_name_H-M   'P 1'
_cell_length_a   13.18261389
_cell_length_b   13.18261389
_cell_length_c   10.25248913
_cell_angle_alpha   89.99404917
_cell_angle_beta   90.00595083
_cell_angle_gamma   45.83433026
_symmetry_Int_Tables_number   1
_chemical_formula_structural   Ba7B4S13
_chemical_formula_sum   'Ba14 B8 S26'
_cell_volume   1278.05714598
_cell_formula_units_Z   2
loop_
 _symmetry_equiv_pos_site_id
 _symmetry_equiv_pos_as_xyz
  1  'x, y, z'
loop_
 _atom_site_type_symbol
 _atom_site_label
 _atom_site_symmetry_multiplicity
 _atom_site_fract_x
 _atom_site_fract_y
 _atom_site_fract_z
 _atom_site_occupancy
  Ba  Ba0  1  0.56597465  -0.22179369  0.97077562  1.0
  Ba  Ba1  1  1.22179369  -0.56597465  0.47077562  1.0
  Ba  Ba2  1  0.77820631  -0.43402535  0.52922438  1.0
  Ba  Ba3  1  0.43402535  0.22179369  0.02922438  1.0
  Ba  Ba4  1  0.60426844  0.04626663  0.64404746  1.0
  Ba  Ba5  1  0.95373337  -0.60426844  0.14404746  1.0
  Ba  Ba6  1  1.04626663  -0.39573156  0.85595254  1.0
  Ba  Ba7  1  0.39573156  -0.04626663  0.35595254  1.0
  Ba  Ba8  1  0.99723848  -0.00276152  0.75000000  1.0
  Ba  Ba9  1  0.00276152  0.00276152  0.25000000  1.0
  Ba  Ba10  1  0.49368192  0.49368192  0.75000000  1.0
  Ba  Ba11  1  0.50631808  -0.49368192  0.25000000  1.0
  Ba  Ba12  1  0.16845252  0.16845252  0.75000000  1.0
  Ba  Ba13  1  0.83154748  -0.16845252  0.25000000  1.0
  B  B14  1  0.78308871  -0.01797980  0.93190971  1.0
  B  B15  1  1.01797980  -0.78308871  0.43190971  1.0
  B  B16  1  0.98202020  -0.21691129  0.56809029  1.0
  B  B17  1  0.21691129  0.01797980  0.06809029  1.0
  B  B18  1  0.43290129  -0.20798016  0.64923488  1.0
  B  B19  1  1.20798016  -0.43290129  0.14923488  1.0
  B  B20  1  0.79201984  -0.56709871  0.85076512  1.0
  B  B21  1  0.56709871  0.20798016  0.35076512  1.0
  S  S22  1  0.87486617  -0.04020724  0.50189361  1.0
  S  S23  1  1.04020724  -0.87486617  0.00189361  1.0
  S  S24  1  0.95979276  -0.12513383  0.99810639  1.0
  S  S25  1  0.12513383  0.04020724  0.49810639  1.0
  S  S26  1  0.47753172  -0.32436981  0.51534541  1.0
  S  S27  1  1.32436981  -0.47753172  0.01534541  1.0
  S  S28  1  0.67563019  -0.52246828  0.98465459  1.0
  S  S29  1  0.52246828  0.32436981  0.48465459  1.0
  S  S30  1  0.70736052  -0.09489159  0.93834715  1.0
  S  S31  1  1.09489159  -0.70736052  0.43834715  1.0
  S  S32  1  0.90510841  -0.29263948  0.56165285  1.0
  S  S33  1  0.29263948  0.09489159  0.06165285  1.0
  S  S34  1  0.50210946  -0.12396115  0.65154940  1.0
  S  S35  1  1.12396115  -0.50210946  0.15154940  1.0
  S  S36  1  0.87603885  -0.49789054  0.84845060  1.0
  S  S37  1  0.49789054  0.12396115  0.34845060  1.0
  S  S38  1  0.68586995  0.15163812  0.85154395  1.0
  S  S39  1  0.84836188  -0.68586995  0.35154395  1.0
  S  S40  1  1.15163812  -0.31413005  0.64845605  1.0
  S  S41  1  0.31413005  -0.15163812  0.14845605  1.0
  S  S42  1  0.33489379  -0.18025960  0.79218559  1.0
  S  S43  1  1.18025960  -0.33489379  0.29218559  1.0
  S  S44  1  0.81974040  -0.66510621  0.70781441  1.0
  S  S45  1  0.66510621  0.18025960  0.20781441  1.0
  S  S46  1  0.29500932  0.29500932  0.75000000  1.0
  S  S47  1  0.70499068  -0.29500932  0.25000000  1.0
