# generated using pymatgen
data_ReGe2
_symmetry_space_group_name_H-M   'P 1'
_cell_length_a   4.85005206
_cell_length_b   4.85005206
_cell_length_c   7.57365607
_cell_angle_alpha   63.65514815
_cell_angle_beta   116.34485185
_cell_angle_gamma   141.32817469
_symmetry_Int_Tables_number   1
_chemical_formula_structural   ReGe2
_chemical_formula_sum   'Re2 Ge4'
_cell_volume   98.24218894
_cell_formula_units_Z   2
loop_
 _symmetry_equiv_pos_site_id
 _symmetry_equiv_pos_as_xyz
  1  'x, y, z'
loop_
 _atom_site_type_symbol
 _atom_site_label
 _atom_site_symmetry_multiplicity
 _atom_site_fract_x
 _atom_site_fract_y
 _atom_site_fract_z
 _atom_site_occupancy
  Re  Re0  1  0.85010890  0.14989110  0.81070062  1.0
  Re  Re1  1  1.14989110  -0.14989110  0.18929938  1.0
  Ge  Ge2  1  0.85127679  -0.85127679  0.46084564  1.0
  Ge  Ge3  1  0.14872321  -0.14872321  0.53915436  1.0
  Ge  Ge4  1  0.59934412  0.40065588  0.88496459  1.0
  Ge  Ge5  1  1.40065588  -0.40065588  0.11503541  1.0
