# generated using pymatgen
data_Yb2B6Os
_symmetry_space_group_name_H-M   'P 1'
_cell_length_a   9.09147447
_cell_length_b   11.44020722
_cell_length_c   3.59009186
_cell_angle_alpha   90.00000000
_cell_angle_beta   90.00000000
_cell_angle_gamma   90.00000000
_symmetry_Int_Tables_number   1
_chemical_formula_structural   Yb2B6Os
_chemical_formula_sum   'Yb8 B24 Os4'
_cell_volume   373.39953752
_cell_formula_units_Z   4
loop_
 _symmetry_equiv_pos_site_id
 _symmetry_equiv_pos_as_xyz
  1  'x, y, z'
loop_
 _atom_site_type_symbol
 _atom_site_label
 _atom_site_symmetry_multiplicity
 _atom_site_fract_x
 _atom_site_fract_y
 _atom_site_fract_z
 _atom_site_occupancy
  Yb  Yb0  1  0.17780458  0.91385128  0.50000000  1.0
  Yb  Yb1  1  0.67780458  0.58614872  0.50000000  1.0
  Yb  Yb2  1  0.82219542  0.08614872  0.50000000  1.0
  Yb  Yb3  1  0.32219542  0.41385128  0.50000000  1.0
  Yb  Yb4  1  0.05701642  0.62928625  0.50000000  1.0
  Yb  Yb5  1  0.55701642  0.87071375  0.50000000  1.0
  Yb  Yb6  1  0.94298358  0.37071375  0.50000000  1.0
  Yb  Yb7  1  0.44298358  0.12928625  0.50000000  1.0
  B  B8  1  0.44690001  0.56653394  -0.00000000  1.0
  B  B9  1  0.94690001  0.93346606  0.00000000  1.0
  B  B10  1  0.55309999  0.43346606  -0.00000000  1.0
  B  B11  1  0.05309999  0.06653394  0.00000000  1.0
  B  B12  1  0.39957156  0.97205392  0.00000000  1.0
  B  B13  1  0.89957156  0.52794608  -0.00000000  1.0
  B  B14  1  0.60042844  0.02794608  0.00000000  1.0
  B  B15  1  0.10042844  0.47205392  -0.00000000  1.0
  B  B16  1  0.36932102  0.81535272  -0.00000000  1.0
  B  B17  1  0.86932102  0.68464728  0.00000000  1.0
  B  B18  1  0.63067898  0.18464728  -0.00000000  1.0
  B  B19  1  0.13067898  0.31535272  0.00000000  1.0
  B  B20  1  0.25034565  0.58046151  0.00000000  1.0
  B  B21  1  0.75034565  0.91953849  0.00000000  1.0
  B  B22  1  0.74965435  0.41953849  0.00000000  1.0
  B  B23  1  0.24965435  0.08046151  0.00000000  1.0
  B  B24  1  0.20766396  0.73501689  0.00000000  1.0
  B  B25  1  0.70766396  0.76498311  -0.00000000  1.0
  B  B26  1  0.79233604  0.26498311  0.00000000  1.0
  B  B27  1  0.29233604  0.23501689  -0.00000000  1.0
  B  B28  1  0.01909698  0.78793101  0.00000000  1.0
  B  B29  1  0.51909698  0.71206899  0.00000000  1.0
  B  B30  1  0.98090302  0.21206899  0.00000000  1.0
  B  B31  1  0.48090302  0.28793101  0.00000000  1.0
  Os  Os32  1  0.36137266  0.67932571  0.50000000  1.0
  Os  Os33  1  0.86137266  0.82067429  0.50000000  1.0
  Os  Os34  1  0.63862734  0.32067429  0.50000000  1.0
  Os  Os35  1  0.13862734  0.17932571  0.50000000  1.0
