# generated using pymatgen
data_MnAl2(SiO5)2
_symmetry_space_group_name_H-M   'P 1'
_cell_length_a   11.71421151
_cell_length_b   11.71421151
_cell_length_c   5.17444613
_cell_angle_alpha   90.00000000
_cell_angle_beta   90.00000000
_cell_angle_gamma   71.22420068
_symmetry_Int_Tables_number   1
_chemical_formula_structural   MnAl2(SiO5)2
_chemical_formula_sum   'Mn4 Al8 Si8 O40'
_cell_volume   672.26653977
_cell_formula_units_Z   4
loop_
 _symmetry_equiv_pos_site_id
 _symmetry_equiv_pos_as_xyz
  1  'x, y, z'
loop_
 _atom_site_type_symbol
 _atom_site_label
 _atom_site_symmetry_multiplicity
 _atom_site_fract_x
 _atom_site_fract_y
 _atom_site_fract_z
 _atom_site_occupancy
  Al  Al0  1  0.19154666  0.80845334  0.00000000  1.0
  Al  Al1  1  -0.69154666  0.69154666  0.50000000  1.0
  Al  Al2  1  -0.30845334  0.30845334  0.50000000  1.0
  Al  Al3  1  -0.19154666  1.19154666  0.00000000  1.0
  Al  Al4  1  -0.21529686  0.78470314  0.50000000  1.0
  Al  Al5  1  0.28470314  1.28470314  0.00000000  1.0
  Al  Al6  1  -0.28470314  0.71529686  0.00000000  1.0
  Al  Al7  1  0.21529686  1.21529686  0.50000000  1.0
  Si  Si8  1  0.06106360  1.66544450  0.67975437  1.0
  Si  Si9  1  0.16544450  1.56106360  0.17975437  1.0
  Si  Si10  1  -0.16544450  1.43893640  0.17975437  1.0
  Si  Si11  1  -0.06106360  1.33455550  0.67975437  1.0
  Si  Si12  1  0.43893640  0.83455550  0.82024563  1.0
  Si  Si13  1  0.33455550  0.93893640  0.32024563  1.0
  Si  Si14  1  0.66544450  1.06106360  0.32024563  1.0
  Si  Si15  1  0.56106360  1.16544450  0.82024563  1.0
  O  O16  1  0.16042711  1.73599606  0.68703184  1.0
  O  O17  1  0.23599606  1.66042711  0.18703184  1.0
  O  O18  1  -0.23599606  1.33957289  0.18703184  1.0
  O  O19  1  -0.16042711  1.26400394  0.68703184  1.0
  O  O20  1  0.33957289  0.76400394  0.81296816  1.0
  O  O21  1  0.26400394  0.83957289  0.31296816  1.0
  O  O22  1  0.73599606  1.16042711  0.31296816  1.0
  O  O23  1  0.66042711  1.23599606  0.81296816  1.0
  O  O24  1  0.08121876  1.57508598  0.92623178  1.0
  O  O25  1  0.07508598  1.58121876  0.42623178  1.0
  O  O26  1  -0.07508598  1.41878124  0.42623178  1.0
  O  O27  1  -0.08121876  1.42491402  0.92623178  1.0
  O  O28  1  0.41878124  0.92491402  0.57376822  1.0
  O  O29  1  0.42491402  0.91878124  0.07376822  1.0
  O  O30  1  0.57508598  1.08121876  0.07376822  1.0
  O  O31  1  0.58121876  1.07508598  0.57376822  1.0
  O  O32  1  -0.07054160  0.77321855  0.67860290  1.0
  O  O33  1  0.27321855  1.42945840  0.17860290  1.0
  O  O34  1  -0.27321855  0.57054160  0.17860290  1.0
  O  O35  1  0.07054160  1.22678145  0.67860290  1.0
  O  O36  1  -0.42945840  0.72678145  0.82139710  1.0
  O  O37  1  0.22678145  1.07054160  0.32139710  1.0
  O  O38  1  -0.22678145  0.92945840  0.32139710  1.0
  O  O39  1  0.42945840  1.27321855  0.82139710  1.0
  O  O40  1  -0.14443773  1.73056183  0.16617426  1.0
  O  O41  1  0.23056183  1.35556227  0.66617426  1.0
  O  O42  1  -0.23056183  1.64443773  0.66617426  1.0
  O  O43  1  0.14443773  1.26943817  0.16617426  1.0
  O  O44  1  0.64443773  0.76943817  0.33382574  1.0
  O  O45  1  0.26943817  1.14443773  0.83382574  1.0
  O  O46  1  0.73056183  0.85556227  0.83382574  1.0
  O  O47  1  0.35556227  1.23056183  0.33382574  1.0
  O  O48  1  0.01798799  0.83973274  0.08301160  1.0
  O  O49  1  0.33973274  1.51798799  0.58301160  1.0
  O  O50  1  -0.33973274  0.48201201  0.58301160  1.0
  O  O51  1  -0.01798799  1.16026726  0.08301160  1.0
  O  O52  1  -0.51798799  0.66026726  0.41698840  1.0
  O  O53  1  0.16026726  0.98201201  0.91698840  1.0
  O  O54  1  -0.16026726  1.01798799  0.91698840  1.0
  O  O55  1  0.51798799  1.33973274  0.41698840  1.0
  Mn  Mn56  1  -0.13029442  0.86970558  0.00000000  1.0
  Mn  Mn57  1  0.36970558  1.36970558  0.50000000  1.0
  Mn  Mn58  1  -0.36970558  0.63029442  0.50000000  1.0
  Mn  Mn59  1  0.13029442  1.13029442  0.00000000  1.0
