# generated using pymatgen
data_EuWO2
_symmetry_space_group_name_H-M   'P 1'
_cell_length_a   7.36504698
_cell_length_b   7.36504698
_cell_length_c   7.36504698
_cell_angle_alpha   129.99672528
_cell_angle_beta   129.99672528
_cell_angle_gamma   73.41199995
_symmetry_Int_Tables_number   1
_chemical_formula_structural   EuWO2
_chemical_formula_sum   'Eu4 W4 O8'
_cell_volume   228.85228880
_cell_formula_units_Z   4
loop_
 _symmetry_equiv_pos_site_id
 _symmetry_equiv_pos_as_xyz
  1  'x, y, z'
loop_
 _atom_site_type_symbol
 _atom_site_label
 _atom_site_symmetry_multiplicity
 _atom_site_fract_x
 _atom_site_fract_y
 _atom_site_fract_z
 _atom_site_occupancy
  Eu  Eu0  1  0.37500000  0.62500000  0.75000000  1.0
  Eu  Eu1  1  0.87500000  0.62500000  1.25000000  1.0
  Eu  Eu2  1  0.37500000  1.12500000  0.75000000  1.0
  Eu  Eu3  1  0.37500000  0.62500000  0.25000000  1.0
  W  W4  1  0.87500000  0.12500000  0.75000000  1.0
  W  W5  1  0.37500000  0.12500000  0.25000000  1.0
  W  W6  1  0.87500000  0.62500000  0.75000000  1.0
  W  W7  1  0.87500000  1.12500000  1.25000000  1.0
  O  O8  1  1.17322276  0.96614949  1.79292617  1.0
  O  O9  1  0.57677668  0.86970340  1.29292617  1.0
  O  O10  1  1.03385051  0.82677668  1.20707327  1.0
  O  O11  1  1.13029660  1.42322276  1.70707327  1.0
  O  O12  1  0.17322332  0.38029660  0.20707383  1.0
  O  O13  1  0.57677724  0.28385051  0.70707383  1.0
  O  O14  1  0.61970340  0.82677724  0.79292673  1.0
  O  O15  1  0.71614949  0.42322332  0.29292673  1.0
