# generated using pymatgen
data_Ca2La2Cu3O8
_symmetry_space_group_name_H-M   'P 1'
_cell_length_a   13.51842380
_cell_length_b   13.51842380
_cell_length_c   13.51842380
_cell_angle_alpha   163.36329602
_cell_angle_beta   163.36329602
_cell_angle_gamma   23.61201885
_symmetry_Int_Tables_number   1
_chemical_formula_structural   Ca2La2Cu3O8
_chemical_formula_sum   'Ca2 La2 Cu3 O8'
_cell_volume   202.45491635
_cell_formula_units_Z   1
loop_
 _symmetry_equiv_pos_site_id
 _symmetry_equiv_pos_as_xyz
  1  'x, y, z'
loop_
 _atom_site_type_symbol
 _atom_site_label
 _atom_site_symmetry_multiplicity
 _atom_site_fract_x
 _atom_site_fract_y
 _atom_site_fract_z
 _atom_site_occupancy
  Ca  Ca0  1  0.70445481  0.70445481  1.00000000  1.0
  Ca  Ca1  1  0.29554519  0.29554519  -0.00000000  1.0
  La  La2  1  0.56914553  0.56914553  1.00000000  1.0
  La  La3  1  0.43085447  0.43085447  -0.00000000  1.0
  Cu  Cu4  1  0.86259311  0.86259311  1.00000000  1.0
  Cu  Cu5  1  0.13740689  0.13740689  -0.00000000  1.0
  Cu  Cu6  1  0.00000000  0.00000000  0.00000000  1.0
  O  O7  1  0.37666597  0.87666597  0.50000000  1.0
  O  O8  1  0.62333403  0.12333403  0.50000000  1.0
  O  O9  1  0.87666597  0.37666597  0.50000000  1.0
  O  O10  1  0.12333403  0.62333403  0.50000000  1.0
  O  O11  1  0.78627003  0.78627003  1.00000000  1.0
  O  O12  1  0.21372997  0.21372997  -0.00000000  1.0
  O  O13  1  0.50000000  0.00000000  0.50000000  1.0
  O  O14  1  0.00000000  0.50000000  0.50000000  1.0
