# generated using pymatgen
data_Fe3AgH6(SO7)2
_symmetry_space_group_name_H-M   'P 1'
_cell_length_a   7.08678580
_cell_length_b   7.08678580
_cell_length_c   7.08678580
_cell_angle_alpha   62.41658126
_cell_angle_beta   62.41658126
_cell_angle_gamma   62.41658126
_symmetry_Int_Tables_number   1
_chemical_formula_structural   Fe3AgH6(SO7)2
_chemical_formula_sum   'Fe3 Ag1 H6 S2 O14'
_cell_volume   265.23282800
_cell_formula_units_Z   1
loop_
 _symmetry_equiv_pos_site_id
 _symmetry_equiv_pos_as_xyz
  1  'x, y, z'
loop_
 _atom_site_type_symbol
 _atom_site_label
 _atom_site_symmetry_multiplicity
 _atom_site_fract_x
 _atom_site_fract_y
 _atom_site_fract_z
 _atom_site_occupancy
  Fe  Fe0  1  0.50000000  1.00000000  -0.50000000  1.0
  Fe  Fe1  1  0.50000000  -0.50000000  0.00000000  1.0
  Fe  Fe2  1  -0.00000000  0.50000000  -0.50000000  1.0
  S  S3  1  0.81170871  0.81170871  -0.18829129  1.0
  S  S4  1  1.18829129  1.18829129  0.18829129  1.0
  O  O5  1  0.89916249  0.89916249  -0.10083751  1.0
  O  O6  1  1.10083751  1.10083751  0.10083751  1.0
  O  O7  1  0.23922213  0.23922213  -0.38099036  1.0
  O  O8  1  0.23922213  0.61900964  -0.76077787  1.0
  O  O9  1  0.38099036  0.76077787  -0.23922213  1.0
  O  O10  1  0.76077787  0.38099036  -0.23922213  1.0
  O  O11  1  0.76077787  0.76077787  -0.61900964  1.0
  O  O12  1  0.61900964  0.23922213  -0.76077787  1.0
  O  O13  1  0.32867348  0.32867348  -0.00532494  1.0
  O  O14  1  0.32867348  0.99467506  -0.67132652  1.0
  O  O15  1  1.00532494  -0.32867348  -0.32867348  1.0
  O  O16  1  0.67132652  0.00532494  -0.32867348  1.0
  O  O17  1  0.67132652  -0.32867348  0.00532494  1.0
  O  O18  1  0.99467506  0.32867348  -0.67132652  1.0
  H  H19  1  0.19466528  0.19466528  -0.21573618  1.0
  H  H20  1  0.19466528  0.78426382  -0.80533472  1.0
  H  H21  1  1.21573618  -0.19466528  -0.19466528  1.0
  H  H22  1  0.80533472  0.21573618  -0.19466528  1.0
  H  H23  1  0.80533472  -0.19466528  0.21573618  1.0
  H  H24  1  0.78426382  0.19466528  -0.80533472  1.0
  Ag  Ag25  1  0.50000000  0.50000000  -0.50000000  1.0
