# generated using pymatgen
data_LiTbO2
_symmetry_space_group_name_H-M   'P 1'
_cell_length_a   11.33200029
_cell_length_b   3.42284529
_cell_length_c   5.33135411
_cell_angle_alpha   90.00000000
_cell_angle_beta   90.00000000
_cell_angle_gamma   90.00000000
_symmetry_Int_Tables_number   1
_chemical_formula_structural   LiTbO2
_chemical_formula_sum   'Li4 Tb4 O8'
_cell_volume   206.79087711
_cell_formula_units_Z   4
loop_
 _symmetry_equiv_pos_site_id
 _symmetry_equiv_pos_as_xyz
  1  'x, y, z'
loop_
 _atom_site_type_symbol
 _atom_site_label
 _atom_site_symmetry_multiplicity
 _atom_site_fract_x
 _atom_site_fract_y
 _atom_site_fract_z
 _atom_site_occupancy
  Li  Li0  1  0.43321988  0.75000000  0.59539890  1.0
  Li  Li1  1  0.93321988  0.75000000  0.90460110  1.0
  Li  Li2  1  0.56678012  0.25000000  0.40460110  1.0
  Li  Li3  1  0.06678012  0.25000000  0.09539890  1.0
  Tb  Tb4  1  0.13991071  0.75000000  0.54439058  1.0
  Tb  Tb5  1  0.63991071  0.75000000  0.95560942  1.0
  Tb  Tb6  1  0.86008929  0.25000000  0.45560942  1.0
  Tb  Tb7  1  0.36008929  0.25000000  0.04439058  1.0
  O  O8  1  0.47331877  0.75000000  0.24361112  1.0
  O  O9  1  0.97331877  0.75000000  0.25638888  1.0
  O  O10  1  0.52668123  0.25000000  0.75638888  1.0
  O  O11  1  0.02668123  0.25000000  0.74361112  1.0
  O  O12  1  0.29589453  0.75000000  0.80325339  1.0
  O  O13  1  0.79589453  0.75000000  0.69674661  1.0
  O  O14  1  0.70410547  0.25000000  0.19674661  1.0
  O  O15  1  0.20410547  0.25000000  0.30325339  1.0
