# generated using pymatgen
data_Sr6CrIn(BO3)6
_symmetry_space_group_name_H-M   'P 1'
_cell_length_a   7.69746448
_cell_length_b   7.69746448
_cell_length_c   7.69746448
_cell_angle_alpha   105.30917794
_cell_angle_beta   105.30917794
_cell_angle_gamma   105.30917794
_symmetry_Int_Tables_number   1
_chemical_formula_structural   Sr6CrIn(BO3)6
_chemical_formula_sum   'Sr6 Cr1 In1 B6 O18'
_cell_volume   396.04566679
_cell_formula_units_Z   1
loop_
 _symmetry_equiv_pos_site_id
 _symmetry_equiv_pos_as_xyz
  1  'x, y, z'
loop_
 _atom_site_type_symbol
 _atom_site_label
 _atom_site_symmetry_multiplicity
 _atom_site_fract_x
 _atom_site_fract_y
 _atom_site_fract_z
 _atom_site_occupancy
  Sr  Sr0  1  0.76575136  0.66583874  0.15393873  1.0
  Sr  Sr1  1  1.33416126  -0.15393873  0.23424864  1.0
  Sr  Sr2  1  0.84606127  0.23424864  0.33416126  1.0
  Sr  Sr3  1  1.23424864  0.33416126  -0.15393873  1.0
  Sr  Sr4  1  0.66583874  1.15393873  -0.23424864  1.0
  Sr  Sr5  1  1.15393873  0.76575136  -0.33416126  1.0
  Cr  Cr6  1  0.00000000  0.00000000  0.00000000  1.0
  In  In7  1  0.50000000  0.50000000  0.50000000  1.0
  B  B8  1  1.54949971  0.79232063  -0.12615420  1.0
  B  B9  1  1.20767937  0.12615420  -0.54949971  1.0
  B  B10  1  1.12615420  -0.54949971  0.20767937  1.0
  B  B11  1  0.45050029  0.20767937  0.12615420  1.0
  B  B12  1  0.79232063  0.87384580  0.54949971  1.0
  B  B13  1  0.87384580  1.54949971  -0.20767937  1.0
  O  O14  1  0.72964984  0.92856886  -0.00017314  1.0
  O  O15  1  1.07143114  0.00017314  -0.72964984  1.0
  O  O16  1  1.00017314  -0.72964984  0.07143114  1.0
  O  O17  1  0.27035016  0.07143114  0.00017314  1.0
  O  O18  1  0.92856886  0.99982686  -0.27035016  1.0
  O  O19  1  0.99982686  0.72964984  -0.07143114  1.0
  O  O20  1  1.48995129  0.77133626  -0.32103975  1.0
  O  O21  1  1.22866374  0.32103975  -0.48995129  1.0
  O  O22  1  1.32103975  -0.48995129  0.22866374  1.0
  O  O23  1  0.51004871  0.22866374  0.32103975  1.0
  O  O24  1  0.77133626  0.67896025  0.48995129  1.0
  O  O25  1  0.67896025  1.48995129  -0.22866374  1.0
  O  O26  1  0.57264412  0.30416459  0.05332663  1.0
  O  O27  1  0.69583541  0.94667337  0.42735588  1.0
  O  O28  1  0.94667337  1.42735588  -0.30416459  1.0
  O  O29  1  1.42735588  0.69583541  -0.05332663  1.0
  O  O30  1  1.30416459  0.05332663  -0.42735588  1.0
  O  O31  1  1.05332663  -0.42735588  0.30416459  1.0
