# generated using pymatgen
data_HgPt2Se3
_symmetry_space_group_name_H-M   'P 1'
_cell_length_a   7.50095752
_cell_length_b   7.50095752
_cell_length_c   5.45179855
_cell_angle_alpha   89.99226430
_cell_angle_beta   90.00773570
_cell_angle_gamma   119.97248795
_symmetry_Int_Tables_number   1
_chemical_formula_structural   HgPt2Se3
_chemical_formula_sum   'Hg2 Pt4 Se6'
_cell_volume   265.71995519
_cell_formula_units_Z   2
loop_
 _symmetry_equiv_pos_site_id
 _symmetry_equiv_pos_as_xyz
  1  'x, y, z'
loop_
 _atom_site_type_symbol
 _atom_site_label
 _atom_site_symmetry_multiplicity
 _atom_site_fract_x
 _atom_site_fract_y
 _atom_site_fract_z
 _atom_site_occupancy
  Hg  Hg0  1  1.33338777  -0.33338777  0.34909052  1.0
  Hg  Hg1  1  0.66661223  0.33338777  0.65090948  1.0
  Pt  Pt2  1  0.00000000  0.00000000  0.00000000  1.0
  Pt  Pt3  1  0.50000000  -0.00000000  0.00000000  1.0
  Pt  Pt4  1  1.00000000  -0.50000000  0.00000000  1.0
  Pt  Pt5  1  0.50000000  0.50000000  -0.00000000  1.0
  Se  Se6  1  0.82759483  0.17240517  0.23301067  1.0
  Se  Se7  1  1.17238522  -0.65529391  0.76695409  1.0
  Se  Se8  1  0.34470609  0.17238522  0.23304591  1.0
  Se  Se9  1  1.17240517  -0.17240517  0.76698933  1.0
  Se  Se10  1  0.82761478  0.65529391  0.23304591  1.0
  Se  Se11  1  1.65529391  -0.17238522  0.76695409  1.0
