# generated using pymatgen
data_MnH6C2O7
_symmetry_space_group_name_H-M   'P 1'
_cell_length_a   9.85941655
_cell_length_b   6.48878559
_cell_length_c   10.74710952
_cell_angle_alpha   90.00000000
_cell_angle_beta   90.00000000
_cell_angle_gamma   90.00000000
_symmetry_Int_Tables_number   1
_chemical_formula_structural   MnH6C2O7
_chemical_formula_sum   'Mn4 H24 C8 O28'
_cell_volume   687.55321100
_cell_formula_units_Z   4
loop_
 _symmetry_equiv_pos_site_id
 _symmetry_equiv_pos_as_xyz
  1  'x, y, z'
loop_
 _atom_site_type_symbol
 _atom_site_label
 _atom_site_symmetry_multiplicity
 _atom_site_fract_x
 _atom_site_fract_y
 _atom_site_fract_z
 _atom_site_occupancy
  Mn  Mn0  1  0.75000000  0.00000000  0.13891074  1.0
  Mn  Mn1  1  0.75000000  0.00000000  0.63891074  1.0
  Mn  Mn2  1  0.25000000  0.00000000  0.86108926  1.0
  Mn  Mn3  1  0.25000000  0.00000000  0.36108926  1.0
  H  H4  1  0.97473401  0.59008309  0.18213540  1.0
  H  H5  1  0.97473401  0.40991691  0.68213540  1.0
  H  H6  1  0.47473401  0.59008309  0.81786460  1.0
  H  H7  1  0.47473401  0.40991691  0.31786460  1.0
  H  H8  1  0.02526599  0.59008309  0.31786460  1.0
  H  H9  1  0.02526599  0.40991691  0.81786460  1.0
  H  H10  1  0.52526599  0.59008309  0.68213540  1.0
  H  H11  1  0.52526599  0.40991691  0.18213540  1.0
  H  H12  1  0.74765277  0.77343645  0.36007561  1.0
  H  H13  1  0.74765277  0.22656355  0.86007561  1.0
  H  H14  1  0.24765277  0.77343645  0.63992439  1.0
  H  H15  1  0.24765277  0.22656355  0.13992439  1.0
  H  H16  1  0.25234723  0.77343645  0.13992439  1.0
  H  H17  1  0.25234723  0.22656355  0.63992439  1.0
  H  H18  1  0.75234723  0.77343645  0.86007561  1.0
  H  H19  1  0.75234723  0.22656355  0.36007561  1.0
  H  H20  1  0.62497230  0.67658368  0.27848752  1.0
  H  H21  1  0.62497230  0.32341632  0.77848752  1.0
  H  H22  1  0.12497230  0.67658368  0.72151248  1.0
  H  H23  1  0.12497230  0.32341632  0.22151248  1.0
  H  H24  1  0.37502770  0.67658368  0.22151248  1.0
  H  H25  1  0.37502770  0.32341632  0.72151248  1.0
  H  H26  1  0.87502770  0.67658368  0.77848752  1.0
  H  H27  1  0.87502770  0.32341632  0.27848752  1.0
  C  C28  1  0.98028122  0.89564624  0.46971307  1.0
  C  C29  1  0.98028122  0.10435376  0.96971307  1.0
  C  C30  1  0.48028122  0.89564624  0.53028693  1.0
  C  C31  1  0.48028122  0.10435376  0.03028693  1.0
  C  C32  1  0.01971878  0.89564624  0.03028693  1.0
  C  C33  1  0.01971878  0.10435376  0.53028693  1.0
  C  C34  1  0.51971878  0.89564624  0.96971307  1.0
  C  C35  1  0.51971878  0.10435376  0.46971307  1.0
  O  O36  1  0.93233954  0.81540489  0.10188509  1.0
  O  O37  1  0.93233954  0.18459511  0.60188509  1.0
  O  O38  1  0.43233954  0.81540489  0.89811491  1.0
  O  O39  1  0.43233954  0.18459511  0.39811491  1.0
  O  O40  1  0.06766046  0.81540489  0.39811491  1.0
  O  O41  1  0.06766046  0.18459511  0.89811491  1.0
  O  O42  1  0.56766046  0.81540489  0.60188509  1.0
  O  O43  1  0.56766046  0.18459511  0.10188509  1.0
  O  O44  1  0.68753316  0.79708366  0.28844731  1.0
  O  O45  1  0.68753316  0.20291634  0.78844731  1.0
  O  O46  1  0.18753316  0.79708366  0.71155269  1.0
  O  O47  1  0.18753316  0.20291634  0.21155269  1.0
  O  O48  1  0.31246684  0.79708366  0.21155269  1.0
  O  O49  1  0.31246684  0.20291634  0.71155269  1.0
  O  O50  1  0.81246684  0.79708366  0.78844731  1.0
  O  O51  1  0.81246684  0.20291634  0.28844731  1.0
  O  O52  1  0.63471313  0.82157126  -0.00388489  1.0
  O  O53  1  0.63471313  0.17842874  0.49611511  1.0
  O  O54  1  0.13471313  0.82157126  1.00388489  1.0
  O  O55  1  0.13471313  0.17842874  0.50388489  1.0
  O  O56  1  0.36528687  0.82157126  0.50388489  1.0
  O  O57  1  0.36528687  0.17842874  1.00388489  1.0
  O  O58  1  0.86528687  0.82157126  0.49611511  1.0
  O  O59  1  0.86528687  0.17842874  -0.00388489  1.0
  O  O60  1  0.00000000  0.49290653  0.25000000  1.0
  O  O61  1  0.00000000  0.50709347  0.75000000  1.0
  O  O62  1  0.50000000  0.49290653  0.75000000  1.0
  O  O63  1  0.50000000  0.50709347  0.25000000  1.0
