# generated using pymatgen
data_ScB2Os
_symmetry_space_group_name_H-M   'P 1'
_cell_length_a   5.65802132
_cell_length_b   5.19869746
_cell_length_c   6.17847202
_cell_angle_alpha   90.00000000
_cell_angle_beta   90.00000000
_cell_angle_gamma   90.00000000
_symmetry_Int_Tables_number   1
_chemical_formula_structural   ScB2Os
_chemical_formula_sum   'Sc4 B8 Os4'
_cell_volume   181.73568308
_cell_formula_units_Z   4
loop_
 _symmetry_equiv_pos_site_id
 _symmetry_equiv_pos_as_xyz
  1  'x, y, z'
loop_
 _atom_site_type_symbol
 _atom_site_label
 _atom_site_symmetry_multiplicity
 _atom_site_fract_x
 _atom_site_fract_y
 _atom_site_fract_z
 _atom_site_occupancy
  Sc  Sc0  1  0.98870555  0.75000000  0.67089796  1.0
  Sc  Sc1  1  0.48870555  0.75000000  0.82910204  1.0
  Sc  Sc2  1  0.01129445  0.25000000  0.32910204  1.0
  Sc  Sc3  1  0.51129445  0.25000000  0.17089796  1.0
  B  B4  1  0.64477345  0.91901510  0.46739771  1.0
  B  B5  1  0.64477345  0.58098490  0.46739771  1.0
  B  B6  1  0.14477345  0.91901510  0.03260229  1.0
  B  B7  1  0.14477345  0.58098490  0.03260229  1.0
  B  B8  1  0.35522655  0.41901510  0.53260229  1.0
  B  B9  1  0.35522655  0.08098490  0.53260229  1.0
  B  B10  1  0.85522655  0.41901510  0.96739771  1.0
  B  B11  1  0.85522655  0.08098490  0.96739771  1.0
  Os  Os12  1  0.82259216  0.75000000  0.17987868  1.0
  Os  Os13  1  0.32259216  0.75000000  0.32012132  1.0
  Os  Os14  1  0.17740784  0.25000000  0.82012132  1.0
  Os  Os15  1  0.67740784  0.25000000  0.67987868  1.0
