# generated using pymatgen
data_CsSr2Ta3O10
_symmetry_space_group_name_H-M   'P 1'
_cell_length_a   3.96556285
_cell_length_b   3.96556285
_cell_length_c   15.69656861
_cell_angle_alpha   90.00000000
_cell_angle_beta   90.00000000
_cell_angle_gamma   90.00000000
_symmetry_Int_Tables_number   1
_chemical_formula_structural   CsSr2Ta3O10
_chemical_formula_sum   'Cs1 Sr2 Ta3 O10'
_cell_volume   246.83935154
_cell_formula_units_Z   1
loop_
 _symmetry_equiv_pos_site_id
 _symmetry_equiv_pos_as_xyz
  1  'x, y, z'
loop_
 _atom_site_type_symbol
 _atom_site_label
 _atom_site_symmetry_multiplicity
 _atom_site_fract_x
 _atom_site_fract_y
 _atom_site_fract_z
 _atom_site_occupancy
  Cs  Cs0  1  0.50000000  0.50000000  0.50000000  1.0
  Sr  Sr1  1  0.50000000  0.50000000  0.85587768  1.0
  Sr  Sr2  1  0.50000000  0.50000000  0.14412232  1.0
  Ta  Ta3  1  0.00000000  0.00000000  0.72031151  1.0
  Ta  Ta4  1  0.00000000  0.00000000  0.27968849  1.0
  Ta  Ta5  1  0.00000000  0.00000000  0.00000000  1.0
  O  O6  1  0.00000000  0.50000000  0.74605962  1.0
  O  O7  1  0.00000000  0.50000000  0.25394038  1.0
  O  O8  1  0.50000000  0.00000000  0.74605962  1.0
  O  O9  1  0.50000000  0.00000000  0.25394038  1.0
  O  O10  1  0.00000000  0.00000000  0.87437195  1.0
  O  O11  1  0.00000000  0.00000000  0.12562805  1.0
  O  O12  1  0.00000000  0.00000000  0.60630735  1.0
  O  O13  1  0.00000000  0.00000000  0.39369265  1.0
  O  O14  1  0.00000000  0.50000000  0.00000000  1.0
  O  O15  1  0.50000000  0.00000000  0.00000000  1.0
