# generated using pymatgen
data_MgH20(ClO5)2
_symmetry_space_group_name_H-M   'P 1'
_cell_length_a   6.82974887
_cell_length_b   6.82974887
_cell_length_c   8.14860465
_cell_angle_alpha   67.71125777
_cell_angle_beta   112.28874223
_cell_angle_gamma   113.23063872
_symmetry_Int_Tables_number   1
_chemical_formula_structural   MgH20(ClO5)2
_chemical_formula_sum   'Mg1 H20 Cl2 O10'
_cell_volume   311.16845668
_cell_formula_units_Z   1
loop_
 _symmetry_equiv_pos_site_id
 _symmetry_equiv_pos_as_xyz
  1  'x, y, z'
loop_
 _atom_site_type_symbol
 _atom_site_label
 _atom_site_symmetry_multiplicity
 _atom_site_fract_x
 _atom_site_fract_y
 _atom_site_fract_z
 _atom_site_occupancy
  Mg  Mg0  1  0.00000000  -0.00000000  0.50000000  1.0
  H  H1  1  1.86339693  -0.06702778  0.80487840  1.0
  H  H2  1  1.06702778  -0.86339693  0.80487840  1.0
  H  H3  1  0.93297222  0.86339693  0.19512160  1.0
  H  H4  1  0.13660307  0.06702778  0.19512160  1.0
  H  H5  1  0.41889942  0.08616566  0.73922105  1.0
  H  H6  1  0.91383434  0.58110058  0.73922105  1.0
  H  H7  1  1.08616566  -0.58110058  0.26077895  1.0
  H  H8  1  1.58110058  -0.08616566  0.26077895  1.0
  H  H9  1  0.44408820  0.16346908  0.54111047  1.0
  H  H10  1  0.83653092  0.55591180  0.54111047  1.0
  H  H11  1  1.16346908  -0.55591180  0.45888953  1.0
  H  H12  1  1.55591180  -0.16346908  0.45888953  1.0
  H  H13  1  0.38475751  0.24869165  0.99752949  1.0
  H  H14  1  0.75130835  0.61524249  0.99752949  1.0
  H  H15  1  1.24869165  -0.61524249  0.00247051  1.0
  H  H16  1  1.61524249  -0.24869165  0.00247051  1.0
  H  H17  1  0.69065703  0.30934297  0.37187161  1.0
  H  H18  1  1.30934297  -0.30934297  0.62812839  1.0
  H  H19  1  1.46446509  -0.46446509  0.69977710  1.0
  H  H20  1  0.53553491  0.46446509  0.30022290  1.0
  Cl  Cl21  1  0.67218740  0.32781260  0.91747637  1.0
  Cl  Cl22  1  1.32781260  -0.32781260  0.08252363  1.0
  O  O23  1  0.34562852  0.05226448  0.61954224  1.0
  O  O24  1  0.94773552  0.65437148  0.61954224  1.0
  O  O25  1  1.05226448  -0.65437148  0.38045776  1.0
  O  O26  1  1.65437148  -0.05226448  0.38045776  1.0
  O  O27  1  0.95758735  0.04241265  0.72300914  1.0
  O  O28  1  1.04241265  -0.04241265  0.27699086  1.0
  O  O29  1  0.62162732  0.37837268  0.41205450  1.0
  O  O30  1  1.37837268  -0.37837268  0.58794550  1.0
  O  O31  1  0.76390570  0.76390570  -0.00000000  1.0
  O  O32  1  0.23609430  0.23609430  -0.00000000  1.0
