# generated using pymatgen
data_CsCuF4
_symmetry_space_group_name_H-M   'P 1'
_cell_length_a   7.58795079
_cell_length_b   7.58795079
_cell_length_c   7.58795079
_cell_angle_alpha   129.08182731
_cell_angle_beta   129.08182731
_cell_angle_gamma   74.87894577
_symmetry_Int_Tables_number   1
_chemical_formula_structural   CsCuF4
_chemical_formula_sum   'Cs2 Cu2 F8'
_cell_volume   256.40055559
_cell_formula_units_Z   2
loop_
 _symmetry_equiv_pos_site_id
 _symmetry_equiv_pos_as_xyz
  1  'x, y, z'
loop_
 _atom_site_type_symbol
 _atom_site_label
 _atom_site_symmetry_multiplicity
 _atom_site_fract_x
 _atom_site_fract_y
 _atom_site_fract_z
 _atom_site_occupancy
  Cs  Cs0  1  0.25000000  0.25000000  0.00000000  1.0
  Cs  Cs1  1  0.75000000  0.75000000  1.00000000  1.0
  Cu  Cu2  1  0.50000000  0.00000000  0.50000000  1.0
  Cu  Cu3  1  0.00000000  0.50000000  0.50000000  1.0
  F  F4  1  0.53269025  1.03269025  0.77351442  1.0
  F  F5  1  1.25917583  0.75917583  1.22648558  1.0
  F  F6  1  1.03269025  1.25917583  1.50000000  1.0
  F  F7  1  0.75917583  0.53269025  0.50000000  1.0
  F  F8  1  0.46730975  0.96730975  1.22648558  1.0
  F  F9  1  0.74082417  0.24082417  0.77351442  1.0
  F  F10  1  0.96730975  0.74082417  1.50000000  1.0
  F  F11  1  0.24082417  0.46730975  0.50000000  1.0
