# generated using pymatgen
data_KAgO
_symmetry_space_group_name_H-M   'P 1'
_cell_length_a   7.58687528
_cell_length_b   7.58687528
_cell_length_c   7.58687528
_cell_angle_alpha   97.64419061
_cell_angle_beta   97.64419061
_cell_angle_gamma   137.21926741
_symmetry_Int_Tables_number   1
_chemical_formula_structural   KAgO
_chemical_formula_sum   'K4 Ag4 O4'
_cell_volume   276.17689305
_cell_formula_units_Z   4
loop_
 _symmetry_equiv_pos_site_id
 _symmetry_equiv_pos_as_xyz
  1  'x, y, z'
loop_
 _atom_site_type_symbol
 _atom_site_label
 _atom_site_symmetry_multiplicity
 _atom_site_fract_x
 _atom_site_fract_y
 _atom_site_fract_z
 _atom_site_occupancy
  K  K0  1  0.50000000  0.82118399  0.32118399  1.0
  K  K1  1  0.82118399  0.50000000  1.32118399  1.0
  K  K2  1  0.17881601  0.50000000  0.67881601  1.0
  K  K3  1  0.50000000  1.17881601  0.67881601  1.0
  Ag  Ag4  1  0.85234404  0.85234404  0.70468807  1.0
  Ag  Ag5  1  1.14765596  0.85234404  1.00000000  1.0
  Ag  Ag6  1  0.85234404  0.14765596  1.00000000  1.0
  Ag  Ag7  1  0.14765596  0.14765596  0.29531193  1.0
  O  O8  1  0.00000000  0.70610919  0.70610919  1.0
  O  O9  1  0.70610919  1.00000000  0.70610919  1.0
  O  O10  1  1.29389081  1.00000000  1.29389081  1.0
  O  O11  1  0.00000000  0.29389081  0.29389081  1.0
