# generated using pymatgen
data_Al2CrCl8
_symmetry_space_group_name_H-M   'P 1'
_cell_length_a   16.40536583
_cell_length_b   6.27422726
_cell_length_c   14.53429412
_cell_angle_alpha   90.00000000
_cell_angle_beta   90.00000000
_cell_angle_gamma   90.00000000
_symmetry_Int_Tables_number   1
_chemical_formula_structural   Al2CrCl8
_chemical_formula_sum   'Al8 Cr4 Cl32'
_cell_volume   1496.02933444
_cell_formula_units_Z   4
loop_
 _symmetry_equiv_pos_site_id
 _symmetry_equiv_pos_as_xyz
  1  'x, y, z'
loop_
 _atom_site_type_symbol
 _atom_site_label
 _atom_site_symmetry_multiplicity
 _atom_site_fract_x
 _atom_site_fract_y
 _atom_site_fract_z
 _atom_site_occupancy
  Al  Al0  1  0.50147580  0.41336130  0.52672334  1.0
  Al  Al1  1  1.00147580  0.58663870  0.52672334  1.0
  Al  Al2  1  0.49852420  0.58663870  0.02672334  1.0
  Al  Al3  1  -0.00147580  0.41336130  0.02672334  1.0
  Al  Al4  1  0.74939077  0.10120386  0.84777533  1.0
  Al  Al5  1  0.24939077  0.89879614  0.84777533  1.0
  Al  Al6  1  0.25060923  0.89879614  0.34777533  1.0
  Al  Al7  1  0.75060923  0.10120386  0.34777533  1.0
  Cr  Cr8  1  0.37385818  0.24297315  0.93727252  1.0
  Cr  Cr9  1  0.87385818  0.75702685  0.93727252  1.0
  Cr  Cr10  1  0.62614182  0.75702685  0.43727252  1.0
  Cr  Cr11  1  0.12614182  0.24297315  0.43727252  1.0
  Cl  Cl12  1  0.51086924  0.07445123  0.51990242  1.0
  Cl  Cl13  1  1.01086924  0.92554877  0.51990242  1.0
  Cl  Cl14  1  0.48913076  0.92554877  0.01990242  1.0
  Cl  Cl15  1  -0.01086924  0.07445123  0.01990242  1.0
  Cl  Cl16  1  0.49006622  0.44242114  0.88695927  1.0
  Cl  Cl17  1  0.99006622  0.55757886  0.88695927  1.0
  Cl  Cl18  1  0.50993378  0.55757886  0.38695927  1.0
  Cl  Cl19  1  0.00993378  0.44242114  0.38695927  1.0
  Cl  Cl20  1  0.39950374  0.52376507  0.60037327  1.0
  Cl  Cl21  1  0.89950374  0.47623493  0.60037327  1.0
  Cl  Cl22  1  0.60049626  0.47623493  0.10037327  1.0
  Cl  Cl23  1  0.10049626  0.52376507  0.10037327  1.0
  Cl  Cl24  1  0.36511597  0.04308180  0.79726221  1.0
  Cl  Cl25  1  0.86511597  0.95691820  0.79726221  1.0
  Cl  Cl26  1  0.63488403  0.95691820  0.29726221  1.0
  Cl  Cl27  1  0.13488403  0.04308180  0.29726221  1.0
  Cl  Cl28  1  0.24247062  0.04372636  0.48743105  1.0
  Cl  Cl29  1  0.74247062  0.95627364  0.48743105  1.0
  Cl  Cl30  1  0.75752938  0.95627364  -0.01256895  1.0
  Cl  Cl31  1  0.25752938  0.04372636  -0.01256895  1.0
  Cl  Cl32  1  0.25894569  0.55986747  0.85474687  1.0
  Cl  Cl33  1  0.75894569  0.44013253  0.85474687  1.0
  Cl  Cl34  1  0.74105431  0.44013253  0.35474687  1.0
  Cl  Cl35  1  0.24105431  0.55986747  0.35474687  1.0
  Cl  Cl36  1  0.11719755  0.44261050  0.57732154  1.0
  Cl  Cl37  1  0.61719755  0.55738950  0.57732154  1.0
  Cl  Cl38  1  0.88280245  0.55738950  0.07732154  1.0
  Cl  Cl39  1  0.38280245  0.44261050  0.07732154  1.0
  Cl  Cl40  1  0.64750404  -0.00809372  0.77373219  1.0
  Cl  Cl41  1  0.14750404  1.00809372  0.77373219  1.0
  Cl  Cl42  1  0.35249596  1.00809372  0.27373219  1.0
  Cl  Cl43  1  0.85249596  -0.00809372  0.27373219  1.0
