# generated using pymatgen
data_Eu(BRu)4
_symmetry_space_group_name_H-M   'P 1'
_cell_length_a   9.22925748
_cell_length_b   9.22925748
_cell_length_c   9.22925748
_cell_angle_alpha   131.96410747
_cell_angle_beta   131.96410747
_cell_angle_gamma   70.28572114
_symmetry_Int_Tables_number   1
_chemical_formula_structural   Eu(BRu)4
_chemical_formula_sum   'Eu4 B16 Ru16'
_cell_volume   425.99250084
_cell_formula_units_Z   4
loop_
 _symmetry_equiv_pos_site_id
 _symmetry_equiv_pos_as_xyz
  1  'x, y, z'
loop_
 _atom_site_type_symbol
 _atom_site_label
 _atom_site_symmetry_multiplicity
 _atom_site_fract_x
 _atom_site_fract_y
 _atom_site_fract_z
 _atom_site_occupancy
  Eu  Eu0  1  0.75000000  0.75000000  -0.00000000  1.0
  Eu  Eu1  1  1.25000000  1.25000000  1.00000000  1.0
  Eu  Eu2  1  0.00000000  0.50000000  0.50000000  1.0
  Eu  Eu3  1  0.50000000  -0.00000000  0.50000000  1.0
  B  B4  1  0.72286987  0.41415599  0.97397090  1.0
  B  B5  1  0.22286987  0.24889897  0.30871389  1.0
  B  B6  1  1.66415599  1.47286987  1.47397090  1.0
  B  B7  1  1.16415599  1.69018509  1.19128611  1.0
  B  B8  1  1.02713013  0.83584401  0.52602910  1.0
  B  B9  1  1.52713013  1.00110103  1.19128611  1.0
  B  B10  1  1.08584401  1.77713013  1.02602910  1.0
  B  B11  1  1.58584401  1.55981491  1.30871389  1.0
  B  B12  1  0.94018509  0.91415599  1.69128611  1.0
  B  B13  1  0.44018509  0.74889897  1.02602910  1.0
  B  B14  1  1.49889897  0.97286987  0.80871389  1.0
  B  B15  1  0.99889897  1.19018509  0.52602910  1.0
  B  B16  1  0.80981491  1.33584401  0.80871389  1.0
  B  B17  1  1.30981491  1.50110103  1.47397090  1.0
  B  B18  1  1.25110103  1.27713013  0.69128611  1.0
  B  B19  1  1.75110103  1.05981491  0.97397090  1.0
  Ru  Ru20  1  1.04098106  1.57296398  1.23794947  1.0
  Ru  Ru21  1  1.54098106  1.30303159  1.46801708  1.0
  Ru  Ru22  1  1.82296398  1.79098106  1.73794947  1.0
  Ru  Ru23  1  1.32296398  1.58501451  1.03198292  1.0
  Ru  Ru24  1  0.70901894  0.67703602  1.26205053  1.0
  Ru  Ru25  1  0.20901894  0.94696841  1.03198292  1.0
  Ru  Ru26  1  0.92703602  1.45901894  0.76205053  1.0
  Ru  Ru27  1  1.42703602  1.66498549  1.46801708  1.0
  Ru  Ru28  1  0.83501451  1.07296398  0.53198292  1.0
  Ru  Ru29  1  1.33501451  0.80303159  0.76205053  1.0
  Ru  Ru30  1  1.55303159  1.29098106  0.96801708  1.0
  Ru  Ru31  1  1.05303159  1.08501451  0.26205053  1.0
  Ru  Ru32  1  0.91498549  0.17703602  0.96801708  1.0
  Ru  Ru33  1  0.41498549  0.44696841  0.73794947  1.0
  Ru  Ru34  1  1.19696841  0.95901894  0.53198292  1.0
  Ru  Ru35  1  1.69696841  1.16498549  1.23794947  1.0
