# generated using pymatgen
data_SN
_symmetry_space_group_name_H-M   'P 1'
_cell_length_a   4.70323292
_cell_length_b   4.53022576
_cell_length_c   8.36501003
_cell_angle_alpha   90.00000000
_cell_angle_beta   110.52438205
_cell_angle_gamma   90.00000000
_symmetry_Int_Tables_number   1
_chemical_formula_structural   SN
_chemical_formula_sum   'S4 N4'
_cell_volume   166.91727274
_cell_formula_units_Z   4
loop_
 _symmetry_equiv_pos_site_id
 _symmetry_equiv_pos_as_xyz
  1  'x, y, z'
loop_
 _atom_site_type_symbol
 _atom_site_label
 _atom_site_symmetry_multiplicity
 _atom_site_fract_x
 _atom_site_fract_y
 _atom_site_fract_z
 _atom_site_occupancy
  S  S0  1  0.65644295  0.28956480  0.34029186  1.0
  S  S1  1  0.65644295  0.21043520  0.84029186  1.0
  S  S2  1  0.34355705  0.78956480  0.15970814  1.0
  S  S3  1  0.34355705  0.71043520  0.65970814  1.0
  N  N4  1  0.61672517  0.93877675  0.31653700  1.0
  N  N5  1  0.61672517  0.56122325  0.81653700  1.0
  N  N6  1  0.38327483  0.43877675  0.18346300  1.0
  N  N7  1  0.38327483  0.06122325  0.68346300  1.0
