# generated using pymatgen
data_Cs2LiCrF6
_symmetry_space_group_name_H-M   'P 1'
_cell_length_a   6.35569529
_cell_length_b   6.35569529
_cell_length_c   5.17263503
_cell_angle_alpha   90.00000000
_cell_angle_beta   90.00000000
_cell_angle_gamma   120.00000000
_symmetry_Int_Tables_number   1
_chemical_formula_structural   Cs2LiCrF6
_chemical_formula_sum   'Cs2 Li1 Cr1 F6'
_cell_volume   180.95417344
_cell_formula_units_Z   1
loop_
 _symmetry_equiv_pos_site_id
 _symmetry_equiv_pos_as_xyz
  1  'x, y, z'
loop_
 _atom_site_type_symbol
 _atom_site_label
 _atom_site_symmetry_multiplicity
 _atom_site_fract_x
 _atom_site_fract_y
 _atom_site_fract_z
 _atom_site_occupancy
  Cs  Cs0  1  0.33333333  0.66666667  0.23643743  1.0
  Cs  Cs1  1  0.66666667  0.33333333  0.76356257  1.0
  Li  Li2  1  0.00000000  0.00000000  0.00000000  1.0
  Cr  Cr3  1  0.00000000  0.00000000  0.50000000  1.0
  F  F4  1  0.27602240  0.13801120  0.26890807  1.0
  F  F5  1  0.13801120  0.27602240  0.73109193  1.0
  F  F6  1  0.13801120  0.86198880  0.73109193  1.0
  F  F7  1  0.86198880  0.13801120  0.26890807  1.0
  F  F8  1  0.86198880  0.72397760  0.26890807  1.0
  F  F9  1  0.72397760  0.86198880  0.73109193  1.0
