# generated using pymatgen
data_Rb2ZrO3
_symmetry_space_group_name_H-M   'P 1'
_cell_length_a   5.95148954
_cell_length_b   10.92793862
_cell_length_c   7.45688050
_cell_angle_alpha   90.00000000
_cell_angle_beta   90.00000000
_cell_angle_gamma   90.00000000
_symmetry_Int_Tables_number   1
_chemical_formula_structural   Rb2ZrO3
_chemical_formula_sum   'Rb8 Zr4 O12'
_cell_volume   484.97695781
_cell_formula_units_Z   4
loop_
 _symmetry_equiv_pos_site_id
 _symmetry_equiv_pos_as_xyz
  1  'x, y, z'
loop_
 _atom_site_type_symbol
 _atom_site_label
 _atom_site_symmetry_multiplicity
 _atom_site_fract_x
 _atom_site_fract_y
 _atom_site_fract_z
 _atom_site_occupancy
  Rb  Rb0  1  0.24326815  0.41319263  0.60885019  1.0
  Rb  Rb1  1  0.24326815  0.08680737  0.60885019  1.0
  Rb  Rb2  1  0.74326815  0.41319263  0.89114981  1.0
  Rb  Rb3  1  0.74326815  0.08680737  0.89114981  1.0
  Rb  Rb4  1  0.75673185  0.91319263  0.39114981  1.0
  Rb  Rb5  1  0.75673185  0.58680737  0.39114981  1.0
  Rb  Rb6  1  0.25673185  0.91319263  0.10885019  1.0
  Rb  Rb7  1  0.25673185  0.58680737  0.10885019  1.0
  Zr  Zr8  1  0.26373963  0.25000000  0.16349101  1.0
  Zr  Zr9  1  0.76373963  0.25000000  0.33650899  1.0
  Zr  Zr10  1  0.73626037  0.75000000  0.83650899  1.0
  Zr  Zr11  1  0.23626037  0.75000000  0.66349101  1.0
  O  O12  1  0.49147989  0.87328799  0.74218929  1.0
  O  O13  1  0.49147989  0.62671201  0.74218929  1.0
  O  O14  1  0.99147989  0.87328799  0.75781071  1.0
  O  O15  1  0.99147989  0.62671201  0.75781071  1.0
  O  O16  1  0.50852011  0.37328799  0.25781071  1.0
  O  O17  1  0.50852011  0.12671201  0.25781071  1.0
  O  O18  1  0.00852011  0.37328799  0.24218929  1.0
  O  O19  1  0.00852011  0.12671201  0.24218929  1.0
  O  O20  1  0.28894744  0.25000000  0.90699845  1.0
  O  O21  1  0.78894744  0.25000000  0.59300155  1.0
  O  O22  1  0.71105256  0.75000000  0.09300155  1.0
  O  O23  1  0.21105256  0.75000000  0.40699845  1.0
