# generated using pymatgen
data_Ba2V3O9
_symmetry_space_group_name_H-M   'P 1'
_cell_length_a   8.55164980
_cell_length_b   5.92066073
_cell_length_c   9.46225491
_cell_angle_alpha   90.00000000
_cell_angle_beta   114.65788033
_cell_angle_gamma   90.00000000
_symmetry_Int_Tables_number   1
_chemical_formula_structural   Ba2V3O9
_chemical_formula_sum   'Ba4 V6 O18'
_cell_volume   435.40184961
_cell_formula_units_Z   2
loop_
 _symmetry_equiv_pos_site_id
 _symmetry_equiv_pos_as_xyz
  1  'x, y, z'
loop_
 _atom_site_type_symbol
 _atom_site_label
 _atom_site_symmetry_multiplicity
 _atom_site_fract_x
 _atom_site_fract_y
 _atom_site_fract_z
 _atom_site_occupancy
  V  V0  1  0.90779189  0.01340178  0.69458212  1.0
  V  V1  1  0.09220811  0.51340178  0.30541788  1.0
  V  V2  1  0.50162892  0.00624683  0.80968484  1.0
  V  V3  1  0.49837108  0.50624683  0.19031516  1.0
  V  V4  1  0.52350351  0.28555117  0.50974017  1.0
  V  V5  1  0.47649649  0.78555117  0.49025983  1.0
  O  O6  1  0.98396233  0.77145049  0.79596172  1.0
  O  O7  1  0.01603767  0.27145049  0.20403828  1.0
  O  O8  1  0.97619324  0.22777774  0.82712993  1.0
  O  O9  1  0.02380676  0.72777774  0.17287007  1.0
  O  O10  1  1.00002200  0.56300074  0.42798400  1.0
  O  O11  1  -0.00002200  0.06300074  0.57201600  1.0
  O  O12  1  0.70380143  0.00013791  0.95102206  1.0
  O  O13  1  0.29619857  0.50013791  0.04897794  1.0
  O  O14  1  0.67221748  0.00664110  0.58189302  1.0
  O  O15  1  0.32778252  0.50664110  0.41810698  1.0
  O  O16  1  0.53341404  0.25690675  0.30330230  1.0
  O  O17  1  0.46658596  0.75690675  0.69669770  1.0
  O  O18  1  0.47299319  0.25267114  0.69565542  1.0
  O  O19  1  0.52700681  0.75267114  0.30434458  1.0
  O  O20  1  0.36044681  0.02441161  0.89050420  1.0
  O  O21  1  0.63955319  0.52441161  0.10949580  1.0
  O  O22  1  0.66110507  0.49720579  0.58035098  1.0
  O  O23  1  0.33889493  -0.00279421  0.41964902  1.0
  Ba  Ba24  1  0.78802661  0.51297383  0.91013060  1.0
  Ba  Ba25  1  0.21197339  0.01297383  0.08986940  1.0
  Ba  Ba26  1  0.80722297  -0.02987687  0.27008473  1.0
  Ba  Ba27  1  0.19277703  0.47012313  0.72991527  1.0
