# generated using pymatgen
data_Ca5Al2Si3O14
_symmetry_space_group_name_H-M   'P 1'
_cell_length_a   5.26908716
_cell_length_b   5.26908716
_cell_length_c   21.77649743
_cell_angle_alpha   83.07407274
_cell_angle_beta   96.92592726
_cell_angle_gamma   120.55885139
_symmetry_Int_Tables_number   1
_chemical_formula_structural   Ca5Al2Si3O14
_chemical_formula_sum   'Ca10 Al4 Si6 O28'
_cell_volume   515.57124091
_cell_formula_units_Z   2
loop_
 _symmetry_equiv_pos_site_id
 _symmetry_equiv_pos_as_xyz
  1  'x, y, z'
loop_
 _atom_site_type_symbol
 _atom_site_label
 _atom_site_symmetry_multiplicity
 _atom_site_fract_x
 _atom_site_fract_y
 _atom_site_fract_z
 _atom_site_occupancy
  Ca  Ca0  1  0.81875599  0.81875599  0.25000000  1.0
  Ca  Ca1  1  0.18124401  0.18124401  0.75000000  1.0
  Ca  Ca2  1  0.53832082  -0.05049681  0.63927779  1.0
  Ca  Ca3  1  1.46167918  0.05049681  0.36072221  1.0
  Ca  Ca4  1  0.94950319  0.53832082  0.86072221  1.0
  Ca  Ca5  1  1.05049681  -0.53832082  0.13927779  1.0
  Ca  Ca6  1  1.15425612  -0.65447196  0.46020917  1.0
  Ca  Ca7  1  0.84574388  0.65447196  0.53979083  1.0
  Ca  Ca8  1  1.34552804  0.15425612  0.03979083  1.0
  Ca  Ca9  1  0.65447196  -0.15425612  0.96020917  1.0
  Al  Al10  1  0.29638090  0.19288071  0.90166611  1.0
  Al  Al11  1  1.70361910  -0.19288071  0.09833389  1.0
  Al  Al12  1  1.19288071  -0.70361910  0.59833389  1.0
  Al  Al13  1  0.80711929  0.70361910  0.40166611  1.0
  Si  Si14  1  1.40560432  0.12028506  0.18392984  1.0
  Si  Si15  1  0.59439568  -0.12028506  0.81607016  1.0
  Si  Si16  1  1.12028506  -0.59439568  0.31607016  1.0
  Si  Si17  1  0.87971494  0.59439568  0.68392984  1.0
  Si  Si18  1  0.50000000  0.00000000  0.50000000  1.0
  Si  Si19  1  1.00000000  -0.50000000  -0.00000000  1.0
  O  O20  1  1.04084234  -0.63536478  0.24319331  1.0
  O  O21  1  0.95915766  0.63536478  0.75680669  1.0
  O  O22  1  1.36463522  0.04084234  0.25680669  1.0
  O  O23  1  0.63536478  -0.04084234  0.74319331  1.0
  O  O24  1  1.39880026  -0.33757624  0.55172543  1.0
  O  O25  1  0.60119974  0.33757624  0.44827457  1.0
  O  O26  1  0.66242376  0.39880026  0.94827457  1.0
  O  O27  1  1.33757624  -0.39880026  0.05172543  1.0
  O  O28  1  1.05955256  0.45871440  0.65519134  1.0
  O  O29  1  0.94044744  -0.45871440  0.34480866  1.0
  O  O30  1  0.45871440  0.05955256  0.84480866  1.0
  O  O31  1  1.54128560  -0.05955256  0.15519134  1.0
  O  O32  1  1.39563092  -0.47341404  0.83912321  1.0
  O  O33  1  0.60436908  0.47341404  0.16087679  1.0
  O  O34  1  0.52658596  0.39563092  0.66087679  1.0
  O  O35  1  1.47341404  -0.39563092  0.33912321  1.0
  O  O36  1  1.67877628  -0.11398590  0.45133036  1.0
  O  O37  1  0.32122372  0.11398590  0.54866964  1.0
  O  O38  1  0.88601410  -0.32122372  0.04866964  1.0
  O  O39  1  1.11398590  0.32122372  0.95133036  1.0
  O  O40  1  1.00530857  -0.92576072  0.35264907  1.0
  O  O41  1  0.99469143  0.92576072  0.64735093  1.0
  O  O42  1  0.07423928  0.00530857  0.14735093  1.0
  O  O43  1  1.92576072  -0.00530857  0.85264907  1.0
  O  O44  1  0.19339023  -0.15812157  0.95348367  1.0
  O  O45  1  1.80660977  0.15812157  0.04651633  1.0
  O  O46  1  0.84187843  -0.80660977  0.54651633  1.0
  O  O47  1  1.15812157  0.80660977  0.45348367  1.0
