# generated using pymatgen
data_BaCd2Pt
_symmetry_space_group_name_H-M   'P 1'
_cell_length_a   6.08768205
_cell_length_b   6.08768205
_cell_length_c   8.37908946
_cell_angle_alpha   90.00000000
_cell_angle_beta   90.00000000
_cell_angle_gamma   136.30420185
_symmetry_Int_Tables_number   1
_chemical_formula_structural   BaCd2Pt
_chemical_formula_sum   'Ba2 Cd4 Pt2'
_cell_volume   214.52186096
_cell_formula_units_Z   2
loop_
 _symmetry_equiv_pos_site_id
 _symmetry_equiv_pos_as_xyz
  1  'x, y, z'
loop_
 _atom_site_type_symbol
 _atom_site_label
 _atom_site_symmetry_multiplicity
 _atom_site_fract_x
 _atom_site_fract_y
 _atom_site_fract_z
 _atom_site_occupancy
  Ba  Ba0  1  0.44135314  0.55864686  0.75000000  1.0
  Ba  Ba1  1  -0.44135314  0.44135314  0.25000000  1.0
  Cd  Cd2  1  0.15884491  0.84115509  0.94337202  1.0
  Cd  Cd3  1  0.15884491  0.84115509  0.55662798  1.0
  Cd  Cd4  1  -0.15884491  0.15884491  0.44337202  1.0
  Cd  Cd5  1  -0.15884491  0.15884491  0.05662798  1.0
  Pt  Pt6  1  -0.27721766  0.27721766  0.75000000  1.0
  Pt  Pt7  1  0.27721766  0.72278234  0.25000000  1.0
