# generated using pymatgen
data_Mg(AuF6)2
_symmetry_space_group_name_H-M   'P 1'
_cell_length_a   6.05510750
_cell_length_b   6.05510750
_cell_length_c   6.86875785
_cell_angle_alpha   90.00000000
_cell_angle_beta   90.00000000
_cell_angle_gamma   90.00000000
_symmetry_Int_Tables_number   1
_chemical_formula_structural   Mg(AuF6)2
_chemical_formula_sum   'Mg1 Au2 F12'
_cell_volume   251.83838261
_cell_formula_units_Z   1
loop_
 _symmetry_equiv_pos_site_id
 _symmetry_equiv_pos_as_xyz
  1  'x, y, z'
loop_
 _atom_site_type_symbol
 _atom_site_label
 _atom_site_symmetry_multiplicity
 _atom_site_fract_x
 _atom_site_fract_y
 _atom_site_fract_z
 _atom_site_occupancy
  Mg  Mg0  1  0.00000000  0.00000000  0.00000000  1.0
  Au  Au1  1  0.50000000  -0.00000000  0.20510277  1.0
  Au  Au2  1  0.00000000  0.50000000  0.79489723  1.0
  F  F3  1  0.19923902  0.75220908  0.80628649  1.0
  F  F4  1  0.75220908  0.80076098  0.19371351  1.0
  F  F5  1  0.80076098  0.24779092  0.80628649  1.0
  F  F6  1  0.24779092  0.19923902  0.19371351  1.0
  F  F7  1  0.24779092  0.80076098  0.19371351  1.0
  F  F8  1  0.80076098  0.75220908  0.80628649  1.0
  F  F9  1  0.75220908  0.19923902  0.19371351  1.0
  F  F10  1  0.19923902  0.24779092  0.80628649  1.0
  F  F11  1  0.50000000  -0.00000000  -0.07627105  1.0
  F  F12  1  0.00000000  0.50000000  1.07627105  1.0
  F  F13  1  0.50000000  -0.00000000  0.48407198  1.0
  F  F14  1  0.00000000  0.50000000  0.51592802  1.0
