# generated using pymatgen
data_Pb13(N2O13)2
_symmetry_space_group_name_H-M   'P 1'
_cell_length_a   9.87621996
_cell_length_b   9.87621996
_cell_length_c   9.87621996
_cell_angle_alpha   65.54481029
_cell_angle_beta   65.54481029
_cell_angle_gamma   65.54481029
_symmetry_Int_Tables_number   1
_chemical_formula_structural   Pb13(N2O13)2
_chemical_formula_sum   'Pb13 N4 O26'
_cell_volume   763.25088151
_cell_formula_units_Z   1
loop_
 _symmetry_equiv_pos_site_id
 _symmetry_equiv_pos_as_xyz
  1  'x, y, z'
loop_
 _atom_site_type_symbol
 _atom_site_label
 _atom_site_symmetry_multiplicity
 _atom_site_fract_x
 _atom_site_fract_y
 _atom_site_fract_z
 _atom_site_occupancy
  N  N0  1  0.24898528  0.24898528  0.24898528  1.0
  N  N1  1  0.75101472  -0.24898528  -0.24898528  1.0
  N  N2  1  0.39275636  0.39275636  -0.60724364  1.0
  N  N3  1  0.60724364  0.60724364  -0.39275636  1.0
  O  O4  1  0.37124736  1.13523717  -0.75985954  1.0
  O  O5  1  0.75985954  -0.37124736  -0.13523717  1.0
  O  O6  1  0.86476283  -0.24014046  -0.37124736  1.0
  O  O7  1  0.62875264  -0.13523717  -0.24014046  1.0
  O  O8  1  0.24014046  0.37124736  0.13523717  1.0
  O  O9  1  1.13523717  0.24014046  -0.62875264  1.0
  O  O10  1  0.39587430  0.88543196  -0.88782944  1.0
  O  O11  1  0.88782944  -0.39587430  0.11456804  1.0
  O  O12  1  1.11456804  -0.11217056  -0.39587430  1.0
  O  O13  1  0.60412570  0.11456804  -0.11217056  1.0
  O  O14  1  0.11217056  0.39587430  -0.11456804  1.0
  O  O15  1  0.88543196  0.11217056  -0.60412570  1.0
  O  O16  1  0.10212011  0.10212011  0.10212011  1.0
  O  O17  1  0.89787989  -0.10212011  -0.10212011  1.0
  O  O18  1  0.27326762  -0.03899453  -0.14395178  1.0
  O  O19  1  1.14395178  -0.27326762  0.03899453  1.0
  O  O20  1  1.03899453  0.14395178  -0.27326762  1.0
  O  O21  1  0.72673238  0.03899453  0.14395178  1.0
  O  O22  1  0.85604822  -0.72673238  -0.03899453  1.0
  O  O23  1  0.96100547  -0.14395178  -0.72673238  1.0
  O  O24  1  0.33811866  0.31105380  -0.47150186  1.0
  O  O25  1  0.47150186  0.66188134  -0.31105380  1.0
  O  O26  1  0.68894620  0.47150186  -0.33811866  1.0
  O  O27  1  0.66188134  0.68894620  -0.52849814  1.0
  O  O28  1  0.52849814  0.33811866  -0.68894620  1.0
  O  O29  1  0.31105380  0.52849814  -0.66188134  1.0
  Pb  Pb30  1  0.12963611  0.91555694  -0.66304149  1.0
  Pb  Pb31  1  0.66304149  -0.12963611  0.08444306  1.0
  Pb  Pb32  1  1.08444306  -0.33695851  -0.12963611  1.0
  Pb  Pb33  1  0.87036389  0.08444306  -0.33695851  1.0
  Pb  Pb34  1  0.33695851  0.12963611  -0.08444306  1.0
  Pb  Pb35  1  0.91555694  0.33695851  -0.87036389  1.0
  Pb  Pb36  1  0.59880421  0.28220047  0.00427289  1.0
  Pb  Pb37  1  0.99572711  -0.59880421  -0.28220047  1.0
  Pb  Pb38  1  0.71779953  -0.00427289  -0.59880421  1.0
  Pb  Pb39  1  0.40119579  -0.28220047  -0.00427289  1.0
  Pb  Pb40  1  1.00427289  -0.40119579  0.28220047  1.0
  Pb  Pb41  1  1.28220047  0.00427289  -0.40119579  1.0
  Pb  Pb42  1  0.00000000  0.00000000  0.00000000  1.0
