# generated using pymatgen
data_SrSn(PO4)2
_symmetry_space_group_name_H-M   'P 1'
_cell_length_a   8.92241804
_cell_length_b   8.92241804
_cell_length_c   8.26435166
_cell_angle_alpha   64.77352679
_cell_angle_beta   115.22647321
_cell_angle_gamma   145.51206610
_symmetry_Int_Tables_number   1
_chemical_formula_structural   SrSn(PO4)2
_chemical_formula_sum   'Sr2 Sn2 P4 O16'
_cell_volume   333.38491769
_cell_formula_units_Z   2
loop_
 _symmetry_equiv_pos_site_id
 _symmetry_equiv_pos_as_xyz
  1  'x, y, z'
loop_
 _atom_site_type_symbol
 _atom_site_label
 _atom_site_symmetry_multiplicity
 _atom_site_fract_x
 _atom_site_fract_y
 _atom_site_fract_z
 _atom_site_occupancy
  Sr  Sr0  1  0.17351270  0.17351270  0.75000000  1.0
  Sr  Sr1  1  0.82648730  0.82648730  0.25000000  1.0
  Sn  Sn2  1  1.50000000  -0.00000000  0.00000000  1.0
  Sn  Sn3  1  1.00000000  -0.50000000  0.50000000  1.0
  P  P4  1  1.59627445  -0.12105145  0.74541335  1.0
  P  P5  1  1.12105145  -0.59627445  0.24541335  1.0
  P  P6  1  0.87894855  -0.40372555  0.75458665  1.0
  P  P7  1  1.40372555  0.12105145  0.25458665  1.0
  O  O8  1  1.73004620  -0.16784316  0.90230638  1.0
  O  O9  1  1.16784316  -0.73004620  0.40230638  1.0
  O  O10  1  0.83215684  -0.26995380  0.59769362  1.0
  O  O11  1  1.26995380  0.16784316  0.09769362  1.0
  O  O12  1  1.79946501  0.11575284  0.60413355  1.0
  O  O13  1  0.88424716  -0.79946501  0.10413355  1.0
  O  O14  1  1.11575284  -0.20053499  0.89586645  1.0
  O  O15  1  1.20053499  -0.11575284  0.39586645  1.0
  O  O16  1  1.50825029  -0.05071574  0.78884462  1.0
  O  O17  1  1.05071574  -0.50825029  0.28884462  1.0
  O  O18  1  0.94928426  -0.49174971  0.71115538  1.0
  O  O19  1  1.49174971  0.05071574  0.21115538  1.0
  O  O20  1  1.61886621  0.33737307  0.84948626  1.0
  O  O21  1  0.66262693  -0.61886621  0.34948626  1.0
  O  O22  1  1.33737307  -0.38113379  0.65051374  1.0
  O  O23  1  1.38113379  -0.33737307  0.15051374  1.0
