# generated using pymatgen
data_Na2Gd2B2O7
_symmetry_space_group_name_H-M   'P 1'
_cell_length_a   10.76089746
_cell_length_b   6.37396862
_cell_length_c   10.44251754
_cell_angle_alpha   90.00000000
_cell_angle_beta   117.74282642
_cell_angle_gamma   90.00000000
_symmetry_Int_Tables_number   1
_chemical_formula_structural   Na2Gd2B2O7
_chemical_formula_sum   'Na8 Gd8 B8 O28'
_cell_volume   633.91267465
_cell_formula_units_Z   4
loop_
 _symmetry_equiv_pos_site_id
 _symmetry_equiv_pos_as_xyz
  1  'x, y, z'
loop_
 _atom_site_type_symbol
 _atom_site_label
 _atom_site_symmetry_multiplicity
 _atom_site_fract_x
 _atom_site_fract_y
 _atom_site_fract_z
 _atom_site_occupancy
  O  O0  1  0.97492846  0.37761093  0.59801333  1.0
  O  O1  1  0.02507154  0.87761093  0.90198667  1.0
  O  O2  1  0.02507154  0.62238907  0.40198667  1.0
  O  O3  1  0.97492846  0.12238907  0.09801333  1.0
  O  O4  1  0.31578467  0.75568100  0.63347593  1.0
  O  O5  1  0.68421533  0.25568100  0.86652407  1.0
  O  O6  1  0.68421533  0.24431900  0.36652407  1.0
  O  O7  1  0.31578467  0.74431900  0.13347593  1.0
  O  O8  1  0.15037297  0.03961600  0.58719678  1.0
  O  O9  1  0.84962703  0.53961600  0.91280322  1.0
  O  O10  1  0.84962703  0.96038400  0.41280322  1.0
  O  O11  1  0.15037297  0.46038400  0.08719678  1.0
  O  O12  1  0.39879441  0.33009484  0.55594536  1.0
  O  O13  1  0.60120559  0.83009484  0.94405464  1.0
  O  O14  1  0.60120559  0.66990516  0.44405464  1.0
  O  O15  1  0.39879441  0.16990516  0.05594536  1.0
  O  O16  1  0.84729763  0.24499268  0.77081541  1.0
  O  O17  1  0.15270237  0.74499268  0.72918459  1.0
  O  O18  1  0.15270237  0.75500732  0.22918459  1.0
  O  O19  1  0.84729763  0.25500732  0.27081541  1.0
  O  O20  1  0.37010468  0.35171227  0.83889604  1.0
  O  O21  1  0.62989532  0.85171227  0.66110396  1.0
  O  O22  1  0.62989532  0.64828773  0.16110396  1.0
  O  O23  1  0.37010468  0.14828773  0.33889604  1.0
  O  O24  1  0.16991622  0.23638787  0.86727328  1.0
  O  O25  1  0.83008378  0.73638787  0.63272672  1.0
  O  O26  1  0.83008378  0.76361213  0.13272672  1.0
  O  O27  1  0.16991622  0.26361213  0.36727328  1.0
  Gd  Gd28  1  0.98336701  0.04186942  0.68164984  1.0
  Gd  Gd29  1  0.01663299  0.54186942  0.81835016  1.0
  Gd  Gd30  1  0.01663299  0.95813058  0.31835016  1.0
  Gd  Gd31  1  0.98336701  0.45813058  0.18164984  1.0
  Gd  Gd32  1  0.18473413  0.41827739  0.58736553  1.0
  Gd  Gd33  1  0.81526587  0.91827739  0.91263447  1.0
  Gd  Gd34  1  0.81526587  0.58172261  0.41263447  1.0
  Gd  Gd35  1  0.18473413  0.08172261  0.08736553  1.0
  Na  Na36  1  0.52363070  0.55795093  0.75962691  1.0
  Na  Na37  1  0.47636930  0.05795093  0.74037309  1.0
  Na  Na38  1  0.47636930  0.44204907  0.24037309  1.0
  Na  Na39  1  0.52363070  0.94204907  0.25962691  1.0
  Na  Na40  1  0.61087822  0.22656826  0.54853757  1.0
  Na  Na41  1  0.38912178  0.72656826  0.95146243  1.0
  Na  Na42  1  0.38912178  0.77343174  0.45146243  1.0
  Na  Na43  1  0.61087822  0.27343174  0.04853757  1.0
  B  B44  1  0.20908653  0.84747465  0.64910541  1.0
  B  B45  1  0.79091347  0.34747465  0.85089459  1.0
  B  B46  1  0.79091347  0.15252535  0.35089459  1.0
  B  B47  1  0.20908653  0.65252535  0.14910541  1.0
  B  B48  1  0.31721467  0.24696142  0.42036906  1.0
  B  B49  1  0.68278533  0.74696142  1.07963094  1.0
  B  B50  1  0.68278533  0.75303858  0.57963094  1.0
  B  B51  1  0.31721467  0.25303858  -0.07963094  1.0
