# generated using pymatgen
data_NaV6O11
_symmetry_space_group_name_H-M   'P 1'
_cell_length_a   5.75164327
_cell_length_b   5.75164327
_cell_length_c   13.62706573
_cell_angle_alpha   90.00000000
_cell_angle_beta   90.00000000
_cell_angle_gamma   120.00000000
_symmetry_Int_Tables_number   1
_chemical_formula_structural   NaV6O11
_chemical_formula_sum   'Na2 V12 O22'
_cell_volume   390.40634443
_cell_formula_units_Z   2
loop_
 _symmetry_equiv_pos_site_id
 _symmetry_equiv_pos_as_xyz
  1  'x, y, z'
loop_
 _atom_site_type_symbol
 _atom_site_label
 _atom_site_symmetry_multiplicity
 _atom_site_fract_x
 _atom_site_fract_y
 _atom_site_fract_z
 _atom_site_occupancy
  Na  Na0  1  0.33333333  0.66666667  0.25000000  1.0
  Na  Na1  1  0.66666667  0.33333333  0.75000000  1.0
  V  V2  1  0.50000000  0.50000000  0.50000000  1.0
  V  V3  1  0.50000000  0.00000000  0.50000000  1.0
  V  V4  1  -0.00000000  0.50000000  0.50000000  1.0
  V  V5  1  0.50000000  0.50000000  0.00000000  1.0
  V  V6  1  0.50000000  0.00000000  -0.00000000  1.0
  V  V7  1  -0.00000000  0.50000000  -0.00000000  1.0
  V  V8  1  -0.00000000  -0.00000000  0.35025960  1.0
  V  V9  1  0.00000000  0.00000000  0.64974040  1.0
  V  V10  1  -0.00000000  -0.00000000  0.85025960  1.0
  V  V11  1  0.00000000  0.00000000  0.14974040  1.0
  V  V12  1  0.33333333  0.66666667  0.75000000  1.0
  V  V13  1  0.66666667  0.33333333  0.25000000  1.0
  O  O14  1  0.16660287  0.83339713  0.42627531  1.0
  O  O15  1  0.16660287  0.33320574  0.42627531  1.0
  O  O16  1  0.66679426  0.83339713  0.42627531  1.0
  O  O17  1  0.83339713  0.16660287  0.57372469  1.0
  O  O18  1  0.83339713  0.66679426  0.57372469  1.0
  O  O19  1  0.33320574  0.16660287  0.57372469  1.0
  O  O20  1  0.83339713  0.16660287  0.92627531  1.0
  O  O21  1  0.83339713  0.66679426  0.92627531  1.0
  O  O22  1  0.33320574  0.16660287  0.92627531  1.0
  O  O23  1  0.16660287  0.83339713  0.07372469  1.0
  O  O24  1  0.16660287  0.33320574  0.07372469  1.0
  O  O25  1  0.66679426  0.83339713  0.07372469  1.0
  O  O26  1  0.13169745  0.86830255  0.25000000  1.0
  O  O27  1  0.13169745  0.26339489  0.25000000  1.0
  O  O28  1  0.73660511  0.86830255  0.25000000  1.0
  O  O29  1  0.86830255  0.13169745  0.75000000  1.0
  O  O30  1  0.86830255  0.73660511  0.75000000  1.0
  O  O31  1  0.26339489  0.13169745  0.75000000  1.0
  O  O32  1  0.33333333  0.66666667  0.91010564  1.0
  O  O33  1  0.66666667  0.33333333  0.08989436  1.0
  O  O34  1  0.66666667  0.33333333  0.41010564  1.0
  O  O35  1  0.33333333  0.66666667  0.58989436  1.0
