# generated using pymatgen
data_LaGaGe2O7
_symmetry_space_group_name_H-M   'P 1'
_cell_length_a   7.43405585
_cell_length_b   6.70735225
_cell_length_c   13.15361448
_cell_angle_alpha   90.00000000
_cell_angle_beta   117.69269282
_cell_angle_gamma   90.00000000
_symmetry_Int_Tables_number   1
_chemical_formula_structural   LaGaGe2O7
_chemical_formula_sum   'La4 Ga4 Ge8 O28'
_cell_volume   580.74771302
_cell_formula_units_Z   4
loop_
 _symmetry_equiv_pos_site_id
 _symmetry_equiv_pos_as_xyz
  1  'x, y, z'
loop_
 _atom_site_type_symbol
 _atom_site_label
 _atom_site_symmetry_multiplicity
 _atom_site_fract_x
 _atom_site_fract_y
 _atom_site_fract_z
 _atom_site_occupancy
  La  La0  1  0.74041204  0.85387286  0.97516340  1.0
  La  La1  1  0.74041204  0.64612714  0.47516340  1.0
  La  La2  1  0.25958796  0.35387286  0.52483660  1.0
  La  La3  1  0.25958796  0.14612714  0.02483660  1.0
  Ga  Ga4  1  0.71667544  0.89829881  0.23173341  1.0
  Ga  Ga5  1  0.71667544  0.60170119  0.73173341  1.0
  Ga  Ga6  1  0.28332456  0.39829881  0.26826659  1.0
  Ga  Ga7  1  0.28332456  0.10170119  0.76826659  1.0
  Ge  Ge8  1  0.79914789  0.40999132  0.21716882  1.0
  Ge  Ge9  1  0.79914789  0.09000868  0.71716882  1.0
  Ge  Ge10  1  0.20085211  0.90999132  0.28283118  1.0
  Ge  Ge11  1  0.20085211  0.59000868  0.78283118  1.0
  Ge  Ge12  1  0.71087540  0.15810065  0.45295306  1.0
  Ge  Ge13  1  0.71087540  0.34189935  0.95295306  1.0
  Ge  Ge14  1  0.28912460  0.65810065  0.04704694  1.0
  Ge  Ge15  1  0.28912460  0.84189935  0.54704694  1.0
  O  O16  1  0.93477713  0.87488228  0.19666515  1.0
  O  O17  1  0.93477713  0.62511772  0.69666515  1.0
  O  O18  1  0.06522287  0.37488228  0.30333485  1.0
  O  O19  1  0.06522287  0.12511772  0.80333485  1.0
  O  O20  1  0.90677626  0.32274320  0.47893781  1.0
  O  O21  1  0.90677626  0.17725680  0.97893781  1.0
  O  O22  1  0.09322374  0.82274320  0.02106219  1.0
  O  O23  1  0.09322374  0.67725680  0.52106219  1.0
  O  O24  1  0.75051748  0.49478219  0.07427589  1.0
  O  O25  1  0.75051748  1.00521781  0.57427589  1.0
  O  O26  1  0.24948252  -0.00521781  0.42572411  1.0
  O  O27  1  0.24948252  0.50521781  0.92572411  1.0
  O  O28  1  0.70491081  0.95003579  0.36917249  1.0
  O  O29  1  0.70491081  0.54996421  0.86917249  1.0
  O  O30  1  0.29508919  0.45003579  0.13082751  1.0
  O  O31  1  0.29508919  0.04996421  0.63082751  1.0
  O  O32  1  0.65654297  0.18649971  0.18518420  1.0
  O  O33  1  0.65654297  0.31350029  0.68518420  1.0
  O  O34  1  0.34345703  0.68649971  0.31481580  1.0
  O  O35  1  0.34345703  0.81350029  0.81481580  1.0
  O  O36  1  0.50783105  0.33515005  0.41792153  1.0
  O  O37  1  0.50783105  0.16484995  0.91792153  1.0
  O  O38  1  0.49216895  0.83515005  0.08207847  1.0
  O  O39  1  0.49216895  0.66484995  0.58207847  1.0
  O  O40  1  0.27706815  0.10844061  0.22276292  1.0
  O  O41  1  0.27706815  0.39155939  0.72276292  1.0
  O  O42  1  0.72293185  0.60844061  0.27723708  1.0
  O  O43  1  0.72293185  0.89155939  0.77723708  1.0
