# generated using pymatgen
data_Sr3(GeAs2)2
_symmetry_space_group_name_H-M   'P 1'
_cell_length_a   7.70162064
_cell_length_b   18.76248273
_cell_length_c   7.54382133
_cell_angle_alpha   90.00000000
_cell_angle_beta   111.92966859
_cell_angle_gamma   90.00000000
_symmetry_Int_Tables_number   1
_chemical_formula_structural   Sr3(GeAs2)2
_chemical_formula_sum   'Sr12 Ge8 As16'
_cell_volume   1011.21776297
_cell_formula_units_Z   4
loop_
 _symmetry_equiv_pos_site_id
 _symmetry_equiv_pos_as_xyz
  1  'x, y, z'
loop_
 _atom_site_type_symbol
 _atom_site_label
 _atom_site_symmetry_multiplicity
 _atom_site_fract_x
 _atom_site_fract_y
 _atom_site_fract_z
 _atom_site_occupancy
  Sr  Sr0  1  0.78163619  0.18449135  0.98800044  1.0
  Sr  Sr1  1  0.78163619  0.31550865  0.48800044  1.0
  Sr  Sr2  1  0.21836381  0.68449135  0.51199956  1.0
  Sr  Sr3  1  0.21836381  0.81550865  0.01199956  1.0
  Sr  Sr4  1  0.74473710  0.43898651  0.98862385  1.0
  Sr  Sr5  1  0.74473710  0.06101349  0.48862385  1.0
  Sr  Sr6  1  0.25526290  0.93898651  0.51137615  1.0
  Sr  Sr7  1  0.25526290  0.56101349  0.01137615  1.0
  Sr  Sr8  1  0.73899106  0.93947089  0.99727334  1.0
  Sr  Sr9  1  0.73899106  0.56052911  0.49727334  1.0
  Sr  Sr10  1  0.26100894  0.43947089  0.50272666  1.0
  Sr  Sr11  1  0.26100894  0.06052911  0.00272666  1.0
  Ge  Ge12  1  0.78796432  0.62843514  0.97170167  1.0
  Ge  Ge13  1  0.78796432  0.87156486  0.47170167  1.0
  Ge  Ge14  1  0.21203568  0.12843514  0.52829833  1.0
  Ge  Ge15  1  0.21203568  0.37156486  0.02829833  1.0
  Ge  Ge16  1  0.68558232  0.75961457  0.58472277  1.0
  Ge  Ge17  1  0.68558232  0.74038543  0.08472277  1.0
  Ge  Ge18  1  0.31441768  0.25961457  0.91527723  1.0
  Ge  Ge19  1  0.31441768  0.24038543  0.41527723  1.0
  As  As20  1  0.99296132  0.93941766  0.74800570  1.0
  As  As21  1  0.99296132  0.56058234  0.24800570  1.0
  As  As22  1  0.00703868  0.43941766  0.75199430  1.0
  As  As23  1  0.00703868  0.06058234  0.25199430  1.0
  As  As24  1  0.96022172  0.68590717  0.78056535  1.0
  As  As25  1  0.96022172  0.81409283  0.28056535  1.0
  As  As26  1  0.03977828  0.18590717  0.71943465  1.0
  As  As27  1  0.03977828  0.31409283  0.21943465  1.0
  As  As28  1  0.50296064  0.56791320  0.75812127  1.0
  As  As29  1  0.50296064  0.93208680  0.25812127  1.0
  As  As30  1  0.49703936  0.06791320  0.74187873  1.0
  As  As31  1  0.49703936  0.43208680  0.24187873  1.0
  As  As32  1  0.49768393  0.80190792  0.77540483  1.0
  As  As33  1  0.49768393  0.69809208  0.27540483  1.0
  As  As34  1  0.50231607  0.30190792  0.72459517  1.0
  As  As35  1  0.50231607  0.19809208  0.22459517  1.0
