# generated using pymatgen
data_BaSi2O5
_symmetry_space_group_name_H-M   'P 1'
_cell_length_a   13.68657317
_cell_length_b   7.78829110
_cell_length_c   4.70916164
_cell_angle_alpha   90.00000000
_cell_angle_beta   90.00000000
_cell_angle_gamma   90.00000000
_symmetry_Int_Tables_number   1
_chemical_formula_structural   BaSi2O5
_chemical_formula_sum   'Ba4 Si8 O20'
_cell_volume   501.97316019
_cell_formula_units_Z   4
loop_
 _symmetry_equiv_pos_site_id
 _symmetry_equiv_pos_as_xyz
  1  'x, y, z'
loop_
 _atom_site_type_symbol
 _atom_site_label
 _atom_site_symmetry_multiplicity
 _atom_site_fract_x
 _atom_site_fract_y
 _atom_site_fract_z
 _atom_site_occupancy
  Ba  Ba0  1  0.54406523  0.25000000  0.21335038  1.0
  Ba  Ba1  1  0.04406523  0.25000000  0.28664962  1.0
  Ba  Ba2  1  0.45593477  0.75000000  0.78664962  1.0
  Ba  Ba3  1  0.95593477  0.75000000  0.71335038  1.0
  Si  Si4  1  0.81646937  0.45231928  0.14605195  1.0
  Si  Si5  1  0.81646937  0.04768072  0.14605195  1.0
  Si  Si6  1  0.31646937  0.45231928  0.35394805  1.0
  Si  Si7  1  0.31646937  0.04768072  0.35394805  1.0
  Si  Si8  1  0.18353063  0.95231928  0.85394805  1.0
  Si  Si9  1  0.18353063  0.54768072  0.85394805  1.0
  Si  Si10  1  0.68353063  0.95231928  0.64605195  1.0
  Si  Si11  1  0.68353063  0.54768072  0.64605195  1.0
  O  O12  1  0.91373214  0.96206117  0.26655574  1.0
  O  O13  1  0.91373214  0.53793883  0.26655574  1.0
  O  O14  1  0.41373214  0.96206117  0.23344426  1.0
  O  O15  1  0.41373214  0.53793883  0.23344426  1.0
  O  O16  1  0.08626786  0.46206117  0.73344426  1.0
  O  O17  1  0.08626786  0.03793883  0.73344426  1.0
  O  O18  1  0.58626786  0.46206117  0.76655574  1.0
  O  O19  1  0.58626786  0.03793883  0.76655574  1.0
  O  O20  1  0.71838474  0.44858370  0.35178288  1.0
  O  O21  1  0.71838474  0.05141630  0.35178288  1.0
  O  O22  1  0.21838474  0.44858370  0.14821712  1.0
  O  O23  1  0.21838474  0.05141630  0.14821712  1.0
  O  O24  1  0.28161526  0.94858370  0.64821712  1.0
  O  O25  1  0.28161526  0.55141630  0.64821712  1.0
  O  O26  1  0.78161526  0.94858370  0.85178288  1.0
  O  O27  1  0.78161526  0.55141630  0.85178288  1.0
  O  O28  1  0.83837748  0.25000000  0.05870009  1.0
  O  O29  1  0.33837748  0.25000000  0.44129991  1.0
  O  O30  1  0.16162252  0.75000000  0.94129991  1.0
  O  O31  1  0.66162252  0.75000000  0.55870009  1.0
