# generated using pymatgen
data_SiP
_symmetry_space_group_name_H-M   'P 1'
_cell_length_a   10.43617480
_cell_length_b   10.43617480
_cell_length_c   15.57376937
_cell_angle_alpha   90.00000000
_cell_angle_beta   90.00000000
_cell_angle_gamma   160.50683556
_symmetry_Int_Tables_number   1
_chemical_formula_structural   SiP
_chemical_formula_sum   'Si12 P12'
_cell_volume   566.01161452
_cell_formula_units_Z   12
loop_
 _symmetry_equiv_pos_site_id
 _symmetry_equiv_pos_as_xyz
  1  'x, y, z'
loop_
 _atom_site_type_symbol
 _atom_site_label
 _atom_site_symmetry_multiplicity
 _atom_site_fract_x
 _atom_site_fract_y
 _atom_site_fract_z
 _atom_site_occupancy
  Si  Si0  1  0.05985102  0.94014898  0.14206849  1.0
  Si  Si1  1  -0.05985102  0.05985102  0.64206849  1.0
  Si  Si2  1  0.17112902  0.82887098  0.10456164  1.0
  Si  Si3  1  -0.17112902  0.17112902  0.60456164  1.0
  Si  Si4  1  0.20177720  0.79822280  0.54070666  1.0
  Si  Si5  1  -0.20177720  0.20177720  0.04070666  1.0
  Si  Si6  1  0.20466517  0.79533483  0.69170457  1.0
  Si  Si7  1  -0.20466517  0.20466517  0.19170457  1.0
  Si  Si8  1  -0.43561033  0.43561033  0.55487537  1.0
  Si  Si9  1  0.43561033  0.56438967  0.05487537  1.0
  Si  Si10  1  -0.43271491  0.43271491  0.70590239  1.0
  Si  Si11  1  0.43271491  0.56728509  0.20590239  1.0
  P  P12  1  0.00013493  0.99986507  0.51685829  1.0
  P  P13  1  -0.00013493  0.00013493  0.01685829  1.0
  P  P14  1  0.11384201  0.88615799  0.77527744  1.0
  P  P15  1  -0.11384201  0.11384201  0.27527744  1.0
  P  P16  1  0.23110469  0.76889531  0.22978775  1.0
  P  P17  1  -0.23110469  0.23110469  0.72978775  1.0
  P  P18  1  0.31052428  0.68947572  0.51402327  1.0
  P  P19  1  -0.31052428  0.31052428  0.01402327  1.0
  P  P20  1  0.34478179  0.65521821  0.97133525  1.0
  P  P21  1  -0.34478179  0.34478179  0.47133525  1.0
  P  P22  1  0.45853719  0.54146281  0.73259888  1.0
  P  P23  1  -0.45853719  0.45853719  0.23259888  1.0
