# generated using pymatgen
data_Si7(Ni2Au)2
_symmetry_space_group_name_H-M   'P 1'
_cell_length_a   6.71429851
_cell_length_b   6.71429851
_cell_length_c   8.01593140
_cell_angle_alpha   70.90491278
_cell_angle_beta   109.09508722
_cell_angle_gamma   147.22643973
_symmetry_Int_Tables_number   1
_chemical_formula_structural   Si7(Ni2Au)2
_chemical_formula_sum   'Si7 Ni4 Au2'
_cell_volume   183.89446373
_cell_formula_units_Z   1
loop_
 _symmetry_equiv_pos_site_id
 _symmetry_equiv_pos_as_xyz
  1  'x, y, z'
loop_
 _atom_site_type_symbol
 _atom_site_label
 _atom_site_symmetry_multiplicity
 _atom_site_fract_x
 _atom_site_fract_y
 _atom_site_fract_z
 _atom_site_occupancy
  Si  Si0  1  0.83486985  0.16513015  0.57676445  1.0
  Si  Si1  1  0.16513015  -0.16513015  0.42323555  1.0
  Si  Si2  1  0.50462270  0.49537730  0.33512476  1.0
  Si  Si3  1  0.49537730  -0.49537730  0.66487524  1.0
  Si  Si4  1  0.84558028  0.15441972  0.24084900  1.0
  Si  Si5  1  0.15441972  -0.15441972  0.75915100  1.0
  Si  Si6  1  0.50000000  0.50000000  0.00000000  1.0
  Ni  Ni7  1  0.65534547  0.34465453  0.58754168  1.0
  Ni  Ni8  1  0.34465453  -0.34465453  0.41245832  1.0
  Ni  Ni9  1  0.99458240  0.00541760  0.83211065  1.0
  Ni  Ni10  1  0.00541760  -0.00541760  0.16788935  1.0
  Au  Au11  1  0.80625553  0.19374447  0.90653352  1.0
  Au  Au12  1  0.19374447  -0.19374447  0.09346648  1.0
