# generated using pymatgen
data_TaGeRh
_symmetry_space_group_name_H-M   'P 1'
_cell_length_a   6.44906954
_cell_length_b   3.86164085
_cell_length_c   7.46925220
_cell_angle_alpha   90.00000000
_cell_angle_beta   90.00000000
_cell_angle_gamma   90.00000000
_symmetry_Int_Tables_number   1
_chemical_formula_structural   TaGeRh
_chemical_formula_sum   'Ta4 Ge4 Rh4'
_cell_volume   186.01418506
_cell_formula_units_Z   4
loop_
 _symmetry_equiv_pos_site_id
 _symmetry_equiv_pos_as_xyz
  1  'x, y, z'
loop_
 _atom_site_type_symbol
 _atom_site_label
 _atom_site_symmetry_multiplicity
 _atom_site_fract_x
 _atom_site_fract_y
 _atom_site_fract_z
 _atom_site_occupancy
  Ta  Ta0  1  0.97167672  0.75000000  0.67903243  1.0
  Ta  Ta1  1  0.47167672  0.75000000  0.82096757  1.0
  Ta  Ta2  1  0.02832328  0.25000000  0.32096757  1.0
  Ta  Ta3  1  0.52832328  0.25000000  0.17903243  1.0
  Ge  Ge4  1  0.74123242  0.75000000  0.37633745  1.0
  Ge  Ge5  1  0.24123242  0.75000000  0.12366255  1.0
  Ge  Ge6  1  0.25876758  0.25000000  0.62366255  1.0
  Ge  Ge7  1  0.75876758  0.25000000  0.87633745  1.0
  Rh  Rh8  1  0.85594353  0.75000000  0.06266434  1.0
  Rh  Rh9  1  0.35594353  0.75000000  0.43733566  1.0
  Rh  Rh10  1  0.14405647  0.25000000  0.93733566  1.0
  Rh  Rh11  1  0.64405647  0.25000000  0.56266434  1.0
