# generated using pymatgen
data_La2AlNi9H
_symmetry_space_group_name_H-M   'P 1'
_cell_length_a   5.01696433
_cell_length_b   8.11409355
_cell_length_c   5.01737804
_cell_angle_alpha   90.00000000
_cell_angle_beta   119.27873206
_cell_angle_gamma   90.00000000
_symmetry_Int_Tables_number   1
_chemical_formula_structural   La2AlNi9H
_chemical_formula_sum   'La2 Al1 Ni9 H1'
_cell_volume   178.15551015
_cell_formula_units_Z   1
loop_
 _symmetry_equiv_pos_site_id
 _symmetry_equiv_pos_as_xyz
  1  'x, y, z'
loop_
 _atom_site_type_symbol
 _atom_site_label
 _atom_site_symmetry_multiplicity
 _atom_site_fract_x
 _atom_site_fract_y
 _atom_site_fract_z
 _atom_site_occupancy
  La  La0  1  0.01012176  0.76793884  0.02135842  1.0
  La  La1  1  0.01012176  0.23206116  0.02135842  1.0
  Al  Al2  1  0.50943483  0.50000000  0.52194162  1.0
  Ni  Ni3  1  0.67783156  0.75208015  0.35351449  1.0
  Ni  Ni4  1  0.34570126  0.75231494  0.68566837  1.0
  Ni  Ni5  1  0.67783156  0.24791985  0.35351449  1.0
  Ni  Ni6  1  0.34570126  0.24768506  0.68566837  1.0
  Ni  Ni7  1  0.01080716  0.00000000  0.52156763  1.0
  Ni  Ni8  1  0.50987742  0.00000000  0.02065809  1.0
  Ni  Ni9  1  0.51078885  0.00000000  0.52063220  1.0
  Ni  Ni10  1  0.00450878  0.50000000  0.51736674  1.0
  Ni  Ni11  1  0.51394118  0.50000000  0.02684765  1.0
  H  H12  1  0.14593261  0.50000000  -0.11469649  1.0
