# generated using pymatgen
data_ReSi2(PO5)3
_symmetry_space_group_name_H-M   'P 1'
_cell_length_a   11.12271761
_cell_length_b   8.02989760
_cell_length_c   8.01768020
_cell_angle_alpha   60.05103178
_cell_angle_beta   73.07758427
_cell_angle_gamma   78.84055492
_symmetry_Int_Tables_number   1
_chemical_formula_structural   ReSi2(PO5)3
_chemical_formula_sum   'Re2 Si4 P6 O30'
_cell_volume   592.60163577
_cell_formula_units_Z   2
loop_
 _symmetry_equiv_pos_site_id
 _symmetry_equiv_pos_as_xyz
  1  'x, y, z'
loop_
 _atom_site_type_symbol
 _atom_site_label
 _atom_site_symmetry_multiplicity
 _atom_site_fract_x
 _atom_site_fract_y
 _atom_site_fract_z
 _atom_site_occupancy
  Re  Re0  1  0.91870384  -0.22289653  1.19864591  1.0
  Re  Re1  1  0.08129616  -0.77710347  0.80135409  1.0
  Si  Si2  1  0.52771999  -0.83855221  1.65879673  1.0
  Si  Si3  1  0.47228001  -0.16144779  0.34120327  1.0
  Si  Si4  1  0.65097566  -0.51289651  0.94686726  1.0
  Si  Si5  1  0.34902434  -0.48710349  1.05313274  1.0
  P  P6  1  0.33137245  -0.52742397  1.45463907  1.0
  P  P7  1  0.66862755  -0.47257603  0.54536093  1.0
  P  P8  1  0.67212541  -0.16177323  0.98195431  1.0
  P  P9  1  0.32787459  -0.83822677  1.01804569  1.0
  P  P10  1  0.67113942  -0.91150259  1.29136809  1.0
  P  P11  1  0.32886058  -0.08849741  0.70863191  1.0
  O  O12  1  0.79199688  -0.41512856  1.38441650  1.0
  O  O13  1  0.20800312  -0.58487144  0.61558350  1.0
  O  O14  1  0.56981943  -0.25115319  1.17666967  1.0
  O  O15  1  0.43018057  -0.74884681  0.82333033  1.0
  O  O16  1  1.00522135  -0.72660294  1.62324327  1.0
  O  O17  1  -0.00522135  -0.27339706  0.37675673  1.0
  O  O18  1  0.62359105  -0.64028184  1.54696871  1.0
  O  O19  1  0.37640895  -0.35971816  0.45303129  1.0
  O  O20  1  0.79424691  -0.13195994  1.01056957  1.0
  O  O21  1  0.20575309  -0.86804006  0.98943043  1.0
  O  O22  1  0.62584136  -0.97176765  1.82528284  1.0
  O  O23  1  0.37415864  -0.02823235  0.17471716  1.0
  O  O24  1  0.29457188  -0.45990058  1.25226563  1.0
  O  O25  1  0.70542812  -0.54009942  0.74773437  1.0
  O  O26  1  0.42992044  -0.69735145  1.48120291  1.0
  O  O27  1  0.57007956  -0.30264855  0.51879709  1.0
  O  O28  1  0.20704131  -0.96335515  1.70966516  1.0
  O  O29  1  0.79295869  -0.03664485  0.29033484  1.0
  O  O30  1  0.70446704  -0.31616757  0.90299716  1.0
  O  O31  1  0.29553296  -0.68383243  1.09700284  1.0
  O  O32  1  0.62499183  -0.91893316  1.49361131  1.0
  O  O33  1  0.37500817  -0.08106684  0.50638869  1.0
  O  O34  1  0.70488655  -0.69650367  1.12774320  1.0
  O  O35  1  0.29511345  -0.30349633  0.87225680  1.0
  O  O36  1  0.99987852  -0.62758067  0.89505940  1.0
  O  O37  1  0.00012148  -0.37241933  1.10494060  1.0
  O  O38  1  0.56865070  -0.96037002  1.22883458  1.0
  O  O39  1  0.43134930  -0.03962998  0.77116542  1.0
  O  O40  1  0.50000000  -0.50000000  1.00000000  1.0
  O  O41  1  0.00000000  0.00000000  0.00000000  1.0
