# generated using pymatgen
data_KNaMn(Si2O5)2
_symmetry_space_group_name_H-M   'P 1'
_cell_length_a   7.05846007
_cell_length_b   10.11110587
_cell_length_c   8.45528860
_cell_angle_alpha   65.21716662
_cell_angle_beta   64.26569506
_cell_angle_gamma   79.17070677
_symmetry_Int_Tables_number   1
_chemical_formula_structural   KNaMn(Si2O5)2
_chemical_formula_sum   'K2 Na2 Mn2 Si8 O20'
_cell_volume   493.51689788
_cell_formula_units_Z   2
loop_
 _symmetry_equiv_pos_site_id
 _symmetry_equiv_pos_as_xyz
  1  'x, y, z'
loop_
 _atom_site_type_symbol
 _atom_site_label
 _atom_site_symmetry_multiplicity
 _atom_site_fract_x
 _atom_site_fract_y
 _atom_site_fract_z
 _atom_site_occupancy
  K  K0  1  -0.64297648  -0.01631637  -0.18677555  1.0
  K  K1  1  0.64297648  -0.98368363  0.18677555  1.0
  Na  Na2  1  -0.03502733  -0.41216486  0.28290394  1.0
  Na  Na3  1  0.03502733  -0.58783514  -0.28290394  1.0
  Mn  Mn4  1  -0.55454245  -0.40668796  0.29969951  1.0
  Mn  Mn5  1  0.55454245  -0.59331204  -0.29969951  1.0
  Si  Si6  1  -0.16517243  -0.21483926  -0.09132715  1.0
  Si  Si7  1  0.16517243  -0.78516074  0.09132715  1.0
  Si  Si8  1  -0.26853455  -0.73337334  0.37671950  1.0
  Si  Si9  1  0.26853455  -0.26662666  -0.37671950  1.0
  Si  Si10  1  0.29941560  -0.73212330  0.37278668  1.0
  Si  Si11  1  -0.29941560  -0.26787670  -0.37278668  1.0
  Si  Si12  1  -0.11910091  -0.87071272  0.69544079  1.0
  Si  Si13  1  0.11910091  -0.12928728  -0.69544079  1.0
  O  O14  1  -0.76507640  -0.24185780  0.20329013  1.0
  O  O15  1  0.76507640  -0.75814220  -0.20329013  1.0
  O  O16  1  -0.32266198  -0.58590389  0.41664038  1.0
  O  O17  1  0.32266198  -0.41409611  -0.41664038  1.0
  O  O18  1  -0.21410956  -0.86988005  0.54724024  1.0
  O  O19  1  0.21410956  -0.13011995  -0.54724024  1.0
  O  O20  1  -0.14303820  -0.03893599  -0.14514417  1.0
  O  O21  1  0.14303820  -0.96106401  0.14514417  1.0
  O  O22  1  -0.29648845  -0.22818179  -0.20394886  1.0
  O  O23  1  0.29648845  -0.77181821  0.20394886  1.0
  O  O24  1  -0.27997322  -0.29048527  0.13427219  1.0
  O  O25  1  0.27997322  -0.70951473  -0.13427219  1.0
  O  O26  1  0.07323208  -0.28311476  -0.17076546  1.0
  O  O27  1  -0.07323208  -0.71688524  0.17076546  1.0
  O  O28  1  -0.46746504  -0.79466330  0.37469242  1.0
  O  O29  1  0.46746504  -0.20533670  -0.37469242  1.0
  O  O30  1  0.13723346  -0.84262248  0.58119555  1.0
  O  O31  1  -0.13723346  -0.15737752  -0.58119555  1.0
  O  O32  1  -0.74660703  -0.56528304  0.34902568  1.0
  O  O33  1  0.74660703  -0.43471696  -0.34902568  1.0
