# generated using pymatgen
data_RhF3
_symmetry_space_group_name_H-M   'P 1'
_cell_length_a   5.23082465
_cell_length_b   5.23082465
_cell_length_c   7.14341128
_cell_angle_alpha   90.00000000
_cell_angle_beta   90.00000000
_cell_angle_gamma   120.00000000
_symmetry_Int_Tables_number   1
_chemical_formula_structural   RhF3
_chemical_formula_sum   'Rh3 F9'
_cell_volume   169.26868104
_cell_formula_units_Z   3
loop_
 _symmetry_equiv_pos_site_id
 _symmetry_equiv_pos_as_xyz
  1  'x, y, z'
loop_
 _atom_site_type_symbol
 _atom_site_label
 _atom_site_symmetry_multiplicity
 _atom_site_fract_x
 _atom_site_fract_y
 _atom_site_fract_z
 _atom_site_occupancy
  F  F0  1  1.06176698  0.73003048  0.17760516  1.0
  F  F1  1  0.73003048  1.06176698  0.82239484  1.0
  F  F2  1  0.66826350  -0.06176698  0.17760516  1.0
  F  F3  1  0.26996952  0.33173650  0.17760516  1.0
  F  F4  1  -0.06176698  0.66826350  0.82239484  1.0
  F  F5  1  0.33173650  0.26996952  0.82239484  1.0
  F  F6  1  0.62248060  0.62248060  0.50000000  1.0
  F  F7  1  -0.00000000  0.37751940  0.50000000  1.0
  F  F8  1  0.37751940  -0.00000000  0.50000000  1.0
  Rh  Rh9  1  -0.00000000  -0.00000000  0.00000000  1.0
  Rh  Rh10  1  0.33333333  0.66666667  0.33827050  1.0
  Rh  Rh11  1  0.66666667  0.33333333  0.66172950  1.0
