# generated using pymatgen
data_La(IO3)3
_symmetry_space_group_name_H-M   'P 1'
_cell_length_a   8.80078394
_cell_length_b   7.17483205
_cell_length_c   6.99269149
_cell_angle_alpha   90.00000000
_cell_angle_beta   90.00000000
_cell_angle_gamma   90.00000000
_symmetry_Int_Tables_number   1
_chemical_formula_structural   La(IO3)3
_chemical_formula_sum   'La2 I6 O18'
_cell_volume   441.54753699
_cell_formula_units_Z   2
loop_
 _symmetry_equiv_pos_site_id
 _symmetry_equiv_pos_as_xyz
  1  'x, y, z'
loop_
 _atom_site_type_symbol
 _atom_site_label
 _atom_site_symmetry_multiplicity
 _atom_site_fract_x
 _atom_site_fract_y
 _atom_site_fract_z
 _atom_site_occupancy
  O  O0  1  0.35008946  0.50000000  1.02172694  1.0
  O  O1  1  0.64991054  0.50000000  1.02172694  1.0
  O  O2  1  0.14991054  0.00000000  -0.02172694  1.0
  O  O3  1  0.85008946  0.00000000  -0.02172694  1.0
  O  O4  1  0.64281893  0.69242297  0.61691488  1.0
  O  O5  1  0.64281893  0.30757703  0.61691488  1.0
  O  O6  1  0.35718107  0.69242297  0.61691488  1.0
  O  O7  1  0.35718107  0.30757703  0.61691488  1.0
  O  O8  1  0.85718107  0.80757703  0.38308512  1.0
  O  O9  1  0.85718107  0.19242297  0.38308512  1.0
  O  O10  1  0.14281893  0.80757703  0.38308512  1.0
  O  O11  1  0.14281893  0.19242297  0.38308512  1.0
  O  O12  1  0.00000000  0.70159800  0.78409659  1.0
  O  O13  1  0.00000000  0.29840200  0.78409659  1.0
  O  O14  1  0.50000000  0.79840200  0.21590341  1.0
  O  O15  1  0.50000000  0.20159800  0.21590341  1.0
  O  O16  1  0.00000000  0.50000000  0.14697667  1.0
  O  O17  1  0.50000000  0.00000000  0.85302333  1.0
  I  I18  1  0.00000000  0.00000000  0.48249623  1.0
  I  I19  1  0.50000000  0.50000000  0.51750377  1.0
  I  I20  1  0.50000000  0.72109419  0.95925551  1.0
  I  I21  1  0.50000000  0.27890581  0.95925551  1.0
  I  I22  1  0.00000000  0.77890581  0.04074449  1.0
  I  I23  1  0.00000000  0.22109419  0.04074449  1.0
  La  La24  1  0.00000000  0.50000000  0.50093733  1.0
  La  La25  1  0.50000000  0.00000000  0.49906267  1.0
