# generated using pymatgen
data_LaTl(PS3)2
_symmetry_space_group_name_H-M   'P 1'
_cell_length_a   12.36100575
_cell_length_b   7.67391294
_cell_length_c   11.46740367
_cell_angle_alpha   90.00000000
_cell_angle_beta   109.26719468
_cell_angle_gamma   90.00000000
_symmetry_Int_Tables_number   1
_chemical_formula_structural   LaTl(PS3)2
_chemical_formula_sum   'La4 Tl4 P8 S24'
_cell_volume   1026.84096874
_cell_formula_units_Z   4
loop_
 _symmetry_equiv_pos_site_id
 _symmetry_equiv_pos_as_xyz
  1  'x, y, z'
loop_
 _atom_site_type_symbol
 _atom_site_label
 _atom_site_symmetry_multiplicity
 _atom_site_fract_x
 _atom_site_fract_y
 _atom_site_fract_z
 _atom_site_occupancy
  La  La0  1  0.35348660  0.10674012  0.59796998  1.0
  La  La1  1  0.64651340  0.60674012  0.90203002  1.0
  La  La2  1  0.64651340  0.89325988  0.40203002  1.0
  La  La3  1  0.35348660  0.39325988  0.09796998  1.0
  Tl  Tl4  1  0.12910670  0.90031018  0.87157979  1.0
  Tl  Tl5  1  0.87089330  0.40031018  0.62842021  1.0
  Tl  Tl6  1  0.87089330  0.09968982  0.12842021  1.0
  Tl  Tl7  1  0.12910670  0.59968982  0.37157979  1.0
  P  P8  1  0.21581560  0.38019676  0.76892989  1.0
  P  P9  1  0.78418440  0.88019676  0.73107011  1.0
  P  P10  1  0.78418440  0.61980324  0.23107011  1.0
  P  P11  1  0.21581560  0.11980324  0.26892989  1.0
  P  P12  1  0.66711267  0.09700279  0.74550221  1.0
  P  P13  1  0.33288733  0.59700279  0.75449779  1.0
  P  P14  1  0.33288733  0.90299721  0.25449779  1.0
  P  P15  1  0.66711267  0.40299721  0.24550221  1.0
  S  S16  1  0.12474924  0.47512702  0.87206064  1.0
  S  S17  1  0.87525076  0.97512702  0.62793936  1.0
  S  S18  1  0.87525076  0.52487298  0.12793936  1.0
  S  S19  1  0.12474924  0.02487298  0.37206064  1.0
  S  S20  1  0.13672233  0.29589025  0.59378697  1.0
  S  S21  1  0.86327767  0.79589025  0.90621303  1.0
  S  S22  1  0.86327767  0.70410975  0.40621303  1.0
  S  S23  1  0.13672233  0.20410975  0.09378697  1.0
  S  S24  1  0.23154385  0.78216628  0.64372003  1.0
  S  S25  1  0.76845615  0.28216628  0.85627997  1.0
  S  S26  1  0.76845615  0.21783372  0.35627997  1.0
  S  S27  1  0.23154385  0.71783372  0.14372003  1.0
  S  S28  1  0.32782606  0.19222855  0.86312804  1.0
  S  S29  1  0.67217394  0.69222855  0.63687196  1.0
  S  S30  1  0.67217394  0.80777145  0.13687196  1.0
  S  S31  1  0.32782606  0.30777145  0.36312804  1.0
  S  S32  1  0.44790333  0.47877061  0.68491432  1.0
  S  S33  1  0.55209667  0.97877061  0.81508568  1.0
  S  S34  1  0.55209667  0.52122939  0.31508568  1.0
  S  S35  1  0.44790333  0.02122939  0.18491432  1.0
  S  S36  1  0.58724146  0.18219888  0.56877131  1.0
  S  S37  1  0.41275854  0.68219888  0.93122869  1.0
  S  S38  1  0.41275854  0.81780112  0.43122869  1.0
  S  S39  1  0.58724146  0.31780112  0.06877131  1.0
