# generated using pymatgen
data_BF3
_symmetry_space_group_name_H-M   'P 1'
_cell_length_a   5.02516425
_cell_length_b   14.70769338
_cell_length_c   7.88819504
_cell_angle_alpha   90.00000000
_cell_angle_beta   108.80223046
_cell_angle_gamma   90.00000000
_symmetry_Int_Tables_number   1
_chemical_formula_structural   BF3
_chemical_formula_sum   'B8 F24'
_cell_volume   551.89417856
_cell_formula_units_Z   8
loop_
 _symmetry_equiv_pos_site_id
 _symmetry_equiv_pos_as_xyz
  1  'x, y, z'
loop_
 _atom_site_type_symbol
 _atom_site_label
 _atom_site_symmetry_multiplicity
 _atom_site_fract_x
 _atom_site_fract_y
 _atom_site_fract_z
 _atom_site_occupancy
  B  B0  1  0.86432584  0.36550765  0.23494989  1.0
  B  B1  1  0.86432584  0.13449235  0.73494989  1.0
  B  B2  1  0.13567416  0.86550765  0.26505011  1.0
  B  B3  1  0.13567416  0.63449235  0.76505011  1.0
  B  B4  1  0.47465883  0.11675270  0.22157942  1.0
  B  B5  1  0.47465883  0.38324730  0.72157942  1.0
  B  B6  1  0.52534117  0.61675270  0.27842058  1.0
  B  B7  1  0.52534117  0.88324730  0.77842058  1.0
  F  F8  1  0.92684501  0.86476919  0.33293740  1.0
  F  F9  1  0.92684501  0.63523081  0.83293740  1.0
  F  F10  1  0.07315499  0.36476919  0.16706260  1.0
  F  F11  1  0.07315499  0.13523081  0.66706260  1.0
  F  F12  1  0.76714666  0.44373308  0.27571789  1.0
  F  F13  1  0.76714666  0.05626692  0.77571789  1.0
  F  F14  1  0.23285334  0.94373308  0.22428211  1.0
  F  F15  1  0.23285334  0.55626692  0.72428211  1.0
  F  F16  1  0.75074238  0.28774677  0.26394766  1.0
  F  F17  1  0.75074238  0.21225323  0.76394766  1.0
  F  F18  1  0.24925762  0.78774677  0.23605234  1.0
  F  F19  1  0.24925762  0.71225323  0.73605234  1.0
  F  F20  1  0.74597980  0.64538899  0.41229398  1.0
  F  F21  1  0.74597980  0.85461101  0.91229398  1.0
  F  F22  1  0.25402020  0.14538899  0.08770602  1.0
  F  F23  1  0.25402020  0.35461101  0.58770602  1.0
  F  F24  1  0.68963377  0.07775724  0.18806677  1.0
  F  F25  1  0.68963377  0.42224276  0.68806677  1.0
  F  F26  1  0.31036623  0.57775724  0.31193323  1.0
  F  F27  1  0.31036623  0.92224276  0.81193323  1.0
  F  F28  1  0.47781520  0.12802536  0.38958996  1.0
  F  F29  1  0.47781520  0.37197464  0.88958996  1.0
  F  F30  1  0.52218480  0.62802536  0.11041004  1.0
  F  F31  1  0.52218480  0.87197464  0.61041004  1.0
