# generated using pymatgen
data_Na4H6Ru
_symmetry_space_group_name_H-M   'P 1'
_cell_length_a   6.52051972
_cell_length_b   6.52051972
_cell_length_c   6.52051972
_cell_angle_alpha   89.25457643
_cell_angle_beta   89.25457643
_cell_angle_gamma   89.25457643
_symmetry_Int_Tables_number   1
_chemical_formula_structural   Na4H6Ru
_chemical_formula_sum   'Na8 H12 Ru2'
_cell_volume   277.16431160
_cell_formula_units_Z   2
loop_
 _symmetry_equiv_pos_site_id
 _symmetry_equiv_pos_as_xyz
  1  'x, y, z'
loop_
 _atom_site_type_symbol
 _atom_site_label
 _atom_site_symmetry_multiplicity
 _atom_site_fract_x
 _atom_site_fract_y
 _atom_site_fract_z
 _atom_site_occupancy
  Na  Na0  1  0.86321168  0.25000000  -0.36321168  1.0
  Na  Na1  1  0.36321168  0.13678832  -0.25000000  1.0
  Na  Na2  1  0.75000000  0.36321168  -0.86321168  1.0
  Na  Na3  1  0.25000000  0.63678832  -0.13678832  1.0
  Na  Na4  1  0.13678832  0.75000000  -0.63678832  1.0
  Na  Na5  1  0.63678832  -0.13678832  0.25000000  1.0
  Na  Na6  1  1.25000000  1.25000000  0.25000000  1.0
  Na  Na7  1  0.75000000  0.75000000  -0.25000000  1.0
  H  H8  1  0.24259664  0.44591401  -0.45078461  1.0
  H  H9  1  0.74259664  0.04921539  -0.05408599  1.0
  H  H10  1  0.95078461  0.05408599  -0.74259664  1.0
  H  H11  1  0.45078461  0.75740336  -0.44591401  1.0
  H  H12  1  0.55408599  0.45078461  -0.24259664  1.0
  H  H13  1  1.05408599  -0.74259664  -0.04921539  1.0
  H  H14  1  0.75740336  0.55408599  -0.54921539  1.0
  H  H15  1  0.25740336  -0.04921539  0.05408599  1.0
  H  H16  1  0.54921539  0.24259664  -0.55408599  1.0
  H  H17  1  1.04921539  -0.05408599  -0.25740336  1.0
  H  H18  1  0.94591401  -0.25740336  0.04921539  1.0
  H  H19  1  0.44591401  0.54921539  -0.75740336  1.0
  Ru  Ru20  1  0.50000000  0.50000000  -0.50000000  1.0
  Ru  Ru21  1  0.00000000  0.00000000  0.00000000  1.0
