# generated using pymatgen
data_LaIr3
_symmetry_space_group_name_H-M   'P 1'
_cell_length_a   9.43015590
_cell_length_b   9.43015590
_cell_length_c   9.43015590
_cell_angle_alpha   33.33602573
_cell_angle_beta   33.33602573
_cell_angle_gamma   33.33602573
_symmetry_Int_Tables_number   1
_chemical_formula_structural   LaIr3
_chemical_formula_sum   'La3 Ir9'
_cell_volume   225.50367603
_cell_formula_units_Z   3
loop_
 _symmetry_equiv_pos_site_id
 _symmetry_equiv_pos_as_xyz
  1  'x, y, z'
loop_
 _atom_site_type_symbol
 _atom_site_label
 _atom_site_symmetry_multiplicity
 _atom_site_fract_x
 _atom_site_fract_y
 _atom_site_fract_z
 _atom_site_occupancy
  La  La0  1  0.86038082  0.86038082  0.86038082  1.0
  La  La1  1  1.13961918  1.13961918  0.13961918  1.0
  La  La2  1  0.00000000  0.00000000  0.00000000  1.0
  Ir  Ir3  1  1.42212296  1.42212296  -0.08475714  1.0
  Ir  Ir4  1  1.42212296  0.91524286  0.42212296  1.0
  Ir  Ir5  1  1.08475714  0.57787704  0.57787704  1.0
  Ir  Ir6  1  1.57787704  0.08475714  0.57787704  1.0
  Ir  Ir7  1  1.57787704  0.57787704  0.08475714  1.0
  Ir  Ir8  1  0.91524286  1.42212296  0.42212296  1.0
  Ir  Ir9  1  1.66841126  0.66841126  0.66841126  1.0
  Ir  Ir10  1  1.33158874  0.33158874  0.33158874  1.0
  Ir  Ir11  1  1.50000000  0.50000000  0.50000000  1.0
