# generated using pymatgen
data_Ge3Os2
_symmetry_space_group_name_H-M   'P 1'
_cell_length_a   5.81736825
_cell_length_b   5.81736825
_cell_length_c   9.36603931
_cell_angle_alpha   90.00000000
_cell_angle_beta   90.00000000
_cell_angle_gamma   90.00000000
_symmetry_Int_Tables_number   1
_chemical_formula_structural   Ge3Os2
_chemical_formula_sum   'Ge12 Os8'
_cell_volume   316.96337938
_cell_formula_units_Z   4
loop_
 _symmetry_equiv_pos_site_id
 _symmetry_equiv_pos_as_xyz
  1  'x, y, z'
loop_
 _atom_site_type_symbol
 _atom_site_label
 _atom_site_symmetry_multiplicity
 _atom_site_fract_x
 _atom_site_fract_y
 _atom_site_fract_z
 _atom_site_occupancy
  Ge  Ge0  1  0.78212994  0.35005716  0.41521184  1.0
  Ge  Ge1  1  0.21787006  0.64994284  0.41521184  1.0
  Ge  Ge2  1  0.21787006  0.35005716  0.91521184  1.0
  Ge  Ge3  1  0.78212994  0.64994284  0.91521184  1.0
  Ge  Ge4  1  0.35005716  0.21787006  0.58478816  1.0
  Ge  Ge5  1  0.64994284  0.78212994  0.58478816  1.0
  Ge  Ge6  1  0.35005716  0.78212994  0.08478816  1.0
  Ge  Ge7  1  0.64994284  0.21787006  0.08478816  1.0
  Ge  Ge8  1  0.82876063  0.17123937  0.75000000  1.0
  Ge  Ge9  1  0.17123937  0.82876063  0.75000000  1.0
  Ge  Ge10  1  0.17123937  0.17123937  0.25000000  1.0
  Ge  Ge11  1  0.82876063  0.82876063  0.25000000  1.0
  Os  Os12  1  0.00000000  0.50000000  0.12405625  1.0
  Os  Os13  1  0.00000000  0.50000000  0.62405625  1.0
  Os  Os14  1  0.50000000  0.00000000  0.87594375  1.0
  Os  Os15  1  0.50000000  0.00000000  0.37594375  1.0
  Os  Os16  1  0.50000000  0.50000000  0.25000000  1.0
  Os  Os17  1  0.50000000  0.50000000  0.75000000  1.0
  Os  Os18  1  0.00000000  0.00000000  0.50000000  1.0
  Os  Os19  1  0.00000000  0.00000000  0.00000000  1.0
