# generated using pymatgen
data_NaCuMoO5
_symmetry_space_group_name_H-M   'P 1'
_cell_length_a   8.63035114
_cell_length_b   5.66456767
_cell_length_c   9.82836057
_cell_angle_alpha   90.00000000
_cell_angle_beta   90.00000000
_cell_angle_gamma   90.00000000
_symmetry_Int_Tables_number   1
_chemical_formula_structural   NaCuMoO5
_chemical_formula_sum   'Na4 Cu4 Mo4 O20'
_cell_volume   480.48110802
_cell_formula_units_Z   4
loop_
 _symmetry_equiv_pos_site_id
 _symmetry_equiv_pos_as_xyz
  1  'x, y, z'
loop_
 _atom_site_type_symbol
 _atom_site_label
 _atom_site_symmetry_multiplicity
 _atom_site_fract_x
 _atom_site_fract_y
 _atom_site_fract_z
 _atom_site_occupancy
  Cu  Cu0  1  0.00000000  0.00000000  0.00000000  1.0
  Cu  Cu1  1  0.00000000  0.50000000  0.00000000  1.0
  Cu  Cu2  1  0.50000000  0.00000000  0.50000000  1.0
  Cu  Cu3  1  0.50000000  0.50000000  0.50000000  1.0
  O  O4  1  0.81284300  1.00095282  0.21666307  1.0
  O  O5  1  0.81284300  0.49904718  0.21666307  1.0
  O  O6  1  0.31284300  1.00095282  0.28333693  1.0
  O  O7  1  0.31284300  0.49904718  0.28333693  1.0
  O  O8  1  0.18715700  0.50095282  0.78333693  1.0
  O  O9  1  0.18715700  -0.00095282  0.78333693  1.0
  O  O10  1  0.68715700  0.50095282  0.71666307  1.0
  O  O11  1  0.68715700  -0.00095282  0.71666307  1.0
  O  O12  1  0.60141193  0.75000000  0.40950436  1.0
  O  O13  1  0.10141193  0.75000000  0.09049564  1.0
  O  O14  1  0.39858807  0.25000000  0.59049564  1.0
  O  O15  1  0.89858807  0.25000000  0.90950436  1.0
  O  O16  1  0.45224120  0.75000000  0.06529547  1.0
  O  O17  1  -0.04775880  0.75000000  0.43470453  1.0
  O  O18  1  0.54775880  0.25000000  0.93470453  1.0
  O  O19  1  1.04775880  0.25000000  0.56529547  1.0
  O  O20  1  0.40048658  0.75000000  0.58008830  1.0
  O  O21  1  0.90048658  0.75000000  0.91991170  1.0
  O  O22  1  0.59951342  0.25000000  0.41991170  1.0
  O  O23  1  0.09951342  0.25000000  0.08008830  1.0
  Mo  Mo24  1  0.79840686  0.75000000  0.31904241  1.0
  Mo  Mo25  1  0.29840686  0.75000000  0.18095759  1.0
  Mo  Mo26  1  0.20159314  0.25000000  0.68095759  1.0
  Mo  Mo27  1  0.70159314  0.25000000  0.81904241  1.0
  Na  Na28  1  0.94446389  0.75000000  0.67932211  1.0
  Na  Na29  1  0.44446389  0.75000000  0.82067789  1.0
  Na  Na30  1  0.05553611  0.25000000  0.32067789  1.0
  Na  Na31  1  0.55553611  0.25000000  0.17932211  1.0
