# generated using pymatgen
data_Ti(PS3)2
_symmetry_space_group_name_H-M   'P 1'
_cell_length_a   12.10532994
_cell_length_b   11.41925853
_cell_length_c   7.05502039
_cell_angle_alpha   77.95137441
_cell_angle_beta   67.30090066
_cell_angle_gamma   34.74772493
_symmetry_Int_Tables_number   1
_chemical_formula_structural   Ti(PS3)2
_chemical_formula_sum   'Ti2 P4 S12'
_cell_volume   501.79773028
_cell_formula_units_Z   2
loop_
 _symmetry_equiv_pos_site_id
 _symmetry_equiv_pos_as_xyz
  1  'x, y, z'
loop_
 _atom_site_type_symbol
 _atom_site_label
 _atom_site_symmetry_multiplicity
 _atom_site_fract_x
 _atom_site_fract_y
 _atom_site_fract_z
 _atom_site_occupancy
  Ti  Ti0  1  1.00131654  0.00131654  -0.00131654  1.0
  Ti  Ti1  1  0.25131654  0.25131654  0.24868346  1.0
  P  P2  1  0.66725176  0.00662701  0.20614960  1.0
  P  P3  1  0.04385040  0.13002837  0.58274824  1.0
  P  P4  1  0.00662701  0.66725176  0.11997163  1.0
  P  P5  1  0.13002837  0.04385040  0.24337299  1.0
  S  S6  1  0.57528671  0.07546173  0.96717360  1.0
  S  S7  1  0.28282640  -0.13207796  0.67471329  1.0
  S  S8  1  0.07546173  0.57528671  0.38207796  1.0
  S  S9  1  -0.13207796  0.28282640  1.17453827  1.0
  S  S10  1  0.68702648  0.15720526  0.26408351  1.0
  S  S11  1  -0.01408351  0.35831526  1.56297352  1.0
  S  S12  1  0.15720526  0.68702648  0.89168474  1.0
  S  S13  1  0.35831526  -0.01408351  0.09279474  1.0
  S  S14  1  0.46144803  0.06997647  0.46355454  1.0
  S  S15  1  0.78644546  -0.75502096  0.78855197  1.0
  S  S16  1  0.06997647  0.46144803  1.00502096  1.0
  S  S17  1  -0.75502096  0.78644546  1.18002353  1.0
