# generated using pymatgen
data_Cr2(CN2)3
_symmetry_space_group_name_H-M   'P 1'
_cell_length_a   9.88252530
_cell_length_b   9.88252530
_cell_length_c   9.88252530
_cell_angle_alpha   32.56312480
_cell_angle_beta   32.56312480
_cell_angle_gamma   32.56312480
_symmetry_Int_Tables_number   1
_chemical_formula_structural   Cr2(CN2)3
_chemical_formula_sum   'Cr4 C6 N12'
_cell_volume   248.64497327
_cell_formula_units_Z   2
loop_
 _symmetry_equiv_pos_site_id
 _symmetry_equiv_pos_as_xyz
  1  'x, y, z'
loop_
 _atom_site_type_symbol
 _atom_site_label
 _atom_site_symmetry_multiplicity
 _atom_site_fract_x
 _atom_site_fract_y
 _atom_site_fract_z
 _atom_site_occupancy
  Cr  Cr0  1  0.83494701  -0.16505299  -0.16505299  1.0
  Cr  Cr1  1  0.33494701  0.33494701  0.33494701  1.0
  Cr  Cr2  1  0.66505299  0.66505299  -0.33494701  1.0
  Cr  Cr3  1  1.16505299  0.16505299  0.16505299  1.0
  C  C4  1  0.43498871  0.75000000  0.06501129  1.0
  C  C5  1  0.93498871  -0.43498871  0.25000000  1.0
  C  C6  1  0.25000000  0.93498871  -0.43498871  1.0
  C  C7  1  0.75000000  1.06501129  -0.56501129  1.0
  C  C8  1  0.56501129  0.25000000  -0.06501129  1.0
  C  C9  1  1.06501129  0.43498871  -0.25000000  1.0
  N  N10  1  0.45777762  0.84467951  0.07623751  1.0
  N  N11  1  0.95777762  0.57623751  -0.65532049  1.0
  N  N12  1  0.42376249  0.65532049  0.04222238  1.0
  N  N13  1  0.92376249  -0.45777762  0.15532049  1.0
  N  N14  1  1.15532049  -0.07623751  -0.45777762  1.0
  N  N15  1  0.65532049  1.04222238  -0.57623751  1.0
  N  N16  1  0.54222238  0.15532049  -0.07623751  1.0
  N  N17  1  1.04222238  0.42376249  -0.34467951  1.0
  N  N18  1  1.07623751  0.45777762  -0.15532049  1.0
  N  N19  1  0.57623751  0.34467951  -0.04222238  1.0
  N  N20  1  0.34467951  0.95777762  -0.42376249  1.0
  N  N21  1  0.84467951  1.07623751  -0.54222238  1.0
