# generated using pymatgen
data_ZrP
_symmetry_space_group_name_H-M   'P 1'
_cell_length_a   3.70233868
_cell_length_b   3.70233868
_cell_length_c   12.58327326
_cell_angle_alpha   90.00000000
_cell_angle_beta   90.00000000
_cell_angle_gamma   120.00000000
_symmetry_Int_Tables_number   1
_chemical_formula_structural   ZrP
_chemical_formula_sum   'Zr4 P4'
_cell_volume   149.37452910
_cell_formula_units_Z   4
loop_
 _symmetry_equiv_pos_site_id
 _symmetry_equiv_pos_as_xyz
  1  'x, y, z'
loop_
 _atom_site_type_symbol
 _atom_site_label
 _atom_site_symmetry_multiplicity
 _atom_site_fract_x
 _atom_site_fract_y
 _atom_site_fract_z
 _atom_site_occupancy
  Zr  Zr0  1  0.33333333  0.66666667  0.88419434  1.0
  Zr  Zr1  1  0.33333333  0.66666667  0.61580566  1.0
  Zr  Zr2  1  0.66666667  0.33333333  0.38419434  1.0
  Zr  Zr3  1  0.66666667  0.33333333  0.11580566  1.0
  P  P4  1  0.33333333  0.66666667  0.25000000  1.0
  P  P5  1  0.66666667  0.33333333  0.75000000  1.0
  P  P6  1  0.00000000  0.00000000  0.50000000  1.0
  P  P7  1  0.00000000  0.00000000  0.00000000  1.0
