# generated using pymatgen
data_Y5Zr3(Ni4As3)4
_symmetry_space_group_name_H-M   'P 1'
_cell_length_a   12.79298029
_cell_length_b   12.79298029
_cell_length_c   3.93892629
_cell_angle_alpha   90.00000000
_cell_angle_beta   90.00000000
_cell_angle_gamma   120.00000000
_symmetry_Int_Tables_number   1
_chemical_formula_structural   Y5Zr3(Ni4As3)4
_chemical_formula_sum   'Y5 Zr3 Ni16 As12'
_cell_volume   558.27984282
_cell_formula_units_Z   1
loop_
 _symmetry_equiv_pos_site_id
 _symmetry_equiv_pos_as_xyz
  1  'x, y, z'
loop_
 _atom_site_type_symbol
 _atom_site_label
 _atom_site_symmetry_multiplicity
 _atom_site_fract_x
 _atom_site_fract_y
 _atom_site_fract_z
 _atom_site_occupancy
  Y  Y0  1  0.33333333  0.66666667  0.00000000  1.0
  Y  Y1  1  0.66666667  0.33333333  0.00000000  1.0
  Y  Y2  1  0.18519425  0.18519425  0.50000000  1.0
  Y  Y3  1  0.00000000  0.81480575  0.50000000  1.0
  Y  Y4  1  0.81480575  0.00000000  0.50000000  1.0
  Zr  Zr5  1  0.56518803  0.56518803  0.00000000  1.0
  Zr  Zr6  1  0.00000000  0.43481197  0.00000000  1.0
  Zr  Zr7  1  0.43481197  0.00000000  0.00000000  1.0
  Ni  Ni8  1  0.12059527  0.63663474  0.50000000  1.0
  Ni  Ni9  1  0.63663474  0.12059527  0.50000000  1.0
  Ni  Ni10  1  0.51603947  0.87940473  0.50000000  1.0
  Ni  Ni11  1  0.36336526  0.48396053  0.50000000  1.0
  Ni  Ni12  1  0.87940473  0.51603947  0.50000000  1.0
  Ni  Ni13  1  0.48396053  0.36336526  0.50000000  1.0
  Ni  Ni14  1  0.19270630  0.81584242  0.00000000  1.0
  Ni  Ni15  1  0.81584242  0.19270630  0.00000000  1.0
  Ni  Ni16  1  0.62313612  0.80729370  0.00000000  1.0
  Ni  Ni17  1  0.18415758  0.37686388  0.00000000  1.0
  Ni  Ni18  1  0.80729370  0.62313612  0.00000000  1.0
  Ni  Ni19  1  0.37686388  0.18415758  0.00000000  1.0
  Ni  Ni20  1  0.72400115  0.72400115  0.50000000  1.0
  Ni  Ni21  1  0.00000000  0.27599885  0.50000000  1.0
  Ni  Ni22  1  0.27599885  0.00000000  0.50000000  1.0
  Ni  Ni23  1  0.00000000  0.00000000  0.00000000  1.0
  As  As24  1  0.30596959  0.82724728  0.50000000  1.0
  As  As25  1  0.82724728  0.30596959  0.50000000  1.0
  As  As26  1  0.52127769  0.69403041  0.50000000  1.0
  As  As27  1  0.17275272  0.47872231  0.50000000  1.0
  As  As28  1  0.69403041  0.52127769  0.50000000  1.0
  As  As29  1  0.47872231  0.17275272  0.50000000  1.0
  As  As30  1  0.82193628  0.82193628  0.00000000  1.0
  As  As31  1  0.00000000  0.17806372  0.00000000  1.0
  As  As32  1  0.17806372  0.00000000  0.00000000  1.0
  As  As33  1  0.35740711  0.35740711  0.00000000  1.0
  As  As34  1  -0.00000000  0.64259289  0.00000000  1.0
  As  As35  1  0.64259289  0.00000000  0.00000000  1.0
