# generated using pymatgen
data_Gd11Ge10
_symmetry_space_group_name_H-M   'P 1'
_cell_length_a   11.46223308
_cell_length_b   11.46223308
_cell_length_c   11.46223308
_cell_angle_alpha   122.60185833
_cell_angle_beta   122.60185833
_cell_angle_gamma   85.54959047
_symmetry_Int_Tables_number   1
_chemical_formula_structural   Gd11Ge10
_chemical_formula_sum   'Gd22 Ge20'
_cell_volume   1019.62814055
_cell_formula_units_Z   2
loop_
 _symmetry_equiv_pos_site_id
 _symmetry_equiv_pos_as_xyz
  1  'x, y, z'
loop_
 _atom_site_type_symbol
 _atom_site_label
 _atom_site_symmetry_multiplicity
 _atom_site_fract_x
 _atom_site_fract_y
 _atom_site_fract_z
 _atom_site_occupancy
  Gd  Gd0  1  0.43813711  0.69052769  0.74760943  1.0
  Gd  Gd1  1  1.05708174  0.30947231  0.74760943  1.0
  Gd  Gd2  1  0.94291826  0.69052769  1.25239057  1.0
  Gd  Gd3  1  0.56186289  0.30947231  0.25239057  1.0
  Gd  Gd4  1  0.69052769  0.43813711  0.74760943  1.0
  Gd  Gd5  1  0.30947231  1.05708174  0.74760943  1.0
  Gd  Gd6  1  0.69052769  0.94291826  1.25239057  1.0
  Gd  Gd7  1  0.30947231  0.56186289  0.25239057  1.0
  Gd  Gd8  1  0.57665096  0.89676318  0.67988777  1.0
  Gd  Gd9  1  0.78312459  0.10323682  0.67988777  1.0
  Gd  Gd10  1  1.21687541  0.89676318  1.32011223  1.0
  Gd  Gd11  1  0.42334904  0.10323682  0.32011223  1.0
  Gd  Gd12  1  0.89676318  0.57665096  0.67988777  1.0
  Gd  Gd13  1  0.10323682  0.78312459  0.67988777  1.0
  Gd  Gd14  1  0.89676318  1.21687541  1.32011223  1.0
  Gd  Gd15  1  0.10323682  0.42334904  0.32011223  1.0
  Gd  Gd16  1  0.67983124  0.67983124  1.35966249  1.0
  Gd  Gd17  1  0.32016876  0.67983124  1.00000000  1.0
  Gd  Gd18  1  0.67983124  0.32016876  1.00000000  1.0
  Gd  Gd19  1  0.32016876  0.32016876  0.64033751  1.0
  Gd  Gd20  1  0.84016770  0.84016770  1.00000000  1.0
  Gd  Gd21  1  0.15983230  0.15983230  0.00000000  1.0
  Ge  Ge22  1  0.60623094  0.60623094  0.57743051  1.0
  Ge  Ge23  1  0.97119958  0.97119958  1.57743051  1.0
  Ge  Ge24  1  1.02880042  0.60623094  1.00000000  1.0
  Ge  Ge25  1  0.39376906  0.97119958  1.00000000  1.0
  Ge  Ge26  1  0.60623094  1.02880042  1.00000000  1.0
  Ge  Ge27  1  0.97119958  0.39376906  1.00000000  1.0
  Ge  Ge28  1  1.02880042  1.02880042  1.42256949  1.0
  Ge  Ge29  1  0.39376906  0.39376906  0.42256949  1.0
  Ge  Ge30  1  0.50000000  0.86851486  1.36851486  1.0
  Ge  Ge31  1  0.86851486  0.50000000  1.36851486  1.0
  Ge  Ge32  1  0.13148514  0.50000000  0.63148514  1.0
  Ge  Ge33  1  0.50000000  0.13148514  0.63148514  1.0
  Ge  Ge34  1  0.88189221  0.88189221  1.76378442  1.0
  Ge  Ge35  1  0.11810779  0.88189221  1.00000000  1.0
  Ge  Ge36  1  0.88189221  0.11810779  1.00000000  1.0
  Ge  Ge37  1  0.11810779  0.11810779  0.23621558  1.0
  Ge  Ge38  1  0.60931443  0.60931443  1.00000000  1.0
  Ge  Ge39  1  0.39068557  0.39068557  -0.00000000  1.0
  Ge  Ge40  1  0.25000000  0.75000000  0.50000000  1.0
  Ge  Ge41  1  0.75000000  0.25000000  0.50000000  1.0
