# generated using pymatgen
data_Ba7(BIr)12
_symmetry_space_group_name_H-M   'P 1'
_cell_length_a   9.33448670
_cell_length_b   9.33448670
_cell_length_c   9.33448670
_cell_angle_alpha   111.38962725
_cell_angle_beta   111.38962725
_cell_angle_gamma   111.38962725
_symmetry_Int_Tables_number   1
_chemical_formula_structural   Ba7(BIr)12
_chemical_formula_sum   'Ba7 B12 Ir12'
_cell_volume   577.38012844
_cell_formula_units_Z   1
loop_
 _symmetry_equiv_pos_site_id
 _symmetry_equiv_pos_as_xyz
  1  'x, y, z'
loop_
 _atom_site_type_symbol
 _atom_site_label
 _atom_site_symmetry_multiplicity
 _atom_site_fract_x
 _atom_site_fract_y
 _atom_site_fract_z
 _atom_site_occupancy
  Ba  Ba0  1  1.20545977  1.20545977  0.50941605  1.0
  Ba  Ba1  1  1.20545977  -0.49058395  0.20545977  1.0
  Ba  Ba2  1  0.49058395  -0.20545977  -0.20545977  1.0
  Ba  Ba3  1  0.79454023  -0.50941605  -0.20545977  1.0
  Ba  Ba4  1  0.79454023  0.79454023  0.49058395  1.0
  Ba  Ba5  1  0.50941605  0.20545977  0.20545977  1.0
  Ba  Ba6  1  0.00000000  0.00000000  0.00000000  1.0
  B  B7  1  0.77241367  1.00000000  0.22758633  1.0
  B  B8  1  0.77241367  0.22758633  0.00000000  1.0
  B  B9  1  1.00000000  0.77241367  0.22758633  1.0
  B  B10  1  0.00000000  0.22758633  -0.22758633  1.0
  B  B11  1  0.22758633  0.00000000  -0.22758633  1.0
  B  B12  1  1.22758633  -0.22758633  -0.00000000  1.0
  B  B13  1  1.55917699  0.00000000  0.44082301  1.0
  B  B14  1  0.55917699  0.44082301  0.00000000  1.0
  B  B15  1  1.00000000  0.55917699  0.44082301  1.0
  B  B16  1  -0.00000000  0.44082301  -0.44082301  1.0
  B  B17  1  0.44082301  -0.00000000  -0.44082301  1.0
  B  B18  1  0.44082301  0.55917699  0.00000000  1.0
  Ir  Ir19  1  0.26371136  0.26371136  -0.11702597  1.0
  Ir  Ir20  1  1.26371136  -0.11702597  0.26371136  1.0
  Ir  Ir21  1  1.11702597  0.73628864  0.73628864  1.0
  Ir  Ir22  1  1.73628864  0.11702597  0.73628864  1.0
  Ir  Ir23  1  0.73628864  0.73628864  0.11702597  1.0
  Ir  Ir24  1  0.88297403  0.26371136  0.26371136  1.0
  Ir  Ir25  1  0.16986035  0.50000000  -0.16986035  1.0
  Ir  Ir26  1  1.16986035  0.83013965  0.50000000  1.0
  Ir  Ir27  1  0.50000000  0.16986035  -0.16986035  1.0
  Ir  Ir28  1  0.50000000  0.83013965  0.16986035  1.0
  Ir  Ir29  1  0.83013965  0.50000000  0.16986035  1.0
  Ir  Ir30  1  1.83013965  0.16986035  0.50000000  1.0
