# generated using pymatgen
data_Li2BeF4
_symmetry_space_group_name_H-M   'P 1'
_cell_length_a   8.34250178
_cell_length_b   8.34250178
_cell_length_c   8.34250178
_cell_angle_alpha   107.79442870
_cell_angle_beta   107.79442870
_cell_angle_gamma   107.79442870
_symmetry_Int_Tables_number   1
_chemical_formula_structural   Li2BeF4
_chemical_formula_sum   'Li12 Be6 F24'
_cell_volume   472.67219960
_cell_formula_units_Z   6
loop_
 _symmetry_equiv_pos_site_id
 _symmetry_equiv_pos_as_xyz
  1  'x, y, z'
loop_
 _atom_site_type_symbol
 _atom_site_label
 _atom_site_symmetry_multiplicity
 _atom_site_fract_x
 _atom_site_fract_y
 _atom_site_fract_z
 _atom_site_occupancy
  Li  Li0  1  0.70448567  1.11165869  -0.06233050  1.0
  Li  Li1  1  0.88834131  0.06233050  0.29551433  1.0
  Li  Li2  1  1.06233050  0.29551433  -0.11165869  1.0
  Li  Li3  1  1.29551433  -0.11165869  0.06233050  1.0
  Li  Li4  1  1.11165869  0.93766950  -0.29551433  1.0
  Li  Li5  1  0.93766950  0.70448567  0.11165869  1.0
  Li  Li6  1  1.37728706  0.77770158  -0.40172851  1.0
  Li  Li7  1  1.22229842  0.40172851  -0.37728706  1.0
  Li  Li8  1  1.40172851  -0.37728706  0.22229842  1.0
  Li  Li9  1  0.62271294  0.22229842  0.40172851  1.0
  Li  Li10  1  0.77770158  0.59827149  0.37728706  1.0
  Li  Li11  1  0.59827149  1.37728706  -0.22229842  1.0
  Be  Be12  1  1.55300636  0.73585616  -0.04050809  1.0
  Be  Be13  1  0.26414384  1.04050809  -0.55300636  1.0
  Be  Be14  1  1.04050809  0.44699364  -0.73585616  1.0
  Be  Be15  1  0.44699364  0.26414384  0.04050809  1.0
  Be  Be16  1  1.73585616  -0.04050809  0.55300636  1.0
  Be  Be17  1  0.95949191  0.55300636  0.73585616  1.0
  F  F18  1  0.76517570  0.81303340  0.09987133  1.0
  F  F19  1  1.18696660  -0.09987133  0.23482430  1.0
  F  F20  1  0.90012867  0.23482430  0.18696660  1.0
  F  F21  1  1.23482430  0.18696660  -0.09987133  1.0
  F  F22  1  0.81303340  1.09987133  -0.23482430  1.0
  F  F23  1  1.09987133  0.76517570  -0.18696660  1.0
  F  F24  1  1.47427985  0.52966793  -0.19225970  1.0
  F  F25  1  0.47033207  1.19225970  -0.47427985  1.0
  F  F26  1  1.19225970  0.52572015  -0.52966793  1.0
  F  F27  1  0.52572015  0.47033207  0.19225970  1.0
  F  F28  1  1.52966793  -0.19225970  0.47427985  1.0
  F  F29  1  0.80774030  0.47427985  0.52966793  1.0
  F  F30  1  1.53552828  0.86218842  -0.14580894  1.0
  F  F31  1  1.13781158  0.14580894  -0.53552828  1.0
  F  F32  1  1.14580894  -0.53552828  0.13781158  1.0
  F  F33  1  0.46447172  0.13781158  0.14580894  1.0
  F  F34  1  0.86218842  0.85419106  0.53552828  1.0
  F  F35  1  0.85419106  1.53552828  -0.13781158  1.0
  F  F36  1  0.56757362  1.25449939  -0.07146353  1.0
  F  F37  1  0.74550061  0.07146353  0.43242638  1.0
  F  F38  1  1.07146353  0.43242638  -0.25449939  1.0
  F  F39  1  1.43242638  -0.25449939  0.07146353  1.0
  F  F40  1  1.25449939  0.92853647  -0.43242638  1.0
  F  F41  1  0.92853647  0.56757362  0.25449939  1.0
