# generated using pymatgen
data_Ba(ClO4)2
_symmetry_space_group_name_H-M   'P 1'
_cell_length_a   9.43864499
_cell_length_b   8.24354098
_cell_length_c   7.01799811
_cell_angle_alpha   75.93448502
_cell_angle_beta   57.90804176
_cell_angle_gamma   46.15747322
_symmetry_Int_Tables_number   1
_chemical_formula_structural   Ba(ClO4)2
_chemical_formula_sum   'Ba2 Cl4 O16'
_cell_volume   326.60682008
_cell_formula_units_Z   2
loop_
 _symmetry_equiv_pos_site_id
 _symmetry_equiv_pos_as_xyz
  1  'x, y, z'
loop_
 _atom_site_type_symbol
 _atom_site_label
 _atom_site_symmetry_multiplicity
 _atom_site_fract_x
 _atom_site_fract_y
 _atom_site_fract_z
 _atom_site_occupancy
  Ba  Ba0  1  0.75000000  0.75000000  0.75000000  1.0
  Ba  Ba1  1  0.50000000  0.50000000  -0.50000000  1.0
  Cl  Cl2  1  0.05258340  1.44741660  0.05258340  1.0
  Cl  Cl3  1  0.44741660  1.05258340  0.44741660  1.0
  Cl  Cl4  1  1.19741660  -0.19741660  0.19741660  1.0
  Cl  Cl5  1  0.80258340  0.19741660  -0.19741660  1.0
  O  O6  1  0.86195548  0.48066427  1.09246097  1.0
  O  O7  1  0.48066427  0.86195548  0.56491928  1.0
  O  O8  1  1.09246097  0.56491928  0.86195548  1.0
  O  O9  1  0.56491928  1.09246097  0.48066427  1.0
  O  O10  1  0.38804452  0.76933573  1.15753903  1.0
  O  O11  1  0.76933573  0.38804452  -0.31491928  1.0
  O  O12  1  1.15753903  -0.31491928  0.38804452  1.0
  O  O13  1  -0.31491928  1.15753903  0.76933573  1.0
  O  O14  1  -0.01347604  1.55132551  0.25746462  1.0
  O  O15  1  0.55132551  0.98652396  0.20468591  1.0
  O  O16  1  0.25746462  1.20468591  -0.01347604  1.0
  O  O17  1  0.20468591  1.25746462  0.55132551  1.0
  O  O18  1  0.26347604  0.69867449  0.99253538  1.0
  O  O19  1  0.69867449  0.26347604  0.04531409  1.0
  O  O20  1  0.99253538  0.04531409  0.26347604  1.0
  O  O21  1  0.04531409  0.99253538  0.69867449  1.0
