# generated using pymatgen
data_Ca2GaPt2
_symmetry_space_group_name_H-M   'P 1'
_cell_length_a   5.70405266
_cell_length_b   5.70405266
_cell_length_c   7.85532377
_cell_angle_alpha   78.99081173
_cell_angle_beta   101.00918827
_cell_angle_gamma   120.18341665
_symmetry_Int_Tables_number   1
_chemical_formula_structural   Ca2GaPt2
_chemical_formula_sum   'Ca4 Ga2 Pt4'
_cell_volume   215.50265544
_cell_formula_units_Z   2
loop_
 _symmetry_equiv_pos_site_id
 _symmetry_equiv_pos_as_xyz
  1  'x, y, z'
loop_
 _atom_site_type_symbol
 _atom_site_label
 _atom_site_symmetry_multiplicity
 _atom_site_fract_x
 _atom_site_fract_y
 _atom_site_fract_z
 _atom_site_occupancy
  Ca  Ca0  1  1.51277630  0.21365171  0.14953955  1.0
  Ca  Ca1  1  0.78634829  -0.51277630  0.64953955  1.0
  Ca  Ca2  1  1.21365171  0.51277630  0.35046045  1.0
  Ca  Ca3  1  0.48722370  -0.21365171  0.85046045  1.0
  Ga  Ga4  1  0.87047340  -0.12952660  0.25000000  1.0
  Ga  Ga5  1  1.12952660  0.12952660  0.75000000  1.0
  Pt  Pt6  1  0.73477638  -0.00341526  0.49685077  1.0
  Pt  Pt7  1  1.00341526  0.26522362  0.99685077  1.0
  Pt  Pt8  1  0.99658474  -0.26522362  0.00314923  1.0
  Pt  Pt9  1  1.26522362  0.00341526  0.50314923  1.0
