# generated using pymatgen
data_Te2Pb3(ClO3)2
_symmetry_space_group_name_H-M   'P 1'
_cell_length_a   8.88369021
_cell_length_b   8.88369021
_cell_length_c   11.15101100
_cell_angle_alpha   77.25315222
_cell_angle_beta   102.74684778
_cell_angle_gamma   142.26015642
_symmetry_Int_Tables_number   1
_chemical_formula_structural   Te2Pb3(ClO3)2
_chemical_formula_sum   'Te4 Pb6 Cl4 O12'
_cell_volume   523.80254235
_cell_formula_units_Z   2
loop_
 _symmetry_equiv_pos_site_id
 _symmetry_equiv_pos_as_xyz
  1  'x, y, z'
loop_
 _atom_site_type_symbol
 _atom_site_label
 _atom_site_symmetry_multiplicity
 _atom_site_fract_x
 _atom_site_fract_y
 _atom_site_fract_z
 _atom_site_occupancy
  Te  Te0  1  0.89679805  0.10320195  0.94545194  1.0
  Te  Te1  1  0.10320195  -0.10320195  0.05454806  1.0
  Te  Te2  1  0.62713732  0.37286268  0.59788811  1.0
  Te  Te3  1  0.37286268  -0.37286268  0.40211189  1.0
  Pb  Pb4  1  0.83692544  0.16307456  0.60532673  1.0
  Pb  Pb5  1  0.16307456  -0.16307456  0.39467327  1.0
  Pb  Pb6  1  0.47915557  -0.47915557  0.80063290  1.0
  Pb  Pb7  1  0.52084443  0.47915557  0.19936710  1.0
  Pb  Pb8  1  0.23878059  -0.23878059  0.79510709  1.0
  Pb  Pb9  1  0.76121941  0.23878059  0.20489291  1.0
  Cl  Cl10  1  0.95462913  0.04537087  0.29213639  1.0
  Cl  Cl11  1  0.04537087  -0.04537087  0.70786361  1.0
  Cl  Cl12  1  0.68517533  0.31482467  0.89819604  1.0
  Cl  Cl13  1  0.31482467  -0.31482467  0.10180396  1.0
  O  O14  1  0.62934834  -0.10515730  0.81093413  1.0
  O  O15  1  1.10515730  0.37065166  0.81093413  1.0
  O  O16  1  0.89484270  0.62934834  0.18906587  1.0
  O  O17  1  0.37065166  0.10515730  0.18906587  1.0
  O  O18  1  0.46767208  0.04537141  0.61347037  1.0
  O  O19  1  0.95462859  0.53232792  0.61347037  1.0
  O  O20  1  1.04537141  0.46767208  0.38652963  1.0
  O  O21  1  0.53232792  -0.04537141  0.38652963  1.0
  O  O22  1  0.59499429  0.40500571  0.42026525  1.0
  O  O23  1  0.40500571  -0.40500571  0.57973475  1.0
  O  O24  1  0.78023222  0.78023222  -0.00000000  1.0
  O  O25  1  0.21976778  0.21976778  -0.00000000  1.0
