# generated using pymatgen
data_Sc3(MnGa3)2
_symmetry_space_group_name_H-M   'P 1'
_cell_length_a   8.09369805
_cell_length_b   8.54199045
_cell_length_c   10.59823632
_cell_angle_alpha   90.00000000
_cell_angle_beta   90.00000000
_cell_angle_gamma   90.00000000
_symmetry_Int_Tables_number   1
_chemical_formula_structural   Sc3(MnGa3)2
_chemical_formula_sum   'Sc12 Mn8 Ga24'
_cell_volume   732.72275495
_cell_formula_units_Z   4
loop_
 _symmetry_equiv_pos_site_id
 _symmetry_equiv_pos_as_xyz
  1  'x, y, z'
loop_
 _atom_site_type_symbol
 _atom_site_label
 _atom_site_symmetry_multiplicity
 _atom_site_fract_x
 _atom_site_fract_y
 _atom_site_fract_z
 _atom_site_occupancy
  Sc  Sc0  1  0.43674260  0.44505566  0.63898320  1.0
  Sc  Sc1  1  0.43674260  0.05494434  0.63898320  1.0
  Sc  Sc2  1  0.93674260  0.44505566  0.86101680  1.0
  Sc  Sc3  1  0.93674260  0.05494434  0.86101680  1.0
  Sc  Sc4  1  0.56325740  0.94505566  0.36101680  1.0
  Sc  Sc5  1  0.56325740  0.55494434  0.36101680  1.0
  Sc  Sc6  1  0.06325740  0.94505566  0.13898320  1.0
  Sc  Sc7  1  0.06325740  0.55494434  0.13898320  1.0
  Sc  Sc8  1  0.45882778  0.75000000  0.06377072  1.0
  Sc  Sc9  1  0.95882778  0.75000000  0.43622928  1.0
  Sc  Sc10  1  0.54117222  0.25000000  0.93622928  1.0
  Sc  Sc11  1  0.04117222  0.25000000  0.56377072  1.0
  Mn  Mn12  1  0.36160559  0.75000000  0.76624733  1.0
  Mn  Mn13  1  0.86160559  0.75000000  0.73375267  1.0
  Mn  Mn14  1  0.63839441  0.25000000  0.23375267  1.0
  Mn  Mn15  1  0.13839441  0.25000000  0.26624733  1.0
  Mn  Mn16  1  0.30966646  0.75000000  0.51720840  1.0
  Mn  Mn17  1  0.80966646  0.75000000  0.98279160  1.0
  Mn  Mn18  1  0.69033354  0.25000000  0.48279160  1.0
  Mn  Mn19  1  0.19033354  0.25000000  0.01720840  1.0
  Ga  Ga20  1  0.29407675  0.99418147  0.91406982  1.0
  Ga  Ga21  1  0.29407675  0.50581853  0.91406982  1.0
  Ga  Ga22  1  0.79407675  0.99418147  0.58593018  1.0
  Ga  Ga23  1  0.79407675  0.50581853  0.58593018  1.0
  Ga  Ga24  1  0.70592325  0.49418147  0.08593018  1.0
  Ga  Ga25  1  0.70592325  0.00581853  0.08593018  1.0
  Ga  Ga26  1  0.20592325  0.49418147  0.41406982  1.0
  Ga  Ga27  1  0.20592325  0.00581853  0.41406982  1.0
  Ga  Ga28  1  0.11729815  0.91684577  0.65444947  1.0
  Ga  Ga29  1  0.11729815  0.58315423  0.65444947  1.0
  Ga  Ga30  1  0.61729815  0.91684577  0.84555053  1.0
  Ga  Ga31  1  0.61729815  0.58315423  0.84555053  1.0
  Ga  Ga32  1  0.88270185  0.41684577  0.34555053  1.0
  Ga  Ga33  1  0.88270185  0.08315423  0.34555053  1.0
  Ga  Ga34  1  0.38270185  0.41684577  0.15444947  1.0
  Ga  Ga35  1  0.38270185  0.08315423  0.15444947  1.0
  Ga  Ga36  1  0.27842556  0.75000000  0.28163065  1.0
  Ga  Ga37  1  0.77842556  0.75000000  0.21836935  1.0
  Ga  Ga38  1  0.72157444  0.25000000  0.71836935  1.0
  Ga  Ga39  1  0.22157444  0.25000000  0.78163065  1.0
  Ga  Ga40  1  0.09377166  0.75000000  0.91395358  1.0
  Ga  Ga41  1  0.59377166  0.75000000  0.58604642  1.0
  Ga  Ga42  1  0.90622834  0.25000000  0.08604642  1.0
  Ga  Ga43  1  0.40622834  0.25000000  0.41395358  1.0
