# generated using pymatgen
data_BaSiPt
_symmetry_space_group_name_H-M   'P 1'
_cell_length_a   6.70982630
_cell_length_b   6.70982630
_cell_length_c   6.70982630
_cell_angle_alpha   90.00000000
_cell_angle_beta   90.00000000
_cell_angle_gamma   90.00000000
_symmetry_Int_Tables_number   1
_chemical_formula_structural   BaSiPt
_chemical_formula_sum   'Ba4 Si4 Pt4'
_cell_volume   302.08825016
_cell_formula_units_Z   4
loop_
 _symmetry_equiv_pos_site_id
 _symmetry_equiv_pos_as_xyz
  1  'x, y, z'
loop_
 _atom_site_type_symbol
 _atom_site_label
 _atom_site_symmetry_multiplicity
 _atom_site_fract_x
 _atom_site_fract_y
 _atom_site_fract_z
 _atom_site_occupancy
  Ba  Ba0  1  0.36602547  0.86602547  0.63397453  1.0
  Ba  Ba1  1  0.86602547  0.63397453  0.36602547  1.0
  Ba  Ba2  1  0.63397453  0.36602547  0.86602547  1.0
  Ba  Ba3  1  0.13397453  0.13397453  0.13397453  1.0
  Si  Si4  1  0.65390844  0.15390844  0.34609156  1.0
  Si  Si5  1  0.15390844  0.34609156  0.65390844  1.0
  Si  Si6  1  0.34609156  0.65390844  0.15390844  1.0
  Si  Si7  1  0.84609156  0.84609156  0.84609156  1.0
  Pt  Pt8  1  0.09391626  0.59391626  0.90608374  1.0
  Pt  Pt9  1  0.59391626  0.90608374  0.09391626  1.0
  Pt  Pt10  1  0.90608374  0.09391626  0.59391626  1.0
  Pt  Pt11  1  0.40608374  0.40608374  0.40608374  1.0
