# generated using pymatgen
data_AlH5(SeO4)2
_symmetry_space_group_name_H-M   'P 1'
_cell_length_a   7.45882028
_cell_length_b   6.72109710
_cell_length_c   8.91252871
_cell_angle_alpha   90.00000000
_cell_angle_beta   126.40967127
_cell_angle_gamma   90.00000000
_symmetry_Int_Tables_number   1
_chemical_formula_structural   AlH5(SeO4)2
_chemical_formula_sum   'Al2 H10 Se4 O16'
_cell_volume   359.58020780
_cell_formula_units_Z   2
loop_
 _symmetry_equiv_pos_site_id
 _symmetry_equiv_pos_as_xyz
  1  'x, y, z'
loop_
 _atom_site_type_symbol
 _atom_site_label
 _atom_site_symmetry_multiplicity
 _atom_site_fract_x
 _atom_site_fract_y
 _atom_site_fract_z
 _atom_site_occupancy
  Al  Al0  1  -0.00000000  0.50000000  0.50000000  1.0
  Al  Al1  1  0.00000000  0.00000000  0.00000000  1.0
  H  H2  1  0.68419613  0.75387619  0.41244668  1.0
  H  H3  1  0.68419613  0.74612381  0.91244668  1.0
  H  H4  1  0.31580387  0.25387619  0.08755332  1.0
  H  H5  1  0.31580387  0.24612381  0.58755332  1.0
  H  H6  1  0.32251173  0.21251925  0.26824978  1.0
  H  H7  1  0.32251173  0.28748075  0.76824978  1.0
  H  H8  1  0.67748827  0.71251925  0.23175022  1.0
  H  H9  1  0.67748827  0.78748075  0.73175022  1.0
  H  H10  1  0.50000000  0.50000000  -0.00000000  1.0
  H  H11  1  0.50000000  0.00000000  0.50000000  1.0
  Se  Se12  1  0.74953542  0.20393515  0.15417263  1.0
  Se  Se13  1  0.74953542  0.29606485  0.65417263  1.0
  Se  Se14  1  0.25046458  0.70393515  0.34582737  1.0
  Se  Se15  1  0.25046458  0.79606485  0.84582737  1.0
  O  O16  1  0.92106842  0.40483476  0.26953687  1.0
  O  O17  1  0.92106842  0.09516524  0.76953687  1.0
  O  O18  1  0.07893158  0.90483476  0.23046313  1.0
  O  O19  1  0.07893158  0.59516524  0.73046313  1.0
  O  O20  1  0.77631216  0.71509562  0.37010338  1.0
  O  O21  1  0.77631216  0.78490438  0.87010338  1.0
  O  O22  1  0.22368784  0.21509562  0.12989662  1.0
  O  O23  1  0.22368784  0.28490438  0.62989662  1.0
  O  O24  1  0.78286268  0.33141900  0.48216374  1.0
  O  O25  1  0.78286268  0.16858100  0.98216374  1.0
  O  O26  1  0.21713732  0.83141900  0.01783626  1.0
  O  O27  1  0.21713732  0.66858100  0.51783626  1.0
  O  O28  1  0.48544661  0.32160035  0.01642255  1.0
  O  O29  1  0.48544661  0.17839965  0.51642255  1.0
  O  O30  1  0.51455339  0.82160035  0.48357745  1.0
  O  O31  1  0.51455339  0.67839965  0.98357745  1.0
