# generated using pymatgen
data_KSO3
_symmetry_space_group_name_H-M   'P 1'
_cell_length_a   10.06053900
_cell_length_b   10.06053900
_cell_length_c   6.51747513
_cell_angle_alpha   90.00000000
_cell_angle_beta   90.00000000
_cell_angle_gamma   120.00000000
_symmetry_Int_Tables_number   1
_chemical_formula_structural   KSO3
_chemical_formula_sum   'K6 S6 O18'
_cell_volume   571.28459381
_cell_formula_units_Z   6
loop_
 _symmetry_equiv_pos_site_id
 _symmetry_equiv_pos_as_xyz
  1  'x, y, z'
loop_
 _atom_site_type_symbol
 _atom_site_label
 _atom_site_symmetry_multiplicity
 _atom_site_fract_x
 _atom_site_fract_y
 _atom_site_fract_z
 _atom_site_occupancy
  K  K0  1  0.71126394  0.71126394  0.50000000  1.0
  K  K1  1  -0.00000000  0.28873606  0.50000000  1.0
  K  K2  1  0.28873606  0.00000000  0.50000000  1.0
  K  K3  1  0.37491503  0.37491503  0.00000000  1.0
  K  K4  1  -0.00000000  0.62508497  0.00000000  1.0
  K  K5  1  0.62508497  0.00000000  0.00000000  1.0
  S  S6  1  0.33333333  0.66666667  0.34002636  1.0
  S  S7  1  0.66666667  0.33333333  0.65997364  1.0
  S  S8  1  0.33333333  0.66666667  0.67973792  1.0
  S  S9  1  0.66666667  0.33333333  0.32026208  1.0
  S  S10  1  0.00000000  0.00000000  0.17001382  1.0
  S  S11  1  0.00000000  0.00000000  0.82998618  1.0
  O  O12  1  0.04029642  0.88269053  0.22868015  1.0
  O  O13  1  0.88269053  0.04029642  0.77131985  1.0
  O  O14  1  0.84239411  0.95970358  0.22868015  1.0
  O  O15  1  0.11730947  0.15760589  0.22868015  1.0
  O  O16  1  0.95970358  0.84239411  0.77131985  1.0
  O  O17  1  0.15760589  0.11730947  0.77131985  1.0
  O  O18  1  0.39134323  0.82852905  0.28282704  1.0
  O  O19  1  0.82852905  0.39134323  0.71717296  1.0
  O  O20  1  0.43718583  0.60865677  0.28282704  1.0
  O  O21  1  0.17147095  0.56281417  0.28282704  1.0
  O  O22  1  0.60865677  0.43718583  0.71717296  1.0
  O  O23  1  0.56281417  0.17147095  0.71717296  1.0
  O  O24  1  0.50297342  0.24365400  0.26246972  1.0
  O  O25  1  0.24365400  0.50297342  0.73753028  1.0
  O  O26  1  0.74068058  0.49702658  0.26246972  1.0
  O  O27  1  0.75634600  0.25931942  0.26246972  1.0
  O  O28  1  0.49702658  0.74068058  0.73753028  1.0
  O  O29  1  0.25931942  0.75634600  0.73753028  1.0
