# generated using pymatgen
data_P2S7
_symmetry_space_group_name_H-M   'P 1'
_cell_length_a   6.73605184
_cell_length_b   12.32015110
_cell_length_c   13.31446092
_cell_angle_alpha   90.00000000
_cell_angle_beta   94.40681403
_cell_angle_gamma   90.00000000
_symmetry_Int_Tables_number   1
_chemical_formula_structural   P2S7
_chemical_formula_sum   'P8 S28'
_cell_volume   1101.68947834
_cell_formula_units_Z   4
loop_
 _symmetry_equiv_pos_site_id
 _symmetry_equiv_pos_as_xyz
  1  'x, y, z'
loop_
 _atom_site_type_symbol
 _atom_site_label
 _atom_site_symmetry_multiplicity
 _atom_site_fract_x
 _atom_site_fract_y
 _atom_site_fract_z
 _atom_site_occupancy
  P  P0  1  0.83815195  0.80270027  0.82539726  1.0
  P  P1  1  0.83815195  0.69729973  0.32539726  1.0
  P  P2  1  0.16184805  0.30270027  0.67460274  1.0
  P  P3  1  0.16184805  0.19729973  0.17460274  1.0
  P  P4  1  0.49542112  0.69420884  0.90309671  1.0
  P  P5  1  0.49542112  0.80579116  0.40309671  1.0
  P  P6  1  0.50457888  0.19420884  0.59690329  1.0
  P  P7  1  0.50457888  0.30579116  0.09690329  1.0
  S  S8  1  0.95723567  0.40059001  0.61926072  1.0
  S  S9  1  0.95723567  0.09940999  0.11926072  1.0
  S  S10  1  0.04276433  0.90059001  0.88073928  1.0
  S  S11  1  0.04276433  0.59940999  0.38073928  1.0
  S  S12  1  0.89416578  0.77621700  0.67210528  1.0
  S  S13  1  0.89416578  0.72378300  0.17210528  1.0
  S  S14  1  0.10583422  0.27621700  0.82789472  1.0
  S  S15  1  0.10583422  0.22378300  0.32789472  1.0
  S  S16  1  0.79891597  0.64802891  0.89557579  1.0
  S  S17  1  0.79891597  0.85197109  0.39557579  1.0
  S  S18  1  0.20108403  0.14802891  0.60442421  1.0
  S  S19  1  0.20108403  0.35197109  0.10442421  1.0
  S  S20  1  0.66609736  0.67748392  0.61355218  1.0
  S  S21  1  0.66609736  0.82251608  0.11355218  1.0
  S  S22  1  0.33390264  0.17748392  0.88644782  1.0
  S  S23  1  0.33390264  0.32251608  0.38644782  1.0
  S  S24  1  0.53365066  0.84844400  0.83210674  1.0
  S  S25  1  0.53365066  0.65155600  0.33210674  1.0
  S  S26  1  0.46634934  0.34844400  0.66789326  1.0
  S  S27  1  0.46634934  0.15155600  0.16789326  1.0
  S  S28  1  0.44013513  0.77837231  0.55636835  1.0
  S  S29  1  0.44013513  0.72162769  0.05636835  1.0
  S  S30  1  0.55986487  0.27837231  0.94363165  1.0
  S  S31  1  0.55986487  0.22162769  0.44363165  1.0
  S  S32  1  0.29005823  0.59541372  0.84952559  1.0
  S  S33  1  0.29005823  0.90458628  0.34952559  1.0
  S  S34  1  0.70994177  0.09541372  0.65047441  1.0
  S  S35  1  0.70994177  0.40458628  0.15047441  1.0
