# generated using pymatgen
data_Co6W6C
_symmetry_space_group_name_H-M   'P 1'
_cell_length_a   7.68647230
_cell_length_b   7.68647230
_cell_length_c   7.68647230
_cell_angle_alpha   60.00000000
_cell_angle_beta   60.00000000
_cell_angle_gamma   60.00000000
_symmetry_Int_Tables_number   1
_chemical_formula_structural   Co6W6C
_chemical_formula_sum   'Co12 W12 C2'
_cell_volume   321.11914638
_cell_formula_units_Z   2
loop_
 _symmetry_equiv_pos_site_id
 _symmetry_equiv_pos_as_xyz
  1  'x, y, z'
loop_
 _atom_site_type_symbol
 _atom_site_label
 _atom_site_symmetry_multiplicity
 _atom_site_fract_x
 _atom_site_fract_y
 _atom_site_fract_z
 _atom_site_occupancy
  Co  Co0  1  -0.75376614  0.91792205  0.91792205  1.0
  Co  Co1  1  0.91792205  -0.75376614  0.91792205  1.0
  Co  Co2  1  0.91792205  0.91792205  -0.75376614  1.0
  Co  Co3  1  0.91792205  0.91792205  0.91792205  1.0
  Co  Co4  1  0.00376614  1.33207795  0.33207795  1.0
  Co  Co5  1  0.33207795  1.00376614  0.33207795  1.0
  Co  Co6  1  0.33207795  1.33207795  0.00376614  1.0
  Co  Co7  1  0.33207795  1.33207795  0.33207795  1.0
  Co  Co8  1  0.62500000  1.12500000  0.12500000  1.0
  Co  Co9  1  0.12500000  1.62500000  0.12500000  1.0
  Co  Co10  1  0.12500000  0.12500000  1.62500000  1.0
  Co  Co11  1  0.12500000  0.12500000  0.12500000  1.0
  W  W12  1  0.69932601  0.69932601  -0.69932601  1.0
  W  W13  1  0.30067399  1.30067399  -0.30067399  1.0
  W  W14  1  0.69932601  -0.69932601  0.69932601  1.0
  W  W15  1  0.30067399  -0.30067399  0.30067399  1.0
  W  W16  1  -0.69932601  0.69932601  0.69932601  1.0
  W  W17  1  -0.30067399  0.30067399  0.30067399  1.0
  W  W18  1  -0.44932601  0.55067399  0.94932601  1.0
  W  W19  1  0.94932601  0.94932601  -0.44932601  1.0
  W  W20  1  0.55067399  0.94932601  0.55067399  1.0
  W  W21  1  0.94932601  0.55067399  0.94932601  1.0
  W  W22  1  0.94932601  0.55067399  -0.44932601  1.0
  W  W23  1  0.55067399  0.94932601  -0.05067399  1.0
  C  C24  1  0.50000000  -0.50000000  0.50000000  1.0
  C  C25  1  0.75000000  0.75000000  0.75000000  1.0
