# generated using pymatgen
data_HgSeO3
_symmetry_space_group_name_H-M   'P 1'
_cell_length_a   4.72639640
_cell_length_b   10.28030935
_cell_length_c   7.62419021
_cell_angle_alpha   90.00000000
_cell_angle_beta   103.60870479
_cell_angle_gamma   90.00000000
_symmetry_Int_Tables_number   1
_chemical_formula_structural   HgSeO3
_chemical_formula_sum   'Hg4 Se4 O12'
_cell_volume   360.05008765
_cell_formula_units_Z   4
loop_
 _symmetry_equiv_pos_site_id
 _symmetry_equiv_pos_as_xyz
  1  'x, y, z'
loop_
 _atom_site_type_symbol
 _atom_site_label
 _atom_site_symmetry_multiplicity
 _atom_site_fract_x
 _atom_site_fract_y
 _atom_site_fract_z
 _atom_site_occupancy
  Hg  Hg0  1  0.89835149  0.66897510  0.09929394  1.0
  Hg  Hg1  1  0.89835149  0.83102490  0.59929394  1.0
  Hg  Hg2  1  0.10164851  0.16897510  0.40070606  1.0
  Hg  Hg3  1  0.10164851  0.33102490  0.90070606  1.0
  Se  Se4  1  0.67545060  0.41917722  0.31454903  1.0
  Se  Se5  1  0.67545060  0.08082278  0.81454903  1.0
  Se  Se6  1  0.32454940  0.91917722  0.18545097  1.0
  Se  Se7  1  0.32454940  0.58082278  0.68545097  1.0
  O  O8  1  0.99190121  0.35586842  0.45931859  1.0
  O  O9  1  0.99190121  0.14413158  0.95931859  1.0
  O  O10  1  0.00809879  0.85586842  0.04068141  1.0
  O  O11  1  0.00809879  0.64413158  0.54068141  1.0
  O  O12  1  0.82004713  0.47441788  0.13256173  1.0
  O  O13  1  0.82004713  0.02558212  0.63256173  1.0
  O  O14  1  0.17995287  0.97441788  0.36743827  1.0
  O  O15  1  0.17995287  0.52558212  0.86743827  1.0
  O  O16  1  0.50762823  0.28393071  0.22020514  1.0
  O  O17  1  0.50762823  0.21606929  0.72020514  1.0
  O  O18  1  0.49237177  0.78393071  0.27979486  1.0
  O  O19  1  0.49237177  0.71606929  0.77979486  1.0
