# generated using pymatgen
data_Ta6Fe7
_symmetry_space_group_name_H-M   'P 1'
_cell_length_a   9.36675972
_cell_length_b   9.36675972
_cell_length_c   9.36675972
_cell_angle_alpha   30.06877445
_cell_angle_beta   30.06877445
_cell_angle_gamma   30.06877445
_symmetry_Int_Tables_number   1
_chemical_formula_structural   Ta6Fe7
_chemical_formula_sum   'Ta6 Fe7'
_cell_volume   182.76063078
_cell_formula_units_Z   1
loop_
 _symmetry_equiv_pos_site_id
 _symmetry_equiv_pos_as_xyz
  1  'x, y, z'
loop_
 _atom_site_type_symbol
 _atom_site_label
 _atom_site_symmetry_multiplicity
 _atom_site_fract_x
 _atom_site_fract_y
 _atom_site_fract_z
 _atom_site_occupancy
  Fe  Fe0  1  0.00000000  -0.00000000  -0.00000000  1.0
  Fe  Fe1  1  0.40811848  -0.09191376  -0.09191376  1.0
  Fe  Fe2  1  0.90808624  -0.09191376  -0.59188152  1.0
  Fe  Fe3  1  0.90808624  -0.59188152  -0.09191376  1.0
  Fe  Fe4  1  0.59188152  0.09191376  0.09191376  1.0
  Fe  Fe5  1  1.09191376  0.09191376  -0.40811848  1.0
  Fe  Fe6  1  1.09191376  -0.40811848  0.09191376  1.0
  Ta  Ta7  1  0.83433352  -0.16566648  -0.16566648  1.0
  Ta  Ta8  1  0.16566648  0.16566648  0.16566648  1.0
  Ta  Ta9  1  0.54947621  0.54947621  -0.45052379  1.0
  Ta  Ta10  1  0.45052379  0.45052379  -0.54947621  1.0
  Ta  Ta11  1  0.65295990  0.65295990  -0.34704010  1.0
  Ta  Ta12  1  0.34704010  0.34704010  -0.65295990  1.0
