# generated using pymatgen
data_K3Co(CN)6
_symmetry_space_group_name_H-M   'P 1'
_cell_length_a   7.14353670
_cell_length_b   10.46438421
_cell_length_c   8.42787891
_cell_angle_alpha   90.00000000
_cell_angle_beta   107.43696482
_cell_angle_gamma   90.00000000
_symmetry_Int_Tables_number   1
_chemical_formula_structural   K3Co(CN)6
_chemical_formula_sum   'K6 Co2 C12 N12'
_cell_volume   601.05623364
_cell_formula_units_Z   2
loop_
 _symmetry_equiv_pos_site_id
 _symmetry_equiv_pos_as_xyz
  1  'x, y, z'
loop_
 _atom_site_type_symbol
 _atom_site_label
 _atom_site_symmetry_multiplicity
 _atom_site_fract_x
 _atom_site_fract_y
 _atom_site_fract_z
 _atom_site_occupancy
  K  K0  1  0.49661814  0.28320955  0.37512578  1.0
  K  K1  1  0.49661814  0.21679045  -0.12487422  1.0
  K  K2  1  0.50338186  0.78320955  0.12487422  1.0
  K  K3  1  0.50338186  0.71679045  0.62487422  1.0
  K  K4  1  0.00000000  0.50000000  0.50000000  1.0
  K  K5  1  0.00000000  0.00000000  0.00000000  1.0
  Co  Co6  1  0.00000000  0.50000000  0.00000000  1.0
  Co  Co7  1  0.00000000  0.00000000  0.50000000  1.0
  C  C8  1  0.88092493  0.83861174  0.47567661  1.0
  C  C9  1  0.88092493  0.66138826  0.97567661  1.0
  C  C10  1  0.11907507  0.33861174  0.02432339  1.0
  C  C11  1  0.11907507  0.16138826  0.52432339  1.0
  C  C12  1  0.82432859  0.44255552  0.11218103  1.0
  C  C13  1  0.82432859  0.05744448  0.61218103  1.0
  C  C14  1  0.17567141  0.94255552  0.38781897  1.0
  C  C15  1  0.17567141  0.55744448  0.88781897  1.0
  C  C16  1  0.81976140  0.04843975  0.29673583  1.0
  C  C17  1  0.81976140  0.45156025  0.79673583  1.0
  C  C18  1  0.18023860  0.54843975  0.20326417  1.0
  C  C19  1  0.18023860  0.95156025  0.70326417  1.0
  N  N20  1  0.80117235  0.73921548  0.45678802  1.0
  N  N21  1  0.80117235  0.76078452  0.95678802  1.0
  N  N22  1  0.19882765  0.23921548  0.04321198  1.0
  N  N23  1  0.19882765  0.26078452  0.54321198  1.0
  N  N24  1  0.71704030  0.40703320  0.18443452  1.0
  N  N25  1  0.71704030  0.09296680  0.68443452  1.0
  N  N26  1  0.28295970  0.90703320  0.31556548  1.0
  N  N27  1  0.28295970  0.59296680  0.81556548  1.0
  N  N28  1  0.70831348  0.07615371  0.16801163  1.0
  N  N29  1  0.70831348  0.42384629  0.66801163  1.0
  N  N30  1  0.29168652  0.57615371  0.33198837  1.0
  N  N31  1  0.29168652  0.92384629  0.83198837  1.0
