# generated using pymatgen
data_Mn2O3
_symmetry_space_group_name_H-M   'P 1'
_cell_length_a   5.47380122
_cell_length_b   5.47380122
_cell_length_c   5.47380122
_cell_angle_alpha   55.39159013
_cell_angle_beta   55.39159013
_cell_angle_gamma   55.39159013
_symmetry_Int_Tables_number   1
_chemical_formula_structural   Mn2O3
_chemical_formula_sum   'Mn4 O6'
_cell_volume   103.55709487
_cell_formula_units_Z   2
loop_
 _symmetry_equiv_pos_site_id
 _symmetry_equiv_pos_as_xyz
  1  'x, y, z'
loop_
 _atom_site_type_symbol
 _atom_site_label
 _atom_site_symmetry_multiplicity
 _atom_site_fract_x
 _atom_site_fract_y
 _atom_site_fract_z
 _atom_site_occupancy
  Mn  Mn0  1  0.85016565  -0.14983435  -0.14983435  1.0
  Mn  Mn1  1  0.35016565  0.35016565  0.35016565  1.0
  Mn  Mn2  1  0.64983435  0.64983435  -0.35016565  1.0
  Mn  Mn3  1  1.14983435  0.14983435  0.14983435  1.0
  O  O4  1  0.44453687  0.75000000  0.05546313  1.0
  O  O5  1  0.94453687  -0.44453687  0.25000000  1.0
  O  O6  1  0.25000000  0.94453687  -0.44453687  1.0
  O  O7  1  0.75000000  1.05546313  -0.55546313  1.0
  O  O8  1  0.55546313  0.25000000  -0.05546313  1.0
  O  O9  1  1.05546313  0.44453687  -0.25000000  1.0
