# generated using pymatgen
data_Ga2FeSe4
_symmetry_space_group_name_H-M   'P 1'
_cell_length_a   5.50778978
_cell_length_b   5.50778978
_cell_length_c   5.71685975
_cell_angle_alpha   90.00000000
_cell_angle_beta   90.00000000
_cell_angle_gamma   90.00000000
_symmetry_Int_Tables_number   1
_chemical_formula_structural   Ga2FeSe4
_chemical_formula_sum   'Ga2 Fe1 Se4'
_cell_volume   173.42521826
_cell_formula_units_Z   1
loop_
 _symmetry_equiv_pos_site_id
 _symmetry_equiv_pos_as_xyz
  1  'x, y, z'
loop_
 _atom_site_type_symbol
 _atom_site_label
 _atom_site_symmetry_multiplicity
 _atom_site_fract_x
 _atom_site_fract_y
 _atom_site_fract_z
 _atom_site_occupancy
  Ga  Ga0  1  0.00000000  0.50000000  0.50000000  1.0
  Ga  Ga1  1  0.50000000  0.00000000  0.50000000  1.0
  Fe  Fe2  1  0.00000000  0.00000000  0.00000000  1.0
  Se  Se3  1  0.26067081  0.73932919  0.23597701  1.0
  Se  Se4  1  0.73932919  0.73932919  0.76402299  1.0
  Se  Se5  1  0.26067081  0.26067081  0.76402299  1.0
  Se  Se6  1  0.73932919  0.26067081  0.23597701  1.0
