# generated using pymatgen
data_CrH9(CN2)3
_symmetry_space_group_name_H-M   'P 1'
_cell_length_a   7.62922522
_cell_length_b   7.62922522
_cell_length_c   7.62922522
_cell_angle_alpha   97.47445355
_cell_angle_beta   97.47445355
_cell_angle_gamma   97.47445355
_symmetry_Int_Tables_number   1
_chemical_formula_structural   CrH9(CN2)3
_chemical_formula_sum   'Cr2 H18 C6 N12'
_cell_volume   431.63689907
_cell_formula_units_Z   2
loop_
 _symmetry_equiv_pos_site_id
 _symmetry_equiv_pos_as_xyz
  1  'x, y, z'
loop_
 _atom_site_type_symbol
 _atom_site_label
 _atom_site_symmetry_multiplicity
 _atom_site_fract_x
 _atom_site_fract_y
 _atom_site_fract_z
 _atom_site_occupancy
  Cr  Cr0  1  0.50000000  0.50000000  0.50000000  1.0
  Cr  Cr1  1  0.00000000  0.00000000  0.00000000  1.0
  H  H2  1  1.56495948  0.66032037  -0.15833088  1.0
  H  H3  1  0.33967963  1.15833088  -0.56495948  1.0
  H  H4  1  1.15833088  0.43504052  -0.66032037  1.0
  H  H5  1  0.43504052  0.33967963  0.15833088  1.0
  H  H6  1  1.66032037  -0.15833088  0.56495948  1.0
  H  H7  1  0.84166912  0.56495948  0.66032037  1.0
  H  H8  1  1.36889347  0.53298008  -0.19080091  1.0
  H  H9  1  0.46701992  1.19080091  -0.36889347  1.0
  H  H10  1  1.19080091  0.63110653  -0.53298008  1.0
  H  H11  1  0.63110653  0.46701992  0.19080091  1.0
  H  H12  1  1.53298008  -0.19080091  0.36889347  1.0
  H  H13  1  0.80919909  0.36889347  0.53298008  1.0
  H  H14  1  1.38771210  0.72921091  -0.25932923  1.0
  H  H15  1  1.27078909  0.25932923  -0.38771210  1.0
  H  H16  1  1.25932923  -0.38771210  0.27078909  1.0
  H  H17  1  0.61228790  0.27078909  0.25932923  1.0
  H  H18  1  0.72921091  0.74067077  0.38771210  1.0
  H  H19  1  0.74067077  1.38771210  -0.27078909  1.0
  C  C20  1  0.85877782  0.77326257  0.05600998  1.0
  C  C21  1  1.22673743  -0.05600998  0.14122218  1.0
  C  C22  1  0.94399002  0.14122218  0.22673743  1.0
  C  C23  1  1.14122218  0.22673743  -0.05600998  1.0
  C  C24  1  0.77326257  1.05600998  -0.14122218  1.0
  C  C25  1  1.05600998  0.85877782  -0.22673743  1.0
  N  N26  1  0.77289096  0.64436342  0.08578710  1.0
  N  N27  1  1.35563658  -0.08578710  0.22710904  1.0
  N  N28  1  0.91421290  0.22710904  0.35563658  1.0
  N  N29  1  1.22710904  0.35563658  -0.08578710  1.0
  N  N30  1  0.64436342  1.08578710  -0.22710904  1.0
  N  N31  1  1.08578710  0.77289096  -0.35563658  1.0
  N  N32  1  1.45121680  0.61947397  -0.25023626  1.0
  N  N33  1  1.38052603  0.25023626  -0.45121680  1.0
  N  N34  1  1.25023626  -0.45121680  0.38052603  1.0
  N  N35  1  0.54878320  0.38052603  0.25023626  1.0
  N  N36  1  0.61947397  0.74976374  0.45121680  1.0
  N  N37  1  0.74976374  1.45121680  -0.38052603  1.0
