# generated using pymatgen
data_Tl5Se2I
_symmetry_space_group_name_H-M   'P 1'
_cell_length_a   9.43379717
_cell_length_b   9.43379717
_cell_length_c   9.43379717
_cell_angle_alpha   124.10078341
_cell_angle_beta   124.10078341
_cell_angle_gamma   83.03282824
_symmetry_Int_Tables_number   1
_chemical_formula_structural   Tl5Se2I
_chemical_formula_sum   'Tl10 Se4 I2'
_cell_volume   552.39018507
_cell_formula_units_Z   2
loop_
 _symmetry_equiv_pos_site_id
 _symmetry_equiv_pos_as_xyz
  1  'x, y, z'
loop_
 _atom_site_type_symbol
 _atom_site_label
 _atom_site_symmetry_multiplicity
 _atom_site_fract_x
 _atom_site_fract_y
 _atom_site_fract_z
 _atom_site_occupancy
  Tl  Tl0  1  0.72146513  1.22146513  1.21205624  1.0
  Tl  Tl1  1  0.99059111  0.49059111  1.21205624  1.0
  Tl  Tl2  1  0.50940889  0.72146513  0.50000000  1.0
  Tl  Tl3  1  0.77853487  0.99059111  1.50000000  1.0
  Tl  Tl4  1  1.22146513  1.00940889  1.50000000  1.0
  Tl  Tl5  1  0.49059111  0.27853487  0.50000000  1.0
  Tl  Tl6  1  1.00940889  0.50940889  0.78794376  1.0
  Tl  Tl7  1  0.27853487  0.77853487  0.78794376  1.0
  Tl  Tl8  1  0.00000000  0.00000000  0.00000000  1.0
  Tl  Tl9  1  0.50000000  0.50000000  1.00000000  1.0
  Se  Se10  1  0.33841657  0.83841657  1.17683313  1.0
  Se  Se11  1  0.16158343  0.33841657  0.50000000  1.0
  Se  Se12  1  0.83841657  0.66158343  1.50000000  1.0
  Se  Se13  1  0.66158343  0.16158343  0.82316687  1.0
  I  I14  1  0.75000000  0.75000000  1.00000000  1.0
  I  I15  1  0.25000000  0.25000000  0.00000000  1.0
