# generated using pymatgen
data_NaP3PbO9
_symmetry_space_group_name_H-M   'P 1'
_cell_length_a   7.94900844
_cell_length_b   7.35021812
_cell_length_c   6.92358032
_cell_angle_alpha   83.32975455
_cell_angle_beta   80.52923833
_cell_angle_gamma   83.93170603
_symmetry_Int_Tables_number   1
_chemical_formula_structural   NaP3PbO9
_chemical_formula_sum   'Na2 P6 Pb2 O18'
_cell_volume   394.75762206
_cell_formula_units_Z   2
loop_
 _symmetry_equiv_pos_site_id
 _symmetry_equiv_pos_as_xyz
  1  'x, y, z'
loop_
 _atom_site_type_symbol
 _atom_site_label
 _atom_site_symmetry_multiplicity
 _atom_site_fract_x
 _atom_site_fract_y
 _atom_site_fract_z
 _atom_site_occupancy
  Na  Na0  1  -0.83952992  -0.36488571  -0.46778242  1.0
  Na  Na1  1  -0.16047008  -0.63511429  -0.53221758  1.0
  P  P2  1  -0.77791696  -0.88199913  -0.39635367  1.0
  P  P3  1  -0.22208304  -0.11800087  -0.60364633  1.0
  P  P4  1  -0.77546098  -0.78592764  -0.82943113  1.0
  P  P5  1  -0.22453902  -0.21407236  -0.17056887  1.0
  P  P6  1  -0.43884429  -0.33228427  -0.80053523  1.0
  P  P7  1  -0.56115571  -0.66771573  -0.19946477  1.0
  Pb  Pb8  1  -0.85283724  -0.26333607  -0.98599324  1.0
  Pb  Pb9  1  -0.14716276  -0.73666393  -0.01400676  1.0
  O  O10  1  -0.20270818  -0.91656773  -0.65920172  1.0
  O  O11  1  -0.79729182  -0.08343227  -0.34079828  1.0
  O  O12  1  -0.61351659  -0.83326743  -0.30696811  1.0
  O  O13  1  -0.38648341  -0.16673257  -0.69303189  1.0
  O  O14  1  -0.92892386  -0.74076470  -0.35338405  1.0
  O  O15  1  -0.07107614  -0.25923530  -0.64661595  1.0
  O  O16  1  -0.59481129  -0.74294079  -0.96571118  1.0
  O  O17  1  -0.40518871  -0.25705921  -0.03428882  1.0
  O  O18  1  -0.84763622  -0.93866326  -0.91041199  1.0
  O  O19  1  -0.15236378  -0.06133674  -0.08958801  1.0
  O  O20  1  -0.89858068  -0.61408455  -0.80788634  1.0
  O  O21  1  -0.10141932  -0.38591545  -0.19211366  1.0
  O  O22  1  -0.32481513  -0.50578739  -0.76568746  1.0
  O  O23  1  -0.67518487  -0.49421261  -0.23431254  1.0
  O  O24  1  -0.63082137  -0.33390320  -0.75155840  1.0
  O  O25  1  -0.36917863  -0.66609680  -0.24844160  1.0
  O  O26  1  -0.69927594  -0.85391515  -0.63007662  1.0
  O  O27  1  -0.30072406  -0.14608485  -0.36992338  1.0
