# generated using pymatgen
data_Li2MgSi
_symmetry_space_group_name_H-M   'P 1'
_cell_length_a   9.00332056
_cell_length_b   9.00332056
_cell_length_c   9.00332056
_cell_angle_alpha   60.00000000
_cell_angle_beta   60.00000000
_cell_angle_gamma   60.00000000
_symmetry_Int_Tables_number   1
_chemical_formula_structural   Li2MgSi
_chemical_formula_sum   'Li16 Mg8 Si8'
_cell_volume   516.05161550
_cell_formula_units_Z   8
loop_
 _symmetry_equiv_pos_site_id
 _symmetry_equiv_pos_as_xyz
  1  'x, y, z'
loop_
 _atom_site_type_symbol
 _atom_site_label
 _atom_site_symmetry_multiplicity
 _atom_site_fract_x
 _atom_site_fract_y
 _atom_site_fract_z
 _atom_site_occupancy
  Li  Li0  1  0.75000000  0.75000000  -0.25000000  1.0
  Li  Li1  1  1.25000000  0.25000000  0.25000000  1.0
  Li  Li2  1  0.78456744  0.78456744  -0.78456744  1.0
  Li  Li3  1  0.21543256  -0.21543256  1.21543256  1.0
  Li  Li4  1  -0.21543256  0.21543256  0.21543256  1.0
  Li  Li5  1  0.21543256  1.21543256  -0.21543256  1.0
  Li  Li6  1  -0.21543256  0.21543256  0.78456744  1.0
  Li  Li7  1  -0.78456744  0.78456744  0.78456744  1.0
  Li  Li8  1  0.87339124  0.87339124  -0.62017371  1.0
  Li  Li9  1  0.87339124  0.37982629  -0.12660876  1.0
  Li  Li10  1  0.37982629  0.87339124  -0.12660876  1.0
  Li  Li11  1  0.87339124  0.87339124  -0.12660876  1.0
  Li  Li12  1  1.12660876  0.12660876  0.62017371  1.0
  Li  Li13  1  1.12660876  0.62017371  0.12660876  1.0
  Li  Li14  1  1.62017371  0.12660876  0.12660876  1.0
  Li  Li15  1  1.12660876  0.12660876  0.12660876  1.0
  Mg  Mg16  1  0.62550193  0.62550193  1.12349421  1.0
  Mg  Mg17  1  0.62550193  1.12349421  -0.37449807  1.0
  Mg  Mg18  1  1.12349421  0.62550193  0.62550193  1.0
  Mg  Mg19  1  0.62550193  0.62550193  -0.37449807  1.0
  Mg  Mg20  1  0.37449807  1.37449807  -0.12349421  1.0
  Mg  Mg21  1  1.37449807  -0.12349421  0.37449807  1.0
  Mg  Mg22  1  -0.12349421  1.37449807  0.37449807  1.0
  Mg  Mg23  1  1.37449807  0.37449807  0.37449807  1.0
  Si  Si24  1  0.00000000  0.00000000  0.00000000  1.0
  Si  Si25  1  -0.50000000  0.50000000  0.50000000  1.0
  Si  Si26  1  0.00000000  -0.00000000  0.50000000  1.0
  Si  Si27  1  0.50000000  1.00000000  -0.50000000  1.0
  Si  Si28  1  1.00000000  0.50000000  -0.50000000  1.0
  Si  Si29  1  0.50000000  -0.50000000  1.00000000  1.0
  Si  Si30  1  0.00000000  1.50000000  -0.00000000  1.0
  Si  Si31  1  1.50000000  0.00000000  -0.00000000  1.0
