# generated using pymatgen
data_Bi2TeSe2
_symmetry_space_group_name_H-M   'P 1'
_cell_length_a   10.60831264
_cell_length_b   10.60831264
_cell_length_c   10.60831264
_cell_angle_alpha   23.26776904
_cell_angle_beta   23.26776904
_cell_angle_gamma   23.26776904
_symmetry_Int_Tables_number   1
_chemical_formula_structural   Bi2TeSe2
_chemical_formula_sum   'Bi2 Te1 Se2'
_cell_volume   163.55051061
_cell_formula_units_Z   1
loop_
 _symmetry_equiv_pos_site_id
 _symmetry_equiv_pos_as_xyz
  1  'x, y, z'
loop_
 _atom_site_type_symbol
 _atom_site_label
 _atom_site_symmetry_multiplicity
 _atom_site_fract_x
 _atom_site_fract_y
 _atom_site_fract_z
 _atom_site_occupancy
  Bi  Bi0  1  1.59776344  0.59776344  0.59776344  1.0
  Bi  Bi1  1  1.40223656  0.40223656  0.40223656  1.0
  Te  Te2  1  0.00000000  -0.00000000  0.00000000  1.0
  Se  Se3  1  0.78440039  0.78440039  0.78440039  1.0
  Se  Se4  1  1.21559961  1.21559961  0.21559961  1.0
