# generated using pymatgen
data_NbI3O
_symmetry_space_group_name_H-M   'P 1'
_cell_length_a   8.26020567
_cell_length_b   8.26020567
_cell_length_c   13.48362389
_cell_angle_alpha   58.83143492
_cell_angle_beta   121.16856508
_cell_angle_gamma   152.10953245
_symmetry_Int_Tables_number   1
_chemical_formula_structural   NbI3O
_chemical_formula_sum   'Nb2 I6 O2'
_cell_volume   364.06011261
_cell_formula_units_Z   2
loop_
 _symmetry_equiv_pos_site_id
 _symmetry_equiv_pos_as_xyz
  1  'x, y, z'
loop_
 _atom_site_type_symbol
 _atom_site_label
 _atom_site_symmetry_multiplicity
 _atom_site_fract_x
 _atom_site_fract_y
 _atom_site_fract_z
 _atom_site_occupancy
  Nb  Nb0  1  0.93234410  0.17619793  0.80798203  1.0
  Nb  Nb1  1  1.17619793  -0.06765590  0.19201797  1.0
  I  I2  1  0.89571535  -0.89444144  0.62131157  1.0
  I  I3  1  0.10555856  -0.10428465  0.37868843  1.0
  I  I4  1  0.68400586  0.31651827  0.71920456  1.0
  I  I5  1  1.31651827  -0.31599414  0.28079544  1.0
  I  I6  1  1.08811116  0.90255305  0.95848035  1.0
  I  I7  1  1.90255305  0.08811116  0.04151965  1.0
  O  O8  1  0.39025144  -0.37505572  0.81515596  1.0
  O  O9  1  0.62494428  -0.60974856  0.18484404  1.0
