# generated using pymatgen
data_Ag2MoO4
_symmetry_space_group_name_H-M   'P 1'
_cell_length_a   6.66421288
_cell_length_b   6.66421288
_cell_length_c   6.66421288
_cell_angle_alpha   60.00000000
_cell_angle_beta   60.00000000
_cell_angle_gamma   60.00000000
_symmetry_Int_Tables_number   1
_chemical_formula_structural   Ag2MoO4
_chemical_formula_sum   'Ag4 Mo2 O8'
_cell_volume   209.28185996
_cell_formula_units_Z   2
loop_
 _symmetry_equiv_pos_site_id
 _symmetry_equiv_pos_as_xyz
  1  'x, y, z'
loop_
 _atom_site_type_symbol
 _atom_site_label
 _atom_site_symmetry_multiplicity
 _atom_site_fract_x
 _atom_site_fract_y
 _atom_site_fract_z
 _atom_site_occupancy
  Ag  Ag0  1  0.12500000  0.12500000  1.62500000  1.0
  Ag  Ag1  1  0.12500000  0.62500000  0.12500000  1.0
  Ag  Ag2  1  0.62500000  0.12500000  1.12500000  1.0
  Ag  Ag3  1  0.12500000  0.12500000  0.12500000  1.0
  Mo  Mo4  1  0.75000000  -0.25000000  0.75000000  1.0
  Mo  Mo5  1  0.50000000  0.50000000  -0.50000000  1.0
  O  O6  1  0.39032254  0.39032254  -0.17096762  1.0
  O  O7  1  0.39032254  -0.17096762  0.39032254  1.0
  O  O8  1  -0.17096762  0.39032254  0.39032254  1.0
  O  O9  1  0.39032254  0.39032254  0.39032254  1.0
  O  O10  1  -0.14032254  0.85967746  0.42096762  1.0
  O  O11  1  0.85967746  -0.57903238  0.85967746  1.0
  O  O12  1  -0.57903238  0.85967746  0.85967746  1.0
  O  O13  1  0.85967746  -0.14032254  0.85967746  1.0
