# generated using pymatgen
data_Al7(CN)3
_symmetry_space_group_name_H-M   'P 1'
_cell_length_a   3.25317960
_cell_length_b   3.25317960
_cell_length_c   32.09444965
_cell_angle_alpha   90.00000000
_cell_angle_beta   90.00000000
_cell_angle_gamma   120.00000000
_symmetry_Int_Tables_number   1
_chemical_formula_structural   Al7(CN)3
_chemical_formula_sum   'Al14 C6 N6'
_cell_volume   294.15527864
_cell_formula_units_Z   2
loop_
 _symmetry_equiv_pos_site_id
 _symmetry_equiv_pos_as_xyz
  1  'x, y, z'
loop_
 _atom_site_type_symbol
 _atom_site_label
 _atom_site_symmetry_multiplicity
 _atom_site_fract_x
 _atom_site_fract_y
 _atom_site_fract_z
 _atom_site_occupancy
  Al  Al0  1  0.33333333  0.66666667  0.03167692  1.0
  Al  Al1  1  0.66666667  0.33333333  0.53167692  1.0
  Al  Al2  1  0.33333333  0.66666667  0.18361376  1.0
  Al  Al3  1  0.66666667  0.33333333  0.68361376  1.0
  Al  Al4  1  0.33333333  0.66666667  0.31316830  1.0
  Al  Al5  1  0.66666667  0.33333333  0.81316830  1.0
  Al  Al6  1  0.33333333  0.66666667  0.46997427  1.0
  Al  Al7  1  0.66666667  0.33333333  0.96997427  1.0
  Al  Al8  1  0.00000000  0.00000000  0.11098755  1.0
  Al  Al9  1  0.00000000  0.00000000  0.61098755  1.0
  Al  Al10  1  0.00000000  0.00000000  0.24139559  1.0
  Al  Al11  1  0.00000000  0.00000000  0.74139559  1.0
  Al  Al12  1  0.00000000  0.00000000  0.39190775  1.0
  Al  Al13  1  0.00000000  0.00000000  0.89190775  1.0
  C  C14  1  0.33333333  0.66666667  0.25206107  1.0
  C  C15  1  0.66666667  0.33333333  0.75206107  1.0
  C  C16  1  0.00000000  0.00000000  -0.00006099  1.0
  C  C17  1  0.00000000  0.00000000  0.49993901  1.0
  C  C18  1  0.00000000  0.00000000  0.17116471  1.0
  C  C19  1  0.00000000  0.00000000  0.67116471  1.0
  N  N20  1  0.33333333  0.66666667  0.08859986  1.0
  N  N21  1  0.66666667  0.33333333  0.58859986  1.0
  N  N22  1  0.33333333  0.66666667  0.41219769  1.0
  N  N23  1  0.66666667  0.33333333  0.91219769  1.0
  N  N24  1  0.00000000  0.00000000  0.33411351  1.0
  N  N25  1  0.00000000  0.00000000  0.83411351  1.0
