# generated using pymatgen
data_YSI
_symmetry_space_group_name_H-M   'P 1'
_cell_length_a   9.00769968
_cell_length_b   9.00769968
_cell_length_c   5.23629247
_cell_angle_alpha   90.00000000
_cell_angle_beta   90.00000000
_cell_angle_gamma   120.00000000
_symmetry_Int_Tables_number   1
_chemical_formula_structural   YSI
_chemical_formula_sum   'Y4 S4 I4'
_cell_volume   367.94450689
_cell_formula_units_Z   4
loop_
 _symmetry_equiv_pos_site_id
 _symmetry_equiv_pos_as_xyz
  1  'x, y, z'
loop_
 _atom_site_type_symbol
 _atom_site_label
 _atom_site_symmetry_multiplicity
 _atom_site_fract_x
 _atom_site_fract_y
 _atom_site_fract_z
 _atom_site_occupancy
  Y  Y0  1  0.78359028  0.66249982  0.00000000  1.0
  Y  Y1  1  0.87890955  0.21640972  0.00000000  1.0
  Y  Y2  1  0.33750018  0.12109045  -0.00000000  1.0
  Y  Y3  1  0.33333333  0.66666667  0.00000000  1.0
  S  S4  1  0.55025819  0.99409611  0.00000000  1.0
  S  S5  1  0.44383792  0.44974181  0.00000000  1.0
  S  S6  1  0.00590389  0.55616208  -0.00000000  1.0
  S  S7  1  -0.00000000  -0.00000000  0.00000000  1.0
  I  I8  1  0.21459224  0.87869319  0.50000000  1.0
  I  I9  1  0.66410095  0.78540776  0.50000000  1.0
  I  I10  1  0.12130681  0.33589905  0.50000000  1.0
  I  I11  1  0.66666667  0.33333333  0.50000000  1.0
