# generated using pymatgen
data_KY(TeO3)2
_symmetry_space_group_name_H-M   'P 1'
_cell_length_a   13.70654236
_cell_length_b   6.14682143
_cell_length_c   8.91007440
_cell_angle_alpha   90.00000000
_cell_angle_beta   90.00000000
_cell_angle_gamma   90.00000000
_symmetry_Int_Tables_number   1
_chemical_formula_structural   KY(TeO3)2
_chemical_formula_sum   'K4 Y4 Te8 O24'
_cell_volume   750.68863341
_cell_formula_units_Z   4
loop_
 _symmetry_equiv_pos_site_id
 _symmetry_equiv_pos_as_xyz
  1  'x, y, z'
loop_
 _atom_site_type_symbol
 _atom_site_label
 _atom_site_symmetry_multiplicity
 _atom_site_fract_x
 _atom_site_fract_y
 _atom_site_fract_z
 _atom_site_occupancy
  K  K0  1  0.12337871  0.75000000  -0.00221385  1.0
  K  K1  1  0.62337871  0.75000000  0.50221385  1.0
  K  K2  1  0.87662129  0.25000000  1.00221385  1.0
  K  K3  1  0.37662129  0.25000000  0.49778615  1.0
  Y  Y4  1  0.40577238  0.75000000  0.79085572  1.0
  Y  Y5  1  0.90577238  0.75000000  0.70914428  1.0
  Y  Y6  1  0.59422762  0.25000000  0.20914428  1.0
  Y  Y7  1  0.09422762  0.25000000  0.29085572  1.0
  Te  Te8  1  0.42329621  0.75000000  0.21488365  1.0
  Te  Te9  1  0.92329621  0.75000000  0.28511635  1.0
  Te  Te10  1  0.57670379  0.25000000  0.78511635  1.0
  Te  Te11  1  0.07670379  0.25000000  0.71488365  1.0
  Te  Te12  1  0.19640489  0.75000000  0.50551743  1.0
  Te  Te13  1  0.69640489  0.75000000  0.99448257  1.0
  Te  Te14  1  0.80359511  0.25000000  0.49448257  1.0
  Te  Te15  1  0.30359511  0.25000000  0.00551743  1.0
  O  O16  1  0.50758093  0.49229661  0.69675115  1.0
  O  O17  1  0.50758093  0.00770339  0.69675115  1.0
  O  O18  1  0.00758093  0.49229661  0.80324885  1.0
  O  O19  1  0.00758093  0.00770339  0.80324885  1.0
  O  O20  1  0.49241907  0.99229661  0.30324885  1.0
  O  O21  1  0.49241907  0.50770339  0.30324885  1.0
  O  O22  1  0.99241907  0.99229661  0.19675115  1.0
  O  O23  1  0.99241907  0.50770339  0.19675115  1.0
  O  O24  1  0.29678264  0.49624462  0.87056300  1.0
  O  O25  1  0.29678264  0.00375538  0.87056300  1.0
  O  O26  1  0.79678264  0.49624462  0.62943700  1.0
  O  O27  1  0.79678264  0.00375538  0.62943700  1.0
  O  O28  1  0.70321736  0.99624462  0.12943700  1.0
  O  O29  1  0.70321736  0.50375538  0.12943700  1.0
  O  O30  1  0.20321736  0.99624462  0.37056300  1.0
  O  O31  1  0.20321736  0.50375538  0.37056300  1.0
  O  O32  1  0.48226462  0.75000000  0.01728278  1.0
  O  O33  1  0.98226462  0.75000000  0.48271722  1.0
  O  O34  1  0.51773538  0.25000000  0.98271722  1.0
  O  O35  1  0.01773538  0.25000000  0.51728278  1.0
  O  O36  1  0.33327543  0.75000000  0.56187731  1.0
  O  O37  1  0.83327543  0.75000000  0.93812269  1.0
  O  O38  1  0.66672457  0.25000000  0.43812269  1.0
  O  O39  1  0.16672457  0.25000000  0.06187731  1.0
