# generated using pymatgen
data_ZrReSi
_symmetry_space_group_name_H-M   'P 1'
_cell_length_a   6.99239243
_cell_length_b   6.99239243
_cell_length_c   3.43519448
_cell_angle_alpha   90.00000000
_cell_angle_beta   90.00000000
_cell_angle_gamma   120.00000000
_symmetry_Int_Tables_number   1
_chemical_formula_structural   ZrReSi
_chemical_formula_sum   'Zr3 Re3 Si3'
_cell_volume   145.45663936
_cell_formula_units_Z   3
loop_
 _symmetry_equiv_pos_site_id
 _symmetry_equiv_pos_as_xyz
  1  'x, y, z'
loop_
 _atom_site_type_symbol
 _atom_site_label
 _atom_site_symmetry_multiplicity
 _atom_site_fract_x
 _atom_site_fract_y
 _atom_site_fract_z
 _atom_site_occupancy
  Zr  Zr0  1  0.40407123  0.40407123  0.00000000  1.0
  Zr  Zr1  1  -0.00000000  0.59592877  -0.00000000  1.0
  Zr  Zr2  1  0.59592877  0.00000000  0.00000000  1.0
  Re  Re3  1  0.74571010  0.74571010  0.50000000  1.0
  Re  Re4  1  0.00000000  0.25428990  0.50000000  1.0
  Re  Re5  1  0.25428990  -0.00000000  0.50000000  1.0
  Si  Si6  1  0.33333333  0.66666667  0.50000000  1.0
  Si  Si7  1  0.66666667  0.33333333  0.50000000  1.0
  Si  Si8  1  0.00000000  0.00000000  -0.00000000  1.0
