# generated using pymatgen
data_RbClO2
_symmetry_space_group_name_H-M   'P 1'
_cell_length_a   4.67810277
_cell_length_b   4.67810277
_cell_length_c   8.03621144
_cell_angle_alpha   90.00000000
_cell_angle_beta   90.00000000
_cell_angle_gamma   93.48563212
_symmetry_Int_Tables_number   1
_chemical_formula_structural   RbClO2
_chemical_formula_sum   'Rb2 Cl2 O4'
_cell_volume   175.54429345
_cell_formula_units_Z   2
loop_
 _symmetry_equiv_pos_site_id
 _symmetry_equiv_pos_as_xyz
  1  'x, y, z'
loop_
 _atom_site_type_symbol
 _atom_site_label
 _atom_site_symmetry_multiplicity
 _atom_site_fract_x
 _atom_site_fract_y
 _atom_site_fract_z
 _atom_site_occupancy
  Rb  Rb0  1  0.00000000  0.00000000  0.50000000  1.0
  Rb  Rb1  1  0.00000000  0.00000000  0.00000000  1.0
  Cl  Cl2  1  0.45735459  0.54264541  0.25000000  1.0
  Cl  Cl3  1  -0.45735459  1.45735459  0.75000000  1.0
  O  O4  1  0.11983400  0.47387919  0.25000000  1.0
  O  O5  1  -0.52612081  1.11983400  0.75000000  1.0
  O  O6  1  0.52612081  0.88016600  0.25000000  1.0
  O  O7  1  -0.11983400  1.52612081  0.75000000  1.0
