# generated using pymatgen
data_GaAgS2
_symmetry_space_group_name_H-M   'P 1'
_cell_length_a   6.69294349
_cell_length_b   6.69294349
_cell_length_c   6.69294349
_cell_angle_alpha   128.89366968
_cell_angle_beta   128.89366968
_cell_angle_gamma   75.18172397
_symmetry_Int_Tables_number   1
_chemical_formula_structural   GaAgS2
_chemical_formula_sum   'Ga2 Ag2 S4'
_cell_volume   176.80934437
_cell_formula_units_Z   2
loop_
 _symmetry_equiv_pos_site_id
 _symmetry_equiv_pos_as_xyz
  1  'x, y, z'
loop_
 _atom_site_type_symbol
 _atom_site_label
 _atom_site_symmetry_multiplicity
 _atom_site_fract_x
 _atom_site_fract_y
 _atom_site_fract_z
 _atom_site_occupancy
  Ga  Ga0  1  0.75000000  0.25000000  0.50000000  1.0
  Ga  Ga1  1  1.00000000  1.00000000  1.00000000  1.0
  Ag  Ag2  1  0.25000000  0.75000000  0.50000000  1.0
  Ag  Ag3  1  0.50000000  0.50000000  0.00000000  1.0
  S  S4  1  1.08894093  1.12500000  1.46394093  1.0
  S  S5  1  1.37500000  0.91105907  1.03605907  1.0
  S  S6  1  0.87500000  1.33894093  0.96394093  1.0
  S  S7  1  0.66105907  0.62500000  0.53605907  1.0
