# generated using pymatgen
data_Gd2GaNi2
_symmetry_space_group_name_H-M   'P 1'
_cell_length_a   5.41176498
_cell_length_b   5.41176498
_cell_length_c   5.41176498
_cell_angle_alpha   134.19033753
_cell_angle_beta   120.23734848
_cell_angle_gamma   78.42634921
_symmetry_Int_Tables_number   1
_chemical_formula_structural   Gd2GaNi2
_chemical_formula_sum   'Gd2 Ga1 Ni2'
_cell_volume   95.24644561
_cell_formula_units_Z   1
loop_
 _symmetry_equiv_pos_site_id
 _symmetry_equiv_pos_as_xyz
  1  'x, y, z'
loop_
 _atom_site_type_symbol
 _atom_site_label
 _atom_site_symmetry_multiplicity
 _atom_site_fract_x
 _atom_site_fract_y
 _atom_site_fract_z
 _atom_site_occupancy
  Gd  Gd0  1  0.70178446  0.20178446  0.50000000  1.0
  Gd  Gd1  1  0.29821554  0.79821554  0.50000000  1.0
  Ga  Ga2  1  0.00000000  0.00000000  0.00000000  1.0
  Ni  Ni3  1  0.26658661  0.50000000  0.76658661  1.0
  Ni  Ni4  1  0.73341339  0.50000000  1.23341339  1.0
