# generated using pymatgen
data_La(BRu)4
_symmetry_space_group_name_H-M   'P 1'
_cell_length_a   7.58249274
_cell_length_b   7.58249274
_cell_length_c   4.00550094
_cell_angle_alpha   90.00000000
_cell_angle_beta   90.00000000
_cell_angle_gamma   90.00000000
_symmetry_Int_Tables_number   1
_chemical_formula_structural   La(BRu)4
_chemical_formula_sum   'La2 B8 Ru8'
_cell_volume   230.29305649
_cell_formula_units_Z   2
loop_
 _symmetry_equiv_pos_site_id
 _symmetry_equiv_pos_as_xyz
  1  'x, y, z'
loop_
 _atom_site_type_symbol
 _atom_site_label
 _atom_site_symmetry_multiplicity
 _atom_site_fract_x
 _atom_site_fract_y
 _atom_site_fract_z
 _atom_site_occupancy
  La  La0  1  0.00000000  0.00000000  0.50000000  1.0
  La  La1  1  0.50000000  0.50000000  0.00000000  1.0
  B  B2  1  0.83365263  0.28793353  0.10906633  1.0
  B  B3  1  0.16634737  0.71206647  0.10906633  1.0
  B  B4  1  0.78793353  0.66634737  0.60906633  1.0
  B  B5  1  0.21206647  0.33365263  0.60906633  1.0
  B  B6  1  0.66634737  0.21206647  0.39093367  1.0
  B  B7  1  0.33365263  0.78793353  0.39093367  1.0
  B  B8  1  0.71206647  0.83365263  0.89093367  1.0
  B  B9  1  0.28793353  0.16634737  0.89093367  1.0
  Ru  Ru10  1  0.10770365  0.35594846  0.10822455  1.0
  Ru  Ru11  1  0.89229635  0.64405154  0.10822455  1.0
  Ru  Ru12  1  0.85594846  0.39229635  0.60822455  1.0
  Ru  Ru13  1  0.14405154  0.60770365  0.60822455  1.0
  Ru  Ru14  1  0.39229635  0.14405154  0.39177545  1.0
  Ru  Ru15  1  0.60770365  0.85594846  0.39177545  1.0
  Ru  Ru16  1  0.64405154  0.10770365  0.89177545  1.0
  Ru  Ru17  1  0.35594846  0.89229635  0.89177545  1.0
