# generated using pymatgen
data_LaTaO4
_symmetry_space_group_name_H-M   'P 1'
_cell_length_a   7.76327364
_cell_length_b   5.59570784
_cell_length_c   7.86290304
_cell_angle_alpha   90.00000000
_cell_angle_beta   101.15310224
_cell_angle_gamma   90.00000000
_symmetry_Int_Tables_number   1
_chemical_formula_structural   LaTaO4
_chemical_formula_sum   'La4 Ta4 O16'
_cell_volume   335.12145698
_cell_formula_units_Z   4
loop_
 _symmetry_equiv_pos_site_id
 _symmetry_equiv_pos_as_xyz
  1  'x, y, z'
loop_
 _atom_site_type_symbol
 _atom_site_label
 _atom_site_symmetry_multiplicity
 _atom_site_fract_x
 _atom_site_fract_y
 _atom_site_fract_z
 _atom_site_occupancy
  La  La0  1  0.84727147  0.72543830  0.09945842  1.0
  La  La1  1  0.84727147  0.77456170  0.59945842  1.0
  La  La2  1  0.15272853  0.22543830  0.40054158  1.0
  La  La3  1  0.15272853  0.27456170  0.90054158  1.0
  Ta  Ta4  1  0.66594314  0.23432689  0.30532781  1.0
  Ta  Ta5  1  0.66594314  0.26567311  0.80532781  1.0
  Ta  Ta6  1  0.33405686  0.73432689  0.19467219  1.0
  Ta  Ta7  1  0.33405686  0.76567311  0.69467219  1.0
  O  O8  1  0.88090903  0.01704821  0.33078333  1.0
  O  O9  1  0.88090903  0.48295179  0.83078333  1.0
  O  O10  1  0.11909097  0.51704821  0.16921667  1.0
  O  O11  1  0.11909097  0.98295179  0.66921667  1.0
  O  O12  1  0.83318286  0.49204290  0.36452481  1.0
  O  O13  1  0.83318286  0.00795710  0.86452481  1.0
  O  O14  1  0.16681714  0.99204290  0.13547519  1.0
  O  O15  1  0.16681714  0.50795710  0.63547519  1.0
  O  O16  1  0.66859393  0.33687535  0.05275937  1.0
  O  O17  1  0.66859393  0.16312465  0.55275937  1.0
  O  O18  1  0.33140607  0.83687535  0.44724063  1.0
  O  O19  1  0.33140607  0.66312465  0.94724063  1.0
  O  O20  1  0.44828095  0.41882288  0.29065584  1.0
  O  O21  1  0.44828095  0.08117712  0.79065584  1.0
  O  O22  1  0.55171905  0.91882288  0.20934416  1.0
  O  O23  1  0.55171905  0.58117712  0.70934416  1.0
