# generated using pymatgen
data_La3Zn22
_symmetry_space_group_name_H-M   'P 1'
_cell_length_a   12.46450556
_cell_length_b   12.46450556
_cell_length_c   12.46450556
_cell_angle_alpha   137.77178322
_cell_angle_beta   137.77178322
_cell_angle_gamma   61.25270345
_symmetry_Int_Tables_number   1
_chemical_formula_structural   La3Zn22
_chemical_formula_sum   'La6 Zn44'
_cell_volume   864.95070336
_cell_formula_units_Z   2
loop_
 _symmetry_equiv_pos_site_id
 _symmetry_equiv_pos_as_xyz
  1  'x, y, z'
loop_
 _atom_site_type_symbol
 _atom_site_label
 _atom_site_symmetry_multiplicity
 _atom_site_fract_x
 _atom_site_fract_y
 _atom_site_fract_z
 _atom_site_occupancy
  La  La0  1  0.12146033  0.12146033  -0.00000000  1.0
  La  La1  1  0.87146033  1.37146033  0.50000000  1.0
  La  La2  1  0.62853967  1.12853967  0.50000000  1.0
  La  La3  1  0.87853967  0.87853967  -0.00000000  1.0
  La  La4  1  1.25000000  0.75000000  0.50000000  1.0
  La  La5  1  0.50000000  0.50000000  1.00000000  1.0
  Zn  Zn6  1  1.57114623  1.04526953  0.98873719  1.0
  Zn  Zn7  1  1.05653233  1.04526953  0.47412330  1.0
  Zn  Zn8  1  0.79526953  0.82114623  1.48873719  1.0
  Zn  Zn9  1  0.33240903  0.82114623  1.02587670  1.0
  Zn  Zn10  1  1.57114623  1.58240903  1.52587670  1.0
  Zn  Zn11  1  1.05653233  1.58240903  1.01126281  1.0
  Zn  Zn12  1  0.79526953  0.30653233  0.97412330  1.0
  Zn  Zn13  1  0.33240903  0.30653233  0.51126281  1.0
  Zn  Zn14  1  1.17885377  1.20473047  0.51126281  1.0
  Zn  Zn15  1  1.69346767  1.20473047  1.02587670  1.0
  Zn  Zn16  1  0.95473047  1.42885377  1.01126281  1.0
  Zn  Zn17  1  1.41759097  1.42885377  1.47412330  1.0
  Zn  Zn18  1  1.17885377  1.66759097  0.97412330  1.0
  Zn  Zn19  1  1.69346767  1.66759097  1.48873719  1.0
  Zn  Zn20  1  0.95473047  0.94346767  0.52587670  1.0
  Zn  Zn21  1  1.41759097  0.94346767  0.98873719  1.0
  Zn  Zn22  1  -0.00200337  0.77274139  0.77474476  1.0
  Zn  Zn23  1  1.52274139  1.24799663  1.27474476  1.0
  Zn  Zn24  1  0.97325186  1.24799663  0.72525524  1.0
  Zn  Zn25  1  -0.00200337  0.22325186  0.22525524  1.0
  Zn  Zn26  1  0.75200337  1.47725861  0.72525524  1.0
  Zn  Zn27  1  0.22725861  0.00200337  0.22525524  1.0
  Zn  Zn28  1  0.77674814  0.00200337  0.77474476  1.0
  Zn  Zn29  1  0.75200337  1.02674814  0.27474476  1.0
  Zn  Zn30  1  1.25889744  1.11237851  0.85348107  1.0
  Zn  Zn31  1  0.86237851  0.50889744  1.35348107  1.0
  Zn  Zn32  1  0.15541637  0.50889744  0.64651893  1.0
  Zn  Zn33  1  1.25889744  1.40541637  1.14651893  1.0
  Zn  Zn34  1  0.49110256  0.13762149  0.64651893  1.0
  Zn  Zn35  1  0.88762149  0.74110256  0.14651893  1.0
  Zn  Zn36  1  1.59458363  0.74110256  0.85348107  1.0
  Zn  Zn37  1  0.49110256  0.84458363  1.35348107  1.0
  Zn  Zn38  1  1.11084677  1.46051043  1.34966366  1.0
  Zn  Zn39  1  1.21051043  1.36084677  0.84966366  1.0
  Zn  Zn40  1  1.51118311  1.36084677  1.15033634  1.0
  Zn  Zn41  1  1.11084677  0.76118311  0.65033634  1.0
  Zn  Zn42  1  0.63915323  0.78948957  0.15033634  1.0
  Zn  Zn43  1  1.53948957  0.88915323  0.65033634  1.0
  Zn  Zn44  1  1.23881689  0.88915323  0.34966366  1.0
  Zn  Zn45  1  0.63915323  1.48881689  0.84966366  1.0
  Zn  Zn46  1  1.37500000  1.12500000  0.75000000  1.0
  Zn  Zn47  1  0.87500000  0.62500000  0.25000000  1.0
  Zn  Zn48  1  1.37500000  0.62500000  0.75000000  1.0
  Zn  Zn49  1  1.37500000  1.62500000  1.25000000  1.0
