# generated using pymatgen
data_HfSb
_symmetry_space_group_name_H-M   'P 1'
_cell_length_a   5.63029257
_cell_length_b   5.63029257
_cell_length_c   5.63029257
_cell_angle_alpha   90.00000000
_cell_angle_beta   90.00000000
_cell_angle_gamma   90.00000000
_symmetry_Int_Tables_number   1
_chemical_formula_structural   HfSb
_chemical_formula_sum   'Hf4 Sb4'
_cell_volume   178.48136897
_cell_formula_units_Z   4
loop_
 _symmetry_equiv_pos_site_id
 _symmetry_equiv_pos_as_xyz
  1  'x, y, z'
loop_
 _atom_site_type_symbol
 _atom_site_label
 _atom_site_symmetry_multiplicity
 _atom_site_fract_x
 _atom_site_fract_y
 _atom_site_fract_z
 _atom_site_occupancy
  Hf  Hf0  1  0.10574056  0.60574056  0.89425944  1.0
  Hf  Hf1  1  0.60574056  0.89425944  0.10574056  1.0
  Hf  Hf2  1  0.89425944  0.10574056  0.60574056  1.0
  Hf  Hf3  1  0.39425944  0.39425944  0.39425944  1.0
  Sb  Sb4  1  0.40644535  0.90644535  0.59355465  1.0
  Sb  Sb5  1  0.90644535  0.59355465  0.40644535  1.0
  Sb  Sb6  1  0.59355465  0.40644535  0.90644535  1.0
  Sb  Sb7  1  0.09355465  0.09355465  0.09355465  1.0
