# generated using pymatgen
data_ReF6
_symmetry_space_group_name_H-M   'P 1'
_cell_length_a   10.24765948
_cell_length_b   9.29423296
_cell_length_c   5.41355741
_cell_angle_alpha   90.00000000
_cell_angle_beta   90.00000000
_cell_angle_gamma   90.00000000
_symmetry_Int_Tables_number   1
_chemical_formula_structural   ReF6
_chemical_formula_sum   'Re4 F24'
_cell_volume   515.60958973
_cell_formula_units_Z   4
loop_
 _symmetry_equiv_pos_site_id
 _symmetry_equiv_pos_as_xyz
  1  'x, y, z'
loop_
 _atom_site_type_symbol
 _atom_site_label
 _atom_site_symmetry_multiplicity
 _atom_site_fract_x
 _atom_site_fract_y
 _atom_site_fract_z
 _atom_site_occupancy
  Re  Re0  1  0.86944362  0.25000000  0.42002029  1.0
  Re  Re1  1  0.36944362  0.25000000  0.07997971  1.0
  Re  Re2  1  0.13055638  0.75000000  0.57997971  1.0
  Re  Re3  1  0.63055638  0.75000000  0.92002029  1.0
  F  F4  1  0.97553557  0.25000000  0.69864333  1.0
  F  F5  1  0.47553557  0.25000000  0.80135667  1.0
  F  F6  1  0.02446443  0.75000000  0.30135667  1.0
  F  F7  1  0.52446443  0.75000000  0.19864333  1.0
  F  F8  1  0.97345205  0.39132811  0.27799184  1.0
  F  F9  1  0.97345205  0.10867189  0.27799184  1.0
  F  F10  1  0.47345205  0.39132811  0.22200816  1.0
  F  F11  1  0.47345205  0.10867189  0.22200816  1.0
  F  F12  1  0.02654795  0.89132811  0.72200816  1.0
  F  F13  1  0.02654795  0.60867189  0.72200816  1.0
  F  F14  1  0.52654795  0.89132811  0.77799184  1.0
  F  F15  1  0.52654795  0.60867189  0.77799184  1.0
  F  F16  1  0.76317312  0.25000000  0.14129365  1.0
  F  F17  1  0.26317312  0.25000000  0.35870635  1.0
  F  F18  1  0.23682688  0.75000000  0.85870635  1.0
  F  F19  1  0.73682688  0.75000000  0.64129365  1.0
  F  F20  1  0.76563076  0.39157370  0.56153034  1.0
  F  F21  1  0.76563076  0.10842630  0.56153034  1.0
  F  F22  1  0.26563076  0.39157370  0.93846966  1.0
  F  F23  1  0.26563076  0.10842630  0.93846966  1.0
  F  F24  1  0.23436924  0.89157370  0.43846966  1.0
  F  F25  1  0.23436924  0.60842630  0.43846966  1.0
  F  F26  1  0.73436924  0.89157370  0.06153034  1.0
  F  F27  1  0.73436924  0.60842630  0.06153034  1.0
