# generated using pymatgen
data_Y3Te3N
_symmetry_space_group_name_H-M   'P 1'
_cell_length_a   8.12778346
_cell_length_b   12.01542451
_cell_length_c   8.66015735
_cell_angle_alpha   90.00000000
_cell_angle_beta   109.01374449
_cell_angle_gamma   90.00000000
_symmetry_Int_Tables_number   1
_chemical_formula_structural   Y3Te3N
_chemical_formula_sum   'Y12 Te12 N4'
_cell_volume   799.59709166
_cell_formula_units_Z   4
loop_
 _symmetry_equiv_pos_site_id
 _symmetry_equiv_pos_as_xyz
  1  'x, y, z'
loop_
 _atom_site_type_symbol
 _atom_site_label
 _atom_site_symmetry_multiplicity
 _atom_site_fract_x
 _atom_site_fract_y
 _atom_site_fract_z
 _atom_site_occupancy
  Y  Y0  1  0.89921125  0.47742559  0.13832006  1.0
  Y  Y1  1  0.89921125  0.02257441  0.63832006  1.0
  Y  Y2  1  0.10078875  0.97742559  0.36167994  1.0
  Y  Y3  1  0.10078875  0.52257441  0.86167994  1.0
  Y  Y4  1  0.73314318  0.79128551  0.34579770  1.0
  Y  Y5  1  0.73314318  0.70871449  0.84579770  1.0
  Y  Y6  1  0.26685682  0.29128551  0.15420230  1.0
  Y  Y7  1  0.26685682  0.20871449  0.65420230  1.0
  Y  Y8  1  0.65996651  0.08743591  0.20514766  1.0
  Y  Y9  1  0.65996651  0.41256409  0.70514766  1.0
  Y  Y10  1  0.34003349  0.58743591  0.29485234  1.0
  Y  Y11  1  0.34003349  0.91256409  0.79485234  1.0
  Te  Te12  1  0.99122361  0.23400882  0.31201595  1.0
  Te  Te13  1  0.99122361  0.26599118  0.81201595  1.0
  Te  Te14  1  0.00877639  0.73400882  0.18798405  1.0
  Te  Te15  1  0.00877639  0.76599118  0.68798405  1.0
  Te  Te16  1  0.72532772  0.97786074  0.91492514  1.0
  Te  Te17  1  0.72532772  0.52213926  0.41492514  1.0
  Te  Te18  1  0.27467228  0.47786074  0.58507486  1.0
  Te  Te19  1  0.27467228  0.02213926  0.08507486  1.0
  Te  Te20  1  0.54769071  0.19316513  0.48333445  1.0
  Te  Te21  1  0.54769071  0.30683487  0.98333445  1.0
  Te  Te22  1  0.45230929  0.69316513  0.01666555  1.0
  Te  Te23  1  0.45230929  0.80683487  0.51666555  1.0
  N  N24  1  0.82643668  0.96525557  0.37693881  1.0
  N  N25  1  0.82643668  0.53474443  0.87693881  1.0
  N  N26  1  0.17356332  0.46525557  0.12306119  1.0
  N  N27  1  0.17356332  0.03474443  0.62306119  1.0
