# generated using pymatgen
data_Sr5Mn5O13
_symmetry_space_group_name_H-M   'P 1'
_cell_length_a   8.69885374
_cell_length_b   8.69885374
_cell_length_c   3.83233235
_cell_angle_alpha   90.00000000
_cell_angle_beta   90.00000000
_cell_angle_gamma   90.00000000
_symmetry_Int_Tables_number   1
_chemical_formula_structural   Sr5Mn5O13
_chemical_formula_sum   'Sr5 Mn5 O13'
_cell_volume   289.99280501
_cell_formula_units_Z   1
loop_
 _symmetry_equiv_pos_site_id
 _symmetry_equiv_pos_as_xyz
  1  'x, y, z'
loop_
 _atom_site_type_symbol
 _atom_site_label
 _atom_site_symmetry_multiplicity
 _atom_site_fract_x
 _atom_site_fract_y
 _atom_site_fract_z
 _atom_site_occupancy
  Mn  Mn0  1  0.79964592  0.60098242  0.00000000  1.0
  Mn  Mn1  1  0.60098242  0.20035408  0.00000000  1.0
  Mn  Mn2  1  0.20035408  0.39901758  0.00000000  1.0
  Mn  Mn3  1  0.39901758  0.79964592  0.00000000  1.0
  Mn  Mn4  1  0.00000000  0.00000000  0.00000000  1.0
  O  O5  1  0.83359016  0.58379080  0.50000000  1.0
  O  O6  1  0.58379080  0.16640984  0.50000000  1.0
  O  O7  1  0.16640984  0.41620920  0.50000000  1.0
  O  O8  1  0.41620920  0.83359016  0.50000000  1.0
  O  O9  1  0.92403891  0.78759811  0.00000000  1.0
  O  O10  1  0.78759811  0.07596109  0.00000000  1.0
  O  O11  1  0.07596109  0.21240189  0.00000000  1.0
  O  O12  1  0.21240189  0.92403891  0.00000000  1.0
  O  O13  1  0.00000000  0.00000000  0.50000000  1.0
  O  O14  1  0.59936262  0.70986507  0.00000000  1.0
  O  O15  1  0.70986507  0.40063738  0.00000000  1.0
  O  O16  1  0.40063738  0.29013493  0.00000000  1.0
  O  O17  1  0.29013493  0.59936262  0.00000000  1.0
  Sr  Sr18  1  0.71698566  0.88952962  0.50000000  1.0
  Sr  Sr19  1  0.88952962  0.28301434  0.50000000  1.0
  Sr  Sr20  1  0.28301434  0.11047038  0.50000000  1.0
  Sr  Sr21  1  0.11047038  0.71698566  0.50000000  1.0
  Sr  Sr22  1  0.50000000  0.50000000  0.50000000  1.0
