# generated using pymatgen
data_KBaPSe4
_symmetry_space_group_name_H-M   'P 1'
_cell_length_a   12.74073544
_cell_length_b   7.10544126
_cell_length_c   10.24505696
_cell_angle_alpha   90.00000000
_cell_angle_beta   90.00000000
_cell_angle_gamma   90.00000000
_symmetry_Int_Tables_number   1
_chemical_formula_structural   KBaPSe4
_chemical_formula_sum   'K4 Ba4 P4 Se16'
_cell_volume   927.47012452
_cell_formula_units_Z   4
loop_
 _symmetry_equiv_pos_site_id
 _symmetry_equiv_pos_as_xyz
  1  'x, y, z'
loop_
 _atom_site_type_symbol
 _atom_site_label
 _atom_site_symmetry_multiplicity
 _atom_site_fract_x
 _atom_site_fract_y
 _atom_site_fract_z
 _atom_site_occupancy
  K  K0  1  0.12936294  0.75000000  0.16333955  1.0
  K  K1  1  0.62936294  0.75000000  0.33666045  1.0
  K  K2  1  0.87063706  0.25000000  0.83666045  1.0
  K  K3  1  0.37063706  0.25000000  0.66333955  1.0
  Ba  Ba4  1  0.14183532  0.75000000  0.61891617  1.0
  Ba  Ba5  1  0.64183532  0.75000000  0.88108383  1.0
  Ba  Ba6  1  0.85816468  0.25000000  0.38108383  1.0
  Ba  Ba7  1  0.35816468  0.25000000  0.11891617  1.0
  P  P8  1  0.32820310  0.75000000  0.89409904  1.0
  P  P9  1  0.82820310  0.75000000  0.60590096  1.0
  P  P10  1  0.67179690  0.25000000  0.10590096  1.0
  P  P11  1  0.17179690  0.25000000  0.39409904  1.0
  Se  Se12  1  0.22473994  0.00190136  0.89202189  1.0
  Se  Se13  1  0.22473994  0.49809864  0.89202189  1.0
  Se  Se14  1  0.72473994  0.00190136  0.60797811  1.0
  Se  Se15  1  0.72473994  0.49809864  0.60797811  1.0
  Se  Se16  1  0.77526006  0.50190136  0.10797811  1.0
  Se  Se17  1  0.77526006  0.99809864  0.10797811  1.0
  Se  Se18  1  0.27526006  0.50190136  0.39202189  1.0
  Se  Se19  1  0.27526006  0.99809864  0.39202189  1.0
  Se  Se20  1  0.42132218  0.75000000  0.71061071  1.0
  Se  Se21  1  0.92132218  0.75000000  0.78938929  1.0
  Se  Se22  1  0.57867782  0.25000000  0.28938929  1.0
  Se  Se23  1  0.07867782  0.25000000  0.21061071  1.0
  Se  Se24  1  0.42471406  0.75000000  0.07591179  1.0
  Se  Se25  1  0.92471406  0.75000000  0.42408821  1.0
  Se  Se26  1  0.57528594  0.25000000  0.92408821  1.0
  Se  Se27  1  0.07528594  0.25000000  0.57591179  1.0
