# generated using pymatgen
data_Sn4P3
_symmetry_space_group_name_H-M   'P 1'
_cell_length_a   12.23134375
_cell_length_b   12.23134375
_cell_length_c   12.23134375
_cell_angle_alpha   18.88118191
_cell_angle_beta   18.88118191
_cell_angle_gamma   18.88118191
_symmetry_Int_Tables_number   1
_chemical_formula_structural   Sn4P3
_chemical_formula_sum   'Sn4 P3'
_cell_volume   167.45563248
_cell_formula_units_Z   1
loop_
 _symmetry_equiv_pos_site_id
 _symmetry_equiv_pos_as_xyz
  1  'x, y, z'
loop_
 _atom_site_type_symbol
 _atom_site_label
 _atom_site_symmetry_multiplicity
 _atom_site_fract_x
 _atom_site_fract_y
 _atom_site_fract_z
 _atom_site_occupancy
  Sn  Sn0  1  0.86701314  0.86701314  0.86701314  1.0
  Sn  Sn1  1  1.13298686  1.13298686  0.13298686  1.0
  Sn  Sn2  1  0.71011762  0.71011762  0.71011762  1.0
  Sn  Sn3  1  1.28988238  1.28988238  0.28988238  1.0
  P  P4  1  1.57143730  0.57143730  0.57143730  1.0
  P  P5  1  1.42856270  0.42856270  0.42856270  1.0
  P  P6  1  0.00000000  0.00000000  -0.00000000  1.0
