# generated using pymatgen
data_KBiP2S7
_symmetry_space_group_name_H-M   'P 1'
_cell_length_a   9.73778426
_cell_length_b   12.83833982
_cell_length_c   9.27618715
_cell_angle_alpha   90.00000000
_cell_angle_beta   90.62370075
_cell_angle_gamma   90.00000000
_symmetry_Int_Tables_number   1
_chemical_formula_structural   KBiP2S7
_chemical_formula_sum   'K4 Bi4 P8 S28'
_cell_volume   1159.61222596
_cell_formula_units_Z   4
loop_
 _symmetry_equiv_pos_site_id
 _symmetry_equiv_pos_as_xyz
  1  'x, y, z'
loop_
 _atom_site_type_symbol
 _atom_site_label
 _atom_site_symmetry_multiplicity
 _atom_site_fract_x
 _atom_site_fract_y
 _atom_site_fract_z
 _atom_site_occupancy
  K  K0  1  0.38735855  0.68531999  0.87442128  1.0
  K  K1  1  0.38735855  0.81468001  0.37442128  1.0
  K  K2  1  0.61264145  0.18531999  0.62557872  1.0
  K  K3  1  0.61264145  0.31468001  0.12557872  1.0
  Bi  Bi4  1  0.84787341  0.86206972  0.63320656  1.0
  Bi  Bi5  1  0.84787341  0.63793028  0.13320656  1.0
  Bi  Bi6  1  0.15212659  0.36206972  0.86679344  1.0
  Bi  Bi7  1  0.15212659  0.13793028  0.36679344  1.0
  P  P8  1  0.82105796  0.46690021  0.80302728  1.0
  P  P9  1  0.82105796  0.03309979  0.30302728  1.0
  P  P10  1  0.17894204  0.96690021  0.69697272  1.0
  P  P11  1  0.17894204  0.53309979  0.19697272  1.0
  P  P12  1  0.72600771  0.89044624  0.98586117  1.0
  P  P13  1  0.72600771  0.60955376  0.48586117  1.0
  P  P14  1  0.27399229  0.39044624  0.51413883  1.0
  P  P15  1  0.27399229  0.10955376  0.01413883  1.0
  S  S16  1  1.00078894  0.54852166  0.81394318  1.0
  S  S17  1  1.00078894  0.95147834  0.31394318  1.0
  S  S18  1  -0.00078894  0.04852166  0.68605682  1.0
  S  S19  1  -0.00078894  0.45147834  0.18605682  1.0
  S  S20  1  0.91015234  0.82443934  0.93516424  1.0
  S  S21  1  0.91015234  0.67556066  0.43516424  1.0
  S  S22  1  0.08984766  0.32443934  0.56483576  1.0
  S  S23  1  0.08984766  0.17556066  0.06483576  1.0
  S  S24  1  0.84289362  0.31264760  0.84477565  1.0
  S  S25  1  0.84289362  0.18735240  0.34477565  1.0
  S  S26  1  0.15710638  0.81264760  0.65522435  1.0
  S  S27  1  0.15710638  0.68735240  0.15522435  1.0
  S  S28  1  0.74556039  0.45897383  0.58484791  1.0
  S  S29  1  0.74556039  0.04102617  0.08484791  1.0
  S  S30  1  0.25443961  0.95897383  0.91515209  1.0
  S  S31  1  0.25443961  0.54102617  0.41515209  1.0
  S  S32  1  0.67586218  0.53369249  0.93225521  1.0
  S  S33  1  0.67586218  0.96630751  0.43225521  1.0
  S  S34  1  0.32413782  0.03369249  0.56774479  1.0
  S  S35  1  0.32413782  0.46630751  0.06774479  1.0
  S  S36  1  0.63182387  0.94075837  0.79911357  1.0
  S  S37  1  0.63182387  0.55924163  0.29911357  1.0
  S  S38  1  0.36817613  0.44075837  0.70088643  1.0
  S  S39  1  0.36817613  0.05924163  0.20088643  1.0
  S  S40  1  0.62066869  0.71124578  0.61109863  1.0
  S  S41  1  0.62066869  0.78875422  0.11109863  1.0
  S  S42  1  0.37933131  0.21124578  0.88890137  1.0
  S  S43  1  0.37933131  0.28875422  0.38890137  1.0
