# generated using pymatgen
data_SrAlH5
_symmetry_space_group_name_H-M   'P 1'
_cell_length_a   4.50491760
_cell_length_b   5.21214903
_cell_length_c   12.67587817
_cell_angle_alpha   90.00000000
_cell_angle_beta   90.00000000
_cell_angle_gamma   90.00000000
_symmetry_Int_Tables_number   1
_chemical_formula_structural   SrAlH5
_chemical_formula_sum   'Sr4 Al4 H20'
_cell_volume   297.63344686
_cell_formula_units_Z   4
loop_
 _symmetry_equiv_pos_site_id
 _symmetry_equiv_pos_as_xyz
  1  'x, y, z'
loop_
 _atom_site_type_symbol
 _atom_site_label
 _atom_site_symmetry_multiplicity
 _atom_site_fract_x
 _atom_site_fract_y
 _atom_site_fract_z
 _atom_site_occupancy
  Sr  Sr0  1  0.28715090  0.14330137  0.65819161  1.0
  Sr  Sr1  1  0.78715090  0.35669863  0.34180839  1.0
  Sr  Sr2  1  0.21284910  0.85669863  0.15819161  1.0
  Sr  Sr3  1  0.71284910  0.64330137  0.84180839  1.0
  Al  Al4  1  0.32153045  0.13024946  0.91485372  1.0
  Al  Al5  1  0.82153045  0.36975054  0.08514628  1.0
  Al  Al6  1  0.17846955  0.86975054  0.41485372  1.0
  Al  Al7  1  0.67846955  0.63024946  0.58514628  1.0
  H  H8  1  0.52466286  0.39145657  0.51275797  1.0
  H  H9  1  0.02466286  0.10854343  0.48724203  1.0
  H  H10  1  0.97533714  0.60854343  0.01275797  1.0
  H  H11  1  0.47533714  0.89145657  0.98724203  1.0
  H  H12  1  0.16687211  0.90984932  0.82903759  1.0
  H  H13  1  0.66687211  0.59015068  0.17096241  1.0
  H  H14  1  0.33312789  0.09015068  0.32903759  1.0
  H  H15  1  0.83312789  0.40984932  0.67096241  1.0
  H  H16  1  0.19365971  0.38607765  0.84222103  1.0
  H  H17  1  0.69365971  0.11392235  0.15777897  1.0
  H  H18  1  0.30634029  0.61392235  0.34222103  1.0
  H  H19  1  0.80634029  0.88607765  0.65777897  1.0
  H  H20  1  0.62270977  0.13250001  0.82770709  1.0
  H  H21  1  0.12270977  0.36749999  0.17229291  1.0
  H  H22  1  0.87729023  0.86749999  0.32770709  1.0
  H  H23  1  0.37729023  0.63250001  0.67229291  1.0
  H  H24  1  0.02076280  0.13495910  0.00548422  1.0
  H  H25  1  0.52076280  0.36504090  0.99451578  1.0
  H  H26  1  0.47923720  0.86504090  0.50548422  1.0
  H  H27  1  0.97923720  0.63495910  0.49451578  1.0
