# generated using pymatgen
data_SrLi2Ta2O7
_symmetry_space_group_name_H-M   'P 1'
_cell_length_a   9.65909098
_cell_length_b   9.65909098
_cell_length_c   9.65909098
_cell_angle_alpha   156.24978456
_cell_angle_beta   156.24978456
_cell_angle_gamma   33.83752750
_symmetry_Int_Tables_number   1
_chemical_formula_structural   SrLi2Ta2O7
_chemical_formula_sum   'Sr1 Li2 Ta2 O7'
_cell_volume   146.03440144
_cell_formula_units_Z   1
loop_
 _symmetry_equiv_pos_site_id
 _symmetry_equiv_pos_as_xyz
  1  'x, y, z'
loop_
 _atom_site_type_symbol
 _atom_site_label
 _atom_site_symmetry_multiplicity
 _atom_site_fract_x
 _atom_site_fract_y
 _atom_site_fract_z
 _atom_site_occupancy
  Sr  Sr0  1  0.50000000  0.50000000  1.00000000  1.0
  Li  Li1  1  0.25000000  0.75000000  0.50000000  1.0
  Li  Li2  1  0.75000000  0.25000000  0.50000000  1.0
  Ta  Ta3  1  0.88579596  0.88579596  1.00000000  1.0
  Ta  Ta4  1  0.11420404  0.11420404  0.00000000  1.0
  O  O5  1  0.39622942  0.89622942  0.50000000  1.0
  O  O6  1  0.60377058  0.10377058  0.50000000  1.0
  O  O7  1  0.89622942  0.39622942  0.50000000  1.0
  O  O8  1  0.10377058  0.60377058  0.50000000  1.0
  O  O9  1  0.78336614  0.78336614  1.00000000  1.0
  O  O10  1  0.21663386  0.21663386  0.00000000  1.0
  O  O11  1  0.00000000  0.00000000  0.00000000  1.0
