# generated using pymatgen
data_CsCr5Te8
_symmetry_space_group_name_H-M   'P 1'
_cell_length_a   10.53083564
_cell_length_b   10.53083564
_cell_length_c   9.75387271
_cell_angle_alpha   75.82962240
_cell_angle_beta   104.17037760
_cell_angle_gamma   157.91044212
_symmetry_Int_Tables_number   1
_chemical_formula_structural   CsCr5Te8
_chemical_formula_sum   'Cs1 Cr5 Te8'
_cell_volume   393.91870105
_cell_formula_units_Z   1
loop_
 _symmetry_equiv_pos_site_id
 _symmetry_equiv_pos_as_xyz
  1  'x, y, z'
loop_
 _atom_site_type_symbol
 _atom_site_label
 _atom_site_symmetry_multiplicity
 _atom_site_fract_x
 _atom_site_fract_y
 _atom_site_fract_z
 _atom_site_occupancy
  Cs  Cs0  1  0.50000000  0.50000000  0.00000000  1.0
  Cr  Cr1  1  0.70438086  -0.70438086  0.82927147  1.0
  Cr  Cr2  1  1.29561914  -0.29561914  0.17072853  1.0
  Cr  Cr3  1  0.65987319  -0.65987319  0.48692619  1.0
  Cr  Cr4  1  1.34012681  -0.34012681  0.51307381  1.0
  Cr  Cr5  1  -0.00000000  0.00000000  0.50000000  1.0
  Te  Te6  1  0.91055869  -0.91055869  0.66571305  1.0
  Te  Te7  1  1.08944131  -0.08944131  0.33428695  1.0
  Te  Te8  1  0.82771043  -0.82771043  1.01087239  1.0
  Te  Te9  1  1.17228957  -0.17228957  -0.01087239  1.0
  Te  Te10  1  0.76021203  -0.76021203  0.34264408  1.0
  Te  Te11  1  1.23978797  -0.23978797  0.65735592  1.0
  Te  Te12  1  0.57349804  -0.57349804  0.65787414  1.0
  Te  Te13  1  1.42650196  -0.42650196  0.34212586  1.0
