# generated using pymatgen
data_Sr2InI5
_symmetry_space_group_name_H-M   'P 1'
_cell_length_a   10.04342646
_cell_length_b   10.04342646
_cell_length_c   10.04342646
_cell_angle_alpha   125.47942488
_cell_angle_beta   125.47942488
_cell_angle_gamma   80.74543909
_symmetry_Int_Tables_number   1
_chemical_formula_structural   Sr2InI5
_chemical_formula_sum   'Sr4 In2 I10'
_cell_volume   647.69106335
_cell_formula_units_Z   2
loop_
 _symmetry_equiv_pos_site_id
 _symmetry_equiv_pos_as_xyz
  1  'x, y, z'
loop_
 _atom_site_type_symbol
 _atom_site_label
 _atom_site_symmetry_multiplicity
 _atom_site_fract_x
 _atom_site_fract_y
 _atom_site_fract_z
 _atom_site_occupancy
  Sr  Sr0  1  0.65586398  0.15586398  0.81172797  1.0
  Sr  Sr1  1  0.34413602  0.84413602  1.18827203  1.0
  Sr  Sr2  1  0.15586398  0.34413602  0.50000000  1.0
  Sr  Sr3  1  0.84413602  0.65586398  1.50000000  1.0
  In  In4  1  0.25000000  0.25000000  -0.00000000  1.0
  In  In5  1  0.75000000  0.75000000  1.00000000  1.0
  I  I6  1  0.50000000  0.50000000  1.00000000  1.0
  I  I7  1  0.00000000  0.00000000  -0.00000000  1.0
  I  I8  1  0.28847533  0.78847533  0.80119986  1.0
  I  I9  1  0.98727547  0.48727547  1.19880014  1.0
  I  I10  1  0.78847533  0.98727547  1.50000000  1.0
  I  I11  1  0.48727547  0.28847533  0.50000000  1.0
  I  I12  1  0.71152467  1.21152467  1.19880014  1.0
  I  I13  1  1.01272453  0.51272453  0.80119986  1.0
  I  I14  1  1.21152467  1.01272453  1.50000000  1.0
  I  I15  1  0.51272453  0.71152467  0.50000000  1.0
