# generated using pymatgen
data_NaSbO3
_symmetry_space_group_name_H-M   'P 1'
_cell_length_a   6.26007272
_cell_length_b   6.26007272
_cell_length_c   6.26007272
_cell_angle_alpha   51.11338119
_cell_angle_beta   51.11338119
_cell_angle_gamma   51.11338119
_symmetry_Int_Tables_number   1
_chemical_formula_structural   NaSbO3
_chemical_formula_sum   'Na2 Sb2 O6'
_cell_volume   137.13988429
_cell_formula_units_Z   2
loop_
 _symmetry_equiv_pos_site_id
 _symmetry_equiv_pos_as_xyz
  1  'x, y, z'
loop_
 _atom_site_type_symbol
 _atom_site_label
 _atom_site_symmetry_multiplicity
 _atom_site_fract_x
 _atom_site_fract_y
 _atom_site_fract_z
 _atom_site_occupancy
  Na  Na0  1  0.36210727  0.36210727  -0.63789273  1.0
  Na  Na1  1  0.63789273  0.63789273  -0.36210727  1.0
  Sb  Sb2  1  0.16099059  0.16099059  0.16099059  1.0
  Sb  Sb3  1  0.83900941  -0.16099059  -0.16099059  1.0
  O  O4  1  0.43978815  0.04052848  -0.19096761  1.0
  O  O5  1  1.19096761  -0.43978815  -0.04052848  1.0
  O  O6  1  0.95947152  0.19096761  -0.43978815  1.0
  O  O7  1  0.56021185  -0.04052848  0.19096761  1.0
  O  O8  1  0.80903239  -0.56021185  0.04052848  1.0
  O  O9  1  1.04052848  -0.19096761  -0.56021185  1.0
