# generated using pymatgen
data_CuSnPd2
_symmetry_space_group_name_H-M   'P 1'
_cell_length_a   3.94552077
_cell_length_b   12.16158749
_cell_length_c   15.86025974
_cell_angle_alpha   90.00000000
_cell_angle_beta   90.00000000
_cell_angle_gamma   90.00000000
_symmetry_Int_Tables_number   1
_chemical_formula_structural   CuSnPd2
_chemical_formula_sum   'Cu12 Sn12 Pd24'
_cell_volume   761.03546886
_cell_formula_units_Z   12
loop_
 _symmetry_equiv_pos_site_id
 _symmetry_equiv_pos_as_xyz
  1  'x, y, z'
loop_
 _atom_site_type_symbol
 _atom_site_label
 _atom_site_symmetry_multiplicity
 _atom_site_fract_x
 _atom_site_fract_y
 _atom_site_fract_z
 _atom_site_occupancy
  Cu  Cu0  1  0.00000000  0.83223609  0.87479304  1.0
  Cu  Cu1  1  0.00000000  0.83223609  0.12520696  1.0
  Cu  Cu2  1  0.00000000  0.16776391  0.87479304  1.0
  Cu  Cu3  1  0.00000000  0.16776391  0.12520696  1.0
  Cu  Cu4  1  0.50000000  0.50000000  0.75254517  1.0
  Cu  Cu5  1  0.50000000  0.50000000  0.24745483  1.0
  Cu  Cu6  1  0.50000000  0.00000000  0.62388889  1.0
  Cu  Cu7  1  0.50000000  0.00000000  0.37611111  1.0
  Cu  Cu8  1  0.50000000  0.83769970  0.50000000  1.0
  Cu  Cu9  1  0.50000000  0.16230030  0.50000000  1.0
  Cu  Cu10  1  0.50000000  0.50000000  0.50000000  1.0
  Cu  Cu11  1  0.50000000  0.50000000  0.00000000  1.0
  Sn  Sn12  1  0.00000000  0.67068491  0.74853658  1.0
  Sn  Sn13  1  0.00000000  0.67068491  0.25146342  1.0
  Sn  Sn14  1  0.00000000  0.32931509  0.74853658  1.0
  Sn  Sn15  1  0.00000000  0.32931509  0.25146342  1.0
  Sn  Sn16  1  0.00000000  0.00000000  0.74895073  1.0
  Sn  Sn17  1  0.00000000  0.00000000  0.25104927  1.0
  Sn  Sn18  1  0.00000000  0.66539414  0.50000000  1.0
  Sn  Sn19  1  0.00000000  0.33460586  0.50000000  1.0
  Sn  Sn20  1  0.00000000  0.66522751  -0.00000000  1.0
  Sn  Sn21  1  0.00000000  0.33477249  -0.00000000  1.0
  Sn  Sn22  1  0.00000000  0.00000000  0.50000000  1.0
  Sn  Sn23  1  0.00000000  0.00000000  0.00000000  1.0
  Pd  Pd24  1  0.50000000  0.83679453  0.75056232  1.0
  Pd  Pd25  1  0.50000000  0.83679453  0.24943768  1.0
  Pd  Pd26  1  0.50000000  0.16320547  0.75056232  1.0
  Pd  Pd27  1  0.50000000  0.16320547  0.24943768  1.0
  Pd  Pd28  1  0.50000000  0.66673702  0.87597594  1.0
  Pd  Pd29  1  0.50000000  0.66673702  0.12402406  1.0
  Pd  Pd30  1  0.50000000  0.33326298  0.87597594  1.0
  Pd  Pd31  1  0.50000000  0.33326298  0.12402406  1.0
  Pd  Pd32  1  0.50000000  0.66547935  0.62278758  1.0
  Pd  Pd33  1  0.50000000  0.66547935  0.37721242  1.0
  Pd  Pd34  1  0.50000000  0.33452065  0.62278758  1.0
  Pd  Pd35  1  0.50000000  0.33452065  0.37721242  1.0
  Pd  Pd36  1  0.00000000  0.83953546  0.61687313  1.0
  Pd  Pd37  1  0.00000000  0.83953546  0.38312687  1.0
  Pd  Pd38  1  0.00000000  0.16046454  0.61687313  1.0
  Pd  Pd39  1  0.00000000  0.16046454  0.38312687  1.0
  Pd  Pd40  1  0.50000000  0.00000000  0.87550544  1.0
  Pd  Pd41  1  0.50000000  0.00000000  0.12449456  1.0
  Pd  Pd42  1  0.00000000  0.50000000  0.87262236  1.0
  Pd  Pd43  1  0.00000000  0.50000000  0.12737764  1.0
  Pd  Pd44  1  0.00000000  0.50000000  0.62800591  1.0
  Pd  Pd45  1  0.00000000  0.50000000  0.37199409  1.0
  Pd  Pd46  1  0.50000000  0.83513482  0.00000000  1.0
  Pd  Pd47  1  0.50000000  0.16486518  0.00000000  1.0
