# generated using pymatgen
data_NaH4CSNO2
_symmetry_space_group_name_H-M   'P 1'
_cell_length_a   9.10268611
_cell_length_b   9.10268611
_cell_length_c   6.81375409
_cell_angle_alpha   78.24177478
_cell_angle_beta   101.75822522
_cell_angle_gamma   83.41543130
_symmetry_Int_Tables_number   1
_chemical_formula_structural   NaH4CSNO2
_chemical_formula_sum   'Na4 H16 C4 S4 N4 O8'
_cell_volume   533.90077906
_cell_formula_units_Z   4
loop_
 _symmetry_equiv_pos_site_id
 _symmetry_equiv_pos_as_xyz
  1  'x, y, z'
loop_
 _atom_site_type_symbol
 _atom_site_label
 _atom_site_symmetry_multiplicity
 _atom_site_fract_x
 _atom_site_fract_y
 _atom_site_fract_z
 _atom_site_occupancy
  Na  Na0  1  0.79554592  -0.20445408  0.25000000  1.0
  Na  Na1  1  1.20445408  0.20445408  0.75000000  1.0
  Na  Na2  1  1.06810091  0.06810091  0.25000000  1.0
  Na  Na3  1  0.93189909  -0.06810091  0.75000000  1.0
  H  H4  1  0.73125018  -0.53272162  0.31069422  1.0
  H  H5  1  1.53272162  0.26874982  0.81069422  1.0
  H  H6  1  0.46727838  -0.26874982  0.18930578  1.0
  H  H7  1  1.26874982  0.53272162  0.68930578  1.0
  H  H8  1  0.78424624  -0.50241176  0.10824360  1.0
  H  H9  1  1.50241176  0.21575376  0.60824360  1.0
  H  H10  1  0.49758824  -0.21575376  0.39175640  1.0
  H  H11  1  1.21575376  0.50241176  0.89175640  1.0
  H  H12  1  0.98357586  -0.62851810  0.34869231  1.0
  H  H13  1  1.62851810  0.01642414  0.84869231  1.0
  H  H14  1  0.37148190  -0.01642414  0.15130769  1.0
  H  H15  1  1.01642414  0.62851810  0.65130769  1.0
  H  H16  1  1.14688571  0.37336372  0.32126838  1.0
  H  H17  1  0.62663628  -0.14688571  0.82126838  1.0
  H  H18  1  1.37336372  0.14688571  0.17873162  1.0
  H  H19  1  0.85311429  -0.37336372  0.67873162  1.0
  C  C20  1  1.14253682  0.70572562  0.16918395  1.0
  C  C21  1  0.29427438  -0.14253682  0.66918395  1.0
  C  C22  1  1.70572562  0.14253682  0.33081605  1.0
  C  C23  1  0.85746318  -0.70572562  0.83081605  1.0
  S  S24  1  1.27561033  0.55951403  0.19888548  1.0
  S  S25  1  0.44048597  -0.27561033  0.69888548  1.0
  S  S26  1  1.55951403  0.27561033  0.30111452  1.0
  S  S27  1  0.72438967  -0.55951403  0.80111452  1.0
  N  N28  1  1.04894141  0.81290025  0.14868753  1.0
  N  N29  1  0.18709975  -0.04894141  0.64868753  1.0
  N  N30  1  1.81290025  0.04894141  0.35131247  1.0
  N  N31  1  0.95105859  -0.81290025  0.85131247  1.0
  O  O32  1  0.80691208  -0.48359734  0.24876500  1.0
  O  O33  1  1.48359734  0.19308792  0.74876500  1.0
  O  O34  1  0.51640266  -0.19308792  0.25123500  1.0
  O  O35  1  1.19308792  0.48359734  0.75123500  1.0
  O  O36  1  1.08199045  0.30324651  0.37539224  1.0
  O  O37  1  0.69675349  -0.08199045  0.87539224  1.0
  O  O38  1  1.30324651  0.08199045  0.12460776  1.0
  O  O39  1  0.91800955  -0.30324651  0.62460776  1.0
