# generated using pymatgen
data_Ca2Mg(SiN2)3
_symmetry_space_group_name_H-M   'P 1'
_cell_length_a   6.01615300
_cell_length_b   6.01615300
_cell_length_c   15.51050124
_cell_angle_alpha   84.26939812
_cell_angle_beta   95.73060188
_cell_angle_gamma   90.40258131
_symmetry_Int_Tables_number   1
_chemical_formula_structural   Ca2Mg(SiN2)3
_chemical_formula_sum   'Ca8 Mg4 Si12 N24'
_cell_volume   555.78893688
_cell_formula_units_Z   4
loop_
 _symmetry_equiv_pos_site_id
 _symmetry_equiv_pos_as_xyz
  1  'x, y, z'
loop_
 _atom_site_type_symbol
 _atom_site_label
 _atom_site_symmetry_multiplicity
 _atom_site_fract_x
 _atom_site_fract_y
 _atom_site_fract_z
 _atom_site_occupancy
  Ca  Ca0  1  0.39424458  0.25938725  0.08009302  1.0
  Ca  Ca1  1  1.60575542  -0.25938725  0.91990698  1.0
  Ca  Ca2  1  1.25938725  -0.60575542  0.41990698  1.0
  Ca  Ca3  1  0.74061275  0.60575542  0.58009302  1.0
  Ca  Ca4  1  1.20036874  -0.10679076  0.42044244  1.0
  Ca  Ca5  1  0.79963126  0.10679076  0.57955756  1.0
  Ca  Ca6  1  0.89320924  0.20036874  0.07955756  1.0
  Ca  Ca7  1  1.10679076  -0.20036874  0.92044244  1.0
  Mg  Mg8  1  0.06387140  0.06387140  0.75000000  1.0
  Mg  Mg9  1  0.93612860  0.93612860  0.25000000  1.0
  Mg  Mg10  1  0.43611951  0.43611951  0.25000000  1.0
  Mg  Mg11  1  0.56388049  0.56388049  0.75000000  1.0
  Si  Si12  1  0.34957767  0.27770880  0.88942983  1.0
  Si  Si13  1  1.65042233  -0.27770880  0.11057017  1.0
  Si  Si14  1  1.27770880  -0.65042233  0.61057017  1.0
  Si  Si15  1  0.72229120  0.65042233  0.38942983  1.0
  Si  Si16  1  1.27877547  -0.15071653  0.61204024  1.0
  Si  Si17  1  0.72122453  0.15071653  0.38795976  1.0
  Si  Si18  1  0.84928347  0.27877547  0.88795976  1.0
  Si  Si19  1  1.15071653  -0.27877547  0.11204024  1.0
  Si  Si20  1  0.55818209  0.06959629  0.75000083  1.0
  Si  Si21  1  1.44181791  -0.06959629  0.24999917  1.0
  Si  Si22  1  1.06959629  -0.44181791  0.74999917  1.0
  Si  Si23  1  0.93040371  0.44181791  0.25000083  1.0
  N  N24  1  0.23077696  0.11435927  0.54794801  1.0
  N  N25  1  1.76922304  -0.11435927  0.45205199  1.0
  N  N26  1  1.11435927  -0.76922304  0.95205199  1.0
  N  N27  1  0.88564073  0.76922304  0.04794801  1.0
  N  N28  1  0.53612977  0.31005813  0.67359997  1.0
  N  N29  1  1.46387023  -0.31005813  0.32640003  1.0
  N  N30  1  1.31005813  -0.46387023  0.82640003  1.0
  N  N31  1  0.68994187  0.46387023  0.17359997  1.0
  N  N32  1  1.19618337  -0.05448605  0.17680975  1.0
  N  N33  1  0.80381663  0.05448605  0.82319025  1.0
  N  N34  1  0.94551395  0.19618337  0.32319025  1.0
  N  N35  1  1.05448605  -0.19618337  0.67680975  1.0
  N  N36  1  0.35685493  0.05035631  0.82688779  1.0
  N  N37  1  1.64314507  -0.05035631  0.17311221  1.0
  N  N38  1  1.05035631  -0.64314507  0.67311221  1.0
  N  N39  1  0.94964369  0.64314507  0.32688779  1.0
  N  N40  1  0.61712217  0.29386567  0.95202741  1.0
  N  N41  1  1.38287783  -0.29386567  0.04797259  1.0
  N  N42  1  1.29386567  -0.38287783  0.54797259  1.0
  N  N43  1  0.70613433  0.38287783  0.45202741  1.0
  N  N44  1  0.46317287  0.13866154  0.32352382  1.0
  N  N45  1  1.53682713  -0.13866154  0.67647618  1.0
  N  N46  1  1.13866154  -0.53682713  0.17647618  1.0
  N  N47  1  0.86133846  0.53682713  0.82352382  1.0
