# generated using pymatgen
data_BaMn28
_symmetry_space_group_name_H-M   'P 1'
_cell_length_a   7.62731449
_cell_length_b   7.62731449
_cell_length_c   7.62731449
_cell_angle_alpha   109.47122063
_cell_angle_beta   109.47122063
_cell_angle_gamma   109.47122063
_symmetry_Int_Tables_number   1
_chemical_formula_structural   BaMn28
_chemical_formula_sum   'Ba1 Mn28'
_cell_volume   341.58050015
_cell_formula_units_Z   1
loop_
 _symmetry_equiv_pos_site_id
 _symmetry_equiv_pos_as_xyz
  1  'x, y, z'
loop_
 _atom_site_type_symbol
 _atom_site_label
 _atom_site_symmetry_multiplicity
 _atom_site_fract_x
 _atom_site_fract_y
 _atom_site_fract_z
 _atom_site_occupancy
  Mn  Mn0  1  0.37929001  0.37929001  0.37929001  1.0
  Mn  Mn1  1  1.00000000  1.00000000  0.62070999  1.0
  Mn  Mn2  1  1.00000000  0.62070999  1.00000000  1.0
  Mn  Mn3  1  0.62070999  1.00000000  1.00000000  1.0
  Mn  Mn4  1  0.61192364  0.61192364  0.28944447  1.0
  Mn  Mn5  1  0.28944447  0.61192364  0.61192364  1.0
  Mn  Mn6  1  0.61192364  0.28944447  0.61192364  1.0
  Mn  Mn7  1  1.32247917  1.32247917  0.71055553  1.0
  Mn  Mn8  1  1.00000000  0.67752083  1.38807636  1.0
  Mn  Mn9  1  0.67752083  1.00000000  1.38807636  1.0
  Mn  Mn10  1  0.67752083  1.38807636  1.00000000  1.0
  Mn  Mn11  1  1.00000000  1.38807636  0.67752083  1.0
  Mn  Mn12  1  1.32247917  0.71055553  1.32247917  1.0
  Mn  Mn13  1  1.38807636  0.67752083  1.00000000  1.0
  Mn  Mn14  1  0.71055553  1.32247917  1.32247917  1.0
  Mn  Mn15  1  1.38807636  1.00000000  0.67752083  1.0
  Mn  Mn16  1  0.61278893  0.61278893  0.81768870  1.0
  Mn  Mn17  1  0.81768870  0.61278893  0.61278893  1.0
  Mn  Mn18  1  0.61278893  0.81768870  0.61278893  1.0
  Mn  Mn19  1  0.79510023  0.79510023  0.18231130  1.0
  Mn  Mn20  1  1.00000000  1.20489977  0.38721107  1.0
  Mn  Mn21  1  1.20489977  1.00000000  0.38721107  1.0
  Mn  Mn22  1  1.20489977  0.38721107  1.00000000  1.0
  Mn  Mn23  1  1.00000000  0.38721107  1.20489977  1.0
  Mn  Mn24  1  0.79510023  0.18231130  0.79510023  1.0
  Mn  Mn25  1  0.38721107  1.20489977  1.00000000  1.0
  Mn  Mn26  1  0.18231130  0.79510023  0.79510023  1.0
  Mn  Mn27  1  0.38721107  1.00000000  1.20489977  1.0
  Ba  Ba28  1  0.00000000  0.00000000  0.00000000  1.0
