# generated using pymatgen
data_Ce2Re3Si5
_symmetry_space_group_name_H-M   'P 1'
_cell_length_a   11.03082957
_cell_length_b   11.03082957
_cell_length_c   5.60867196
_cell_angle_alpha   90.00000000
_cell_angle_beta   90.00000000
_cell_angle_gamma   90.00000000
_symmetry_Int_Tables_number   1
_chemical_formula_structural   Ce2Re3Si5
_chemical_formula_sum   'Ce8 Re12 Si20'
_cell_volume   682.45872287
_cell_formula_units_Z   4
loop_
 _symmetry_equiv_pos_site_id
 _symmetry_equiv_pos_as_xyz
  1  'x, y, z'
loop_
 _atom_site_type_symbol
 _atom_site_label
 _atom_site_symmetry_multiplicity
 _atom_site_fract_x
 _atom_site_fract_y
 _atom_site_fract_z
 _atom_site_occupancy
  Ce  Ce0  1  0.23794920  0.92479463  0.50000000  1.0
  Ce  Ce1  1  0.73794920  0.57520537  -0.00000000  1.0
  Ce  Ce2  1  0.07520537  0.23794920  0.50000000  1.0
  Ce  Ce3  1  0.57520537  0.26205080  0.00000000  1.0
  Ce  Ce4  1  0.76205080  0.07520537  0.50000000  1.0
  Ce  Ce5  1  0.26205080  0.42479463  -0.00000000  1.0
  Ce  Ce6  1  0.92479463  0.76205080  0.50000000  1.0
  Ce  Ce7  1  0.42479463  0.73794920  0.00000000  1.0
  Re  Re8  1  0.35645411  0.62299156  0.50000000  1.0
  Re  Re9  1  0.85645411  0.87700844  0.00000000  1.0
  Re  Re10  1  0.37700844  0.35645411  0.50000000  1.0
  Re  Re11  1  0.87700844  0.14354589  -0.00000000  1.0
  Re  Re12  1  0.64354589  0.37700844  0.50000000  1.0
  Re  Re13  1  0.14354589  0.12299156  -0.00000000  1.0
  Re  Re14  1  0.62299156  0.64354589  0.50000000  1.0
  Re  Re15  1  0.12299156  0.85645411  -0.00000000  1.0
  Re  Re16  1  0.50000000  0.00000000  0.25000000  1.0
  Re  Re17  1  0.50000000  0.00000000  0.75000000  1.0
  Re  Re18  1  0.00000000  0.50000000  0.75000000  1.0
  Re  Re19  1  0.00000000  0.50000000  0.25000000  1.0
  Si  Si20  1  0.47522788  0.81548865  0.50000000  1.0
  Si  Si21  1  0.97522788  0.68451135  0.00000000  1.0
  Si  Si22  1  0.18451135  0.47522788  0.50000000  1.0
  Si  Si23  1  0.68451135  0.02477212  -0.00000000  1.0
  Si  Si24  1  0.52477212  0.18451135  0.50000000  1.0
  Si  Si25  1  0.02477212  0.31548865  0.00000000  1.0
  Si  Si26  1  0.81548865  0.52477212  0.50000000  1.0
  Si  Si27  1  0.31548865  0.97522788  -0.00000000  1.0
  Si  Si28  1  0.32660008  0.17339992  0.25000000  1.0
  Si  Si29  1  0.32660008  0.17339992  0.75000000  1.0
  Si  Si30  1  0.82660008  0.32660008  0.75000000  1.0
  Si  Si31  1  0.82660008  0.32660008  0.25000000  1.0
  Si  Si32  1  0.67339992  0.82660008  0.25000000  1.0
  Si  Si33  1  0.67339992  0.82660008  0.75000000  1.0
  Si  Si34  1  0.17339992  0.67339992  0.75000000  1.0
  Si  Si35  1  0.17339992  0.67339992  0.25000000  1.0
  Si  Si36  1  0.50000000  0.50000000  0.24508819  1.0
  Si  Si37  1  0.50000000  0.50000000  0.75491181  1.0
  Si  Si38  1  0.00000000  0.00000000  0.74508819  1.0
  Si  Si39  1  0.00000000  0.00000000  0.25491181  1.0
