# generated using pymatgen
data_Y12InNi6
_symmetry_space_group_name_H-M   'P 1'
_cell_length_a   8.43579337
_cell_length_b   8.43579337
_cell_length_c   8.43579337
_cell_angle_alpha   109.47122063
_cell_angle_beta   109.47122063
_cell_angle_gamma   109.47122063
_symmetry_Int_Tables_number   1
_chemical_formula_structural   Y12InNi6
_chemical_formula_sum   'Y12 In1 Ni6'
_cell_volume   462.12121835
_cell_formula_units_Z   1
loop_
 _symmetry_equiv_pos_site_id
 _symmetry_equiv_pos_as_xyz
  1  'x, y, z'
loop_
 _atom_site_type_symbol
 _atom_site_label
 _atom_site_symmetry_multiplicity
 _atom_site_fract_x
 _atom_site_fract_y
 _atom_site_fract_z
 _atom_site_occupancy
  Y  Y0  1  0.81261270  1.30286457  1.11547726  1.0
  Y  Y1  1  0.81261270  0.69713543  0.50974813  1.0
  Y  Y2  1  0.18738730  0.30286457  0.49025187  1.0
  Y  Y3  1  0.18738730  0.69713543  0.88452274  1.0
  Y  Y4  1  0.50974813  0.81261270  0.69713543  1.0
  Y  Y5  1  1.11547726  0.81261270  1.30286457  1.0
  Y  Y6  1  0.69713543  0.88452274  0.18738730  1.0
  Y  Y7  1  0.69713543  0.50974813  0.81261270  1.0
  Y  Y8  1  0.88452274  0.18738730  0.69713543  1.0
  Y  Y9  1  0.49025187  0.18738730  0.30286457  1.0
  Y  Y10  1  0.30286457  0.49025187  0.18738730  1.0
  Y  Y11  1  1.30286457  1.11547726  0.81261270  1.0
  In  In12  1  0.00000000  0.00000000  0.00000000  1.0
  Ni  Ni13  1  0.87760910  0.37760910  0.50000000  1.0
  Ni  Ni14  1  0.50000000  0.12239090  0.62239090  1.0
  Ni  Ni15  1  0.50000000  0.87760910  0.37760910  1.0
  Ni  Ni16  1  0.37760910  0.50000000  0.87760910  1.0
  Ni  Ni17  1  0.62239090  0.50000000  0.12239090  1.0
  Ni  Ni18  1  0.12239090  0.62239090  0.50000000  1.0
