# generated using pymatgen
data_NbTl(BO3)2
_symmetry_space_group_name_H-M   'P 1'
_cell_length_a   8.07621298
_cell_length_b   7.60609352
_cell_length_c   9.58993437
_cell_angle_alpha   90.00000000
_cell_angle_beta   90.00000000
_cell_angle_gamma   90.00000000
_symmetry_Int_Tables_number   1
_chemical_formula_structural   NbTl(BO3)2
_chemical_formula_sum   'Nb4 Tl4 B8 O24'
_cell_volume   589.09462360
_cell_formula_units_Z   4
loop_
 _symmetry_equiv_pos_site_id
 _symmetry_equiv_pos_as_xyz
  1  'x, y, z'
loop_
 _atom_site_type_symbol
 _atom_site_label
 _atom_site_symmetry_multiplicity
 _atom_site_fract_x
 _atom_site_fract_y
 _atom_site_fract_z
 _atom_site_occupancy
  Nb  Nb0  1  0.33130442  0.75103069  0.35237962  1.0
  Nb  Nb1  1  0.83130442  0.74896931  0.35237962  1.0
  Nb  Nb2  1  0.66869558  0.24896931  0.85237962  1.0
  Nb  Nb3  1  0.16869558  0.25103069  0.85237962  1.0
  Tl  Tl4  1  0.53881900  0.74875233  0.73403620  1.0
  Tl  Tl5  1  1.03881900  0.75124767  0.73403620  1.0
  Tl  Tl6  1  0.46118100  0.25124767  0.23403620  1.0
  Tl  Tl7  1  -0.03881900  0.24875233  0.23403620  1.0
  B  B8  1  0.23995516  0.58691330  0.06304836  1.0
  B  B9  1  0.73995516  0.91308670  0.06304836  1.0
  B  B10  1  0.76004484  0.41308670  0.56304836  1.0
  B  B11  1  0.26004484  0.08691330  0.56304836  1.0
  B  B12  1  0.23632514  0.91464711  0.06331479  1.0
  B  B13  1  0.73632514  0.58535289  0.06331479  1.0
  B  B14  1  0.76367486  0.08535289  0.56331479  1.0
  B  B15  1  0.26367486  0.41464711  0.56331479  1.0
  O  O16  1  0.30825535  0.55951939  0.48888378  1.0
  O  O17  1  0.80825535  0.94048061  0.48888378  1.0
  O  O18  1  0.69174465  0.44048061  0.98888378  1.0
  O  O19  1  0.19174465  0.05951939  0.98888378  1.0
  O  O20  1  0.30291411  0.57370766  0.19432971  1.0
  O  O21  1  0.80291411  0.92629234  0.19432971  1.0
  O  O22  1  0.69708589  0.42629234  0.69432971  1.0
  O  O23  1  0.19708589  0.07370766  0.69432971  1.0
  O  O24  1  0.30238496  0.94099043  0.48914217  1.0
  O  O25  1  0.80238496  0.55900957  0.48914217  1.0
  O  O26  1  0.69761504  0.05900957  0.98914217  1.0
  O  O27  1  0.19761504  0.44099043  0.98914217  1.0
  O  O28  1  0.29761985  0.92896849  0.19508094  1.0
  O  O29  1  0.79761985  0.57103151  0.19508094  1.0
  O  O30  1  0.70238015  0.07103151  0.69508094  1.0
  O  O31  1  0.20238015  0.42896849  0.69508094  1.0
  O  O32  1  0.21431444  0.75052019  -0.00182583  1.0
  O  O33  1  0.71431444  0.74947981  -0.00182583  1.0
  O  O34  1  0.78568556  0.24947981  0.49817417  1.0
  O  O35  1  0.28568556  0.25052019  0.49817417  1.0
  O  O36  1  0.05363781  0.74582470  0.35181025  1.0
  O  O37  1  0.55363781  0.75417530  0.35181025  1.0
  O  O38  1  0.94636219  0.25417530  0.85181025  1.0
  O  O39  1  0.44636219  0.24582470  0.85181025  1.0
