# generated using pymatgen
data_Sc4Co4Ge7
_symmetry_space_group_name_H-M   'P 1'
_cell_length_a   9.72433017
_cell_length_b   9.72433017
_cell_length_c   9.72433017
_cell_angle_alpha   94.14521292
_cell_angle_beta   94.14521292
_cell_angle_gamma   148.80737874
_symmetry_Int_Tables_number   1
_chemical_formula_structural   Sc4Co4Ge7
_chemical_formula_sum   'Sc8 Co8 Ge14'
_cell_volume   458.71878973
_cell_formula_units_Z   2
loop_
 _symmetry_equiv_pos_site_id
 _symmetry_equiv_pos_as_xyz
  1  'x, y, z'
loop_
 _atom_site_type_symbol
 _atom_site_label
 _atom_site_symmetry_multiplicity
 _atom_site_fract_x
 _atom_site_fract_y
 _atom_site_fract_z
 _atom_site_occupancy
  Sc  Sc0  1  0.00000000  0.80467730  0.80467730  1.0
  Sc  Sc1  1  0.80467730  1.00000000  0.80467730  1.0
  Sc  Sc2  1  1.19532270  1.00000000  1.19532270  1.0
  Sc  Sc3  1  0.00000000  0.19532270  0.19532270  1.0
  Sc  Sc4  1  0.64002910  0.64002910  0.28005819  1.0
  Sc  Sc5  1  1.35997090  0.64002910  1.00000000  1.0
  Sc  Sc6  1  0.64002910  0.35997090  1.00000000  1.0
  Sc  Sc7  1  0.35997090  0.35997090  0.71994181  1.0
  Co  Co8  1  1.10184954  0.60184954  1.20369908  1.0
  Co  Co9  1  1.60184954  1.10184954  1.20369908  1.0
  Co  Co10  1  0.39815046  0.60184954  0.50000000  1.0
  Co  Co11  1  0.89815046  1.10184954  0.50000000  1.0
  Co  Co12  1  1.10184954  0.89815046  1.50000000  1.0
  Co  Co13  1  1.60184954  1.39815046  1.50000000  1.0
  Co  Co14  1  0.39815046  0.89815046  0.79630092  1.0
  Co  Co15  1  0.89815046  1.39815046  0.79630092  1.0
  Ge  Ge16  1  0.50000000  0.79067230  0.29067230  1.0
  Ge  Ge17  1  0.79067230  0.50000000  1.29067230  1.0
  Ge  Ge18  1  0.20932770  0.50000000  0.70932770  1.0
  Ge  Ge19  1  0.50000000  1.20932770  0.70932770  1.0
  Ge  Ge20  1  0.00000000  0.59383824  0.59383824  1.0
  Ge  Ge21  1  0.59383824  1.00000000  0.59383824  1.0
  Ge  Ge22  1  1.40616176  1.00000000  1.40616176  1.0
  Ge  Ge23  1  0.00000000  0.40616176  0.40616176  1.0
  Ge  Ge24  1  0.79320782  0.79320782  0.58641563  1.0
  Ge  Ge25  1  1.20679218  0.79320782  1.00000000  1.0
  Ge  Ge26  1  0.79320782  0.20679218  1.00000000  1.0
  Ge  Ge27  1  0.20679218  0.20679218  0.41358437  1.0
  Ge  Ge28  1  0.74995113  0.74995113  0.00000000  1.0
  Ge  Ge29  1  0.25004887  0.25004887  0.00000000  1.0
