# generated using pymatgen
data_Li2CuO2
_symmetry_space_group_name_H-M   'P 1'
_cell_length_a   3.54499145
_cell_length_b   3.54499145
_cell_length_c   5.33605989
_cell_angle_alpha   77.20871037
_cell_angle_beta   102.79128963
_cell_angle_gamma   132.65594327
_symmetry_Int_Tables_number   1
_chemical_formula_structural   Li2CuO2
_chemical_formula_sum   'Li2 Cu1 O2'
_cell_volume   47.85421643
_cell_formula_units_Z   1
loop_
 _symmetry_equiv_pos_site_id
 _symmetry_equiv_pos_as_xyz
  1  'x, y, z'
loop_
 _atom_site_type_symbol
 _atom_site_label
 _atom_site_symmetry_multiplicity
 _atom_site_fract_x
 _atom_site_fract_y
 _atom_site_fract_z
 _atom_site_occupancy
  Li  Li0  1  0.67264926  0.32735074  0.64593303  1.0
  Li  Li1  1  0.32735074  -0.32735074  0.35406697  1.0
  Cu  Cu2  1  0.00000000  0.00000000  0.00000000  1.0
  O  O3  1  0.39841119  -0.39841119  0.74124924  1.0
  O  O4  1  0.60158881  0.39841119  0.25875076  1.0
