# generated using pymatgen
data_MnVSbO6
_symmetry_space_group_name_H-M   'P 1'
_cell_length_a   4.65405436
_cell_length_b   17.19512661
_cell_length_c   5.01781482
_cell_angle_alpha   90.00000000
_cell_angle_beta   90.00000000
_cell_angle_gamma   90.00000000
_symmetry_Int_Tables_number   1
_chemical_formula_structural   MnVSbO6
_chemical_formula_sum   'Mn4 V4 Sb4 O24'
_cell_volume   401.56093758
_cell_formula_units_Z   4
loop_
 _symmetry_equiv_pos_site_id
 _symmetry_equiv_pos_as_xyz
  1  'x, y, z'
loop_
 _atom_site_type_symbol
 _atom_site_label
 _atom_site_symmetry_multiplicity
 _atom_site_fract_x
 _atom_site_fract_y
 _atom_site_fract_z
 _atom_site_occupancy
  Mn  Mn0  1  0.50000000  0.05554928  0.25000000  1.0
  Mn  Mn1  1  0.50000000  0.94445072  0.75000000  1.0
  Mn  Mn2  1  0.00000000  0.55554928  0.25000000  1.0
  Mn  Mn3  1  0.00000000  0.44445072  0.75000000  1.0
  V  V4  1  0.50000000  0.39929921  0.25000000  1.0
  V  V5  1  0.50000000  0.60070079  0.75000000  1.0
  V  V6  1  0.00000000  0.89929921  0.25000000  1.0
  V  V7  1  0.00000000  0.10070079  0.75000000  1.0
  Sb  Sb8  1  0.50000000  0.71711589  0.25000000  1.0
  Sb  Sb9  1  0.50000000  0.28288411  0.75000000  1.0
  Sb  Sb10  1  0.00000000  0.21711589  0.25000000  1.0
  Sb  Sb11  1  0.00000000  0.78288411  0.75000000  1.0
  O  O12  1  0.25805435  0.29599795  0.07943875  1.0
  O  O13  1  0.25805435  0.70400205  0.57943875  1.0
  O  O14  1  0.75805435  0.79599795  0.42056125  1.0
  O  O15  1  0.75805435  0.20400205  0.92056125  1.0
  O  O16  1  0.74194565  0.29599795  0.42056125  1.0
  O  O17  1  0.74194565  0.70400205  0.92056125  1.0
  O  O18  1  0.24194565  0.79599795  0.07943875  1.0
  O  O19  1  0.24194565  0.20400205  0.57943875  1.0
  O  O20  1  0.24653839  0.45858140  0.10697533  1.0
  O  O21  1  0.24653839  0.54141860  0.60697533  1.0
  O  O22  1  0.74653839  0.95858140  0.39302467  1.0
  O  O23  1  0.74653839  0.04141860  0.89302467  1.0
  O  O24  1  0.75346161  0.45858140  0.39302467  1.0
  O  O25  1  0.75346161  0.54141860  0.89302467  1.0
  O  O26  1  0.25346161  0.95858140  0.10697533  1.0
  O  O27  1  0.25346161  0.04141860  0.60697533  1.0
  O  O28  1  0.21066643  0.12973369  0.05967468  1.0
  O  O29  1  0.21066643  0.87026631  0.55967468  1.0
  O  O30  1  0.71066643  0.62973369  0.44032532  1.0
  O  O31  1  0.71066643  0.37026631  0.94032532  1.0
  O  O32  1  0.78933357  0.12973369  0.44032532  1.0
  O  O33  1  0.78933357  0.87026631  0.94032532  1.0
  O  O34  1  0.28933357  0.62973369  0.05967468  1.0
  O  O35  1  0.28933357  0.37026631  0.55967468  1.0
