# generated using pymatgen
data_Ba5Y8Ni4O21
_symmetry_space_group_name_H-M   'P 1'
_cell_length_a   10.14818779
_cell_length_b   10.14818779
_cell_length_c   10.14818779
_cell_angle_alpha   94.55246613
_cell_angle_beta   94.55246613
_cell_angle_gamma   147.27300006
_symmetry_Int_Tables_number   1
_chemical_formula_structural   Ba5Y8Ni4O21
_chemical_formula_sum   'Ba5 Y8 Ni4 O21'
_cell_volume   542.14218436
_cell_formula_units_Z   1
loop_
 _symmetry_equiv_pos_site_id
 _symmetry_equiv_pos_as_xyz
  1  'x, y, z'
loop_
 _atom_site_type_symbol
 _atom_site_label
 _atom_site_symmetry_multiplicity
 _atom_site_fract_x
 _atom_site_fract_y
 _atom_site_fract_z
 _atom_site_occupancy
  Ni  Ni0  1  0.95857427  0.75580489  0.71437916  1.0
  Ni  Ni1  1  0.75580489  0.04142573  0.79723062  1.0
  Ni  Ni2  1  1.04142573  1.24419511  1.28562084  1.0
  Ni  Ni3  1  0.24419511  0.95857427  1.20276938  1.0
  Ba  Ba4  1  0.86217540  0.53940959  0.40158499  1.0
  Ba  Ba5  1  0.53940959  0.13782460  0.67723419  1.0
  Ba  Ba6  1  1.13782460  1.46059041  1.59841501  1.0
  Ba  Ba7  1  0.46059041  0.86217540  1.32276581  1.0
  Ba  Ba8  1  0.00000000  0.00000000  0.00000000  1.0
  O  O9  1  1.09758766  0.98486960  0.59378747  1.0
  O  O10  1  0.60891787  0.49619981  0.59378747  1.0
  O  O11  1  0.98486960  0.39108213  0.88728194  1.0
  O  O12  1  1.49619981  0.90241234  0.88728194  1.0
  O  O13  1  1.39108213  1.50380019  1.40621253  1.0
  O  O14  1  0.90241234  1.01513040  1.40621253  1.0
  O  O15  1  0.50380019  1.09758766  1.11271806  1.0
  O  O16  1  1.01513040  1.60891787  1.11271806  1.0
  O  O17  1  1.07086042  1.20268403  1.77237897  1.0
  O  O18  1  1.56969494  1.70151854  1.77237897  1.0
  O  O19  1  1.20268403  1.43030506  1.13182360  1.0
  O  O20  1  0.70151854  0.92913958  1.13182360  1.0
  O  O21  1  0.43030506  0.29848146  0.22762103  1.0
  O  O22  1  0.92913958  0.79731597  0.22762103  1.0
  O  O23  1  1.29848146  1.07086042  0.86817640  1.0
  O  O24  1  0.79731597  0.56969494  0.86817640  1.0
  O  O25  1  0.50000000  0.50000000  -0.00000000  1.0
  O  O26  1  0.63157012  0.96274008  1.59431020  1.0
  O  O27  1  0.96274008  1.36842988  1.33116997  1.0
  O  O28  1  0.36842988  0.03725992  0.40568980  1.0
  O  O29  1  1.03725992  0.63157012  0.66883003  1.0
  Y  Y30  1  0.75109809  0.83446187  1.58555996  1.0
  Y  Y31  1  0.83446187  1.24890191  1.08336378  1.0
  Y  Y32  1  0.24890191  0.16553813  0.41444004  1.0
  Y  Y33  1  1.16553813  0.75109809  0.91663622  1.0
  Y  Y34  1  0.58811348  0.64432931  1.23244279  1.0
  Y  Y35  1  0.64432931  1.41188652  1.05621584  1.0
  Y  Y36  1  0.41188652  0.35567069  0.76755721  1.0
  Y  Y37  1  1.35567069  0.58811348  0.94378416  1.0
