# generated using pymatgen
data_Nb4Cr13
_symmetry_space_group_name_H-M   'P 1'
_cell_length_a   9.84163744
_cell_length_b   9.84163744
_cell_length_c   9.84163744
_cell_angle_alpha   60.00000000
_cell_angle_beta   60.00000000
_cell_angle_gamma   60.00000000
_symmetry_Int_Tables_number   1
_chemical_formula_structural   Nb4Cr13
_chemical_formula_sum   'Nb8 Cr26'
_cell_volume   674.04220146
_cell_formula_units_Z   2
loop_
 _symmetry_equiv_pos_site_id
 _symmetry_equiv_pos_as_xyz
  1  'x, y, z'
loop_
 _atom_site_type_symbol
 _atom_site_label
 _atom_site_symmetry_multiplicity
 _atom_site_fract_x
 _atom_site_fract_y
 _atom_site_fract_z
 _atom_site_occupancy
  Nb  Nb0  1  0.66768824  -0.33231176  0.99693529  1.0
  Nb  Nb1  1  0.66768824  -0.00306471  0.66768824  1.0
  Nb  Nb2  1  0.58231176  -0.41768824  0.58231176  1.0
  Nb  Nb3  1  1.25306471  -0.41768824  0.58231176  1.0
  Nb  Nb4  1  0.99693529  -0.33231176  0.66768824  1.0
  Nb  Nb5  1  0.66768824  -0.33231176  0.66768824  1.0
  Nb  Nb6  1  0.58231176  0.25306471  0.58231176  1.0
  Nb  Nb7  1  0.58231176  -0.41768824  1.25306471  1.0
  Cr  Cr8  1  0.99128844  -0.75230405  0.76972716  1.0
  Cr  Cr9  1  -0.00871156  0.76972716  0.24769595  1.0
  Cr  Cr10  1  0.00230405  0.25871156  0.25871156  1.0
  Cr  Cr11  1  0.48027284  0.25871156  0.25871156  1.0
  Cr  Cr12  1  -0.75230405  0.99128844  0.76972716  1.0
  Cr  Cr13  1  0.99128844  -0.00871156  0.76972716  1.0
  Cr  Cr14  1  0.99128844  -0.23027284  0.99128844  1.0
  Cr  Cr15  1  -0.75230405  0.76972716  0.99128844  1.0
  Cr  Cr16  1  0.25871156  0.00230405  0.25871156  1.0
  Cr  Cr17  1  0.25871156  0.25871156  0.00230405  1.0
  Cr  Cr18  1  0.48027284  0.25871156  0.00230405  1.0
  Cr  Cr19  1  0.48027284  0.00230405  0.25871156  1.0
  Cr  Cr20  1  0.76972716  -0.00871156  0.99128844  1.0
  Cr  Cr21  1  -0.75230405  0.99128844  0.99128844  1.0
  Cr  Cr22  1  0.25871156  0.48027284  0.00230405  1.0
  Cr  Cr23  1  0.25871156  0.00230405  0.48027284  1.0
  Cr  Cr24  1  -0.23027284  0.99128844  0.24769595  1.0
  Cr  Cr25  1  0.76972716  -0.75230405  0.99128844  1.0
  Cr  Cr26  1  0.99128844  -0.75230405  0.99128844  1.0
  Cr  Cr27  1  -0.00871156  0.99128844  0.24769595  1.0
  Cr  Cr28  1  0.25871156  0.48027284  0.25871156  1.0
  Cr  Cr29  1  0.00230405  0.48027284  0.25871156  1.0
  Cr  Cr30  1  0.00230405  0.25871156  0.48027284  1.0
  Cr  Cr31  1  0.25871156  0.25871156  0.48027284  1.0
  Cr  Cr32  1  0.50000000  0.50000000  -0.50000000  1.0
  Cr  Cr33  1  0.75000000  -0.25000000  0.75000000  1.0
