# generated using pymatgen
data_CsFe(SO4)2
_symmetry_space_group_name_H-M   'P 1'
_cell_length_a   5.00029908
_cell_length_b   5.00029908
_cell_length_c   8.99733862
_cell_angle_alpha   90.00000000
_cell_angle_beta   90.00000000
_cell_angle_gamma   120.00000000
_symmetry_Int_Tables_number   1
_chemical_formula_structural   CsFe(SO4)2
_chemical_formula_sum   'Cs1 Fe1 S2 O8'
_cell_volume   194.82140035
_cell_formula_units_Z   1
loop_
 _symmetry_equiv_pos_site_id
 _symmetry_equiv_pos_as_xyz
  1  'x, y, z'
loop_
 _atom_site_type_symbol
 _atom_site_label
 _atom_site_symmetry_multiplicity
 _atom_site_fract_x
 _atom_site_fract_y
 _atom_site_fract_z
 _atom_site_occupancy
  Fe  Fe0  1  0.00000000  0.00000000  0.00000000  1.0
  Cs  Cs1  1  0.00000000  0.00000000  0.50000000  1.0
  S  S2  1  0.33333333  0.66666667  0.18879035  1.0
  S  S3  1  0.66666667  0.33333333  0.81120965  1.0
  O  O4  1  0.33333333  0.66666667  0.35226274  1.0
  O  O5  1  0.66666667  0.33333333  0.64773726  1.0
  O  O6  1  0.28013423  0.91936897  0.13258917  1.0
  O  O7  1  0.91936897  0.63923474  0.86741083  1.0
  O  O8  1  0.63923474  0.71986577  0.13258917  1.0
  O  O9  1  0.08063103  0.36076526  0.13258917  1.0
  O  O10  1  0.71986577  0.08063103  0.86741083  1.0
  O  O11  1  0.36076526  0.28013423  0.86741083  1.0
