# generated using pymatgen
data_Lu2Ni12As7
_symmetry_space_group_name_H-M   'P 1'
_cell_length_a   9.37531396
_cell_length_b   9.37531396
_cell_length_c   3.81166095
_cell_angle_alpha   90.00000000
_cell_angle_beta   90.00000000
_cell_angle_gamma   120.00000000
_symmetry_Int_Tables_number   1
_chemical_formula_structural   Lu2Ni12As7
_chemical_formula_sum   'Lu2 Ni12 As7'
_cell_volume   290.14596496
_cell_formula_units_Z   1
loop_
 _symmetry_equiv_pos_site_id
 _symmetry_equiv_pos_as_xyz
  1  'x, y, z'
loop_
 _atom_site_type_symbol
 _atom_site_label
 _atom_site_symmetry_multiplicity
 _atom_site_fract_x
 _atom_site_fract_y
 _atom_site_fract_z
 _atom_site_occupancy
  Lu  Lu0  1  -0.00000000  -0.00000000  0.50000000  1.0
  Lu  Lu1  1  0.66666667  0.33333333  -0.00000000  1.0
  Ni  Ni2  1  0.71079784  0.61788086  0.50000000  1.0
  Ni  Ni3  1  0.90708302  0.28920216  0.50000000  1.0
  Ni  Ni4  1  0.38211914  0.09291698  0.50000000  1.0
  Ni  Ni5  1  0.23872687  0.45577660  0.50000000  1.0
  Ni  Ni6  1  0.21704974  0.76127313  0.50000000  1.0
  Ni  Ni7  1  0.54422340  0.78295026  0.50000000  1.0
  Ni  Ni8  1  0.48591643  0.53804311  -0.00000000  1.0
  Ni  Ni9  1  0.05212669  0.51408357  -0.00000000  1.0
  Ni  Ni10  1  0.46195689  0.94787331  0.00000000  1.0
  Ni  Ni11  1  0.27565767  0.22673952  -0.00000000  1.0
  Ni  Ni12  1  0.95108185  0.72434233  -0.00000000  1.0
  Ni  Ni13  1  0.77326048  0.04891815  0.00000000  1.0
  As  As14  1  0.44543196  0.36882244  0.50000000  1.0
  As  As15  1  0.92339048  0.55456804  0.50000000  1.0
  As  As16  1  0.63117756  0.07660952  0.50000000  1.0
  As  As17  1  0.04789312  0.26150870  0.00000000  1.0
  As  As18  1  0.21361558  0.95210688  0.00000000  1.0
  As  As19  1  0.73849130  0.78638442  0.00000000  1.0
  As  As20  1  0.33333333  0.66666667  -0.00000000  1.0
