# generated using pymatgen
data_FeMo2C
_symmetry_space_group_name_H-M   'P 1'
_cell_length_a   5.42592469
_cell_length_b   7.07815247
_cell_length_c   4.83960186
_cell_angle_alpha   90.00000000
_cell_angle_beta   90.00000000
_cell_angle_gamma   90.00000000
_symmetry_Int_Tables_number   1
_chemical_formula_structural   FeMo2C
_chemical_formula_sum   'Fe4 Mo8 C4'
_cell_volume   185.86743687
_cell_formula_units_Z   4
loop_
 _symmetry_equiv_pos_site_id
 _symmetry_equiv_pos_as_xyz
  1  'x, y, z'
loop_
 _atom_site_type_symbol
 _atom_site_label
 _atom_site_symmetry_multiplicity
 _atom_site_fract_x
 _atom_site_fract_y
 _atom_site_fract_z
 _atom_site_occupancy
  Fe  Fe0  1  0.53573945  0.25000000  0.65579854  1.0
  Fe  Fe1  1  0.03573945  0.25000000  0.84420146  1.0
  Fe  Fe2  1  0.46426055  0.75000000  0.34420146  1.0
  Fe  Fe3  1  0.96426055  0.75000000  0.15579854  1.0
  Mo  Mo4  1  0.68403055  0.06603383  0.16787046  1.0
  Mo  Mo5  1  0.18403055  0.43396617  0.33212954  1.0
  Mo  Mo6  1  0.31596945  0.56603383  0.83212954  1.0
  Mo  Mo7  1  0.81596945  0.93396617  0.66787046  1.0
  Mo  Mo8  1  0.31596945  0.93396617  0.83212954  1.0
  Mo  Mo9  1  0.81596945  0.56603383  0.66787046  1.0
  Mo  Mo10  1  0.68403055  0.43396617  0.16787046  1.0
  Mo  Mo11  1  0.18403055  0.06603383  0.33212954  1.0
  C  C12  1  0.86235659  0.25000000  0.48328942  1.0
  C  C13  1  0.36235659  0.25000000  0.01671058  1.0
  C  C14  1  0.13764341  0.75000000  0.51671058  1.0
  C  C15  1  0.63764341  0.75000000  0.98328942  1.0
