# generated using pymatgen
data_In2Cu2O5
_symmetry_space_group_name_H-M   'P 1'
_cell_length_a   10.73058694
_cell_length_b   3.35016088
_cell_length_c   13.57665968
_cell_angle_alpha   90.00000000
_cell_angle_beta   113.26068028
_cell_angle_gamma   90.00000000
_symmetry_Int_Tables_number   1
_chemical_formula_structural   In2Cu2O5
_chemical_formula_sum   'In8 Cu8 O20'
_cell_volume   448.39846230
_cell_formula_units_Z   4
loop_
 _symmetry_equiv_pos_site_id
 _symmetry_equiv_pos_as_xyz
  1  'x, y, z'
loop_
 _atom_site_type_symbol
 _atom_site_label
 _atom_site_symmetry_multiplicity
 _atom_site_fract_x
 _atom_site_fract_y
 _atom_site_fract_z
 _atom_site_occupancy
  O  O0  1  0.94961313  0.55942749  0.80623664  1.0
  O  O1  1  0.05038687  0.55942749  0.19376336  1.0
  O  O2  1  0.85668392  0.00388872  0.30617336  1.0
  O  O3  1  0.14331608  0.00388872  0.69382664  1.0
  O  O4  1  0.64333152  0.07781484  0.69385563  1.0
  O  O5  1  0.35666848  0.07781484  0.30614437  1.0
  O  O6  1  0.44960932  0.52219816  0.80623681  1.0
  O  O7  1  0.55039068  0.52219816  0.19376319  1.0
  O  O8  1  0.50000000  0.47046415  0.50000000  1.0
  O  O9  1  -0.00000000  0.61135952  0.50000000  1.0
  O  O10  1  0.50000000  0.11859939  -0.00000000  1.0
  O  O11  1  0.85296876  0.00591049  0.59697413  1.0
  O  O12  1  0.14703124  0.00591049  0.40302587  1.0
  O  O13  1  0.75585775  0.57736204  0.90293446  1.0
  O  O14  1  0.24414225  0.57736204  0.09706554  1.0
  O  O15  1  0.00000000  -0.03711108  0.00000000  1.0
  O  O16  1  0.64703348  0.07575003  0.40305066  1.0
  O  O17  1  0.35296652  0.07575003  0.59694934  1.0
  O  O18  1  0.25586018  0.50431413  0.90289877  1.0
  O  O19  1  0.74413982  0.50431413  0.09710123  1.0
  In  In20  1  0.99533438  0.50353463  0.66480049  1.0
  In  In21  1  0.00466562  0.50353463  0.33519951  1.0
  In  In22  1  0.83065428  0.07205409  0.83558008  1.0
  In  In23  1  0.16934572  0.07205409  0.16441992  1.0
  In  In24  1  0.49533052  0.57812136  0.66480528  1.0
  In  In25  1  0.50466948  0.57812136  0.33519472  1.0
  In  In26  1  0.33063727  0.00966277  0.83554086  1.0
  In  In27  1  0.66936273  0.00966277  0.16445914  1.0
  Cu  Cu28  1  0.83876054  0.95148206  0.44658956  1.0
  Cu  Cu29  1  0.16123946  0.95148206  0.55341044  1.0
  Cu  Cu30  1  0.66123396  0.13020875  0.55343161  1.0
  Cu  Cu31  1  0.33876604  0.13020875  0.44656839  1.0
  Cu  Cu32  1  0.10767771  0.62371205  0.94640354  1.0
  Cu  Cu33  1  0.89232229  0.62371205  0.05359646  1.0
  Cu  Cu34  1  0.60765408  0.45800239  0.94643361  1.0
  Cu  Cu35  1  0.39234592  0.45800239  0.05356639  1.0
