# generated using pymatgen
data_SiO2
_symmetry_space_group_name_H-M   'P 1'
_cell_length_a   4.76172038
_cell_length_b   8.11603112
_cell_length_c   8.70837634
_cell_angle_alpha   90.00000000
_cell_angle_beta   90.00000000
_cell_angle_gamma   90.00000000
_symmetry_Int_Tables_number   1
_chemical_formula_structural   SiO2
_chemical_formula_sum   'Si8 O16'
_cell_volume   336.54627006
_cell_formula_units_Z   8
loop_
 _symmetry_equiv_pos_site_id
 _symmetry_equiv_pos_as_xyz
  1  'x, y, z'
loop_
 _atom_site_type_symbol
 _atom_site_label
 _atom_site_symmetry_multiplicity
 _atom_site_fract_x
 _atom_site_fract_y
 _atom_site_fract_z
 _atom_site_occupancy
  Si  Si0  1  0.63659646  0.56298006  0.84039499  1.0
  Si  Si1  1  0.86340354  0.93701994  0.84039499  1.0
  Si  Si2  1  0.13659646  0.43701994  0.65960501  1.0
  Si  Si3  1  0.36340354  0.06298006  0.65960501  1.0
  Si  Si4  1  0.36340354  0.43701994  0.15960501  1.0
  Si  Si5  1  0.13659646  0.06298006  0.15960501  1.0
  Si  Si6  1  0.86340354  0.56298006  0.34039499  1.0
  Si  Si7  1  0.63659646  0.93701994  0.34039499  1.0
  O  O8  1  0.39814152  0.55779901  0.70533878  1.0
  O  O9  1  0.10185848  0.94220099  0.70533878  1.0
  O  O10  1  0.89814152  0.44220099  0.79466122  1.0
  O  O11  1  0.60185848  0.05779901  0.79466122  1.0
  O  O12  1  0.60185848  0.44220099  0.29466122  1.0
  O  O13  1  0.89814152  0.05779901  0.29466122  1.0
  O  O14  1  0.10185848  0.55779901  0.20533878  1.0
  O  O15  1  0.39814152  0.94220099  0.20533878  1.0
  O  O16  1  0.50000000  0.50000000  0.00000000  1.0
  O  O17  1  0.00000000  0.00000000  0.00000000  1.0
  O  O18  1  0.00000000  0.50000000  0.50000000  1.0
  O  O19  1  0.50000000  -0.00000000  0.50000000  1.0
  O  O20  1  0.75000000  0.75000000  0.85951375  1.0
  O  O21  1  0.25000000  0.25000000  0.64048625  1.0
  O  O22  1  0.25000000  0.25000000  0.14048625  1.0
  O  O23  1  0.75000000  0.75000000  0.35951375  1.0
