# generated using pymatgen
data_LiP15
_symmetry_space_group_name_H-M   'P 1'
_cell_length_a   7.58317180
_cell_length_b   12.45317180
_cell_length_c   9.30475570
_cell_angle_alpha   95.02866959
_cell_angle_beta   110.44379141
_cell_angle_gamma   100.62252489
_symmetry_Int_Tables_number   1
_chemical_formula_structural   LiP15
_chemical_formula_sum   'Li2 P30'
_cell_volume   798.13258330
_cell_formula_units_Z   2
loop_
 _symmetry_equiv_pos_site_id
 _symmetry_equiv_pos_as_xyz
  1  'x, y, z'
loop_
 _atom_site_type_symbol
 _atom_site_label
 _atom_site_symmetry_multiplicity
 _atom_site_fract_x
 _atom_site_fract_y
 _atom_site_fract_z
 _atom_site_occupancy
  Li  Li0  1  0.04643380  -0.45454761  -0.78078807  1.0
  Li  Li1  1  -0.59299435  -0.45231228  -0.30603436  1.0
  P  P2  1  -0.04612999  -0.03727096  0.01226748  1.0
  P  P3  1  -0.03761942  -0.14175818  -0.80580556  1.0
  P  P4  1  -0.01934573  -0.68460007  -0.09729591  1.0
  P  P5  1  -0.03444227  -0.30065067  -0.93542803  1.0
  P  P6  1  -0.08046539  -0.24186591  -0.29684745  1.0
  P  P7  1  -0.12066009  -0.57991220  -0.27417088  1.0
  P  P8  1  -0.17164947  -0.58507442  -0.66223552  1.0
  P  P9  1  -0.23705766  -0.13933738  -0.45413967  1.0
  P  P10  1  -0.26150535  -0.76704459  -0.75612390  1.0
  P  P11  1  -0.27543404  -0.83164062  -0.54550764  1.0
  P  P12  1  -0.27115539  -0.30030574  -0.16869607  1.0
  P  P13  1  -0.34338002  -0.13916825  -0.11193248  1.0
  P  P14  1  -0.41406772  -0.07143286  -0.33082177  1.0
  P  P15  1  -0.38735704  -0.69897852  -0.43032964  1.0
  P  P16  1  -0.42084028  -0.57426669  -0.58664829  1.0
  P  P17  1  -0.45542430  -0.27389578  -0.63840643  1.0
  P  P18  1  -0.53806562  -0.55322747  -0.04662879  1.0
  P  P19  1  -0.55685425  -0.14202960  -0.77250634  1.0
  P  P20  1  -0.57814096  -0.73090338  -0.10464038  1.0
  P  P21  1  -0.57499432  -0.80133196  -0.89113320  1.0
  P  P22  1  -0.71344610  -0.17399928  -0.46078072  1.0
  P  P23  1  -0.73396777  -0.07341737  -0.65050234  1.0
  P  P24  1  -0.68454066  -0.67754616  -0.77060925  1.0
  P  P25  1  -0.67412037  -0.33359859  -0.54349928  1.0
  P  P26  1  -0.75261629  -0.56054170  -0.93953931  1.0
  P  P27  1  -0.77306503  -0.24179668  0.00824023  1.0
  P  P28  1  -0.86648973  -0.10602300  -0.11551633  1.0
  P  P29  1  -0.89721246  -0.80605303  -0.20868803  1.0
  P  P30  1  -0.95747599  -0.76956733  -0.44628110  1.0
  P  P31  1  -0.94291574  -0.58770170  -0.42247097  1.0
