# generated using pymatgen
data_Si3Ru5
_symmetry_space_group_name_H-M   'P 1'
_cell_length_a   5.28399818
_cell_length_b   9.85505517
_cell_length_c   4.03576191
_cell_angle_alpha   90.00000000
_cell_angle_beta   90.00000000
_cell_angle_gamma   90.00000000
_symmetry_Int_Tables_number   1
_chemical_formula_structural   Si3Ru5
_chemical_formula_sum   'Si6 Ru10'
_cell_volume   210.15864313
_cell_formula_units_Z   2
loop_
 _symmetry_equiv_pos_site_id
 _symmetry_equiv_pos_as_xyz
  1  'x, y, z'
loop_
 _atom_site_type_symbol
 _atom_site_label
 _atom_site_symmetry_multiplicity
 _atom_site_fract_x
 _atom_site_fract_y
 _atom_site_fract_z
 _atom_site_occupancy
  Si  Si0  1  0.37268689  0.63866364  0.50000000  1.0
  Si  Si1  1  0.87268689  0.86133636  0.50000000  1.0
  Si  Si2  1  0.62731311  0.36133636  0.50000000  1.0
  Si  Si3  1  0.12731311  0.13866364  0.50000000  1.0
  Si  Si4  1  0.50000000  0.00000000  0.00000000  1.0
  Si  Si5  1  0.00000000  0.50000000  0.00000000  1.0
  Ru  Ru6  1  0.33391014  0.89131967  0.50000000  1.0
  Ru  Ru7  1  0.83391014  0.60868033  0.50000000  1.0
  Ru  Ru8  1  0.66608986  0.10868033  0.50000000  1.0
  Ru  Ru9  1  0.16608986  0.39131967  0.50000000  1.0
  Ru  Ru10  1  0.15735952  0.72656202  0.00000000  1.0
  Ru  Ru11  1  0.65735952  0.77343798  0.00000000  1.0
  Ru  Ru12  1  0.84264048  0.27343798  0.00000000  1.0
  Ru  Ru13  1  0.34264048  0.22656202  0.00000000  1.0
  Ru  Ru14  1  0.50000000  0.50000000  0.00000000  1.0
  Ru  Ru15  1  0.00000000  0.00000000  0.00000000  1.0
