# generated using pymatgen
data_Cs3PdF5
_symmetry_space_group_name_H-M   'P 1'
_cell_length_a   8.04648171
_cell_length_b   8.04648171
_cell_length_c   6.75674668
_cell_angle_alpha   90.00000000
_cell_angle_beta   90.00000000
_cell_angle_gamma   90.00000000
_symmetry_Int_Tables_number   1
_chemical_formula_structural   Cs3PdF5
_chemical_formula_sum   'Cs6 Pd2 F10'
_cell_volume   437.47142787
_cell_formula_units_Z   2
loop_
 _symmetry_equiv_pos_site_id
 _symmetry_equiv_pos_as_xyz
  1  'x, y, z'
loop_
 _atom_site_type_symbol
 _atom_site_label
 _atom_site_symmetry_multiplicity
 _atom_site_fract_x
 _atom_site_fract_y
 _atom_site_fract_z
 _atom_site_occupancy
  Cs  Cs0  1  0.32046185  0.17953815  0.50000000  1.0
  Cs  Cs1  1  0.82046185  0.32046185  0.50000000  1.0
  Cs  Cs2  1  0.67953815  0.82046185  0.50000000  1.0
  Cs  Cs3  1  0.17953815  0.67953815  0.50000000  1.0
  Cs  Cs4  1  0.50000000  0.50000000  0.00000000  1.0
  Cs  Cs5  1  0.00000000  0.00000000  0.00000000  1.0
  Pd  Pd6  1  0.50000000  0.00000000  0.00000000  1.0
  Pd  Pd7  1  0.00000000  0.50000000  0.00000000  1.0
  F  F8  1  0.50000000  0.50000000  0.50000000  1.0
  F  F9  1  0.00000000  0.00000000  0.50000000  1.0
  F  F10  1  0.87501321  0.62498679  0.79460525  1.0
  F  F11  1  0.87501321  0.62498679  0.20539475  1.0
  F  F12  1  0.37501321  0.87501321  0.79460525  1.0
  F  F13  1  0.37501321  0.87501321  0.20539475  1.0
  F  F14  1  0.12498679  0.37501321  0.79460525  1.0
  F  F15  1  0.12498679  0.37501321  0.20539475  1.0
  F  F16  1  0.62498679  0.12498679  0.79460525  1.0
  F  F17  1  0.62498679  0.12498679  0.20539475  1.0
