# generated using pymatgen
data_In5CuS8
_symmetry_space_group_name_H-M   'P 1'
_cell_length_a   7.65903725
_cell_length_b   7.65903725
_cell_length_c   7.65903725
_cell_angle_alpha   60.00000000
_cell_angle_beta   60.00000000
_cell_angle_gamma   60.00000000
_symmetry_Int_Tables_number   1
_chemical_formula_structural   In5CuS8
_chemical_formula_sum   'In5 Cu1 S8'
_cell_volume   317.69292817
_cell_formula_units_Z   1
loop_
 _symmetry_equiv_pos_site_id
 _symmetry_equiv_pos_as_xyz
  1  'x, y, z'
loop_
 _atom_site_type_symbol
 _atom_site_label
 _atom_site_symmetry_multiplicity
 _atom_site_fract_x
 _atom_site_fract_y
 _atom_site_fract_z
 _atom_site_occupancy
  In  In0  1  -0.36860642  0.63139358  0.63139358  1.0
  In  In1  1  1.10581926  0.63139358  -0.36860642  1.0
  In  In2  1  -0.36860642  0.63139358  1.10581926  1.0
  In  In3  1  0.63139358  1.10581926  -0.36860642  1.0
  In  In4  1  0.25000000  0.25000000  0.25000000  1.0
  Cu  Cu5  1  0.00000000  0.00000000  0.00000000  1.0
  S  S6  1  0.87335470  0.87335470  -0.12664530  1.0
  S  S7  1  0.37993590  0.87335470  -0.12664530  1.0
  S  S8  1  0.87335470  0.87335470  -0.62006410  1.0
  S  S9  1  0.87335470  0.37993590  -0.12664530  1.0
  S  S10  1  0.38426116  1.38426116  0.38426116  1.0
  S  S11  1  -0.15278349  0.38426116  0.38426116  1.0
  S  S12  1  0.38426116  1.38426116  -0.15278349  1.0
  S  S13  1  0.38426116  -0.15278349  0.38426116  1.0
