# generated using pymatgen
data_BaMnAsF
_symmetry_space_group_name_H-M   'P 1'
_cell_length_a   4.30059963
_cell_length_b   4.30059963
_cell_length_c   9.43697706
_cell_angle_alpha   90.00000000
_cell_angle_beta   90.00000000
_cell_angle_gamma   90.00000000
_symmetry_Int_Tables_number   1
_chemical_formula_structural   BaMnAsF
_chemical_formula_sum   'Ba2 Mn2 As2 F2'
_cell_volume   174.53837412
_cell_formula_units_Z   2
loop_
 _symmetry_equiv_pos_site_id
 _symmetry_equiv_pos_as_xyz
  1  'x, y, z'
loop_
 _atom_site_type_symbol
 _atom_site_label
 _atom_site_symmetry_multiplicity
 _atom_site_fract_x
 _atom_site_fract_y
 _atom_site_fract_z
 _atom_site_occupancy
  Ba  Ba0  1  0.00000000  0.50000000  0.66580325  1.0
  Ba  Ba1  1  0.50000000  0.00000000  0.33419675  1.0
  Mn  Mn2  1  0.50000000  0.50000000  0.00000000  1.0
  Mn  Mn3  1  0.00000000  0.00000000  0.00000000  1.0
  As  As4  1  0.00000000  0.50000000  0.13901168  1.0
  As  As5  1  0.50000000  0.00000000  0.86098832  1.0
  F  F6  1  0.50000000  0.50000000  0.50000000  1.0
  F  F7  1  0.00000000  0.00000000  0.50000000  1.0
