# generated using pymatgen
data_Li3Si2
_symmetry_space_group_name_H-M   'P 1'
_cell_length_a   6.49624146
_cell_length_b   6.49624146
_cell_length_c   6.15040234
_cell_angle_alpha   75.89324618
_cell_angle_beta   104.10675382
_cell_angle_gamma   140.72888729
_symmetry_Int_Tables_number   1
_chemical_formula_structural   Li3Si2
_chemical_formula_sum   'Li6 Si4'
_cell_volume   158.69890021
_cell_formula_units_Z   2
loop_
 _symmetry_equiv_pos_site_id
 _symmetry_equiv_pos_as_xyz
  1  'x, y, z'
loop_
 _atom_site_type_symbol
 _atom_site_label
 _atom_site_symmetry_multiplicity
 _atom_site_fract_x
 _atom_site_fract_y
 _atom_site_fract_z
 _atom_site_occupancy
  Li  Li0  1  0.71119665  -0.71119665  0.58816309  1.0
  Li  Li1  1  1.28880335  -0.28880335  0.41183691  1.0
  Li  Li2  1  1.25878187  -0.25878187  0.87337341  1.0
  Li  Li3  1  0.74121813  -0.74121813  0.12662659  1.0
  Li  Li4  1  0.51262895  -0.51262895  0.76322199  1.0
  Li  Li5  1  1.48737105  -0.48737105  0.23677801  1.0
  Si  Si6  1  0.90404660  -0.90404660  0.89853715  1.0
  Si  Si7  1  1.09595340  -0.09595340  0.10146285  1.0
  Si  Si8  1  0.90672840  -0.90672840  0.50965912  1.0
  Si  Si9  1  1.09327160  -0.09327160  0.49034088  1.0
