# generated using pymatgen
data_RbV(PO4)2
_symmetry_space_group_name_H-M   'P 1'
_cell_length_a   7.65265974
_cell_length_b   9.42733895
_cell_length_c   8.76566927
_cell_angle_alpha   64.43437437
_cell_angle_beta   66.77087153
_cell_angle_gamma   67.22609105
_symmetry_Int_Tables_number   1
_chemical_formula_structural   RbV(PO4)2
_chemical_formula_sum   'Rb3 V3 P6 O24'
_cell_volume   505.96878591
_cell_formula_units_Z   3
loop_
 _symmetry_equiv_pos_site_id
 _symmetry_equiv_pos_as_xyz
  1  'x, y, z'
loop_
 _atom_site_type_symbol
 _atom_site_label
 _atom_site_symmetry_multiplicity
 _atom_site_fract_x
 _atom_site_fract_y
 _atom_site_fract_z
 _atom_site_occupancy
  P  P0  1  -0.93192320  -0.71927574  -0.56405258  1.0
  P  P1  1  -0.06807680  -0.28072426  -0.43594742  1.0
  P  P2  1  -0.59623219  -0.72154570  -0.33498767  1.0
  P  P3  1  -0.40376781  -0.27845430  -0.66501233  1.0
  P  P4  1  -0.45457914  -0.72991801  -0.87873586  1.0
  P  P5  1  -0.54542086  -0.27008199  -0.12126414  1.0
  O  O6  1  -0.93013853  -0.29027398  -0.62171907  1.0
  O  O7  1  -0.06986147  -0.70972602  -0.37828093  1.0
  O  O8  1  -0.87118251  -0.55528395  -0.67349722  1.0
  O  O9  1  -0.12881749  -0.44471605  -0.32650278  1.0
  O  O10  1  -0.73932218  -0.85825939  -0.52228044  1.0
  O  O11  1  -0.26067782  -0.14174061  -0.47771956  1.0
  O  O12  1  -0.72077111  -0.29456442  -0.94507107  1.0
  O  O13  1  -0.27922889  -0.70543558  -0.05492893  1.0
  O  O14  1  -0.65789686  -0.56838527  -0.49181373  1.0
  O  O15  1  -0.34210314  -0.43161473  -0.50818627  1.0
  O  O16  1  -0.54630038  -0.31773627  -0.72339387  1.0
  O  O17  1  -0.45369962  -0.68226373  -0.27660613  1.0
  O  O18  1  -0.49411174  -0.58095695  -0.81686640  1.0
  O  O19  1  -0.50588826  -0.41904305  -0.18313360  1.0
  O  O20  1  -0.46205015  -0.86585874  -0.40837633  1.0
  O  O21  1  -0.53794985  -0.13414126  -0.59162367  1.0
  O  O22  1  -0.36684695  -0.88469820  -0.73514542  1.0
  O  O23  1  -0.63315305  -0.11530180  -0.26485458  1.0
  O  O24  1  -0.77154839  -0.75846500  -0.18346269  1.0
  O  O25  1  -0.22845161  -0.24153500  -0.81653731  1.0
  O  O26  1  -0.63042659  -0.74087467  -0.90374906  1.0
  O  O27  1  -0.36957341  -0.25912533  -0.09625094  1.0
  O  O28  1  -0.97056139  -0.24214590  -0.34563712  1.0
  O  O29  1  -0.02943861  -0.75785410  -0.65436288  1.0
  Rb  Rb30  1  -0.84186196  -0.97372454  -0.84120025  1.0
  Rb  Rb31  1  -0.15813804  -0.02627546  -0.15879975  1.0
  Rb  Rb32  1  -0.00000000  -0.50000000  0.00000000  1.0
  V  V33  1  -0.69777568  -0.43699201  -0.71185776  1.0
  V  V34  1  -0.30222432  -0.56300799  -0.28814224  1.0
  V  V35  1  -0.50000000  0.00000000  -0.50000000  1.0
