# generated using pymatgen
data_CdCu2
_symmetry_space_group_name_H-M   'P 1'
_cell_length_a   5.04548330
_cell_length_b   5.04548330
_cell_length_c   16.25580820
_cell_angle_alpha   90.00000000
_cell_angle_beta   90.00000000
_cell_angle_gamma   120.00000000
_symmetry_Int_Tables_number   1
_chemical_formula_structural   CdCu2
_chemical_formula_sum   'Cd8 Cu16'
_cell_volume   358.38080820
_cell_formula_units_Z   8
loop_
 _symmetry_equiv_pos_site_id
 _symmetry_equiv_pos_as_xyz
  1  'x, y, z'
loop_
 _atom_site_type_symbol
 _atom_site_label
 _atom_site_symmetry_multiplicity
 _atom_site_fract_x
 _atom_site_fract_y
 _atom_site_fract_z
 _atom_site_occupancy
  Cd  Cd0  1  0.00000000  0.00000000  0.40576124  1.0
  Cd  Cd1  1  0.00000000  0.00000000  0.59423876  1.0
  Cd  Cd2  1  0.00000000  0.00000000  0.90576124  1.0
  Cd  Cd3  1  0.00000000  0.00000000  0.09423876  1.0
  Cd  Cd4  1  0.33333333  0.66666667  0.65602134  1.0
  Cd  Cd5  1  0.66666667  0.33333333  0.34397866  1.0
  Cd  Cd6  1  0.66666667  0.33333333  0.15602134  1.0
  Cd  Cd7  1  0.33333333  0.66666667  0.84397866  1.0
  Cu  Cu8  1  0.33333333  0.66666667  0.37471265  1.0
  Cu  Cu9  1  0.66666667  0.33333333  0.62528735  1.0
  Cu  Cu10  1  0.66666667  0.33333333  0.87471265  1.0
  Cu  Cu11  1  0.33333333  0.66666667  0.12528735  1.0
  Cu  Cu12  1  0.50000000  0.50000000  0.50000000  1.0
  Cu  Cu13  1  0.50000000  0.00000000  0.50000000  1.0
  Cu  Cu14  1  0.00000000  0.50000000  0.50000000  1.0
  Cu  Cu15  1  0.50000000  0.50000000  0.00000000  1.0
  Cu  Cu16  1  0.50000000  0.00000000  0.00000000  1.0
  Cu  Cu17  1  0.00000000  0.50000000  0.00000000  1.0
  Cu  Cu18  1  0.16458473  0.83541527  0.25000000  1.0
  Cu  Cu19  1  0.16458473  0.32916946  0.25000000  1.0
  Cu  Cu20  1  0.67083054  0.83541527  0.25000000  1.0
  Cu  Cu21  1  0.83541527  0.16458473  0.75000000  1.0
  Cu  Cu22  1  0.83541527  0.67083054  0.75000000  1.0
  Cu  Cu23  1  0.32916946  0.16458473  0.75000000  1.0
