# generated using pymatgen
data_BaAu
_symmetry_space_group_name_H-M   'P 1'
_cell_length_a   8.42242431
_cell_length_b   5.00470548
_cell_length_c   6.47788648
_cell_angle_alpha   90.00000000
_cell_angle_beta   90.00000000
_cell_angle_gamma   90.00000000
_symmetry_Int_Tables_number   1
_chemical_formula_structural   BaAu
_chemical_formula_sum   'Ba4 Au4'
_cell_volume   273.05427157
_cell_formula_units_Z   4
loop_
 _symmetry_equiv_pos_site_id
 _symmetry_equiv_pos_as_xyz
  1  'x, y, z'
loop_
 _atom_site_type_symbol
 _atom_site_label
 _atom_site_symmetry_multiplicity
 _atom_site_fract_x
 _atom_site_fract_y
 _atom_site_fract_z
 _atom_site_occupancy
  Ba  Ba0  1  0.31640274  0.75000000  0.13855520  1.0
  Ba  Ba1  1  0.81640274  0.75000000  0.36144480  1.0
  Ba  Ba2  1  0.68359726  0.25000000  0.86144480  1.0
  Ba  Ba3  1  0.18359726  0.25000000  0.63855520  1.0
  Au  Au4  1  0.46114387  0.75000000  0.63609463  1.0
  Au  Au5  1  0.96114387  0.75000000  0.86390537  1.0
  Au  Au6  1  0.53885613  0.25000000  0.36390537  1.0
  Au  Au7  1  0.03885613  0.25000000  0.13609463  1.0
