# generated using pymatgen
data_Rb8Tl11
_symmetry_space_group_name_H-M   'P 1'
_cell_length_a   18.99729636
_cell_length_b   18.99729636
_cell_length_c   18.99729636
_cell_angle_alpha   32.40946033
_cell_angle_beta   32.40946033
_cell_angle_gamma   32.40946033
_symmetry_Int_Tables_number   1
_chemical_formula_structural   Rb8Tl11
_chemical_formula_sum   'Rb16 Tl22'
_cell_volume   1751.00023235
_cell_formula_units_Z   2
loop_
 _symmetry_equiv_pos_site_id
 _symmetry_equiv_pos_as_xyz
  1  'x, y, z'
loop_
 _atom_site_type_symbol
 _atom_site_label
 _atom_site_symmetry_multiplicity
 _atom_site_fract_x
 _atom_site_fract_y
 _atom_site_fract_z
 _atom_site_occupancy
  Rb  Rb0  1  0.58808227  0.15419655  -0.17496807  1.0
  Rb  Rb1  1  1.08808227  0.32503193  -0.34580345  1.0
  Rb  Rb2  1  0.67496807  0.34580345  -0.08808227  1.0
  Rb  Rb3  1  1.17496807  0.41191773  -0.15419655  1.0
  Rb  Rb4  1  0.84580345  0.17496807  0.41191773  1.0
  Rb  Rb5  1  0.34580345  0.91191773  -0.32503193  1.0
  Rb  Rb6  1  1.41191773  -0.15419655  0.17496807  1.0
  Rb  Rb7  1  0.91191773  0.67496807  -0.65419655  1.0
  Rb  Rb8  1  0.82503193  -0.41191773  0.15419655  1.0
  Rb  Rb9  1  1.32503193  -0.34580345  0.08808227  1.0
  Rb  Rb10  1  0.65419655  0.08808227  0.32503193  1.0
  Rb  Rb11  1  1.15419655  -0.17496807  -0.41191773  1.0
  Rb  Rb12  1  0.92144364  -0.07855636  -0.07855636  1.0
  Rb  Rb13  1  0.42144364  0.42144364  0.42144364  1.0
  Rb  Rb14  1  0.57855636  0.57855636  -0.42144364  1.0
  Rb  Rb15  1  1.07855636  0.07855636  0.07855636  1.0
  Tl  Tl16  1  0.57256626  -0.00354248  0.27270410  1.0
  Tl  Tl17  1  1.07256626  0.77270410  -0.50354248  1.0
  Tl  Tl18  1  0.22729590  0.50354248  -0.07256626  1.0
  Tl  Tl19  1  0.72729590  0.42743374  0.00354248  1.0
  Tl  Tl20  1  1.00354248  0.72729590  -0.57256626  1.0
  Tl  Tl21  1  0.50354248  0.92743374  -0.77270410  1.0
  Tl  Tl22  1  0.42743374  1.00354248  -0.27270410  1.0
  Tl  Tl23  1  0.92743374  0.22729590  -0.49645752  1.0
  Tl  Tl24  1  1.27270410  -0.42743374  -0.00354248  1.0
  Tl  Tl25  1  0.77270410  0.49645752  0.07256626  1.0
  Tl  Tl26  1  0.49645752  1.07256626  -0.22729590  1.0
  Tl  Tl27  1  0.99645752  0.27270410  -0.42743374  1.0
  Tl  Tl28  1  0.53918249  0.75000000  -0.03918249  1.0
  Tl  Tl29  1  1.03918249  -0.53918249  0.25000000  1.0
  Tl  Tl30  1  0.25000000  1.03918249  -0.53918249  1.0
  Tl  Tl31  1  0.75000000  0.96081751  -0.46081751  1.0
  Tl  Tl32  1  0.46081751  0.25000000  0.03918249  1.0
  Tl  Tl33  1  0.96081751  0.53918249  -0.25000000  1.0
  Tl  Tl34  1  0.80031067  0.80031067  -0.19968933  1.0
  Tl  Tl35  1  0.30031067  0.30031067  0.30031067  1.0
  Tl  Tl36  1  0.69968933  0.69968933  -0.30031067  1.0
  Tl  Tl37  1  0.19968933  0.19968933  0.19968933  1.0
