# generated using pymatgen
data_Bi13O20
_symmetry_space_group_name_H-M   'P 1'
_cell_length_a   9.06955308
_cell_length_b   9.06955308
_cell_length_c   9.06955308
_cell_angle_alpha   109.47122063
_cell_angle_beta   109.47122063
_cell_angle_gamma   109.47122063
_symmetry_Int_Tables_number   1
_chemical_formula_structural   Bi13O20
_chemical_formula_sum   'Bi13 O20'
_cell_volume   574.29597089
_cell_formula_units_Z   1
loop_
 _symmetry_equiv_pos_site_id
 _symmetry_equiv_pos_as_xyz
  1  'x, y, z'
loop_
 _atom_site_type_symbol
 _atom_site_label
 _atom_site_symmetry_multiplicity
 _atom_site_fract_x
 _atom_site_fract_y
 _atom_site_fract_z
 _atom_site_occupancy
  O  O0  1  0.63898737  0.74549619  0.37017200  1.0
  O  O1  1  1.37532419  1.26881536  0.62982800  1.0
  O  O2  1  0.37017200  0.63898737  0.74549619  1.0
  O  O3  1  0.89349117  0.62467581  0.25450381  1.0
  O  O4  1  0.74549619  0.37017200  0.63898737  1.0
  O  O5  1  0.73118464  1.10650883  1.36101263  1.0
  O  O6  1  0.62467581  0.25450381  0.89349117  1.0
  O  O7  1  1.36101263  0.73118464  1.10650883  1.0
  O  O8  1  1.10650883  1.36101263  0.73118464  1.0
  O  O9  1  0.62982800  1.37532419  1.26881536  1.0
  O  O10  1  1.26881536  0.62982800  1.37532419  1.0
  O  O11  1  0.25450381  0.89349117  0.62467581  1.0
  O  O12  1  0.62611493  0.62611493  0.62611493  1.0
  O  O13  1  1.00000000  1.00000000  0.37388507  1.0
  O  O14  1  1.00000000  0.37388507  1.00000000  1.0
  O  O15  1  0.37388507  1.00000000  1.00000000  1.0
  O  O16  1  0.23729301  0.23729301  0.23729301  1.0
  O  O17  1  1.00000000  1.00000000  0.76270699  1.0
  O  O18  1  1.00000000  0.76270699  1.00000000  1.0
  O  O19  1  0.76270699  1.00000000  1.00000000  1.0
  Bi  Bi20  1  0.80512393  0.66300081  0.50097772  1.0
  Bi  Bi21  1  1.16202309  1.30414621  0.49902228  1.0
  Bi  Bi22  1  0.50097772  0.80512393  0.66300081  1.0
  Bi  Bi23  1  1.14212312  0.83797691  1.33699919  1.0
  Bi  Bi24  1  0.66300081  0.50097772  0.80512393  1.0
  Bi  Bi25  1  0.69585379  0.85787688  0.19487607  1.0
  Bi  Bi26  1  0.83797691  1.33699919  1.14212312  1.0
  Bi  Bi27  1  0.19487607  0.69585379  0.85787688  1.0
  Bi  Bi28  1  0.85787688  0.19487607  0.69585379  1.0
  Bi  Bi29  1  0.49902228  1.16202309  1.30414621  1.0
  Bi  Bi30  1  1.30414621  0.49902228  1.16202309  1.0
  Bi  Bi31  1  1.33699919  1.14212312  0.83797691  1.0
  Bi  Bi32  1  0.00000000  -0.00000000  0.00000000  1.0
