# generated using pymatgen
data_Dy6Fe23
_symmetry_space_group_name_H-M   'P 1'
_cell_length_a   8.44479597
_cell_length_b   8.44479597
_cell_length_c   8.44479597
_cell_angle_alpha   60.00000000
_cell_angle_beta   60.00000000
_cell_angle_gamma   60.00000000
_symmetry_Int_Tables_number   1
_chemical_formula_structural   Dy6Fe23
_chemical_formula_sum   'Dy6 Fe23'
_cell_volume   425.84591488
_cell_formula_units_Z   1
loop_
 _symmetry_equiv_pos_site_id
 _symmetry_equiv_pos_as_xyz
  1  'x, y, z'
loop_
 _atom_site_type_symbol
 _atom_site_label
 _atom_site_symmetry_multiplicity
 _atom_site_fract_x
 _atom_site_fract_y
 _atom_site_fract_z
 _atom_site_occupancy
  Dy  Dy0  1  -0.70835240  0.70835240  0.70835240  1.0
  Dy  Dy1  1  -0.29164760  0.29164760  0.70835240  1.0
  Dy  Dy2  1  0.70835240  0.70835240  -0.70835240  1.0
  Dy  Dy3  1  0.29164760  1.29164760  -0.29164760  1.0
  Dy  Dy4  1  0.29164760  -0.29164760  1.29164760  1.0
  Dy  Dy5  1  -0.29164760  0.29164760  0.29164760  1.0
  Fe  Fe6  1  0.87862948  0.87862948  -0.12137052  1.0
  Fe  Fe7  1  1.12137052  0.12137052  0.63588843  1.0
  Fe  Fe8  1  1.12137052  0.63588843  0.12137052  1.0
  Fe  Fe9  1  0.36411157  0.87862948  -0.12137052  1.0
  Fe  Fe10  1  1.63588843  0.12137052  0.12137052  1.0
  Fe  Fe11  1  0.87862948  0.36411157  -0.12137052  1.0
  Fe  Fe12  1  0.87862948  0.87862948  -0.63588843  1.0
  Fe  Fe13  1  1.12137052  0.12137052  0.12137052  1.0
  Fe  Fe14  1  0.67556050  0.67556050  -0.32443950  1.0
  Fe  Fe15  1  1.32443950  0.32443950  0.02668151  1.0
  Fe  Fe16  1  1.32443950  0.02668151  0.32443950  1.0
  Fe  Fe17  1  0.97331849  0.67556050  -0.32443950  1.0
  Fe  Fe18  1  1.02668151  0.32443950  0.32443950  1.0
  Fe  Fe19  1  0.67556050  0.97331849  -0.32443950  1.0
  Fe  Fe20  1  0.67556050  0.67556050  -0.02668151  1.0
  Fe  Fe21  1  1.32443950  0.32443950  0.32443950  1.0
  Fe  Fe22  1  1.50000000  0.00000000  -0.00000000  1.0
  Fe  Fe23  1  1.00000000  0.50000000  -0.50000000  1.0
  Fe  Fe24  1  0.00000000  1.50000000  -0.00000000  1.0
  Fe  Fe25  1  0.50000000  1.00000000  -0.50000000  1.0
  Fe  Fe26  1  0.00000000  0.00000000  0.50000000  1.0
  Fe  Fe27  1  0.50000000  -0.50000000  1.00000000  1.0
  Fe  Fe28  1  0.00000000  -0.00000000  -0.00000000  1.0
