# generated using pymatgen
data_PW3
_symmetry_space_group_name_H-M   'P 1'
_cell_length_a   7.39048366
_cell_length_b   7.39048366
_cell_length_c   7.39048366
_cell_angle_alpha   96.20011614
_cell_angle_beta   96.20011614
_cell_angle_gamma   141.62803178
_symmetry_Int_Tables_number   1
_chemical_formula_structural   PW3
_chemical_formula_sum   'P4 W12'
_cell_volume   236.66138403
_cell_formula_units_Z   4
loop_
 _symmetry_equiv_pos_site_id
 _symmetry_equiv_pos_as_xyz
  1  'x, y, z'
loop_
 _atom_site_type_symbol
 _atom_site_label
 _atom_site_symmetry_multiplicity
 _atom_site_fract_x
 _atom_site_fract_y
 _atom_site_fract_z
 _atom_site_occupancy
  P  P0  1  0.70788472  -0.00000000  0.70788472  1.0
  P  P1  1  1.00000000  0.70788472  0.70788472  1.0
  P  P2  1  1.00000000  1.29211528  1.29211528  1.0
  P  P3  1  0.29211528  0.00000000  0.29211528  1.0
  W  W4  1  0.63816612  0.63816612  0.81220121  1.0
  W  W5  1  1.17403508  1.36183388  1.00000000  1.0
  W  W6  1  0.36183388  1.17403508  1.00000000  1.0
  W  W7  1  0.82596492  0.82596492  0.18779879  1.0
  W  W8  1  0.42682313  0.42682313  0.39960456  1.0
  W  W9  1  0.97278142  1.57317687  1.00000000  1.0
  W  W10  1  0.57317687  0.97278142  1.00000000  1.0
  W  W11  1  1.02721858  1.02721858  0.60039544  1.0
  W  W12  1  1.14588126  0.50000000  0.64588126  1.0
  W  W13  1  0.50000000  0.14588126  0.64588126  1.0
  W  W14  1  0.50000000  0.85411874  1.35411874  1.0
  W  W15  1  0.85411874  0.50000000  0.35411874  1.0
