# generated using pymatgen
data_CaN2
_symmetry_space_group_name_H-M   'P 1'
_cell_length_a   3.92259903
_cell_length_b   3.92259903
_cell_length_c   3.92259903
_cell_angle_alpha   125.19509967
_cell_angle_beta   125.19509967
_cell_angle_gamma   81.21513108
_symmetry_Int_Tables_number   1
_chemical_formula_structural   CaN2
_chemical_formula_sum   'Ca1 N2'
_cell_volume   38.82344312
_cell_formula_units_Z   1
loop_
 _symmetry_equiv_pos_site_id
 _symmetry_equiv_pos_as_xyz
  1  'x, y, z'
loop_
 _atom_site_type_symbol
 _atom_site_label
 _atom_site_symmetry_multiplicity
 _atom_site_fract_x
 _atom_site_fract_y
 _atom_site_fract_z
 _atom_site_occupancy
  Ca  Ca0  1  0.00000000  0.00000000  0.00000000  1.0
  N  N1  1  0.60514436  0.60514436  1.00000000  1.0
  N  N2  1  0.39485564  0.39485564  -0.00000000  1.0
