# generated using pymatgen
data_La(In2Au)2
_symmetry_space_group_name_H-M   'P 1'
_cell_length_a   18.86239430
_cell_length_b   4.78324564
_cell_length_c   7.49445250
_cell_angle_alpha   90.00000000
_cell_angle_beta   90.00000000
_cell_angle_gamma   90.00000000
_symmetry_Int_Tables_number   1
_chemical_formula_structural   La(In2Au)2
_chemical_formula_sum   'La4 In16 Au8'
_cell_volume   676.17547491
_cell_formula_units_Z   4
loop_
 _symmetry_equiv_pos_site_id
 _symmetry_equiv_pos_as_xyz
  1  'x, y, z'
loop_
 _atom_site_type_symbol
 _atom_site_label
 _atom_site_symmetry_multiplicity
 _atom_site_fract_x
 _atom_site_fract_y
 _atom_site_fract_z
 _atom_site_occupancy
  La  La0  1  0.14053228  0.75000000  0.52038350  1.0
  La  La1  1  0.64053228  0.75000000  0.97961650  1.0
  La  La2  1  0.85946772  0.25000000  0.47961650  1.0
  La  La3  1  0.35946772  0.25000000  0.02038350  1.0
  In  In4  1  0.46502971  0.75000000  0.84944055  1.0
  In  In5  1  0.96502971  0.75000000  0.65055945  1.0
  In  In6  1  0.53497029  0.25000000  0.15055945  1.0
  In  In7  1  0.03497029  0.25000000  0.34944055  1.0
  In  In8  1  0.31572302  0.75000000  0.32198387  1.0
  In  In9  1  0.81572302  0.75000000  0.17801613  1.0
  In  In10  1  0.68427698  0.25000000  0.67801613  1.0
  In  In11  1  0.18427698  0.25000000  0.82198387  1.0
  In  In12  1  0.31101888  0.75000000  0.72980376  1.0
  In  In13  1  0.81101888  0.75000000  0.77019624  1.0
  In  In14  1  0.68898112  0.25000000  0.27019624  1.0
  In  In15  1  0.18898112  0.25000000  0.22980376  1.0
  In  In16  1  0.06766251  0.75000000  0.98852757  1.0
  In  In17  1  0.56766251  0.75000000  0.51147243  1.0
  In  In18  1  0.93233749  0.25000000  0.01147243  1.0
  In  In19  1  0.43233749  0.25000000  0.48852757  1.0
  Au  Au20  1  0.46210541  0.75000000  0.23909653  1.0
  Au  Au21  1  0.96210541  0.75000000  0.26090347  1.0
  Au  Au22  1  0.53789459  0.25000000  0.76090347  1.0
  Au  Au23  1  0.03789459  0.25000000  0.73909653  1.0
  Au  Au24  1  0.21799389  0.75000000  0.02967466  1.0
  Au  Au25  1  0.71799389  0.75000000  0.47032534  1.0
  Au  Au26  1  0.78200611  0.25000000  0.97032534  1.0
  Au  Au27  1  0.28200611  0.25000000  0.52967466  1.0
