# generated using pymatgen
data_SiSe2
_symmetry_space_group_name_H-M   'P 1'
_cell_length_a   7.07652146
_cell_length_b   7.07652146
_cell_length_c   7.07652146
_cell_angle_alpha   124.47047824
_cell_angle_beta   77.63557027
_cell_angle_gamma   130.40207052
_symmetry_Int_Tables_number   1
_chemical_formula_structural   SiSe2
_chemical_formula_sum   'Si2 Se4'
_cell_volume   215.79499361
_cell_formula_units_Z   2
loop_
 _symmetry_equiv_pos_site_id
 _symmetry_equiv_pos_as_xyz
  1  'x, y, z'
loop_
 _atom_site_type_symbol
 _atom_site_label
 _atom_site_symmetry_multiplicity
 _atom_site_fract_x
 _atom_site_fract_y
 _atom_site_fract_z
 _atom_site_occupancy
  Si  Si0  1  0.25000000  0.25000000  -0.00000000  1.0
  Si  Si1  1  0.75000000  0.75000000  -0.00000000  1.0
  Se  Se2  1  0.38803704  0.30939796  0.69743500  1.0
  Se  Se3  1  0.11196296  0.80939796  0.92136092  1.0
  Se  Se4  1  0.88803704  1.19060204  1.07863908  1.0
  Se  Se5  1  0.61196296  0.69060204  0.30256500  1.0
