# generated using pymatgen
data_CaAs3
_symmetry_space_group_name_H-M   'P 1'
_cell_length_a   5.96861387
_cell_length_b   5.97329395
_cell_length_c   5.81314618
_cell_angle_alpha   72.78206486
_cell_angle_beta   72.99985797
_cell_angle_gamma   79.20537054
_symmetry_Int_Tables_number   1
_chemical_formula_structural   CaAs3
_chemical_formula_sum   'Ca2 As6'
_cell_volume   188.15894639
_cell_formula_units_Z   2
loop_
 _symmetry_equiv_pos_site_id
 _symmetry_equiv_pos_as_xyz
  1  'x, y, z'
loop_
 _atom_site_type_symbol
 _atom_site_label
 _atom_site_symmetry_multiplicity
 _atom_site_fract_x
 _atom_site_fract_y
 _atom_site_fract_z
 _atom_site_occupancy
  Ca  Ca0  1  0.16419346  0.16351868  0.17158219  1.0
  Ca  Ca1  1  0.83580654  0.83648132  0.82841781  1.0
  As  As2  1  0.08995105  0.63262833  0.29388588  1.0
  As  As3  1  0.91004895  0.36737167  0.70611412  1.0
  As  As4  1  0.51459578  0.51499252  0.27661588  1.0
  As  As5  1  0.48540422  0.48500748  0.72338412  1.0
  As  As6  1  0.63326971  0.09036857  0.29481132  1.0
  As  As7  1  0.36673029  0.90963143  0.70518868  1.0
