# generated using pymatgen
data_AsS(BrF2)3
_symmetry_space_group_name_H-M   'P 1'
_cell_length_a   8.65047285
_cell_length_b   9.72981122
_cell_length_c   12.37491354
_cell_angle_alpha   90.00000000
_cell_angle_beta   93.59481852
_cell_angle_gamma   90.00000000
_symmetry_Int_Tables_number   1
_chemical_formula_structural   AsS(BrF2)3
_chemical_formula_sum   'As4 S4 Br12 F24'
_cell_volume   1039.51575619
_cell_formula_units_Z   4
loop_
 _symmetry_equiv_pos_site_id
 _symmetry_equiv_pos_as_xyz
  1  'x, y, z'
loop_
 _atom_site_type_symbol
 _atom_site_label
 _atom_site_symmetry_multiplicity
 _atom_site_fract_x
 _atom_site_fract_y
 _atom_site_fract_z
 _atom_site_occupancy
  As  As0  1  0.79031894  0.71992813  0.94431010  1.0
  As  As1  1  0.79031894  0.78007187  0.44431010  1.0
  As  As2  1  0.20968106  0.21992813  0.55568990  1.0
  As  As3  1  0.20968106  0.28007187  0.05568990  1.0
  S  S4  1  0.78794200  0.29273601  0.77187432  1.0
  S  S5  1  0.78794200  0.20726399  0.27187432  1.0
  S  S6  1  0.21205800  0.79273601  0.72812568  1.0
  S  S7  1  0.21205800  0.70726399  0.22812568  1.0
  Br  Br8  1  0.42469916  0.80379187  0.64080700  1.0
  Br  Br9  1  0.42469916  0.69620813  0.14080700  1.0
  Br  Br10  1  0.57530084  0.30379187  0.85919300  1.0
  Br  Br11  1  0.57530084  0.19620813  0.35919300  1.0
  Br  Br12  1  0.24500116  0.94358861  0.85871244  1.0
  Br  Br13  1  0.24500116  0.55641139  0.35871244  1.0
  Br  Br14  1  0.75499884  0.44358861  0.64128756  1.0
  Br  Br15  1  0.75499884  0.05641139  0.14128756  1.0
  Br  Br16  1  0.22229230  0.59255620  0.80820909  1.0
  Br  Br17  1  0.22229230  0.90744380  0.30820909  1.0
  Br  Br18  1  0.77770770  0.09255620  0.69179091  1.0
  Br  Br19  1  0.77770770  0.40744380  0.19179091  1.0
  F  F20  1  0.03305626  0.26084802  0.47940081  1.0
  F  F21  1  0.03305626  0.23915198  -0.02059919  1.0
  F  F22  1  0.96694374  0.76084802  1.02059919  1.0
  F  F23  1  0.96694374  0.73915198  0.52059919  1.0
  F  F24  1  0.86008386  0.55124445  0.91630668  1.0
  F  F25  1  0.86008386  0.94875555  0.41630668  1.0
  F  F26  1  0.13991614  0.05124445  0.58369332  1.0
  F  F27  1  0.13991614  0.44875555  0.08369332  1.0
  F  F28  1  0.86624569  0.78613638  0.82358176  1.0
  F  F29  1  0.86624569  0.71386362  0.32358176  1.0
  F  F30  1  0.13375431  0.28613638  0.67641824  1.0
  F  F31  1  0.13375431  0.21386362  0.17641824  1.0
  F  F32  1  0.71208958  0.84496484  0.56824130  1.0
  F  F33  1  0.71208958  0.65503516  0.06824130  1.0
  F  F34  1  0.28791042  0.34496484  0.93175870  1.0
  F  F35  1  0.28791042  0.15503516  0.43175870  1.0
  F  F36  1  0.71483210  0.88867392  0.97533270  1.0
  F  F37  1  0.71483210  0.61132608  0.47533270  1.0
  F  F38  1  0.28516790  0.38867392  0.52466730  1.0
  F  F39  1  0.28516790  0.11132608  0.02466730  1.0
  F  F40  1  0.60885936  0.68159953  0.87318311  1.0
  F  F41  1  0.60885936  0.81840047  0.37318311  1.0
  F  F42  1  0.39114064  0.18159953  0.62681689  1.0
  F  F43  1  0.39114064  0.31840047  0.12681689  1.0
