# generated using pymatgen
data_Sr10P6SO24
_symmetry_space_group_name_H-M   'P 1'
_cell_length_a   9.93232488
_cell_length_b   9.93232488
_cell_length_c   7.27923736
_cell_angle_alpha   90.00000000
_cell_angle_beta   90.00000000
_cell_angle_gamma   120.00000000
_symmetry_Int_Tables_number   1
_chemical_formula_structural   Sr10P6SO24
_chemical_formula_sum   'Sr10 P6 S1 O24'
_cell_volume   621.89683402
_cell_formula_units_Z   1
loop_
 _symmetry_equiv_pos_site_id
 _symmetry_equiv_pos_as_xyz
  1  'x, y, z'
loop_
 _atom_site_type_symbol
 _atom_site_label
 _atom_site_symmetry_multiplicity
 _atom_site_fract_x
 _atom_site_fract_y
 _atom_site_fract_z
 _atom_site_occupancy
  Sr  Sr0  1  0.98911978  0.74289734  0.24074006  1.0
  Sr  Sr1  1  0.74289734  0.75377756  0.75925994  1.0
  Sr  Sr2  1  0.75377756  0.01088022  0.24074006  1.0
  Sr  Sr3  1  0.25710266  0.24622244  0.24074006  1.0
  Sr  Sr4  1  0.01088022  0.25710266  0.75925994  1.0
  Sr  Sr5  1  0.24622244  0.98911978  0.75925994  1.0
  Sr  Sr6  1  0.33333333  0.66666667  0.01883755  1.0
  Sr  Sr7  1  0.66666667  0.33333333  0.98116245  1.0
  Sr  Sr8  1  0.33333333  0.66666667  0.52100567  1.0
  Sr  Sr9  1  0.66666667  0.33333333  0.47899433  1.0
  P  P10  1  0.36909134  0.97106221  0.25292035  1.0
  P  P11  1  0.97106221  0.60197088  0.74707965  1.0
  P  P12  1  0.60197088  0.63090866  0.25292035  1.0
  P  P13  1  0.02893779  0.39802912  0.25292035  1.0
  P  P14  1  0.63090866  0.02893779  0.74707965  1.0
  P  P15  1  0.39802912  0.36909134  0.74707965  1.0
  S  S16  1  0.00000000  0.00000000  0.00000000  1.0
  O  O17  1  0.24439474  0.93480644  0.40491189  1.0
  O  O18  1  0.93480644  0.69041170  0.59508811  1.0
  O  O19  1  0.69041170  0.75560526  0.40491189  1.0
  O  O20  1  0.06519356  0.30958830  0.40491189  1.0
  O  O21  1  0.75560526  0.06519356  0.59508811  1.0
  O  O22  1  0.30958830  0.24439474  0.59508811  1.0
  O  O23  1  0.28186357  0.90050502  0.06852597  1.0
  O  O24  1  0.90050502  0.61864144  0.93147403  1.0
  O  O25  1  0.61864144  0.71813643  0.06852597  1.0
  O  O26  1  0.09949498  0.38135856  0.06852597  1.0
  O  O27  1  0.71813643  0.09949498  0.93147403  1.0
  O  O28  1  0.38135856  0.28186357  0.93147403  1.0
  O  O29  1  0.46385585  0.88707651  0.29508933  1.0
  O  O30  1  0.88707651  0.42322066  0.70491067  1.0
  O  O31  1  0.42322066  0.53614415  0.29508933  1.0
  O  O32  1  0.11292349  0.57677934  0.29508933  1.0
  O  O33  1  0.53614415  0.11292349  0.70491067  1.0
  O  O34  1  0.57677934  0.46385585  0.70491067  1.0
  O  O35  1  0.67120915  0.52038981  0.23925619  1.0
  O  O36  1  0.52038981  0.84918066  0.76074381  1.0
  O  O37  1  0.84918066  0.32879085  0.23925619  1.0
  O  O38  1  0.47961019  0.15081934  0.23925619  1.0
  O  O39  1  0.32879085  0.47961019  0.76074381  1.0
  O  O40  1  0.15081934  0.67120915  0.76074381  1.0
