# generated using pymatgen
data_LiLu(TlCl3)2
_symmetry_space_group_name_H-M   'P 1'
_cell_length_a   10.31138167
_cell_length_b   10.31138167
_cell_length_c   10.31177865
_cell_angle_alpha   90.00000000
_cell_angle_beta   90.00000000
_cell_angle_gamma   90.00000000
_symmetry_Int_Tables_number   1
_chemical_formula_structural   LiLu(TlCl3)2
_chemical_formula_sum   'Li4 Lu4 Tl8 Cl24'
_cell_volume   1096.39565649
_cell_formula_units_Z   4
loop_
 _symmetry_equiv_pos_site_id
 _symmetry_equiv_pos_as_xyz
  1  'x, y, z'
loop_
 _atom_site_type_symbol
 _atom_site_label
 _atom_site_symmetry_multiplicity
 _atom_site_fract_x
 _atom_site_fract_y
 _atom_site_fract_z
 _atom_site_occupancy
  Li  Li0  1  0.50000000  0.00000000  0.00000000  1.0
  Li  Li1  1  0.00000000  0.50000000  0.00000000  1.0
  Li  Li2  1  0.00000000  0.00000000  0.50000000  1.0
  Li  Li3  1  0.50000000  0.50000000  0.50000000  1.0
  Lu  Lu4  1  0.50000000  0.00000000  0.50000000  1.0
  Lu  Lu5  1  0.00000000  0.50000000  0.50000000  1.0
  Lu  Lu6  1  0.00000000  0.00000000  0.00000000  1.0
  Lu  Lu7  1  0.50000000  0.50000000  0.00000000  1.0
  Tl  Tl8  1  0.75101066  0.74898934  0.25006665  1.0
  Tl  Tl9  1  0.75101066  0.25101066  0.74993335  1.0
  Tl  Tl10  1  0.25101066  0.24898934  0.74993335  1.0
  Tl  Tl11  1  0.25101066  0.75101066  0.25006665  1.0
  Tl  Tl12  1  0.74898934  0.75101066  0.74993335  1.0
  Tl  Tl13  1  0.74898934  0.24898934  0.25006665  1.0
  Tl  Tl14  1  0.24898934  0.25101066  0.25006665  1.0
  Tl  Tl15  1  0.24898934  0.74898934  0.74993335  1.0
  Cl  Cl16  1  0.75071005  0.00000000  0.50000000  1.0
  Cl  Cl17  1  0.25071005  0.50000000  0.50000000  1.0
  Cl  Cl18  1  0.00000000  0.75071005  0.50000000  1.0
  Cl  Cl19  1  0.00000000  0.24928995  0.50000000  1.0
  Cl  Cl20  1  0.50000000  0.25071005  0.50000000  1.0
  Cl  Cl21  1  0.50000000  0.74928995  0.50000000  1.0
  Cl  Cl22  1  0.74928995  0.50000000  0.50000000  1.0
  Cl  Cl23  1  0.24928995  0.00000000  0.50000000  1.0
  Cl  Cl24  1  0.25067957  0.00000000  0.00000000  1.0
  Cl  Cl25  1  0.75067957  0.50000000  0.00000000  1.0
  Cl  Cl26  1  0.00000000  0.25067957  0.00000000  1.0
  Cl  Cl27  1  0.00000000  0.74932043  0.00000000  1.0
  Cl  Cl28  1  0.50000000  0.75067957  0.00000000  1.0
  Cl  Cl29  1  0.50000000  0.24932043  0.00000000  1.0
  Cl  Cl30  1  0.24932043  0.50000000  0.00000000  1.0
  Cl  Cl31  1  0.74932043  0.00000000  0.00000000  1.0
  Cl  Cl32  1  0.50000000  0.00000000  0.24930359  1.0
  Cl  Cl33  1  0.50000000  0.00000000  0.75069641  1.0
  Cl  Cl34  1  0.00000000  0.50000000  0.75069641  1.0
  Cl  Cl35  1  0.00000000  0.50000000  0.24930359  1.0
  Cl  Cl36  1  0.00000000  0.00000000  0.25068227  1.0
  Cl  Cl37  1  0.00000000  0.00000000  0.74931773  1.0
  Cl  Cl38  1  0.50000000  0.50000000  0.74931773  1.0
  Cl  Cl39  1  0.50000000  0.50000000  0.25068227  1.0
