# generated using pymatgen
data_Li2IO
_symmetry_space_group_name_H-M   'P 1'
_cell_length_a   10.53440601
_cell_length_b   5.85054828
_cell_length_c   5.50684355
_cell_angle_alpha   90.00000000
_cell_angle_beta   90.00000000
_cell_angle_gamma   90.00000000
_symmetry_Int_Tables_number   1
_chemical_formula_structural   Li2IO
_chemical_formula_sum   'Li8 I4 O4'
_cell_volume   339.39806222
_cell_formula_units_Z   4
loop_
 _symmetry_equiv_pos_site_id
 _symmetry_equiv_pos_as_xyz
  1  'x, y, z'
loop_
 _atom_site_type_symbol
 _atom_site_label
 _atom_site_symmetry_multiplicity
 _atom_site_fract_x
 _atom_site_fract_y
 _atom_site_fract_z
 _atom_site_occupancy
  Li  Li0  1  0.08974135  0.99949980  0.87293230  1.0
  Li  Li1  1  0.08974135  0.50050020  0.87293230  1.0
  Li  Li2  1  0.58974135  0.99949980  0.62706770  1.0
  Li  Li3  1  0.58974135  0.50050020  0.62706770  1.0
  Li  Li4  1  0.91025865  0.49949980  0.12706770  1.0
  Li  Li5  1  0.91025865  0.00050020  0.12706770  1.0
  Li  Li6  1  0.41025865  0.49949980  0.37293230  1.0
  Li  Li7  1  0.41025865  0.00050020  0.37293230  1.0
  I  I8  1  0.33611612  0.75000000  -0.07679785  1.0
  I  I9  1  0.83611612  0.75000000  0.57679785  1.0
  I  I10  1  0.66388388  0.25000000  1.07679785  1.0
  I  I11  1  0.16388388  0.25000000  0.42320215  1.0
  O  O12  1  0.48365491  0.75000000  0.54056776  1.0
  O  O13  1  0.98365491  0.75000000  0.95943224  1.0
  O  O14  1  0.51634509  0.25000000  0.45943224  1.0
  O  O15  1  0.01634509  0.25000000  0.04056776  1.0
