# generated using pymatgen
data_Mo2SBr2
_symmetry_space_group_name_H-M   'P 1'
_cell_length_a   10.05941884
_cell_length_b   10.05941884
_cell_length_c   12.02729822
_cell_angle_alpha   90.00000000
_cell_angle_beta   90.00000000
_cell_angle_gamma   38.87362205
_symmetry_Int_Tables_number   1
_chemical_formula_structural   Mo2SBr2
_chemical_formula_sum   'Mo12 S6 Br12'
_cell_volume   763.83587144
_cell_formula_units_Z   6
loop_
 _symmetry_equiv_pos_site_id
 _symmetry_equiv_pos_as_xyz
  1  'x, y, z'
loop_
 _atom_site_type_symbol
 _atom_site_label
 _atom_site_symmetry_multiplicity
 _atom_site_fract_x
 _atom_site_fract_y
 _atom_site_fract_z
 _atom_site_occupancy
  Mo  Mo0  1  -0.01437225  0.15422055  0.89839942  1.0
  Mo  Mo1  1  -0.01437225  0.15422055  0.60160058  1.0
  Mo  Mo2  1  -0.84577945  0.98562775  0.39839942  1.0
  Mo  Mo3  1  -0.84577945  0.98562775  0.10160058  1.0
  Mo  Mo4  1  -0.15422055  1.01437225  0.89839942  1.0
  Mo  Mo5  1  -0.15422055  1.01437225  0.60160058  1.0
  Mo  Mo6  1  0.01437225  0.84577945  0.39839942  1.0
  Mo  Mo7  1  0.01437225  0.84577945  0.10160058  1.0
  Mo  Mo8  1  -0.74507412  0.74507412  0.93834203  1.0
  Mo  Mo9  1  -0.74507412  0.74507412  0.56165797  1.0
  Mo  Mo10  1  -0.25492588  0.25492588  0.43834203  1.0
  Mo  Mo11  1  -0.25492588  0.25492588  0.06165797  1.0
  S  S12  1  -0.38141500  0.38141500  0.87214006  1.0
  S  S13  1  -0.38141500  0.38141500  0.62785994  1.0
  S  S14  1  -0.61858500  0.61858500  0.37214006  1.0
  S  S15  1  -0.61858500  0.61858500  0.12785994  1.0
  S  S16  1  -0.91253832  0.91253832  0.75000000  1.0
  S  S17  1  -0.08746168  0.08746168  0.25000000  1.0
  Br  Br18  1  0.11384305  0.60824084  0.93603515  1.0
  Br  Br19  1  0.11384305  0.60824084  0.56396485  1.0
  Br  Br20  1  -0.39175916  1.11384305  0.43603515  1.0
  Br  Br21  1  -0.39175916  1.11384305  0.06396485  1.0
  Br  Br22  1  -0.60824084  0.88615695  0.93603515  1.0
  Br  Br23  1  -0.60824084  0.88615695  0.56396485  1.0
  Br  Br24  1  -0.11384305  0.39175916  0.43603515  1.0
  Br  Br25  1  -0.11384305  0.39175916  0.06396485  1.0
  Br  Br26  1  -0.03099597  0.36608249  0.75000000  1.0
  Br  Br27  1  -0.63391751  0.96900403  0.25000000  1.0
  Br  Br28  1  -0.36608249  1.03099597  0.75000000  1.0
  Br  Br29  1  0.03099597  0.63391751  0.25000000  1.0
