# generated using pymatgen
data_ScCoP
_symmetry_space_group_name_H-M   'P 1'
_cell_length_a   6.26443724
_cell_length_b   3.74887846
_cell_length_c   6.99248815
_cell_angle_alpha   90.00000000
_cell_angle_beta   90.00000000
_cell_angle_gamma   90.00000000
_symmetry_Int_Tables_number   1
_chemical_formula_structural   ScCoP
_chemical_formula_sum   'Sc4 Co4 P4'
_cell_volume   164.21588406
_cell_formula_units_Z   4
loop_
 _symmetry_equiv_pos_site_id
 _symmetry_equiv_pos_as_xyz
  1  'x, y, z'
loop_
 _atom_site_type_symbol
 _atom_site_label
 _atom_site_symmetry_multiplicity
 _atom_site_fract_x
 _atom_site_fract_y
 _atom_site_fract_z
 _atom_site_occupancy
  Sc  Sc0  1  0.98289101  0.75000000  0.68475282  1.0
  Sc  Sc1  1  0.48289101  0.75000000  0.81524718  1.0
  Sc  Sc2  1  0.01710899  0.25000000  0.31524718  1.0
  Sc  Sc3  1  0.51710899  0.25000000  0.18475282  1.0
  Co  Co4  1  0.85337035  0.75000000  0.06117297  1.0
  Co  Co5  1  0.35337035  0.75000000  0.43882703  1.0
  Co  Co6  1  0.14662965  0.25000000  0.93882703  1.0
  Co  Co7  1  0.64662965  0.25000000  0.56117297  1.0
  P  P8  1  0.72016616  0.75000000  0.38524795  1.0
  P  P9  1  0.22016616  0.75000000  0.11475205  1.0
  P  P10  1  0.27983384  0.25000000  0.61475205  1.0
  P  P11  1  0.77983384  0.25000000  0.88524795  1.0
