# generated using pymatgen
data_GeI2
_symmetry_space_group_name_H-M   'P 1'
_cell_length_a   4.29247226
_cell_length_b   4.29247226
_cell_length_c   15.14419899
_cell_angle_alpha   90.00000000
_cell_angle_beta   90.00000000
_cell_angle_gamma   120.00000000
_symmetry_Int_Tables_number   1
_chemical_formula_structural   GeI2
_chemical_formula_sum   'Ge2 I4'
_cell_volume   241.65285721
_cell_formula_units_Z   2
loop_
 _symmetry_equiv_pos_site_id
 _symmetry_equiv_pos_as_xyz
  1  'x, y, z'
loop_
 _atom_site_type_symbol
 _atom_site_label
 _atom_site_symmetry_multiplicity
 _atom_site_fract_x
 _atom_site_fract_y
 _atom_site_fract_z
 _atom_site_occupancy
  Ge  Ge0  1  0.33333333  0.66666667  0.62499191  1.0
  Ge  Ge1  1  0.66666667  0.33333333  0.12499191  1.0
  I  I2  1  0.33333333  0.66666667  0.24038244  1.0
  I  I3  1  0.66666667  0.33333333  0.74038244  1.0
  I  I4  1  0.00000000  0.00000000  0.00962565  1.0
  I  I5  1  0.00000000  0.00000000  0.50962565  1.0
