# generated using pymatgen
data_KGd(PO3)4
_symmetry_space_group_name_H-M   'P 1'
_cell_length_a   7.51631916
_cell_length_b   7.51631916
_cell_length_c   10.67967908
_cell_angle_alpha   78.94173038
_cell_angle_beta   101.05826962
_cell_angle_gamma   64.56590558
_symmetry_Int_Tables_number   1
_chemical_formula_structural   KGd(PO3)4
_chemical_formula_sum   'K2 Gd2 P8 O24'
_cell_volume   508.52435160
_cell_formula_units_Z   2
loop_
 _symmetry_equiv_pos_site_id
 _symmetry_equiv_pos_as_xyz
  1  'x, y, z'
loop_
 _atom_site_type_symbol
 _atom_site_label
 _atom_site_symmetry_multiplicity
 _atom_site_fract_x
 _atom_site_fract_y
 _atom_site_fract_z
 _atom_site_occupancy
  K  K0  1  1.18943662  0.18943662  0.25000000  1.0
  K  K1  1  0.81056338  -0.18943662  0.75000000  1.0
  Gd  Gd2  1  0.87939527  -0.12060473  0.25000000  1.0
  Gd  Gd3  1  1.12060473  0.12060473  0.75000000  1.0
  P  P4  1  0.62204555  -0.28624651  0.00492790  1.0
  P  P5  1  1.28624651  0.37795445  0.50492790  1.0
  P  P6  1  0.71375349  -0.37795445  0.49507210  1.0
  P  P7  1  1.37795445  0.28624651  0.99507210  1.0
  P  P8  1  1.69536767  0.25101941  0.44965999  1.0
  P  P9  1  0.74898059  -0.69536767  0.94965999  1.0
  P  P10  1  1.25101941  0.69536767  0.05034001  1.0
  P  P11  1  0.30463233  -0.25101941  0.55034001  1.0
  O  O12  1  0.70013119  -0.19840827  0.39432477  1.0
  O  O13  1  1.19840827  0.29986881  0.89432477  1.0
  O  O14  1  0.80159173  -0.29986881  0.10567523  1.0
  O  O15  1  1.29986881  0.19840827  0.60567523  1.0
  O  O16  1  0.49236001  -0.35620652  0.08733475  1.0
  O  O17  1  1.35620652  0.50763999  0.58733475  1.0
  O  O18  1  0.64379348  -0.50763999  0.41266525  1.0
  O  O19  1  1.50763999  0.35620652  0.91266525  1.0
  O  O20  1  1.75767192  0.17167296  0.33842603  1.0
  O  O21  1  0.82832704  -0.75767192  0.83842603  1.0
  O  O22  1  1.17167296  0.75767192  0.16157397  1.0
  O  O23  1  0.24232808  -0.17167296  0.66157397  1.0
  O  O24  1  1.51362872  0.09249260  0.11267208  1.0
  O  O25  1  0.90750740  -0.51362872  0.61267208  1.0
  O  O26  1  1.09249260  0.51362872  0.38732792  1.0
  O  O27  1  0.48637128  -0.09249260  0.88732792  1.0
  O  O28  1  0.16813296  -0.13769586  0.40648976  1.0
  O  O29  1  1.13769586  0.83186704  0.90648976  1.0
  O  O30  1  0.86230414  -0.83186704  0.09351024  1.0
  O  O31  1  1.83186704  0.13769586  0.59351024  1.0
  O  O32  1  1.46762372  0.27519410  0.43722389  1.0
  O  O33  1  0.72480590  -0.46762372  0.93722389  1.0
  O  O34  1  1.27519410  0.46762372  0.06277611  1.0
  O  O35  1  0.53237628  -0.27519410  0.56277611  1.0
