# generated using pymatgen
data_Bi2Te2SeO10
_symmetry_space_group_name_H-M   'P 1'
_cell_length_a   8.98321935
_cell_length_b   8.98321935
_cell_length_c   8.18131220
_cell_angle_alpha   72.06156400
_cell_angle_beta   107.93843600
_cell_angle_gamma   126.91570171
_symmetry_Int_Tables_number   1
_chemical_formula_structural   Bi2Te2SeO10
_chemical_formula_sum   'Bi4 Te4 Se2 O20'
_cell_volume   495.58760576
_cell_formula_units_Z   2
loop_
 _symmetry_equiv_pos_site_id
 _symmetry_equiv_pos_as_xyz
  1  'x, y, z'
loop_
 _atom_site_type_symbol
 _atom_site_label
 _atom_site_symmetry_multiplicity
 _atom_site_fract_x
 _atom_site_fract_y
 _atom_site_fract_z
 _atom_site_occupancy
  Bi  Bi0  1  1.34168120  -0.02037267  0.64578875  1.0
  Bi  Bi1  1  1.02037267  -0.34168120  0.14578875  1.0
  Bi  Bi2  1  0.97962733  -0.65831880  0.85421125  1.0
  Bi  Bi3  1  1.65831880  0.02037267  0.35421125  1.0
  Te  Te4  1  1.55037262  0.31550069  0.97983156  1.0
  Te  Te5  1  0.68449931  -0.55037262  0.47983156  1.0
  Te  Te6  1  1.31550069  -0.44962738  0.52016844  1.0
  Te  Te7  1  1.44962738  -0.31550069  0.02016844  1.0
  Se  Se8  1  0.88949198  0.88949198  0.75000000  1.0
  Se  Se9  1  0.11050802  0.11050802  0.25000000  1.0
  O  O10  1  1.75640537  -0.21664479  0.57426876  1.0
  O  O11  1  1.21664479  -0.75640537  0.07426876  1.0
  O  O12  1  0.78335521  -0.24359463  0.92573124  1.0
  O  O13  1  1.24359463  0.21664479  0.42573124  1.0
  O  O14  1  1.52885061  -0.07370872  0.87237579  1.0
  O  O15  1  1.07370872  -0.52885061  0.37237579  1.0
  O  O16  1  0.92629128  -0.47114939  0.62762421  1.0
  O  O17  1  1.47114939  0.07370872  0.12762421  1.0
  O  O18  1  1.58895798  0.18048159  0.50489010  1.0
  O  O19  1  0.81951841  -0.58895798  0.00489010  1.0
  O  O20  1  1.18048159  -0.41104202  0.99510990  1.0
  O  O21  1  1.41104202  -0.18048159  0.49510990  1.0
  O  O22  1  1.49943320  0.25319939  0.74759529  1.0
  O  O23  1  0.74680061  -0.49943320  0.24759529  1.0
  O  O24  1  1.25319939  -0.50056680  0.75240471  1.0
  O  O25  1  1.50056680  -0.25319939  0.25240471  1.0
  O  O26  1  1.09747716  -0.08644251  0.80712406  1.0
  O  O27  1  1.08644251  -0.09747716  0.30712406  1.0
  O  O28  1  0.91355749  -0.90252284  0.69287594  1.0
  O  O29  1  1.90252284  0.08644251  0.19287594  1.0
