# generated using pymatgen
data_BaCaCO3
_symmetry_space_group_name_H-M   'P 1'
_cell_length_a   5.25859605
_cell_length_b   5.25859605
_cell_length_c   13.30602035
_cell_angle_alpha   90.00000000
_cell_angle_beta   90.00000000
_cell_angle_gamma   120.00000000
_symmetry_Int_Tables_number   1
_chemical_formula_structural   BaCaCO3
_chemical_formula_sum   'Ba2 Ca2 C2 O6'
_cell_volume   318.65331183
_cell_formula_units_Z   2
loop_
 _symmetry_equiv_pos_site_id
 _symmetry_equiv_pos_as_xyz
  1  'x, y, z'
loop_
 _atom_site_type_symbol
 _atom_site_label
 _atom_site_symmetry_multiplicity
 _atom_site_fract_x
 _atom_site_fract_y
 _atom_site_fract_z
 _atom_site_occupancy
  Ba  Ba0  1  0.66666667  0.33333333  0.50189984  1.0
  Ba  Ba1  1  0.33333333  0.66666667  0.00189984  1.0
  Ca  Ca2  1  0.66666667  0.33333333  0.80576816  1.0
  Ca  Ca3  1  0.33333333  0.66666667  0.30576816  1.0
  C  C4  1  -0.00000000  -0.00000000  0.92214281  1.0
  C  C5  1  0.00000000  0.00000000  0.42214281  1.0
  O  O6  1  0.85779397  0.71558795  0.92406306  1.0
  O  O7  1  0.28441205  0.14220603  0.92406306  1.0
  O  O8  1  0.85779397  0.14220603  0.92406306  1.0
  O  O9  1  0.14220603  0.28441205  0.42406306  1.0
  O  O10  1  0.71558795  0.85779397  0.42406306  1.0
  O  O11  1  0.14220603  0.85779397  0.42406306  1.0
