# generated using pymatgen
data_NaAlSiO4
_symmetry_space_group_name_H-M   'P 1'
_cell_length_a   10.07240139
_cell_length_b   10.07240139
_cell_length_c   8.46159365
_cell_angle_alpha   90.00000000
_cell_angle_beta   90.00000000
_cell_angle_gamma   120.00000000
_symmetry_Int_Tables_number   1
_chemical_formula_structural   NaAlSiO4
_chemical_formula_sum   'Na8 Al8 Si8 O32'
_cell_volume   743.44500126
_cell_formula_units_Z   8
loop_
 _symmetry_equiv_pos_site_id
 _symmetry_equiv_pos_as_xyz
  1  'x, y, z'
loop_
 _atom_site_type_symbol
 _atom_site_label
 _atom_site_symmetry_multiplicity
 _atom_site_fract_x
 _atom_site_fract_y
 _atom_site_fract_z
 _atom_site_occupancy
  Na  Na0  1  0.00000000  0.00000000  0.51435439  1.0
  Na  Na1  1  0.00000000  0.00000000  0.01435439  1.0
  Na  Na2  1  0.55777781  0.00679003  0.49852854  1.0
  Na  Na3  1  0.44901221  0.44222219  0.49852854  1.0
  Na  Na4  1  0.99320997  0.55098779  0.49852854  1.0
  Na  Na5  1  0.44222219  0.99320997  -0.00147146  1.0
  Na  Na6  1  0.55098779  0.55777781  -0.00147146  1.0
  Na  Na7  1  0.00679003  0.44901221  -0.00147146  1.0
  Al  Al8  1  0.66666667  0.33333333  0.69789368  1.0
  Al  Al9  1  0.33333333  0.66666667  0.19789368  1.0
  Al  Al10  1  0.76174977  0.09048911  0.18562768  1.0
  Al  Al11  1  0.32873934  0.23825023  0.18562768  1.0
  Al  Al12  1  0.90951089  0.67126066  0.18562768  1.0
  Al  Al13  1  0.23825023  0.90951089  0.68562768  1.0
  Al  Al14  1  0.67126066  0.76174977  0.68562768  1.0
  Al  Al15  1  0.09048911  0.32873934  0.68562768  1.0
  Si  Si16  1  0.66666667  0.33333333  0.29892449  1.0
  Si  Si17  1  0.33333333  0.66666667  0.79892449  1.0
  Si  Si18  1  0.76289136  0.09168109  0.81533895  1.0
  Si  Si19  1  0.32878973  0.23710864  0.81533895  1.0
  Si  Si20  1  0.90831891  0.67121027  0.81533895  1.0
  Si  Si21  1  0.23710864  0.90831891  0.31533895  1.0
  Si  Si22  1  0.67121027  0.76289136  0.31533895  1.0
  Si  Si23  1  0.09168109  0.32878973  0.31533895  1.0
  O  O24  1  0.66666667  0.33333333  0.49130582  1.0
  O  O25  1  0.33333333  0.66666667  -0.00869418  1.0
  O  O26  1  0.71087518  0.01552590  -0.00789008  1.0
  O  O27  1  0.30465072  0.28912482  -0.00789008  1.0
  O  O28  1  0.98447410  0.69534928  -0.00789008  1.0
  O  O29  1  0.28912482  0.98447410  0.49210992  1.0
  O  O30  1  0.69534928  0.71087518  0.49210992  1.0
  O  O31  1  0.01552590  0.30465072  0.49210992  1.0
  O  O32  1  0.64834079  0.17146293  0.23544883  1.0
  O  O33  1  0.52312214  0.35165921  0.23544883  1.0
  O  O34  1  0.82853707  0.47687786  0.23544883  1.0
  O  O35  1  0.35165921  0.82853707  0.73544883  1.0
  O  O36  1  0.47687786  0.64834079  0.73544883  1.0
  O  O37  1  0.17146293  0.52312214  0.73544883  1.0
  O  O38  1  0.65203835  0.15976698  0.76198284  1.0
  O  O39  1  0.50772863  0.34796165  0.76198284  1.0
  O  O40  1  0.84023302  0.49227137  0.76198284  1.0
  O  O41  1  0.34796165  0.84023302  0.26198284  1.0
  O  O42  1  0.49227137  0.65203835  0.26198284  1.0
  O  O43  1  0.15976698  0.50772863  0.26198284  1.0
  O  O44  1  0.94335867  0.22576256  0.82356055  1.0
  O  O45  1  0.28240389  0.05664133  0.82356055  1.0
  O  O46  1  0.77423744  0.71759611  0.82356055  1.0
  O  O47  1  0.05664133  0.77423744  0.32356055  1.0
  O  O48  1  0.71759611  0.94335867  0.32356055  1.0
  O  O49  1  0.22576256  0.28240389  0.32356055  1.0
  O  O50  1  0.96143914  0.21726730  0.18657657  1.0
  O  O51  1  0.25582816  0.03856086  0.18657657  1.0
  O  O52  1  0.78273270  0.74417184  0.18657657  1.0
  O  O53  1  0.03856086  0.78273270  0.68657657  1.0
  O  O54  1  0.74417184  0.96143914  0.68657657  1.0
  O  O55  1  0.21726730  0.25582816  0.68657657  1.0
