# generated using pymatgen
data_GdSO4F
_symmetry_space_group_name_H-M   'P 1'
_cell_length_a   8.54278774
_cell_length_b   7.10990957
_cell_length_c   6.51975358
_cell_angle_alpha   90.00000000
_cell_angle_beta   90.00000000
_cell_angle_gamma   90.00000000
_symmetry_Int_Tables_number   1
_chemical_formula_structural   GdSO4F
_chemical_formula_sum   'Gd4 S4 O16 F4'
_cell_volume   395.99971587
_cell_formula_units_Z   4
loop_
 _symmetry_equiv_pos_site_id
 _symmetry_equiv_pos_as_xyz
  1  'x, y, z'
loop_
 _atom_site_type_symbol
 _atom_site_label
 _atom_site_symmetry_multiplicity
 _atom_site_fract_x
 _atom_site_fract_y
 _atom_site_fract_z
 _atom_site_occupancy
  Gd  Gd0  1  0.55456398  0.25000000  0.65106277  1.0
  Gd  Gd1  1  0.05456398  0.25000000  0.84893723  1.0
  Gd  Gd2  1  0.44543602  0.75000000  0.34893723  1.0
  Gd  Gd3  1  0.94543602  0.75000000  0.15106277  1.0
  S  S4  1  0.90842013  0.25000000  0.31339100  1.0
  S  S5  1  0.40842013  0.25000000  0.18660900  1.0
  S  S6  1  0.09157987  0.75000000  0.68660900  1.0
  S  S7  1  0.59157987  0.75000000  0.81339100  1.0
  O  O8  1  0.94027770  0.41646031  0.17430972  1.0
  O  O9  1  0.94027770  0.08353969  0.17430972  1.0
  O  O10  1  0.44027770  0.41646031  0.32569028  1.0
  O  O11  1  0.44027770  0.08353969  0.32569028  1.0
  O  O12  1  0.05972230  0.91646031  0.82569028  1.0
  O  O13  1  0.05972230  0.58353969  0.82569028  1.0
  O  O14  1  0.55972230  0.91646031  0.67430972  1.0
  O  O15  1  0.55972230  0.58353969  0.67430972  1.0
  O  O16  1  0.74412757  0.25000000  0.37960717  1.0
  O  O17  1  0.24412757  0.25000000  0.12039283  1.0
  O  O18  1  0.25587243  0.75000000  0.62039283  1.0
  O  O19  1  0.75587243  0.75000000  0.87960717  1.0
  O  O20  1  0.51887015  0.25000000  0.01319171  1.0
  O  O21  1  0.01887015  0.25000000  0.48680829  1.0
  O  O22  1  0.48112985  0.75000000  0.98680829  1.0
  O  O23  1  0.98112985  0.75000000  0.51319171  1.0
  F  F24  1  0.79411182  0.25000000  0.79807153  1.0
  F  F25  1  0.29411182  0.25000000  0.70192847  1.0
  F  F26  1  0.20588818  0.75000000  0.20192847  1.0
  F  F27  1  0.70588818  0.75000000  0.29807153  1.0
