# generated using pymatgen
data_Ba2YNbO6
_symmetry_space_group_name_H-M   'P 1'
_cell_length_a   6.03007751
_cell_length_b   6.00977270
_cell_length_c   10.42003419
_cell_angle_alpha   90.00000000
_cell_angle_beta   125.44700314
_cell_angle_gamma   90.00000000
_symmetry_Int_Tables_number   1
_chemical_formula_structural   Ba2YNbO6
_chemical_formula_sum   'Ba4 Y2 Nb2 O12'
_cell_volume   307.62552997
_cell_formula_units_Z   2
loop_
 _symmetry_equiv_pos_site_id
 _symmetry_equiv_pos_as_xyz
  1  'x, y, z'
loop_
 _atom_site_type_symbol
 _atom_site_label
 _atom_site_symmetry_multiplicity
 _atom_site_fract_x
 _atom_site_fract_y
 _atom_site_fract_z
 _atom_site_occupancy
  Ba  Ba0  1  0.74884321  0.00000361  0.25039704  1.0
  Ba  Ba1  1  0.74884321  0.49999639  0.75039704  1.0
  Ba  Ba2  1  0.25115679  0.50000361  0.24960296  1.0
  Ba  Ba3  1  0.25115679  0.99999639  0.74960296  1.0
  Y  Y4  1  0.50000000  0.50000000  0.00000000  1.0
  Y  Y5  1  0.50000000  0.00000000  0.50000000  1.0
  Nb  Nb6  1  0.00000000  0.50000000  0.50000000  1.0
  Nb  Nb7  1  0.00000000  0.00000000  0.00000000  1.0
  O  O8  1  0.80435107  0.50001629  0.26444083  1.0
  O  O9  1  0.80435107  -0.00001629  0.76444083  1.0
  O  O10  1  0.19564893  1.00001629  0.23555917  1.0
  O  O11  1  0.19564893  0.49998371  0.73555917  1.0
  O  O12  1  0.74422494  0.73655588  0.47929039  1.0
  O  O13  1  0.74422494  0.76344412  0.97929039  1.0
  O  O14  1  0.25577506  0.23655588  0.02070961  1.0
  O  O15  1  0.25577506  0.26344412  0.52070961  1.0
  O  O16  1  0.74401715  0.26366449  0.47931255  1.0
  O  O17  1  0.74401715  0.23633551  0.97931255  1.0
  O  O18  1  0.25598285  0.76366449  0.02068745  1.0
  O  O19  1  0.25598285  0.73633551  0.52068745  1.0
