# generated using pymatgen
data_TaBiO4
_symmetry_space_group_name_H-M   'P 1'
_cell_length_a   5.62831014
_cell_length_b   7.83727036
_cell_length_c   7.80920036
_cell_angle_alpha   102.25791349
_cell_angle_beta   86.57170061
_cell_angle_gamma   90.00001828
_symmetry_Int_Tables_number   1
_chemical_formula_structural   TaBiO4
_chemical_formula_sum   'Ta4 Bi4 O16'
_cell_volume   335.98429584
_cell_formula_units_Z   4
loop_
 _symmetry_equiv_pos_site_id
 _symmetry_equiv_pos_as_xyz
  1  'x, y, z'
loop_
 _atom_site_type_symbol
 _atom_site_label
 _atom_site_symmetry_multiplicity
 _atom_site_fract_x
 _atom_site_fract_y
 _atom_site_fract_z
 _atom_site_occupancy
  Ta  Ta0  1  -0.25813480  -0.69182952  -0.82752843  1.0
  Ta  Ta1  1  -0.74186520  -0.30817048  -0.17247157  1.0
  Ta  Ta2  1  -0.27513217  -0.19312265  -0.84344795  1.0
  Ta  Ta3  1  -0.72486783  -0.80687735  -0.15655205  1.0
  Bi  Bi4  1  -0.79109610  -0.38490800  -0.66360984  1.0
  Bi  Bi5  1  -0.20890390  -0.61509200  -0.33639016  1.0
  Bi  Bi6  1  -0.26901735  -0.11955715  -0.38300099  1.0
  Bi  Bi7  1  -0.73098265  -0.88044285  -0.61699901  1.0
  O  O8  1  -0.04377977  -0.14162803  -0.65374479  1.0
  O  O9  1  -0.95622023  -0.85837197  -0.34625521  1.0
  O  O10  1  -0.05613964  -0.21725693  -0.04207821  1.0
  O  O11  1  -0.94386036  -0.78274307  -0.95792179  1.0
  O  O12  1  -0.06103431  -0.67447088  -0.61059610  1.0
  O  O13  1  -0.93896569  -0.32552912  -0.38940390  1.0
  O  O14  1  -0.20009978  -0.45022460  -0.82904126  1.0
  O  O15  1  -0.79990022  -0.54977540  -0.17095874  1.0
  O  O16  1  -0.34377420  -0.94743967  -0.81897132  1.0
  O  O17  1  -0.65622580  -0.05256033  -0.18102868  1.0
  O  O18  1  -0.50975686  -0.17884494  -0.60842371  1.0
  O  O19  1  -0.49024314  -0.82115506  -0.39157629  1.0
  O  O20  1  -0.54283503  -0.63530544  -0.67057345  1.0
  O  O21  1  -0.45716497  -0.36469456  -0.32942655  1.0
  O  O22  1  -0.57352546  -0.27552794  -0.95232884  1.0
  O  O23  1  -0.42647454  -0.72447206  -0.04767116  1.0
