# generated using pymatgen
data_MnBi
_symmetry_space_group_name_H-M   'P 1'
_cell_length_a   5.26042613
_cell_length_b   3.09505001
_cell_length_c   7.16796196
_cell_angle_alpha   90.00000000
_cell_angle_beta   90.00000000
_cell_angle_gamma   90.00000000
_symmetry_Int_Tables_number   1
_chemical_formula_structural   MnBi
_chemical_formula_sum   'Mn2 Bi2'
_cell_volume   116.70360940
_cell_formula_units_Z   2
loop_
 _symmetry_equiv_pos_site_id
 _symmetry_equiv_pos_as_xyz
  1  'x, y, z'
loop_
 _atom_site_type_symbol
 _atom_site_label
 _atom_site_symmetry_multiplicity
 _atom_site_fract_x
 _atom_site_fract_y
 _atom_site_fract_z
 _atom_site_occupancy
  Mn  Mn0  1  0.00000000  0.00000000  0.00000000  1.0
  Mn  Mn1  1  0.50000000  0.00000000  0.00000000  1.0
  Bi  Bi2  1  0.25000000  0.00000000  0.64913981  1.0
  Bi  Bi3  1  0.75000000  0.00000000  0.35086019  1.0
