# generated using pymatgen
data_Li2ZrCdF8
_symmetry_space_group_name_H-M   'P 1'
_cell_length_a   6.47104200
_cell_length_b   6.47104200
_cell_length_c   6.47104200
_cell_angle_alpha   132.97586600
_cell_angle_beta   132.97586600
_cell_angle_gamma   68.69205134
_symmetry_Int_Tables_number   1
_chemical_formula_structural   Li2ZrCdF8
_chemical_formula_sum   'Li2 Zr1 Cd1 F8'
_cell_volume   142.42825230
_cell_formula_units_Z   1
loop_
 _symmetry_equiv_pos_site_id
 _symmetry_equiv_pos_as_xyz
  1  'x, y, z'
loop_
 _atom_site_type_symbol
 _atom_site_label
 _atom_site_symmetry_multiplicity
 _atom_site_fract_x
 _atom_site_fract_y
 _atom_site_fract_z
 _atom_site_occupancy
  Li  Li0  1  0.75000000  0.25000000  0.50000000  1.0
  Li  Li1  1  0.00000000  0.00000000  0.00000000  1.0
  Zr  Zr2  1  0.25000000  0.75000000  0.50000000  1.0
  Cd  Cd3  1  0.50000000  0.50000000  1.00000000  1.0
  F  F4  1  0.23959826  0.79820773  0.86212514  1.0
  F  F5  1  1.20179227  1.06391741  1.44139053  1.0
  F  F6  1  0.93608259  0.37747312  1.13787486  1.0
  F  F7  1  0.62252688  0.76040174  0.55860947  1.0
  F  F8  1  0.53600171  1.12986312  1.02719726  1.0
  F  F9  1  0.87013688  0.89733414  1.40613858  1.0
  F  F10  1  1.10266586  0.50880444  0.97280274  1.0
  F  F11  1  0.49119556  0.46399829  0.59386142  1.0
