# generated using pymatgen
data_VAgSeO5
_symmetry_space_group_name_H-M   'P 1'
_cell_length_a   4.36113546
_cell_length_b   20.32918880
_cell_length_c   5.26954276
_cell_angle_alpha   90.00000000
_cell_angle_beta   90.00000000
_cell_angle_gamma   90.00000000
_symmetry_Int_Tables_number   1
_chemical_formula_structural   VAgSeO5
_chemical_formula_sum   'V4 Ag4 Se4 O20'
_cell_volume   467.18894622
_cell_formula_units_Z   4
loop_
 _symmetry_equiv_pos_site_id
 _symmetry_equiv_pos_as_xyz
  1  'x, y, z'
loop_
 _atom_site_type_symbol
 _atom_site_label
 _atom_site_symmetry_multiplicity
 _atom_site_fract_x
 _atom_site_fract_y
 _atom_site_fract_z
 _atom_site_occupancy
  V  V0  1  0.96678640  0.80684993  0.25000000  1.0
  V  V1  1  0.96678640  0.69315007  0.75000000  1.0
  V  V2  1  0.03321360  0.30684993  0.25000000  1.0
  V  V3  1  0.03321360  0.19315007  0.75000000  1.0
  Ag  Ag4  1  0.86618293  0.48508094  0.25000000  1.0
  Ag  Ag5  1  0.86618293  0.01491906  0.75000000  1.0
  Ag  Ag6  1  0.13381707  0.98508094  0.25000000  1.0
  Ag  Ag7  1  0.13381707  0.51491906  0.75000000  1.0
  Se  Se8  1  0.68576508  0.11954763  0.25000000  1.0
  Se  Se9  1  0.68576508  0.38045237  0.75000000  1.0
  Se  Se10  1  0.31423492  0.61954763  0.25000000  1.0
  Se  Se11  1  0.31423492  0.88045237  0.75000000  1.0
  O  O12  1  0.39991304  0.31114652  0.25000000  1.0
  O  O13  1  0.39991304  0.18885348  0.75000000  1.0
  O  O14  1  0.60008696  0.81114652  0.25000000  1.0
  O  O15  1  0.60008696  0.68885348  0.75000000  1.0
  O  O16  1  1.05778140  0.88042780  0.49288025  1.0
  O  O17  1  1.05778140  0.88042780  0.00711975  1.0
  O  O18  1  1.05778140  0.61957220  0.99288025  1.0
  O  O19  1  1.05778140  0.61957220  0.50711975  1.0
  O  O20  1  -0.05778140  0.38042780  0.49288025  1.0
  O  O21  1  -0.05778140  0.38042780  0.00711975  1.0
  O  O22  1  -0.05778140  0.11957220  0.99288025  1.0
  O  O23  1  -0.05778140  0.11957220  0.50711975  1.0
  O  O24  1  0.93931673  0.25000000  0.50000000  1.0
  O  O25  1  0.93931673  0.25000000  0.00000000  1.0
  O  O26  1  0.06068327  0.75000000  0.50000000  1.0
  O  O27  1  0.06068327  0.75000000  0.00000000  1.0
  O  O28  1  0.61641178  0.03709820  0.25000000  1.0
  O  O29  1  0.61641178  0.46290180  0.75000000  1.0
  O  O30  1  0.38358822  0.53709820  0.25000000  1.0
  O  O31  1  0.38358822  0.96290180  0.75000000  1.0
