# generated using pymatgen
data_TiFeO3
_symmetry_space_group_name_H-M   'P 1'
_cell_length_a   5.53657029
_cell_length_b   5.53657029
_cell_length_c   5.53657029
_cell_angle_alpha   54.64249157
_cell_angle_beta   54.64249157
_cell_angle_gamma   54.64249157
_symmetry_Int_Tables_number   1
_chemical_formula_structural   TiFeO3
_chemical_formula_sum   'Ti2 Fe2 O6'
_cell_volume   105.02646385
_cell_formula_units_Z   2
loop_
 _symmetry_equiv_pos_site_id
 _symmetry_equiv_pos_as_xyz
  1  'x, y, z'
loop_
 _atom_site_type_symbol
 _atom_site_label
 _atom_site_symmetry_multiplicity
 _atom_site_fract_x
 _atom_site_fract_y
 _atom_site_fract_z
 _atom_site_occupancy
  Ti  Ti0  1  0.14776057  0.14776057  0.14776057  1.0
  Ti  Ti1  1  0.85223943  -0.14776057  -0.14776057  1.0
  Fe  Fe2  1  0.35107225  0.35107225  -0.64892775  1.0
  Fe  Fe3  1  0.64892775  0.64892775  -0.35107225  1.0
  O  O4  1  0.43607221  0.05594904  -0.23049396  1.0
  O  O5  1  1.23049396  -0.43607221  -0.05594904  1.0
  O  O6  1  0.94405096  0.23049396  -0.43607221  1.0
  O  O7  1  0.56392779  -0.05594904  0.23049396  1.0
  O  O8  1  0.76950604  -0.56392779  0.05594904  1.0
  O  O9  1  1.05594904  -0.23049396  -0.56392779  1.0
