# generated using pymatgen
data_Al2SiO6
_symmetry_space_group_name_H-M   'P 1'
_cell_length_a   9.18714337
_cell_length_b   8.61619811
_cell_length_c   4.62817770
_cell_angle_alpha   90.00000000
_cell_angle_beta   90.00000000
_cell_angle_gamma   90.00000000
_symmetry_Int_Tables_number   1
_chemical_formula_structural   Al2SiO6
_chemical_formula_sum   'Al8 Si4 O24'
_cell_volume   366.35843516
_cell_formula_units_Z   4
loop_
 _symmetry_equiv_pos_site_id
 _symmetry_equiv_pos_as_xyz
  1  'x, y, z'
loop_
 _atom_site_type_symbol
 _atom_site_label
 _atom_site_symmetry_multiplicity
 _atom_site_fract_x
 _atom_site_fract_y
 _atom_site_fract_z
 _atom_site_occupancy
  Si  Si0  1  0.56330521  0.25000000  0.60238655  1.0
  Si  Si1  1  0.06330521  0.25000000  0.89761345  1.0
  Si  Si2  1  0.43669479  0.75000000  0.39761345  1.0
  Si  Si3  1  0.93669479  0.75000000  0.10238655  1.0
  Al  Al4  1  0.87387243  0.41721150  0.40138614  1.0
  Al  Al5  1  0.87387243  0.08278850  0.40138614  1.0
  Al  Al6  1  0.37387243  0.41721150  0.09861386  1.0
  Al  Al7  1  0.37387243  0.08278850  0.09861386  1.0
  Al  Al8  1  0.12612757  0.91721150  0.59861386  1.0
  Al  Al9  1  0.12612757  0.58278850  0.59861386  1.0
  Al  Al10  1  0.62612757  0.91721150  0.90138614  1.0
  Al  Al11  1  0.62612757  0.58278850  0.90138614  1.0
  O  O12  1  0.98622616  0.90432643  0.29202469  1.0
  O  O13  1  0.98622616  0.59567357  0.29202469  1.0
  O  O14  1  0.48622616  0.90432643  0.20797531  1.0
  O  O15  1  0.48622616  0.59567357  0.20797531  1.0
  O  O16  1  0.01377384  0.40432643  0.70797531  1.0
  O  O17  1  0.01377384  0.09567357  0.70797531  1.0
  O  O18  1  0.51377384  0.40432643  0.79202469  1.0
  O  O19  1  0.51377384  0.09567357  0.79202469  1.0
  O  O20  1  0.96745822  0.25000000  0.20111724  1.0
  O  O21  1  0.46745822  0.25000000  0.29888276  1.0
  O  O22  1  0.03254178  0.75000000  0.79888276  1.0
  O  O23  1  0.53254178  0.75000000  0.70111724  1.0
  O  O24  1  0.74190436  0.45398610  0.11473608  1.0
  O  O25  1  0.74190436  0.04601390  0.11473608  1.0
  O  O26  1  0.24190436  0.45398610  0.38526392  1.0
  O  O27  1  0.24190436  0.04601390  0.38526392  1.0
  O  O28  1  0.25809564  0.95398610  0.88526392  1.0
  O  O29  1  0.25809564  0.54601390  0.88526392  1.0
  O  O30  1  0.75809564  0.95398610  0.61473608  1.0
  O  O31  1  0.75809564  0.54601390  0.61473608  1.0
  O  O32  1  0.74283790  0.25000000  0.54013682  1.0
  O  O33  1  0.24283790  0.25000000  0.95986318  1.0
  O  O34  1  0.25716210  0.75000000  0.45986318  1.0
  O  O35  1  0.75716210  0.75000000  0.04013682  1.0
