# generated using pymatgen
data_Sr6SmSc(BO3)6
_symmetry_space_group_name_H-M   'P 1'
_cell_length_a   7.86182447
_cell_length_b   7.86182447
_cell_length_c   7.86182447
_cell_angle_alpha   105.08962968
_cell_angle_beta   105.08962968
_cell_angle_gamma   105.08962968
_symmetry_Int_Tables_number   1
_chemical_formula_structural   Sr6SmSc(BO3)6
_chemical_formula_sum   'Sr6 Sm1 Sc1 B6 O18'
_cell_volume   424.01017217
_cell_formula_units_Z   1
loop_
 _symmetry_equiv_pos_site_id
 _symmetry_equiv_pos_as_xyz
  1  'x, y, z'
loop_
 _atom_site_type_symbol
 _atom_site_label
 _atom_site_symmetry_multiplicity
 _atom_site_fract_x
 _atom_site_fract_y
 _atom_site_fract_z
 _atom_site_occupancy
  Sr  Sr0  1  0.76752042  0.65062684  0.14100088  1.0
  Sr  Sr1  1  1.34937316  -0.14100088  0.23247958  1.0
  Sr  Sr2  1  0.85899912  0.23247958  0.34937316  1.0
  Sr  Sr3  1  1.23247958  0.34937316  -0.14100088  1.0
  Sr  Sr4  1  0.65062684  1.14100088  -0.23247958  1.0
  Sr  Sr5  1  1.14100088  0.76752042  -0.34937316  1.0
  Sm  Sm6  1  0.50000000  0.50000000  0.50000000  1.0
  Sc  Sc7  1  0.00000000  0.00000000  0.00000000  1.0
  B  B8  1  1.54504277  0.79435168  -0.11166632  1.0
  B  B9  1  1.20564832  0.11166632  -0.54504277  1.0
  B  B10  1  1.11166632  -0.54504277  0.20564832  1.0
  B  B11  1  0.45495723  0.20564832  0.11166632  1.0
  B  B12  1  0.79435168  0.88833368  0.54504277  1.0
  B  B13  1  0.88833368  1.54504277  -0.20564832  1.0
  O  O14  1  0.72154881  0.93253339  -0.00170218  1.0
  O  O15  1  1.06746661  0.00170218  -0.72154881  1.0
  O  O16  1  1.00170218  -0.72154881  0.06746661  1.0
  O  O17  1  0.27845119  0.06746661  0.00170218  1.0
  O  O18  1  0.93253339  0.99829782  -0.27845119  1.0
  O  O19  1  0.99829782  0.72154881  -0.06746661  1.0
  O  O20  1  1.47481375  0.76961881  -0.30175801  1.0
  O  O21  1  1.23038119  0.30175801  -0.47481375  1.0
  O  O22  1  1.30175801  -0.47481375  0.23038119  1.0
  O  O23  1  0.52518625  0.23038119  0.30175801  1.0
  O  O24  1  0.76961881  0.69824199  0.47481375  1.0
  O  O25  1  0.69824199  1.47481375  -0.23038119  1.0
  O  O26  1  0.55429257  0.30985011  0.03102900  1.0
  O  O27  1  0.69014989  0.96897100  0.44570743  1.0
  O  O28  1  0.96897100  1.44570743  -0.30985011  1.0
  O  O29  1  1.44570743  0.69014989  -0.03102900  1.0
  O  O30  1  1.30985011  0.03102900  -0.44570743  1.0
  O  O31  1  1.03102900  -0.44570743  0.30985011  1.0
