# generated using pymatgen
data_Cs2MnS2
_symmetry_space_group_name_H-M   'P 1'
_cell_length_a   8.57407044
_cell_length_b   8.57407044
_cell_length_c   8.57407044
_cell_angle_alpha   128.64901328
_cell_angle_beta   70.47435178
_cell_angle_gamma   135.20895684
_symmetry_Int_Tables_number   1
_chemical_formula_structural   Cs2MnS2
_chemical_formula_sum   'Cs4 Mn2 S4'
_cell_volume   339.94321224
_cell_formula_units_Z   2
loop_
 _symmetry_equiv_pos_site_id
 _symmetry_equiv_pos_as_xyz
  1  'x, y, z'
loop_
 _atom_site_type_symbol
 _atom_site_label
 _atom_site_symmetry_multiplicity
 _atom_site_fract_x
 _atom_site_fract_y
 _atom_site_fract_z
 _atom_site_occupancy
  Cs  Cs0  1  0.14820318  0.33346547  0.48166865  1.0
  Cs  Cs1  1  0.35179682  0.83346547  1.18526229  1.0
  Cs  Cs2  1  0.64820318  1.16653453  0.81473771  1.0
  Cs  Cs3  1  0.85179682  0.66653453  0.51833135  1.0
  Mn  Mn4  1  0.25000000  0.25000000  0.00000000  1.0
  Mn  Mn5  1  0.75000000  0.75000000  0.00000000  1.0
  S  S6  1  0.40649672  0.32794182  0.73443854  1.0
  S  S7  1  0.09350328  0.82794182  0.92144509  1.0
  S  S8  1  0.90649672  1.17205818  1.07855491  1.0
  S  S9  1  0.59350328  0.67205818  0.26556146  1.0
