# generated using pymatgen
data_B4Rh5
_symmetry_space_group_name_H-M   'P 1'
_cell_length_a   3.32360189
_cell_length_b   3.32360189
_cell_length_c   20.51747246
_cell_angle_alpha   90.00000000
_cell_angle_beta   90.00000000
_cell_angle_gamma   120.00000000
_symmetry_Int_Tables_number   1
_chemical_formula_structural   B4Rh5
_chemical_formula_sum   'B8 Rh10'
_cell_volume   196.27838880
_cell_formula_units_Z   2
loop_
 _symmetry_equiv_pos_site_id
 _symmetry_equiv_pos_as_xyz
  1  'x, y, z'
loop_
 _atom_site_type_symbol
 _atom_site_label
 _atom_site_symmetry_multiplicity
 _atom_site_fract_x
 _atom_site_fract_y
 _atom_site_fract_z
 _atom_site_occupancy
  B  B0  1  0.33333333  0.66666667  0.80353991  1.0
  B  B1  1  0.33333333  0.66666667  0.69646009  1.0
  B  B2  1  0.66666667  0.33333333  0.30353991  1.0
  B  B3  1  0.66666667  0.33333333  0.19646009  1.0
  B  B4  1  0.33333333  0.66666667  0.91377193  1.0
  B  B5  1  0.33333333  0.66666667  0.58622807  1.0
  B  B6  1  0.66666667  0.33333333  0.41377193  1.0
  B  B7  1  0.66666667  0.33333333  0.08622807  1.0
  Rh  Rh8  1  0.33333333  0.66666667  0.45246510  1.0
  Rh  Rh9  1  0.33333333  0.66666667  0.04753490  1.0
  Rh  Rh10  1  0.66666667  0.33333333  0.95246510  1.0
  Rh  Rh11  1  0.66666667  0.33333333  0.54753490  1.0
  Rh  Rh12  1  0.33333333  0.66666667  0.25000000  1.0
  Rh  Rh13  1  0.66666667  0.33333333  0.75000000  1.0
  Rh  Rh14  1  0.00000000  0.00000000  0.35236512  1.0
  Rh  Rh15  1  0.00000000  0.00000000  0.14763488  1.0
  Rh  Rh16  1  0.00000000  0.00000000  0.85236512  1.0
  Rh  Rh17  1  0.00000000  0.00000000  0.64763488  1.0
