# generated using pymatgen
data_Hf5Sb3
_symmetry_space_group_name_H-M   'P 1'
_cell_length_a   7.44874179
_cell_length_b   8.83216436
_cell_length_c   10.77184785
_cell_angle_alpha   90.00000000
_cell_angle_beta   90.00000000
_cell_angle_gamma   90.00000000
_symmetry_Int_Tables_number   1
_chemical_formula_structural   Hf5Sb3
_chemical_formula_sum   'Hf20 Sb12'
_cell_volume   708.66383874
_cell_formula_units_Z   4
loop_
 _symmetry_equiv_pos_site_id
 _symmetry_equiv_pos_as_xyz
  1  'x, y, z'
loop_
 _atom_site_type_symbol
 _atom_site_label
 _atom_site_symmetry_multiplicity
 _atom_site_fract_x
 _atom_site_fract_y
 _atom_site_fract_z
 _atom_site_occupancy
  Hf  Hf0  1  0.30158782  0.94256032  0.55941131  1.0
  Hf  Hf1  1  0.30158782  0.55743968  0.55941131  1.0
  Hf  Hf2  1  0.80158782  0.94256032  0.94058869  1.0
  Hf  Hf3  1  0.80158782  0.55743968  0.94058869  1.0
  Hf  Hf4  1  0.69841218  0.44256032  0.44058869  1.0
  Hf  Hf5  1  0.69841218  0.05743968  0.44058869  1.0
  Hf  Hf6  1  0.19841218  0.44256032  0.05941131  1.0
  Hf  Hf7  1  0.19841218  0.05743968  0.05941131  1.0
  Hf  Hf8  1  0.47267363  0.75000000  0.01101737  1.0
  Hf  Hf9  1  0.97267363  0.75000000  0.48898263  1.0
  Hf  Hf10  1  0.52732637  0.25000000  0.98898263  1.0
  Hf  Hf11  1  0.02732637  0.25000000  0.51101737  1.0
  Hf  Hf12  1  0.30331654  0.75000000  0.27739112  1.0
  Hf  Hf13  1  0.80331654  0.75000000  0.22260888  1.0
  Hf  Hf14  1  0.69668346  0.25000000  0.72260888  1.0
  Hf  Hf15  1  0.19668346  0.25000000  0.77739112  1.0
  Hf  Hf16  1  0.14094042  0.75000000  0.78427242  1.0
  Hf  Hf17  1  0.64094042  0.75000000  0.71572758  1.0
  Hf  Hf18  1  0.85905958  0.25000000  0.21572758  1.0
  Hf  Hf19  1  0.35905958  0.25000000  0.28427242  1.0
  Sb  Sb20  1  0.42616383  0.99160135  0.82495843  1.0
  Sb  Sb21  1  0.42616383  0.50839865  0.82495843  1.0
  Sb  Sb22  1  0.92616383  0.99160135  0.67504157  1.0
  Sb  Sb23  1  0.92616383  0.50839865  0.67504157  1.0
  Sb  Sb24  1  0.57383617  0.49160135  0.17504157  1.0
  Sb  Sb25  1  0.57383617  0.00839865  0.17504157  1.0
  Sb  Sb26  1  0.07383617  0.49160135  0.32495843  1.0
  Sb  Sb27  1  0.07383617  0.00839865  0.32495843  1.0
  Sb  Sb28  1  0.08168761  0.75000000  0.04508948  1.0
  Sb  Sb29  1  0.58168761  0.75000000  0.45491052  1.0
  Sb  Sb30  1  0.91831239  0.25000000  0.95491052  1.0
  Sb  Sb31  1  0.41831239  0.25000000  0.54508948  1.0
