# generated using pymatgen
data_BaAsPt
_symmetry_space_group_name_H-M   'P 1'
_cell_length_a   6.81979034
_cell_length_b   6.81979034
_cell_length_c   6.81979034
_cell_angle_alpha   90.00000000
_cell_angle_beta   90.00000000
_cell_angle_gamma   90.00000000
_symmetry_Int_Tables_number   1
_chemical_formula_structural   BaAsPt
_chemical_formula_sum   'Ba4 As4 Pt4'
_cell_volume   317.18531403
_cell_formula_units_Z   4
loop_
 _symmetry_equiv_pos_site_id
 _symmetry_equiv_pos_as_xyz
  1  'x, y, z'
loop_
 _atom_site_type_symbol
 _atom_site_label
 _atom_site_symmetry_multiplicity
 _atom_site_fract_x
 _atom_site_fract_y
 _atom_site_fract_z
 _atom_site_occupancy
  Ba  Ba0  1  0.13999455  0.63999455  0.86000545  1.0
  Ba  Ba1  1  0.63999455  0.86000545  0.13999455  1.0
  Ba  Ba2  1  0.86000545  0.13999455  0.63999455  1.0
  Ba  Ba3  1  0.36000545  0.36000545  0.36000545  1.0
  As  As4  1  0.42190920  0.92190920  0.57809080  1.0
  As  As5  1  0.92190920  0.57809080  0.42190920  1.0
  As  As6  1  0.57809080  0.42190920  0.92190920  1.0
  As  As7  1  0.07809080  0.07809080  0.07809080  1.0
  Pt  Pt8  1  0.84525099  0.34525099  0.15474901  1.0
  Pt  Pt9  1  0.34525099  0.15474901  0.84525099  1.0
  Pt  Pt10  1  0.15474901  0.84525099  0.34525099  1.0
  Pt  Pt11  1  0.65474901  0.65474901  0.65474901  1.0
