# generated using pymatgen
data_SmIF
_symmetry_space_group_name_H-M   'P 1'
_cell_length_a   4.17957406
_cell_length_b   4.17957406
_cell_length_c   9.90730270
_cell_angle_alpha   90.00000000
_cell_angle_beta   90.00000000
_cell_angle_gamma   90.00000000
_symmetry_Int_Tables_number   1
_chemical_formula_structural   SmIF
_chemical_formula_sum   'Sm2 I2 F2'
_cell_volume   173.06907861
_cell_formula_units_Z   2
loop_
 _symmetry_equiv_pos_site_id
 _symmetry_equiv_pos_as_xyz
  1  'x, y, z'
loop_
 _atom_site_type_symbol
 _atom_site_label
 _atom_site_symmetry_multiplicity
 _atom_site_fract_x
 _atom_site_fract_y
 _atom_site_fract_z
 _atom_site_occupancy
  Sm  Sm0  1  0.50000000  0.00000000  0.14521979  1.0
  Sm  Sm1  1  0.00000000  0.50000000  0.85478021  1.0
  I  I2  1  0.50000000  0.00000000  0.69069419  1.0
  I  I3  1  0.00000000  0.50000000  0.30930581  1.0
  F  F4  1  0.00000000  0.00000000  0.00000000  1.0
  F  F5  1  0.50000000  0.50000000  0.00000000  1.0
