# generated using pymatgen
data_Cs5Ga3Se7
_symmetry_space_group_name_H-M   'P 1'
_cell_length_a   11.38835176
_cell_length_b   11.38835176
_cell_length_c   9.85214243
_cell_angle_alpha   75.28297709
_cell_angle_beta   104.71702291
_cell_angle_gamma   108.85163612
_symmetry_Int_Tables_number   1
_chemical_formula_structural   Cs5Ga3Se7
_chemical_formula_sum   'Cs10 Ga6 Se14'
_cell_volume   1148.73073888
_cell_formula_units_Z   2
loop_
 _symmetry_equiv_pos_site_id
 _symmetry_equiv_pos_as_xyz
  1  'x, y, z'
loop_
 _atom_site_type_symbol
 _atom_site_label
 _atom_site_symmetry_multiplicity
 _atom_site_fract_x
 _atom_site_fract_y
 _atom_site_fract_z
 _atom_site_occupancy
  Cs  Cs0  1  0.92509312  -0.92509312  0.30407181  1.0
  Cs  Cs1  1  0.07490688  -0.07490688  0.69592819  1.0
  Cs  Cs2  1  0.47920454  -0.05906474  0.71937261  1.0
  Cs  Cs3  1  1.05906474  0.52079546  0.71937261  1.0
  Cs  Cs4  1  0.94093526  -0.52079546  0.28062739  1.0
  Cs  Cs5  1  1.52079546  0.05906474  0.28062739  1.0
  Cs  Cs6  1  0.78722359  -0.21277641  -0.00000000  1.0
  Cs  Cs7  1  1.21277641  0.21277641  -0.00000000  1.0
  Cs  Cs8  1  0.65487844  -0.34512156  0.50000000  1.0
  Cs  Cs9  1  1.34512156  0.34512156  0.50000000  1.0
  Ga  Ga10  1  0.84580857  -0.84580857  0.66356111  1.0
  Ga  Ga11  1  0.15419143  -0.15419143  0.33643889  1.0
  Ga  Ga12  1  0.71355705  -0.71355705  0.81866454  1.0
  Ga  Ga13  1  0.28644295  -0.28644295  0.18133546  1.0
  Ga  Ga14  1  0.57153274  -0.57153274  0.94307077  1.0
  Ga  Ga15  1  0.42846726  -0.42846726  0.05692923  1.0
  Se  Se16  1  1.50361384  0.21543175  0.88784827  1.0
  Se  Se17  1  0.78456825  -0.50361384  0.88784827  1.0
  Se  Se18  1  1.21543175  0.50361384  0.11215173  1.0
  Se  Se19  1  0.49638616  -0.21543175  0.11215173  1.0
  Se  Se20  1  0.85129454  -0.85129454  0.92331026  1.0
  Se  Se21  1  0.14870546  -0.14870546  0.07668974  1.0
  Se  Se22  1  0.70338020  -0.70338020  0.56740853  1.0
  Se  Se23  1  0.29661980  -0.29661980  0.43259147  1.0
  Se  Se24  1  0.75222783  -0.05135141  0.60213095  1.0
  Se  Se25  1  1.05135141  0.24777217  0.60213095  1.0
  Se  Se26  1  0.94864859  -0.24777217  0.39786905  1.0
  Se  Se27  1  1.24777217  0.05135141  0.39786905  1.0
  Se  Se28  1  0.43521743  -0.43521743  0.81242673  1.0
  Se  Se29  1  0.56478257  -0.56478257  0.18757327  1.0
