# generated using pymatgen
data_Zr3Bi5
_symmetry_space_group_name_H-M   'P 1'
_cell_length_a   7.04183613
_cell_length_b   7.04183613
_cell_length_c   17.19714497
_cell_angle_alpha   90.00000000
_cell_angle_beta   90.00000000
_cell_angle_gamma   90.00000000
_symmetry_Int_Tables_number   1
_chemical_formula_structural   Zr3Bi5
_chemical_formula_sum   'Zr12 Bi20'
_cell_volume   852.76266995
_cell_formula_units_Z   4
loop_
 _symmetry_equiv_pos_site_id
 _symmetry_equiv_pos_as_xyz
  1  'x, y, z'
loop_
 _atom_site_type_symbol
 _atom_site_label
 _atom_site_symmetry_multiplicity
 _atom_site_fract_x
 _atom_site_fract_y
 _atom_site_fract_z
 _atom_site_occupancy
  Zr  Zr0  1  0.00000000  0.50000000  0.08784347  1.0
  Zr  Zr1  1  0.50000000  0.00000000  0.58784347  1.0
  Zr  Zr2  1  0.50000000  0.00000000  0.91215653  1.0
  Zr  Zr3  1  0.00000000  0.50000000  0.41215653  1.0
  Zr  Zr4  1  0.50000000  0.50000000  0.82530328  1.0
  Zr  Zr5  1  0.00000000  0.00000000  0.32530328  1.0
  Zr  Zr6  1  0.50000000  0.50000000  0.17469672  1.0
  Zr  Zr7  1  0.00000000  0.00000000  0.67469672  1.0
  Zr  Zr8  1  0.00000000  0.50000000  0.75000000  1.0
  Zr  Zr9  1  0.50000000  0.00000000  0.25000000  1.0
  Zr  Zr10  1  0.50000000  0.50000000  0.50000000  1.0
  Zr  Zr11  1  0.00000000  0.00000000  0.00000000  1.0
  Bi  Bi12  1  0.15573039  0.26774869  0.55168321  1.0
  Bi  Bi13  1  0.34426961  0.76774869  0.05168321  1.0
  Bi  Bi14  1  0.73225131  0.15573039  0.44831679  1.0
  Bi  Bi15  1  0.76774869  0.65573039  0.94831679  1.0
  Bi  Bi16  1  0.84426961  0.73225131  0.55168321  1.0
  Bi  Bi17  1  0.65573039  0.23225131  0.05168321  1.0
  Bi  Bi18  1  0.26774869  0.84426961  0.44831679  1.0
  Bi  Bi19  1  0.23225131  0.34426961  0.94831679  1.0
  Bi  Bi20  1  0.19502711  0.15722475  0.15149030  1.0
  Bi  Bi21  1  0.30497289  0.65722475  0.65149030  1.0
  Bi  Bi22  1  0.84277525  0.19502711  0.84850970  1.0
  Bi  Bi23  1  0.65722475  0.69502711  0.34850970  1.0
  Bi  Bi24  1  0.80497289  0.84277525  0.15149030  1.0
  Bi  Bi25  1  0.69502711  0.34277525  0.65149030  1.0
  Bi  Bi26  1  0.15722475  0.80497289  0.84850970  1.0
  Bi  Bi27  1  0.34277525  0.30497289  0.34850970  1.0
  Bi  Bi28  1  0.33099731  0.16900269  0.75000000  1.0
  Bi  Bi29  1  0.16900269  0.66900269  0.25000000  1.0
  Bi  Bi30  1  0.83099731  0.33099731  0.25000000  1.0
  Bi  Bi31  1  0.66900269  0.83099731  0.75000000  1.0
