# generated using pymatgen
data_Ba5B4(O5F)2
_symmetry_space_group_name_H-M   'P 1'
_cell_length_a   11.10842359
_cell_length_b   11.10842359
_cell_length_c   8.71571313
_cell_angle_alpha   84.92783352
_cell_angle_beta   95.07216648
_cell_angle_gamma   142.35368561
_symmetry_Int_Tables_number   1
_chemical_formula_structural   Ba5B4(O5F)2
_chemical_formula_sum   'Ba10 B8 O20 F4'
_cell_volume   654.02385963
_cell_formula_units_Z   2
loop_
 _symmetry_equiv_pos_site_id
 _symmetry_equiv_pos_as_xyz
  1  'x, y, z'
loop_
 _atom_site_type_symbol
 _atom_site_label
 _atom_site_symmetry_multiplicity
 _atom_site_fract_x
 _atom_site_fract_y
 _atom_site_fract_z
 _atom_site_occupancy
  Ba  Ba0  1  1.68531237  0.08687373  0.19703107  1.0
  Ba  Ba1  1  0.91312627  -0.68531237  0.69703107  1.0
  Ba  Ba2  1  1.08687373  -0.31468763  0.30296893  1.0
  Ba  Ba3  1  1.31468763  -0.08687373  0.80296893  1.0
  Ba  Ba4  1  1.46576722  0.29558827  0.11023769  1.0
  Ba  Ba5  1  0.70441173  -0.46576722  0.61023769  1.0
  Ba  Ba6  1  1.29558827  -0.53423278  0.38976231  1.0
  Ba  Ba7  1  1.53423278  -0.29558827  0.88976231  1.0
  Ba  Ba8  1  0.94249544  0.94249544  0.25000000  1.0
  Ba  Ba9  1  0.05750456  0.05750456  0.75000000  1.0
  B  B10  1  1.55695597  0.18116854  0.41701030  1.0
  B  B11  1  0.81883146  -0.55695597  0.91701030  1.0
  B  B12  1  1.18116854  -0.44304403  0.08298970  1.0
  B  B13  1  1.44304403  -0.18116854  0.58298970  1.0
  B  B14  1  1.27696205  0.08977633  0.49475624  1.0
  B  B15  1  0.91022367  -0.27696205  0.99475624  1.0
  B  B16  1  1.08977633  -0.72303795  0.00524376  1.0
  B  B17  1  1.72303795  -0.08977633  0.50524376  1.0
  O  O18  1  1.90760569  0.09970533  0.95390454  1.0
  O  O19  1  0.90029467  -0.90760569  0.45390454  1.0
  O  O20  1  1.09970533  -0.09239431  0.54609546  1.0
  O  O21  1  1.09239431  -0.09970533  0.04609546  1.0
  O  O22  1  1.54868114  -0.15378664  0.46676518  1.0
  O  O23  1  1.15378664  -0.54868114  0.96676518  1.0
  O  O24  1  0.84621336  -0.45131886  0.03323482  1.0
  O  O25  1  1.45131886  0.15378664  0.53323482  1.0
  O  O26  1  1.69202143  0.24939686  0.94382937  1.0
  O  O27  1  0.75060314  -0.69202143  0.44382937  1.0
  O  O28  1  1.24939686  -0.30797857  0.55617063  1.0
  O  O29  1  1.30797857  -0.24939686  0.05617063  1.0
  O  O30  1  1.45047214  0.07631046  0.28601021  1.0
  O  O31  1  0.92368954  -0.45047214  0.78601021  1.0
  O  O32  1  1.07631046  -0.54952786  0.21398979  1.0
  O  O33  1  1.54952786  -0.07631046  0.71398979  1.0
  O  O34  1  1.30534979  0.22331364  0.41711409  1.0
  O  O35  1  0.77668636  -0.30534979  0.91711409  1.0
  O  O36  1  1.22331364  -0.69465021  0.08288591  1.0
  O  O37  1  1.69465021  -0.22331364  0.58288591  1.0
  F  F38  1  1.59476422  -0.24378741  0.19230166  1.0
  F  F39  1  1.24378741  -0.59476422  0.69230166  1.0
  F  F40  1  0.75621259  -0.40523578  0.30769834  1.0
  F  F41  1  1.40523578  0.24378741  0.80769834  1.0
