# generated using pymatgen
data_Na3Cd2IrO6
_symmetry_space_group_name_H-M   'P 1'
_cell_length_a   5.76515318
_cell_length_b   5.76515318
_cell_length_c   5.73726930
_cell_angle_alpha   79.93001458
_cell_angle_beta   100.06998542
_cell_angle_gamma   60.24159636
_symmetry_Int_Tables_number   1
_chemical_formula_structural   Na3Cd2IrO6
_chemical_formula_sum   'Na3 Cd2 Ir1 O6'
_cell_volume   155.16879881
_cell_formula_units_Z   1
loop_
 _symmetry_equiv_pos_site_id
 _symmetry_equiv_pos_as_xyz
  1  'x, y, z'
loop_
 _atom_site_type_symbol
 _atom_site_label
 _atom_site_symmetry_multiplicity
 _atom_site_fract_x
 _atom_site_fract_y
 _atom_site_fract_z
 _atom_site_occupancy
  Ir  Ir0  1  0.50000000  -0.50000000  0.00000000  1.0
  O  O1  1  0.43018436  -0.14136339  0.78594236  1.0
  O  O2  1  1.14136339  0.56981564  0.78594236  1.0
  O  O3  1  0.85863661  -0.56981564  0.21405764  1.0
  O  O4  1  1.56981564  0.14136339  0.21405764  1.0
  O  O5  1  0.71846841  -0.71846841  0.79645764  1.0
  O  O6  1  0.28153159  -0.28153159  0.20354236  1.0
  Cd  Cd7  1  0.83258890  -0.16741110  0.00000000  1.0
  Cd  Cd8  1  1.16741110  0.16741110  0.00000000  1.0
  Na  Na9  1  0.66501530  -0.33498470  0.50000000  1.0
  Na  Na10  1  1.33498470  0.33498470  0.50000000  1.0
  Na  Na11  1  0.00000000  -0.00000000  0.50000000  1.0
