# generated using pymatgen
data_BaAg
_symmetry_space_group_name_H-M   'P 1'
_cell_length_a   8.76553444
_cell_length_b   5.00136918
_cell_length_c   6.73039350
_cell_angle_alpha   90.00000000
_cell_angle_beta   90.00000000
_cell_angle_gamma   90.00000000
_symmetry_Int_Tables_number   1
_chemical_formula_structural   BaAg
_chemical_formula_sum   'Ba4 Ag4'
_cell_volume   295.05825540
_cell_formula_units_Z   4
loop_
 _symmetry_equiv_pos_site_id
 _symmetry_equiv_pos_as_xyz
  1  'x, y, z'
loop_
 _atom_site_type_symbol
 _atom_site_label
 _atom_site_symmetry_multiplicity
 _atom_site_fract_x
 _atom_site_fract_y
 _atom_site_fract_z
 _atom_site_occupancy
  Ba  Ba0  1  0.31922603  0.75000000  0.13280743  1.0
  Ba  Ba1  1  0.81922603  0.75000000  0.36719257  1.0
  Ba  Ba2  1  0.68077397  0.25000000  0.86719257  1.0
  Ba  Ba3  1  0.18077397  0.25000000  0.63280743  1.0
  Ag  Ag4  1  0.46612165  0.75000000  0.61618434  1.0
  Ag  Ag5  1  0.96612165  0.75000000  0.88381566  1.0
  Ag  Ag6  1  0.53387835  0.25000000  0.38381566  1.0
  Ag  Ag7  1  0.03387835  0.25000000  0.11618434  1.0
