# generated using pymatgen
data_Co10Ge3O16
_symmetry_space_group_name_H-M   'P 1'
_cell_length_a   5.94704440
_cell_length_b   5.94704440
_cell_length_c   10.34286707
_cell_angle_alpha   73.30009712
_cell_angle_beta   106.69990288
_cell_angle_gamma   119.98208008
_symmetry_Int_Tables_number   1
_chemical_formula_structural   Co10Ge3O16
_chemical_formula_sum   'Co10 Ge3 O16'
_cell_volume   298.89457828
_cell_formula_units_Z   1
loop_
 _symmetry_equiv_pos_site_id
 _symmetry_equiv_pos_as_xyz
  1  'x, y, z'
loop_
 _atom_site_type_symbol
 _atom_site_label
 _atom_site_symmetry_multiplicity
 _atom_site_fract_x
 _atom_site_fract_y
 _atom_site_fract_z
 _atom_site_occupancy
  Co  Co0  1  0.75427288  -0.23288207  0.74192797  1.0
  Co  Co1  1  1.23288207  0.24572712  0.74192797  1.0
  Co  Co2  1  0.76711793  -0.24572712  0.25807203  1.0
  Co  Co3  1  1.24572712  0.23288207  0.25807203  1.0
  Co  Co4  1  0.75512694  -0.75512694  0.74166033  1.0
  Co  Co5  1  0.24487306  -0.24487306  0.25833967  1.0
  Co  Co6  1  1.50000000  0.00000000  -0.00000000  1.0
  Co  Co7  1  1.00000000  -0.50000000  -0.00000000  1.0
  Co  Co8  1  0.50000000  -0.50000000  0.50000000  1.0
  Co  Co9  1  0.50000000  -0.50000000  -0.00000000  1.0
  Ge  Ge10  1  0.80945796  -0.80945796  0.42788502  1.0
  Ge  Ge11  1  0.19054204  -0.19054204  0.57211498  1.0
  Ge  Ge12  1  0.00000000  0.00000000  0.00000000  1.0
  O  O13  1  0.66192691  -0.11199586  0.88587457  1.0
  O  O14  1  1.11199586  0.33807309  0.88587457  1.0
  O  O15  1  0.88800414  -0.33807309  0.11412543  1.0
  O  O16  1  1.33807309  0.11199586  0.11412543  1.0
  O  O17  1  1.37577829  0.12377230  0.62744072  1.0
  O  O18  1  0.87622770  -0.37577829  0.62744072  1.0
  O  O19  1  1.12377230  0.37577829  0.37255928  1.0
  O  O20  1  0.62422171  -0.12377230  0.37255928  1.0
  O  O21  1  0.87154402  -0.87154402  0.61331598  1.0
  O  O22  1  0.12845598  -0.12845598  0.38668402  1.0
  O  O23  1  0.62461531  -0.62461531  0.37281192  1.0
  O  O24  1  0.37538469  -0.37538469  0.62718808  1.0
  O  O25  1  0.62381914  -0.62381914  0.87132653  1.0
  O  O26  1  0.37618086  -0.37618086  0.12867347  1.0
  O  O27  1  0.11209838  -0.11209838  0.88600491  1.0
  O  O28  1  0.88790162  -0.88790162  0.11399509  1.0
