# generated using pymatgen
data_Al2SiO5
_symmetry_space_group_name_H-M   'P 1'
_cell_length_a   5.64624518
_cell_length_b   7.94156403
_cell_length_c   7.20063534
_cell_angle_alpha   106.01885654
_cell_angle_beta   101.12428326
_cell_angle_gamma   89.94331171
_symmetry_Int_Tables_number   1
_chemical_formula_structural   Al2SiO5
_chemical_formula_sum   'Al8 Si4 O20'
_cell_volume   304.04091331
_cell_formula_units_Z   4
loop_
 _symmetry_equiv_pos_site_id
 _symmetry_equiv_pos_as_xyz
  1  'x, y, z'
loop_
 _atom_site_type_symbol
 _atom_site_label
 _atom_site_symmetry_multiplicity
 _atom_site_fract_x
 _atom_site_fract_y
 _atom_site_fract_z
 _atom_site_occupancy
  Al  Al0  1  -0.04183907  -0.29600043  -0.67493109  1.0
  Al  Al1  1  -0.95816093  -0.70399957  -0.32506891  1.0
  Al  Al2  1  -0.14033260  -0.38624843  -0.09982859  1.0
  Al  Al3  1  -0.85966740  -0.61375157  -0.90017141  1.0
  Al  Al4  1  -0.33487482  -0.08257108  -0.88802930  1.0
  Al  Al5  1  -0.66512518  -0.91742892  -0.11197070  1.0
  Al  Al6  1  -0.54956192  -0.30119209  -0.70272886  1.0
  Al  Al7  1  -0.45043808  -0.69880791  -0.29727114  1.0
  Si  Si8  1  -0.20690897  -0.06468321  -0.29599765  1.0
  Si  Si9  1  -0.79309103  -0.93531679  -0.70400235  1.0
  Si  Si10  1  -0.31112020  -0.66834157  -0.70934043  1.0
  Si  Si11  1  -0.68887980  -0.33165843  -0.29065957  1.0
  O  O12  1  -0.03344182  -0.05325480  -0.70939462  1.0
  O  O13  1  -0.96655818  -0.94674520  -0.29060538  1.0
  O  O14  1  -0.07226315  -0.55530391  -0.71859630  1.0
  O  O15  1  -0.92773685  -0.44469609  -0.28140370  1.0
  O  O16  1  -0.16767821  -0.15267149  -0.10884482  1.0
  O  O17  1  -0.83232179  -0.84732851  -0.89115518  1.0
  O  O18  1  -0.25607437  -0.23005714  -0.50188105  1.0
  O  O19  1  -0.74392563  -0.76994286  -0.49811895  1.0
  O  O20  1  -0.25551957  -0.72365430  -0.49883127  1.0
  O  O21  1  -0.74448043  -0.27634570  -0.50116873  1.0
  O  O22  1  -0.31820394  -0.31401256  -0.87684067  1.0
  O  O23  1  -0.68179606  -0.68598744  -0.12315933  1.0
  O  O24  1  -0.37176738  -0.85337523  -0.89022446  1.0
  O  O25  1  -0.62823262  -0.14662477  -0.10977554  1.0
  O  O26  1  -0.54464743  -0.54525296  -0.72601850  1.0
  O  O27  1  -0.45535257  -0.45474704  -0.27398150  1.0
  O  O28  1  -0.56541982  -0.06523331  -0.71742557  1.0
  O  O29  1  -0.43458018  -0.93476669  -0.28257443  1.0
  O  O30  1  -0.86095435  -0.37004466  -0.87771130  1.0
  O  O31  1  -0.13904565  -0.62995534  -0.12228870  1.0
