# generated using pymatgen
data_V4SiSb2
_symmetry_space_group_name_H-M   'P 1'
_cell_length_a   7.36204296
_cell_length_b   7.36204296
_cell_length_c   7.36204296
_cell_angle_alpha   95.81512477
_cell_angle_beta   95.81512477
_cell_angle_gamma   142.87894052
_symmetry_Int_Tables_number   1
_chemical_formula_structural   V4SiSb2
_chemical_formula_sum   'V8 Si2 Sb4'
_cell_volume   228.28422967
_cell_formula_units_Z   2
loop_
 _symmetry_equiv_pos_site_id
 _symmetry_equiv_pos_as_xyz
  1  'x, y, z'
loop_
 _atom_site_type_symbol
 _atom_site_label
 _atom_site_symmetry_multiplicity
 _atom_site_fract_x
 _atom_site_fract_y
 _atom_site_fract_z
 _atom_site_occupancy
  V  V0  1  0.29512195  0.41514863  0.71027058  1.0
  V  V1  1  1.20487805  0.91514863  1.12002668  1.0
  V  V2  1  0.91514863  0.79512195  1.71027058  1.0
  V  V3  1  0.58485137  1.29512195  0.87997332  1.0
  V  V4  1  0.79512195  1.08485137  0.87997332  1.0
  V  V5  1  0.70487805  0.58485137  1.28972942  1.0
  V  V6  1  1.41514863  0.70487805  1.12002668  1.0
  V  V7  1  0.08485137  0.20487805  0.28972942  1.0
  Si  Si8  1  0.25000000  0.25000000  -0.00000000  1.0
  Si  Si9  1  0.75000000  0.75000000  -0.00000000  1.0
  Sb  Sb10  1  0.85892539  0.35892539  1.21785078  1.0
  Sb  Sb11  1  0.64107461  0.85892539  0.50000000  1.0
  Sb  Sb12  1  1.35892539  1.14107461  1.50000000  1.0
  Sb  Sb13  1  0.14107461  0.64107461  0.78214922  1.0
