# generated using pymatgen
data_Re4Si7
_symmetry_space_group_name_H-M   'P 1'
_cell_length_a   11.78004534
_cell_length_b   11.78004534
_cell_length_c   8.36882435
_cell_angle_alpha   87.47539305
_cell_angle_beta   92.52460695
_cell_angle_gamma   164.69436137
_symmetry_Int_Tables_number   1
_chemical_formula_structural   Re4Si7
_chemical_formula_sum   'Re8 Si14'
_cell_volume   306.25293589
_cell_formula_units_Z   2
loop_
 _symmetry_equiv_pos_site_id
 _symmetry_equiv_pos_as_xyz
  1  'x, y, z'
loop_
 _atom_site_type_symbol
 _atom_site_label
 _atom_site_symmetry_multiplicity
 _atom_site_fract_x
 _atom_site_fract_y
 _atom_site_fract_z
 _atom_site_occupancy
  Re  Re0  1  -0.00203952  0.00203952  0.02170857  1.0
  Re  Re1  1  0.87384738  0.12615262  0.12654281  1.0
  Re  Re2  1  0.74790686  0.25209314  0.25700194  1.0
  Re  Re3  1  0.62430798  0.37569202  0.38189134  1.0
  Re  Re4  1  0.49689644  0.50310356  0.50360205  1.0
  Re  Re5  1  0.37928990  -0.37928990  0.64527668  1.0
  Re  Re6  1  0.24766210  -0.24766210  0.76426885  1.0
  Re  Re7  1  0.12736297  -0.12736297  0.89348154  1.0
  Si  Si8  1  0.96041976  0.03958024  0.72600896  1.0
  Si  Si9  1  0.90686598  0.09313402  0.42481718  1.0
  Si  Si10  1  0.82951055  0.17048945  0.82910821  1.0
  Si  Si11  1  0.70844050  0.29155950  0.96484785  1.0
  Si  Si12  1  0.66059371  0.33940629  0.67785039  1.0
  Si  Si13  1  0.57881448  0.42118552  0.07864593  1.0
  Si  Si14  1  0.45593714  -0.45593714  0.21947692  1.0
  Si  Si15  1  0.41620269  -0.41620269  0.93105464  1.0
  Si  Si16  1  0.30613995  -0.30613995  0.43205231  1.0
  Si  Si17  1  0.29341907  -0.29341907  0.05980432  1.0
  Si  Si18  1  0.20523508  -0.20523508  0.47751696  1.0
  Si  Si19  1  0.16384041  -0.16384041  0.18180775  1.0
  Si  Si20  1  0.06125250  -0.06125250  0.65925309  1.0
  Si  Si21  1  0.04169406  -0.04169406  0.30908170  1.0
