# generated using pymatgen
data_HfPOs
_symmetry_space_group_name_H-M   'P 1'
_cell_length_a   6.42033012
_cell_length_b   6.42033012
_cell_length_c   3.84408384
_cell_angle_alpha   90.00000000
_cell_angle_beta   90.00000000
_cell_angle_gamma   120.00000000
_symmetry_Int_Tables_number   1
_chemical_formula_structural   HfPOs
_chemical_formula_sum   'Hf3 P3 Os3'
_cell_volume   137.22656767
_cell_formula_units_Z   3
loop_
 _symmetry_equiv_pos_site_id
 _symmetry_equiv_pos_as_xyz
  1  'x, y, z'
loop_
 _atom_site_type_symbol
 _atom_site_label
 _atom_site_symmetry_multiplicity
 _atom_site_fract_x
 _atom_site_fract_y
 _atom_site_fract_z
 _atom_site_occupancy
  Hf  Hf0  1  0.41706857  0.41706857  0.50000000  1.0
  Hf  Hf1  1  0.58293143  -0.00000000  0.50000000  1.0
  Hf  Hf2  1  0.00000000  0.58293143  0.50000000  1.0
  P  P3  1  0.66666667  0.33333333  -0.00000000  1.0
  P  P4  1  0.33333333  0.66666667  -0.00000000  1.0
  P  P5  1  -0.00000000  0.00000000  0.50000000  1.0
  Os  Os6  1  0.75237509  0.75237509  0.00000000  1.0
  Os  Os7  1  0.24762491  0.00000000  0.00000000  1.0
  Os  Os8  1  0.00000000  0.24762491  0.00000000  1.0
