# generated using pymatgen
data_H8C2N10O3
_symmetry_space_group_name_H-M   'P 1'
_cell_length_a   4.15586364
_cell_length_b   12.22858673
_cell_length_c   10.32697341
_cell_angle_alpha   90.00000000
_cell_angle_beta   119.43880693
_cell_angle_gamma   90.00000000
_symmetry_Int_Tables_number   1
_chemical_formula_structural   H8C2N10O3
_chemical_formula_sum   'H16 C4 N20 O6'
_cell_volume   457.05607977
_cell_formula_units_Z   2
loop_
 _symmetry_equiv_pos_site_id
 _symmetry_equiv_pos_as_xyz
  1  'x, y, z'
loop_
 _atom_site_type_symbol
 _atom_site_label
 _atom_site_symmetry_multiplicity
 _atom_site_fract_x
 _atom_site_fract_y
 _atom_site_fract_z
 _atom_site_occupancy
  H  H0  1  0.78529838  0.90433179  0.85213610  1.0
  H  H1  1  0.78529838  0.09566821  0.35213610  1.0
  H  H2  1  0.80999604  0.88789245  0.45473139  1.0
  H  H3  1  0.80999604  0.11210755  0.95473139  1.0
  H  H4  1  0.62691826  0.96565512  0.53597472  1.0
  H  H5  1  0.62691826  0.03434488  0.03597472  1.0
  H  H6  1  0.47203136  0.71244696  0.00908651  1.0
  H  H7  1  0.47203136  0.28755304  0.50908651  1.0
  H  H8  1  0.41198602  0.96019796  0.34570553  1.0
  H  H9  1  0.41198602  0.03980204  0.84570553  1.0
  H  H10  1  0.29574555  0.74423265  0.18334940  1.0
  H  H11  1  0.29574555  0.25576735  0.68334940  1.0
  H  H12  1  0.13710596  0.46204227  0.15465856  1.0
  H  H13  1  0.13710596  0.53795773  0.65465856  1.0
  H  H14  1  0.01829023  0.70622016  0.90032294  1.0
  H  H15  1  0.01829023  0.29377984  0.40032294  1.0
  C  C16  1  1.03131502  0.88814749  0.08395487  1.0
  C  C17  1  1.03131502  0.11185251  0.58395487  1.0
  C  C18  1  0.85621146  0.65392677  0.47064266  1.0
  C  C19  1  0.85621146  0.34607323  0.97064266  1.0
  N  N20  1  0.01622694  0.75497816  0.50593895  1.0
  N  N21  1  0.01622694  0.24502184  0.00593895  1.0
  N  N22  1  0.93261070  0.44180511  0.04690405  1.0
  N  N23  1  0.93261070  0.55819489  0.54690405  1.0
  N  N24  1  0.88909636  0.94609535  0.95162768  1.0
  N  N25  1  0.88909636  0.05390465  0.45162768  1.0
  N  N26  1  0.68186117  0.48307257  0.46093126  1.0
  N  N27  1  0.68186117  0.51692743  0.96093126  1.0
  N  N28  1  0.67086553  0.96261069  0.44517912  1.0
  N  N29  1  0.67086553  0.03738931  0.94517912  1.0
  N  N30  1  0.55565667  0.63685446  0.33734562  1.0
  N  N31  1  0.55565667  0.36314554  0.83734562  1.0
  N  N32  1  0.46011957  0.53168650  0.33635881  1.0
  N  N33  1  0.46011957  0.46831350  0.83635881  1.0
  N  N34  1  0.33456575  0.23489064  0.13127860  1.0
  N  N35  1  0.33456575  0.76510936  0.63127860  1.0
  N  N36  1  0.23330141  0.75677803  0.96759424  1.0
  N  N37  1  0.23330141  0.24322197  0.46759424  1.0
  N  N38  1  0.18900032  0.79154821  0.08796449  1.0
  N  N39  1  0.18900032  0.20845179  0.58796449  1.0
  O  O40  1  1.01081445  0.92683962  0.19279937  1.0
  O  O41  1  1.01081445  0.07316038  0.69279937  1.0
  O  O42  1  0.49211797  0.31381659  0.21634550  1.0
  O  O43  1  0.49211797  0.68618341  0.71634550  1.0
  O  O44  1  0.47116489  0.86075541  0.65906964  1.0
  O  O45  1  0.47116489  0.13924459  0.15906964  1.0
