# generated using pymatgen
data_Li4C
_symmetry_space_group_name_H-M   'P 1'
_cell_length_a   4.15275999
_cell_length_b   4.15275999
_cell_length_c   4.15275999
_cell_angle_alpha   102.99889143
_cell_angle_beta   102.99889143
_cell_angle_gamma   123.37631593
_symmetry_Int_Tables_number   1
_chemical_formula_structural   Li4C
_chemical_formula_sum   'Li4 C1'
_cell_volume   52.65092439
_cell_formula_units_Z   1
loop_
 _symmetry_equiv_pos_site_id
 _symmetry_equiv_pos_as_xyz
  1  'x, y, z'
loop_
 _atom_site_type_symbol
 _atom_site_label
 _atom_site_symmetry_multiplicity
 _atom_site_fract_x
 _atom_site_fract_y
 _atom_site_fract_z
 _atom_site_occupancy
  Li  Li0  1  0.27927786  0.14418315  0.42346101  1.0
  Li  Li1  1  0.72072214  0.85581685  1.57653899  1.0
  Li  Li2  1  1.14418315  0.72072214  0.86490529  1.0
  Li  Li3  1  0.85581685  1.27927786  1.13509471  1.0
  C  C4  1  0.50000000  0.50000000  0.00000000  1.0
