# generated using pymatgen
data_TbSiPd2
_symmetry_space_group_name_H-M   'P 1'
_cell_length_a   7.39783886
_cell_length_b   6.99267636
_cell_length_c   5.53529482
_cell_angle_alpha   90.00000000
_cell_angle_beta   90.00000000
_cell_angle_gamma   90.00000000
_symmetry_Int_Tables_number   1
_chemical_formula_structural   TbSiPd2
_chemical_formula_sum   'Tb4 Si4 Pd8'
_cell_volume   286.34463621
_cell_formula_units_Z   4
loop_
 _symmetry_equiv_pos_site_id
 _symmetry_equiv_pos_as_xyz
  1  'x, y, z'
loop_
 _atom_site_type_symbol
 _atom_site_label
 _atom_site_symmetry_multiplicity
 _atom_site_fract_x
 _atom_site_fract_y
 _atom_site_fract_z
 _atom_site_occupancy
  Tb  Tb0  1  0.97200043  0.25000000  0.63792443  1.0
  Tb  Tb1  1  0.47200043  0.25000000  0.86207557  1.0
  Tb  Tb2  1  0.02799957  0.75000000  0.36207557  1.0
  Tb  Tb3  1  0.52799957  0.75000000  0.13792443  1.0
  Si  Si4  1  0.62252136  0.25000000  0.35844230  1.0
  Si  Si5  1  0.12252136  0.25000000  0.14155770  1.0
  Si  Si6  1  0.37747864  0.75000000  0.64155770  1.0
  Si  Si7  1  0.87747864  0.75000000  0.85844230  1.0
  Pd  Pd8  1  0.82357437  0.44770003  0.09416904  1.0
  Pd  Pd9  1  0.82357437  0.05229997  0.09416904  1.0
  Pd  Pd10  1  0.32357437  0.44770003  0.40583096  1.0
  Pd  Pd11  1  0.32357437  0.05229997  0.40583096  1.0
  Pd  Pd12  1  0.17642563  0.94770003  0.90583096  1.0
  Pd  Pd13  1  0.17642563  0.55229997  0.90583096  1.0
  Pd  Pd14  1  0.67642563  0.94770003  0.59416904  1.0
  Pd  Pd15  1  0.67642563  0.55229997  0.59416904  1.0
