# generated using pymatgen
data_MnSi3PbO9
_symmetry_space_group_name_H-M   'P 1'
_cell_length_a   8.59984509
_cell_length_b   7.37389315
_cell_length_c   7.67332272
_cell_angle_alpha   98.90411008
_cell_angle_beta   116.04933075
_cell_angle_gamma   99.46960487
_symmetry_Int_Tables_number   1
_chemical_formula_structural   MnSi3PbO9
_chemical_formula_sum   'Mn2 Si6 Pb2 O18'
_cell_volume   416.81954190
_cell_formula_units_Z   2
loop_
 _symmetry_equiv_pos_site_id
 _symmetry_equiv_pos_as_xyz
  1  'x, y, z'
loop_
 _atom_site_type_symbol
 _atom_site_label
 _atom_site_symmetry_multiplicity
 _atom_site_fract_x
 _atom_site_fract_y
 _atom_site_fract_z
 _atom_site_occupancy
  Mn  Mn0  1  -0.10532648  -0.19314656  -0.99425115  1.0
  Mn  Mn1  1  -0.89467352  -0.80685344  -0.00574885  1.0
  O  O2  1  -0.85419533  -0.04422180  -0.91858631  1.0
  O  O3  1  -0.14580467  -0.95577820  -0.08141369  1.0
  O  O4  1  -0.68796034  -0.30966749  -0.78985246  1.0
  O  O5  1  -0.31203966  -0.69033251  -0.21014754  1.0
  O  O6  1  -0.69376688  -0.22273717  -0.11131185  1.0
  O  O7  1  -0.30623312  -0.77726283  -0.88868815  1.0
  O  O8  1  -0.49349921  -0.97800040  -0.74509470  1.0
  O  O9  1  -0.50650079  -0.02199960  -0.25490530  1.0
  O  O10  1  -0.73278472  -0.36369305  -0.47182641  1.0
  O  O11  1  -0.26721528  -0.63630695  -0.52817359  1.0
  O  O12  1  -0.86139641  -0.07294743  -0.42186375  1.0
  O  O13  1  -0.13860359  -0.92705257  -0.57813625  1.0
  O  O14  1  -0.01267893  -0.35170288  -0.81517902  1.0
  O  O15  1  -0.98732107  -0.64829712  -0.18482098  1.0
  O  O16  1  -0.85892303  -0.64938683  -0.77618012  1.0
  O  O17  1  -0.14107697  -0.35061317  -0.22381988  1.0
  O  O18  1  -0.27673909  -0.20685068  0.05429175  1.0
  O  O19  1  -0.72326091  -0.79314932  -1.05429175  1.0
  Pb  Pb20  1  -0.16675105  -0.25359576  -0.61292101  1.0
  Pb  Pb21  1  -0.83324895  -0.74640424  -0.38707899  1.0
  Si  Si22  1  -0.68358131  -0.13375030  -0.89651840  1.0
  Si  Si23  1  -0.31641869  -0.86624970  -0.10348160  1.0
  Si  Si24  1  -0.69701979  -0.16465738  -0.31017462  1.0
  Si  Si25  1  -0.30298021  -0.83534262  -0.68982538  1.0
  Si  Si26  1  -0.82524624  -0.41700873  -0.72024391  1.0
  Si  Si27  1  -0.17475376  -0.58299127  -0.27975609  1.0
