# generated using pymatgen
data_Cs2Sr2(CO3)3
_symmetry_space_group_name_H-M   'P 1'
_cell_length_a   8.82987929
_cell_length_b   8.82987929
_cell_length_c   8.82987929
_cell_angle_alpha   109.47122063
_cell_angle_beta   109.47122063
_cell_angle_gamma   109.47122063
_symmetry_Int_Tables_number   1
_chemical_formula_structural   Cs2Sr2(CO3)3
_chemical_formula_sum   'Cs4 Sr4 C6 O18'
_cell_volume   529.95916784
_cell_formula_units_Z   2
loop_
 _symmetry_equiv_pos_site_id
 _symmetry_equiv_pos_as_xyz
  1  'x, y, z'
loop_
 _atom_site_type_symbol
 _atom_site_label
 _atom_site_symmetry_multiplicity
 _atom_site_fract_x
 _atom_site_fract_y
 _atom_site_fract_z
 _atom_site_occupancy
  Cs  Cs0  1  1.38773606  1.38773606  1.38773606  1.0
  Cs  Cs1  1  1.50000000  1.00000000  1.11226394  1.0
  Cs  Cs2  1  1.00000000  1.11226394  1.50000000  1.0
  Cs  Cs3  1  1.11226394  0.50000000  1.00000000  1.0
  Sr  Sr4  1  0.89863418  0.89863418  0.89863418  1.0
  Sr  Sr5  1  0.50000000  1.00000000  0.60136582  1.0
  Sr  Sr6  1  1.00000000  0.60136582  1.50000000  1.0
  Sr  Sr7  1  0.60136582  1.50000000  1.00000000  1.0
  C  C8  1  1.09837351  0.84837351  1.25000000  1.0
  C  C9  1  0.25000000  1.09837351  0.84837351  1.0
  C  C10  1  0.75000000  1.40162649  0.65162649  1.0
  C  C11  1  0.84837351  0.25000000  1.09837351  1.0
  C  C12  1  0.65162649  0.75000000  0.40162649  1.0
  C  C13  1  0.40162649  0.65162649  0.75000000  1.0
  O  O14  1  1.22578540  0.97578540  1.25000000  1.0
  O  O15  1  0.25000000  1.22578540  0.97578540  1.0
  O  O16  1  0.75000000  1.27421460  0.52421460  1.0
  O  O17  1  0.97578540  0.25000000  1.22578540  1.0
  O  O18  1  0.52421460  0.75000000  0.27421460  1.0
  O  O19  1  0.27421460  0.52421460  0.75000000  1.0
  O  O20  1  0.13343344  0.92466528  0.77945806  1.0
  O  O21  1  0.64520723  1.35397539  0.72054194  1.0
  O  O22  1  0.77945806  1.13343344  0.92466528  1.0
  O  O23  1  0.70876816  0.85479277  0.57533472  1.0
  O  O24  1  0.92466528  0.77945806  0.13343344  1.0
  O  O25  1  1.14602461  0.79123184  1.36656656  1.0
  O  O26  1  0.85479277  0.57533472  0.70876816  1.0
  O  O27  1  0.36656656  1.14602461  0.79123184  1.0
  O  O28  1  0.79123184  0.36656656  1.14602461  1.0
  O  O29  1  0.72054194  0.64520723  0.35397539  1.0
  O  O30  1  0.35397539  0.72054194  0.64520723  1.0
  O  O31  1  0.57533472  0.70876816  0.85479277  1.0
