# generated using pymatgen
data_Mg10B16Ir19
_symmetry_space_group_name_H-M   'P 1'
_cell_length_a   9.19202890
_cell_length_b   9.19202890
_cell_length_c   9.19202890
_cell_angle_alpha   109.47122063
_cell_angle_beta   109.47122063
_cell_angle_gamma   109.47122063
_symmetry_Int_Tables_number   1
_chemical_formula_structural   Mg10B16Ir19
_chemical_formula_sum   'Mg10 B16 Ir19'
_cell_volume   597.87755967
_cell_formula_units_Z   1
loop_
 _symmetry_equiv_pos_site_id
 _symmetry_equiv_pos_as_xyz
  1  'x, y, z'
loop_
 _atom_site_type_symbol
 _atom_site_label
 _atom_site_symmetry_multiplicity
 _atom_site_fract_x
 _atom_site_fract_y
 _atom_site_fract_z
 _atom_site_occupancy
  Mg  Mg0  1  0.65322354  0.65322354  0.00000000  1.0
  Mg  Mg1  1  0.65322354  0.00000000  0.65322354  1.0
  Mg  Mg2  1  -0.00000000  0.65322354  0.65322354  1.0
  Mg  Mg3  1  0.34677646  -0.00000000  0.34677646  1.0
  Mg  Mg4  1  -0.00000000  0.34677646  0.34677646  1.0
  Mg  Mg5  1  0.34677646  0.34677646  0.00000000  1.0
  Mg  Mg6  1  0.33534069  0.33534069  0.33534069  1.0
  Mg  Mg7  1  1.00000000  1.00000000  0.66465931  1.0
  Mg  Mg8  1  1.00000000  0.66465931  1.00000000  1.0
  Mg  Mg9  1  0.66465931  1.00000000  1.00000000  1.0
  B  B10  1  0.67275450  0.42471877  0.42471877  1.0
  B  B11  1  0.42471877  0.67275450  0.42471877  1.0
  B  B12  1  1.00000000  1.24803573  0.57528123  1.0
  B  B13  1  1.24803573  1.00000000  0.57528123  1.0
  B  B14  1  0.42471877  0.42471877  0.67275450  1.0
  B  B15  1  0.75196427  0.75196427  0.32724550  1.0
  B  B16  1  1.00000000  0.57528123  1.24803573  1.0
  B  B17  1  0.75196427  0.32724550  0.75196427  1.0
  B  B18  1  0.32724550  0.75196427  0.75196427  1.0
  B  B19  1  0.57528123  1.00000000  1.24803573  1.0
  B  B20  1  1.24803573  0.57528123  1.00000000  1.0
  B  B21  1  0.57528123  1.24803573  1.00000000  1.0
  B  B22  1  0.77704710  0.77704710  0.77704710  1.0
  B  B23  1  1.00000000  1.00000000  0.22295290  1.0
  B  B24  1  1.00000000  0.22295290  1.00000000  1.0
  B  B25  1  0.22295290  1.00000000  1.00000000  1.0
  Ir  Ir26  1  0.49618893  0.67864253  0.67864253  1.0
  Ir  Ir27  1  0.67864253  0.49618893  0.67864253  1.0
  Ir  Ir28  1  1.00000000  0.81754640  1.32135747  1.0
  Ir  Ir29  1  0.81754640  1.00000000  1.32135747  1.0
  Ir  Ir30  1  0.67864253  0.67864253  0.49618893  1.0
  Ir  Ir31  1  1.18245360  1.18245360  0.50381107  1.0
  Ir  Ir32  1  1.00000000  1.32135747  0.81754640  1.0
  Ir  Ir33  1  1.18245360  0.50381107  1.18245360  1.0
  Ir  Ir34  1  0.50381107  1.18245360  1.18245360  1.0
  Ir  Ir35  1  1.32135747  1.00000000  0.81754640  1.0
  Ir  Ir36  1  0.81754640  1.32135747  1.00000000  1.0
  Ir  Ir37  1  1.32135747  0.81754640  1.00000000  1.0
  Ir  Ir38  1  0.25000000  0.75000000  0.50000000  1.0
  Ir  Ir39  1  0.75000000  0.25000000  0.50000000  1.0
  Ir  Ir40  1  0.25000000  0.50000000  0.75000000  1.0
  Ir  Ir41  1  0.50000000  0.25000000  0.75000000  1.0
  Ir  Ir42  1  0.75000000  0.50000000  0.25000000  1.0
  Ir  Ir43  1  0.50000000  0.75000000  0.25000000  1.0
  Ir  Ir44  1  0.00000000  0.00000000  0.00000000  1.0
