# generated using pymatgen
data_Sr2LiGe3
_symmetry_space_group_name_H-M   'P 1'
_cell_length_a   11.93583699
_cell_length_b   10.20077321
_cell_length_c   8.74156078
_cell_angle_alpha   77.69528936
_cell_angle_beta   56.61599293
_cell_angle_gamma   45.68871771
_symmetry_Int_Tables_number   1
_chemical_formula_structural   Sr2LiGe3
_chemical_formula_sum   'Sr8 Li4 Ge12'
_cell_volume   609.23855604
_cell_formula_units_Z   4
loop_
 _symmetry_equiv_pos_site_id
 _symmetry_equiv_pos_as_xyz
  1  'x, y, z'
loop_
 _atom_site_type_symbol
 _atom_site_label
 _atom_site_symmetry_multiplicity
 _atom_site_fract_x
 _atom_site_fract_y
 _atom_site_fract_z
 _atom_site_occupancy
  Sr  Sr0  1  -0.37881405  0.62118595  0.37881405  1.0
  Sr  Sr1  1  0.37881405  1.37881405  -0.37881405  1.0
  Sr  Sr2  1  0.62881405  0.62881405  0.87118595  1.0
  Sr  Sr3  1  0.87118595  0.87118595  0.62881405  1.0
  Sr  Sr4  1  0.12377745  0.12377745  -0.12377745  1.0
  Sr  Sr5  1  0.87622255  0.87622255  -0.87622255  1.0
  Sr  Sr6  1  1.12622255  0.12622255  0.37377745  1.0
  Sr  Sr7  1  1.37377745  0.37377745  0.12622255  1.0
  Li  Li8  1  0.83284250  -0.83284250  0.83284250  1.0
  Li  Li9  1  0.16715750  -0.16715750  1.16715750  1.0
  Li  Li10  1  1.41715750  0.08284250  0.41715750  1.0
  Li  Li11  1  0.08284250  1.41715750  0.08284250  1.0
  Ge  Ge12  1  0.16918085  -0.16497079  1.66366062  1.0
  Ge  Ge13  1  0.33212932  1.66366062  -0.16497079  1.0
  Ge  Ge14  1  1.66366062  0.33212932  0.16918085  1.0
  Ge  Ge15  1  -0.16497079  0.16918085  0.33212932  1.0
  Ge  Ge16  1  1.08081915  0.41497079  0.58633938  1.0
  Ge  Ge17  1  0.91787068  0.58633938  0.41497079  1.0
  Ge  Ge18  1  0.58633938  0.91787068  1.08081915  1.0
  Ge  Ge19  1  0.41497079  1.08081915  0.91787068  1.0
  Ge  Ge20  1  0.66721939  -0.66721939  0.66721939  1.0
  Ge  Ge21  1  0.33278061  -0.33278061  1.33278061  1.0
  Ge  Ge22  1  0.58278061  0.91721939  -0.41721939  1.0
  Ge  Ge23  1  0.91721939  0.58278061  0.91721939  1.0
