# generated using pymatgen
data_Ca2V2O5
_symmetry_space_group_name_H-M   'P 1'
_cell_length_a   10.54637785
_cell_length_b   10.54637785
_cell_length_c   6.03932050
_cell_angle_alpha   90.00000000
_cell_angle_beta   90.00000000
_cell_angle_gamma   90.00000000
_symmetry_Int_Tables_number   1
_chemical_formula_structural   Ca2V2O5
_chemical_formula_sum   'Ca8 V8 O20'
_cell_volume   671.72997955
_cell_formula_units_Z   4
loop_
 _symmetry_equiv_pos_site_id
 _symmetry_equiv_pos_as_xyz
  1  'x, y, z'
loop_
 _atom_site_type_symbol
 _atom_site_label
 _atom_site_symmetry_multiplicity
 _atom_site_fract_x
 _atom_site_fract_y
 _atom_site_fract_z
 _atom_site_occupancy
  Ca  Ca0  1  0.24363306  0.36890683  0.69146080  1.0
  Ca  Ca1  1  0.74363306  0.86890683  0.30853920  1.0
  Ca  Ca2  1  0.36890683  0.75636694  0.30853920  1.0
  Ca  Ca3  1  0.86890683  0.25636694  0.69146080  1.0
  Ca  Ca4  1  0.75636694  0.63109317  0.69146080  1.0
  Ca  Ca5  1  0.25636694  0.13109317  0.30853920  1.0
  Ca  Ca6  1  0.63109317  0.24363306  0.30853920  1.0
  Ca  Ca7  1  0.13109317  0.74363306  0.69146080  1.0
  V  V8  1  0.36912002  0.88604364  0.85212661  1.0
  V  V9  1  0.86912002  0.38604364  0.14787339  1.0
  V  V10  1  0.88604364  0.63087998  0.14787339  1.0
  V  V11  1  0.38604364  0.13087998  0.85212661  1.0
  V  V12  1  0.63087998  0.11395636  0.85212661  1.0
  V  V13  1  0.13087998  0.61395636  0.14787339  1.0
  V  V14  1  0.11395636  0.36912002  0.14787339  1.0
  V  V15  1  0.61395636  0.86912002  0.85212661  1.0
  O  O16  1  0.50506757  0.19694482  1.03180153  1.0
  O  O17  1  1.00506757  0.69694482  -0.03180153  1.0
  O  O18  1  0.19694482  0.49493243  -0.03180153  1.0
  O  O19  1  0.69694482  -0.00506757  1.03180153  1.0
  O  O20  1  0.49493243  0.80305518  1.03180153  1.0
  O  O21  1  -0.00506757  0.30305518  -0.03180153  1.0
  O  O22  1  0.80305518  0.50506757  -0.03180153  1.0
  O  O23  1  0.30305518  1.00506757  1.03180153  1.0
  O  O24  1  0.25000000  0.75000000  0.00000000  1.0
  O  O25  1  0.75000000  0.25000000  -0.00000000  1.0
  O  O26  1  0.75000000  0.75000000  0.00000000  1.0
  O  O27  1  0.25000000  0.25000000  0.00000000  1.0
  O  O28  1  1.12207597  0.29451283  0.41386462  1.0
  O  O29  1  0.62207597  0.79451283  0.58613538  1.0
  O  O30  1  0.29451283  -0.12207597  0.58613538  1.0
  O  O31  1  0.79451283  0.37792403  0.41386462  1.0
  O  O32  1  -0.12207597  0.70548717  0.41386462  1.0
  O  O33  1  0.37792403  0.20548717  0.58613538  1.0
  O  O34  1  0.70548717  1.12207597  0.58613538  1.0
  O  O35  1  0.20548717  0.62207597  0.41386462  1.0
