# generated using pymatgen
data_Ba3CCl4O3
_symmetry_space_group_name_H-M   'P 1'
_cell_length_a   8.48038302
_cell_length_b   9.60782854
_cell_length_c   12.76431202
_cell_angle_alpha   90.00000000
_cell_angle_beta   90.00000000
_cell_angle_gamma   90.00000000
_symmetry_Int_Tables_number   1
_chemical_formula_structural   Ba3CCl4O3
_chemical_formula_sum   'Ba12 C4 Cl16 O12'
_cell_volume   1040.01145761
_cell_formula_units_Z   4
loop_
 _symmetry_equiv_pos_site_id
 _symmetry_equiv_pos_as_xyz
  1  'x, y, z'
loop_
 _atom_site_type_symbol
 _atom_site_label
 _atom_site_symmetry_multiplicity
 _atom_site_fract_x
 _atom_site_fract_y
 _atom_site_fract_z
 _atom_site_occupancy
  Ba  Ba0  1  0.46256466  0.49172586  0.81642173  1.0
  Ba  Ba1  1  0.46256466  0.00827414  0.81642173  1.0
  Ba  Ba2  1  0.96256466  0.49172586  0.68357827  1.0
  Ba  Ba3  1  0.96256466  0.00827414  0.68357827  1.0
  Ba  Ba4  1  0.53743534  0.99172586  0.18357827  1.0
  Ba  Ba5  1  0.53743534  0.50827414  0.18357827  1.0
  Ba  Ba6  1  0.03743534  0.99172586  0.31642173  1.0
  Ba  Ba7  1  0.03743534  0.50827414  0.31642173  1.0
  Ba  Ba8  1  0.45786278  0.75000000  0.53641335  1.0
  Ba  Ba9  1  0.95786278  0.75000000  0.96358665  1.0
  Ba  Ba10  1  0.54213722  0.25000000  0.46358665  1.0
  Ba  Ba11  1  0.04213722  0.25000000  0.03641335  1.0
  C  C12  1  0.23304983  0.75000000  0.79258213  1.0
  C  C13  1  0.73304983  0.75000000  0.70741787  1.0
  C  C14  1  0.76695017  0.25000000  0.20741787  1.0
  C  C15  1  0.26695017  0.25000000  0.29258213  1.0
  Cl  Cl16  1  0.31346657  0.45943860  0.58629215  1.0
  Cl  Cl17  1  0.31346657  0.04056140  0.58629215  1.0
  Cl  Cl18  1  0.81346657  0.45943860  0.91370785  1.0
  Cl  Cl19  1  0.81346657  0.04056140  0.91370785  1.0
  Cl  Cl20  1  0.68653343  0.95943860  0.41370785  1.0
  Cl  Cl21  1  0.68653343  0.54056140  0.41370785  1.0
  Cl  Cl22  1  0.18653343  0.95943860  0.08629215  1.0
  Cl  Cl23  1  0.18653343  0.54056140  0.08629215  1.0
  Cl  Cl24  1  0.33230512  0.75000000  0.30050246  1.0
  Cl  Cl25  1  0.83230512  0.75000000  0.19949754  1.0
  Cl  Cl26  1  0.66769488  0.25000000  0.69949754  1.0
  Cl  Cl27  1  0.16769488  0.25000000  0.80050246  1.0
  Cl  Cl28  1  0.04839888  0.75000000  0.51223351  1.0
  Cl  Cl29  1  0.54839888  0.75000000  0.98776649  1.0
  Cl  Cl30  1  0.95160112  0.25000000  0.48776649  1.0
  Cl  Cl31  1  0.45160112  0.25000000  0.01223351  1.0
  O  O32  1  0.16850455  0.86790024  0.81811046  1.0
  O  O33  1  0.16850455  0.63209976  0.81811046  1.0
  O  O34  1  0.66850455  0.86790024  0.68188954  1.0
  O  O35  1  0.66850455  0.63209976  0.68188954  1.0
  O  O36  1  0.83149545  0.36790024  0.18188954  1.0
  O  O37  1  0.83149545  0.13209976  0.18188954  1.0
  O  O38  1  0.33149545  0.36790024  0.31811046  1.0
  O  O39  1  0.33149545  0.13209976  0.31811046  1.0
  O  O40  1  0.36852012  0.75000000  0.74553639  1.0
  O  O41  1  0.86852012  0.75000000  0.75446361  1.0
  O  O42  1  0.63147988  0.25000000  0.25446361  1.0
  O  O43  1  0.13147988  0.25000000  0.24553639  1.0
