# generated using pymatgen
data_Na2(PO3)3
_symmetry_space_group_name_H-M   'P 1'
_cell_length_a   7.24435298
_cell_length_b   7.13486479
_cell_length_c   7.84532980
_cell_angle_alpha   103.26629844
_cell_angle_beta   93.64257193
_cell_angle_gamma   89.42407622
_symmetry_Int_Tables_number   1
_chemical_formula_structural   Na2(PO3)3
_chemical_formula_sum   'Na4 P6 O18'
_cell_volume   393.88239245
_cell_formula_units_Z   2
loop_
 _symmetry_equiv_pos_site_id
 _symmetry_equiv_pos_as_xyz
  1  'x, y, z'
loop_
 _atom_site_type_symbol
 _atom_site_label
 _atom_site_symmetry_multiplicity
 _atom_site_fract_x
 _atom_site_fract_y
 _atom_site_fract_z
 _atom_site_occupancy
  P  P0  1  -0.82566131  -0.97743152  -0.73219689  1.0
  P  P1  1  -0.17433869  -0.02256848  -0.26780311  1.0
  P  P2  1  -0.65436800  -0.73261054  -0.94186706  1.0
  P  P3  1  -0.34563200  -0.26738946  -0.05813294  1.0
  P  P4  1  -0.83679456  -0.38989634  -0.72177700  1.0
  P  P5  1  -0.16320544  -0.61010366  -0.27822300  1.0
  Na  Na6  1  -0.33815191  -0.91356877  -0.66309705  1.0
  Na  Na7  1  -0.66184809  -0.08643123  -0.33690295  1.0
  Na  Na8  1  -0.65474418  -0.59223461  -0.36165027  1.0
  Na  Na9  1  -0.34525582  -0.40776539  -0.63834973  1.0
  O  O10  1  -0.76605240  -0.91542302  -0.90686032  1.0
  O  O11  1  -0.23394760  -0.08457698  -0.09313968  1.0
  O  O12  1  -0.68081592  -0.91569150  -0.58256181  1.0
  O  O13  1  -0.31918408  -0.08430850  -0.41743819  1.0
  O  O14  1  -0.63800595  -0.77380489  -0.13789003  1.0
  O  O15  1  -0.36199405  -0.22619511  -0.86210997  1.0
  O  O16  1  -0.47964257  -0.69557499  -0.82492094  1.0
  O  O17  1  -0.52035743  -0.30442501  -0.17507906  1.0
  O  O18  1  -0.80176510  -0.55918886  -0.89245324  1.0
  O  O19  1  -0.19823490  -0.44081114  -0.10754676  1.0
  O  O20  1  -0.68619888  -0.38349507  -0.57805416  1.0
  O  O21  1  -0.31380112  -0.61650493  -0.42194584  1.0
  O  O22  1  -0.96656344  -0.59878882  -0.32594685  1.0
  O  O23  1  -0.03343656  -0.40121118  -0.67405315  1.0
  O  O24  1  -0.02212634  -0.91917300  -0.69740001  1.0
  O  O25  1  -0.97787366  -0.08082700  -0.30259999  1.0
  O  O26  1  -0.81473478  -0.20828148  -0.81155496  1.0
  O  O27  1  -0.18526522  -0.79171852  -0.18844504  1.0
