# generated using pymatgen
data_Na3Fe(PO4)2
_symmetry_space_group_name_H-M   'P 1'
_cell_length_a   5.27235955
_cell_length_b   5.27235955
_cell_length_c   14.10339083
_cell_angle_alpha   87.85841131
_cell_angle_beta   92.14158869
_cell_angle_gamma   121.91848828
_symmetry_Int_Tables_number   1
_chemical_formula_structural   Na3Fe(PO4)2
_chemical_formula_sum   'Na6 Fe2 P4 O16'
_cell_volume   332.46233052
_cell_formula_units_Z   2
loop_
 _symmetry_equiv_pos_site_id
 _symmetry_equiv_pos_as_xyz
  1  'x, y, z'
loop_
 _atom_site_type_symbol
 _atom_site_label
 _atom_site_symmetry_multiplicity
 _atom_site_fract_x
 _atom_site_fract_y
 _atom_site_fract_z
 _atom_site_occupancy
  Fe  Fe0  1  0.00000000  0.00000000  0.00000000  1.0
  Fe  Fe1  1  -0.00000000  0.00000000  0.50000000  1.0
  O  O2  1  0.45069015  -0.21500270  0.70998054  1.0
  O  O3  1  1.21500270  0.54930985  0.20998054  1.0
  O  O4  1  0.78499730  0.45069015  0.79001946  1.0
  O  O5  1  0.54930985  0.21500270  0.29001946  1.0
  O  O6  1  0.29866608  0.15128914  0.88338843  1.0
  O  O7  1  0.84871086  0.70133392  0.38338843  1.0
  O  O8  1  1.15128914  0.29866608  0.61661157  1.0
  O  O9  1  0.70133392  -0.15128914  0.11661157  1.0
  O  O10  1  0.56629228  -0.21675788  0.53807167  1.0
  O  O11  1  1.21675788  0.43370772  0.03807167  1.0
  O  O12  1  0.78324212  0.56629228  0.96192833  1.0
  O  O13  1  0.43370772  0.21675788  0.46192833  1.0
  O  O14  1  0.72846655  0.07190195  0.91630537  1.0
  O  O15  1  0.92809805  0.27153345  0.41630537  1.0
  O  O16  1  1.07190195  0.72846655  0.58369463  1.0
  O  O17  1  0.27153345  -0.07190195  0.08369463  1.0
  P  P18  1  0.64950429  0.31433559  0.88688220  1.0
  P  P19  1  0.68566441  0.35049571  0.38688220  1.0
  P  P20  1  1.31433559  0.64950429  0.61311780  1.0
  P  P21  1  0.35049571  -0.31433559  0.11311780  1.0
  Na  Na22  1  0.62933621  0.29085702  0.63313256  1.0
  Na  Na23  1  0.70914298  0.37066379  0.13313256  1.0
  Na  Na24  1  1.29085702  0.62933621  0.86686744  1.0
  Na  Na25  1  0.37066379  -0.29085702  0.36686744  1.0
  Na  Na26  1  0.95316882  0.95316882  0.75000000  1.0
  Na  Na27  1  0.04683118  0.04683118  0.25000000  1.0
