# generated using pymatgen
data_ZnS
_symmetry_space_group_name_H-M   'P 1'
_cell_length_a   3.84937256
_cell_length_b   3.84937256
_cell_length_c   75.51818119
_cell_angle_alpha   90.00000000
_cell_angle_beta   90.00000000
_cell_angle_gamma   120.00000000
_symmetry_Int_Tables_number   1
_chemical_formula_structural   ZnS
_chemical_formula_sum   'Zn24 S24'
_cell_volume   969.08539134
_cell_formula_units_Z   24
loop_
 _symmetry_equiv_pos_site_id
 _symmetry_equiv_pos_as_xyz
  1  'x, y, z'
loop_
 _atom_site_type_symbol
 _atom_site_label
 _atom_site_symmetry_multiplicity
 _atom_site_fract_x
 _atom_site_fract_y
 _atom_site_fract_z
 _atom_site_occupancy
  Zn  Zn0  1  0.00000000  0.00000000  0.12500512  1.0
  Zn  Zn1  1  0.00000000  0.00000000  0.29171047  1.0
  Zn  Zn2  1  0.00000000  0.00000000  0.41663683  1.0
  Zn  Zn3  1  0.00000000  0.00000000  0.58331237  1.0
  Zn  Zn4  1  0.00000000  0.00000000  0.66668955  1.0
  Zn  Zn5  1  0.00000000  0.00000000  0.83337311  1.0
  Zn  Zn6  1  0.00000000  0.00000000  0.95829954  1.0
  Zn  Zn7  1  0.66666667  0.33333333  0.04163091  1.0
  Zn  Zn8  1  0.66666667  0.33333333  0.20837667  1.0
  Zn  Zn9  1  0.66666667  0.33333333  0.33335026  1.0
  Zn  Zn10  1  0.66666667  0.33333333  0.45827607  1.0
  Zn  Zn11  1  0.66666667  0.33333333  0.54168564  1.0
  Zn  Zn12  1  0.66666667  0.33333333  0.70831622  1.0
  Zn  Zn13  1  0.66666667  0.33333333  0.79172448  1.0
  Zn  Zn14  1  0.66666667  0.33333333  0.91665869  1.0
  Zn  Zn15  1  0.33333333  0.66666667  -0.00007017  1.0
  Zn  Zn16  1  0.33333333  0.66666667  0.08331590  1.0
  Zn  Zn17  1  0.33333333  0.66666667  0.16667952  1.0
  Zn  Zn18  1  0.33333333  0.66666667  0.25007309  1.0
  Zn  Zn19  1  0.33333333  0.66666667  0.37499312  1.0
  Zn  Zn20  1  0.33333333  0.66666667  0.49998676  1.0
  Zn  Zn21  1  0.33333333  0.66666667  0.62500350  1.0
  Zn  Zn22  1  0.33333333  0.66666667  0.75001963  1.0
  Zn  Zn23  1  0.33333333  0.66666667  0.87501693  1.0
  S  S24  1  0.00000000  0.00000000  0.09372632  1.0
  S  S25  1  0.00000000  0.00000000  0.26048318  1.0
  S  S26  1  0.00000000  0.00000000  0.38540805  1.0
  S  S27  1  0.00000000  0.00000000  0.55209458  1.0
  S  S28  1  0.00000000  0.00000000  0.63546881  1.0
  S  S29  1  0.00000000  0.00000000  0.80213997  1.0
  S  S30  1  0.00000000  0.00000000  0.92707043  1.0
  S  S31  1  0.66666667  0.33333333  0.01035059  1.0
  S  S32  1  0.66666667  0.33333333  0.17709491  1.0
  S  S33  1  0.66666667  0.33333333  0.30212141  1.0
  S  S34  1  0.66666667  0.33333333  0.42705245  1.0
  S  S35  1  0.66666667  0.33333333  0.51046099  1.0
  S  S36  1  0.66666667  0.33333333  0.67709731  1.0
  S  S37  1  0.66666667  0.33333333  0.76049622  1.0
  S  S38  1  0.66666667  0.33333333  0.88543149  1.0
  S  S39  1  0.33333333  0.66666667  0.05210144  1.0
  S  S40  1  0.33333333  0.66666667  0.13546903  1.0
  S  S41  1  0.33333333  0.66666667  0.21884757  1.0
  S  S42  1  0.33333333  0.66666667  0.34376307  1.0
  S  S43  1  0.33333333  0.66666667  0.46870027  1.0
  S  S44  1  0.33333333  0.66666667  0.59372518  1.0
  S  S45  1  0.33333333  0.66666667  0.71873577  1.0
  S  S46  1  0.33333333  0.66666667  0.84378688  1.0
  S  S47  1  0.33333333  0.66666667  0.96870989  1.0
