# generated using pymatgen
data_Ca3PI3
_symmetry_space_group_name_H-M   'P 1'
_cell_length_a   10.76640688
_cell_length_b   10.76640688
_cell_length_c   10.76640688
_cell_angle_alpha   109.47122063
_cell_angle_beta   109.47122063
_cell_angle_gamma   109.47122063
_symmetry_Int_Tables_number   1
_chemical_formula_structural   Ca3PI3
_chemical_formula_sum   'Ca12 P4 I12'
_cell_volume   960.70593793
_cell_formula_units_Z   4
loop_
 _symmetry_equiv_pos_site_id
 _symmetry_equiv_pos_as_xyz
  1  'x, y, z'
loop_
 _atom_site_type_symbol
 _atom_site_label
 _atom_site_symmetry_multiplicity
 _atom_site_fract_x
 _atom_site_fract_y
 _atom_site_fract_z
 _atom_site_occupancy
  Ca  Ca0  1  1.75000000  1.23134669  1.26865331  1.0
  Ca  Ca1  1  0.75000000  1.01865331  0.48134669  1.0
  Ca  Ca2  1  1.03730663  0.26865331  1.01865331  1.0
  Ca  Ca3  1  0.46269337  0.48134669  0.23134669  1.0
  Ca  Ca4  1  1.26865331  1.01865331  1.03730663  1.0
  Ca  Ca5  1  1.23134669  1.26865331  0.75000000  1.0
  Ca  Ca6  1  1.01865331  1.03730663  0.26865331  1.0
  Ca  Ca7  1  1.48134669  0.75000000  1.01865331  1.0
  Ca  Ca8  1  1.01865331  1.48134669  0.75000000  1.0
  Ca  Ca9  1  1.48134669  1.23134669  1.46269337  1.0
  Ca  Ca10  1  0.23134669  0.46269337  0.48134669  1.0
  Ca  Ca11  1  1.26865331  0.75000000  1.23134669  1.0
  P  P12  1  1.50000000  1.00000000  1.25000000  1.0
  P  P13  1  1.00000000  1.25000000  0.50000000  1.0
  P  P14  1  0.25000000  0.25000000  0.25000000  1.0
  P  P15  1  1.25000000  0.50000000  1.00000000  1.0
  I  I16  1  0.50485169  0.50242584  0.75242584  1.0
  I  I17  1  0.99514831  0.74757416  0.99757416  1.0
  I  I18  1  1.25000000  0.75242584  0.74757416  1.0
  I  I19  1  1.25000000  0.99757416  0.50242584  1.0
  I  I20  1  0.99757416  1.50242584  1.25000000  1.0
  I  I21  1  1.50242584  1.75242584  1.50485169  1.0
  I  I22  1  0.74757416  0.25000000  0.75242584  1.0
  I  I23  1  0.75242584  0.50485169  0.50242584  1.0
  I  I24  1  0.99757416  0.99514831  0.74757416  1.0
  I  I25  1  1.50242584  1.25000000  0.99757416  1.0
  I  I26  1  0.75242584  0.74757416  0.25000000  1.0
  I  I27  1  1.74757416  0.99757416  0.99514831  1.0
