# generated using pymatgen
data_LiS
_symmetry_space_group_name_H-M   'P 1'
_cell_length_a   7.74410676
_cell_length_b   7.74410676
_cell_length_c   7.74410676
_cell_angle_alpha   143.98000340
_cell_angle_beta   143.98000340
_cell_angle_gamma   51.85719531
_symmetry_Int_Tables_number   1
_chemical_formula_structural   LiS
_chemical_formula_sum   'Li4 S4'
_cell_volume   159.70878496
_cell_formula_units_Z   4
loop_
 _symmetry_equiv_pos_site_id
 _symmetry_equiv_pos_as_xyz
  1  'x, y, z'
loop_
 _atom_site_type_symbol
 _atom_site_label
 _atom_site_symmetry_multiplicity
 _atom_site_fract_x
 _atom_site_fract_y
 _atom_site_fract_z
 _atom_site_occupancy
  Li  Li0  1  0.72568426  0.72568426  1.00000000  1.0
  Li  Li1  1  0.27431574  0.27431574  -0.00000000  1.0
  Li  Li2  1  0.50000000  0.00000000  0.50000000  1.0
  Li  Li3  1  0.00000000  0.50000000  0.50000000  1.0
  S  S4  1  1.03757623  1.03757623  1.31565180  1.0
  S  S5  1  0.72192443  0.72192443  0.68434820  1.0
  S  S6  1  0.27807557  0.96242377  1.00000000  1.0
  S  S7  1  0.96242377  0.27807557  1.00000000  1.0
