# generated using pymatgen
data_ScRe2Si3
_symmetry_space_group_name_H-M   'P 1'
_cell_length_a   9.95817347
_cell_length_b   9.95817347
_cell_length_c   14.60503874
_cell_angle_alpha   90.00000000
_cell_angle_beta   90.00000000
_cell_angle_gamma   30.35058685
_symmetry_Int_Tables_number   1
_chemical_formula_structural   ScRe2Si3
_chemical_formula_sum   'Sc8 Re16 Si24'
_cell_volume   731.81710303
_cell_formula_units_Z   8
loop_
 _symmetry_equiv_pos_site_id
 _symmetry_equiv_pos_as_xyz
  1  'x, y, z'
loop_
 _atom_site_type_symbol
 _atom_site_label
 _atom_site_symmetry_multiplicity
 _atom_site_fract_x
 _atom_site_fract_y
 _atom_site_fract_z
 _atom_site_occupancy
  Sc  Sc0  1  0.14510134  0.58677053  0.17530532  1.0
  Sc  Sc1  1  -0.58677053  0.85489866  0.17530532  1.0
  Sc  Sc2  1  0.14510134  0.58677053  0.82469468  1.0
  Sc  Sc3  1  -0.58677053  0.85489866  0.82469468  1.0
  Sc  Sc4  1  -0.08674057  0.35486681  0.32469952  1.0
  Sc  Sc5  1  -0.35486681  1.08674057  0.32469952  1.0
  Sc  Sc6  1  -0.08674057  0.35486681  0.67530048  1.0
  Sc  Sc7  1  -0.35486681  1.08674057  0.67530048  1.0
  Re  Re8  1  -0.37804079  0.55169992  0.50000000  1.0
  Re  Re9  1  -0.55169992  1.37804079  0.50000000  1.0
  Re  Re10  1  -0.02478338  0.42906031  0.11242058  1.0
  Re  Re11  1  -0.42906031  1.02478338  0.11242058  1.0
  Re  Re12  1  -0.02478338  0.42906031  0.88757942  1.0
  Re  Re13  1  -0.42906031  1.02478338  0.88757942  1.0
  Re  Re14  1  0.07099722  0.52473583  0.38760037  1.0
  Re  Re15  1  -0.52473583  0.92900278  0.38760037  1.0
  Re  Re16  1  0.07099722  0.52473583  0.61239963  1.0
  Re  Re17  1  -0.52473583  0.92900278  0.61239963  1.0
  Re  Re18  1  -0.05176479  0.87809331  0.00000000  1.0
  Re  Re19  1  -0.87809331  1.05176479  0.00000000  1.0
  Re  Re20  1  -0.49500003  0.49500003  0.23146327  1.0
  Re  Re21  1  -0.49500003  0.49500003  0.76853673  1.0
  Re  Re22  1  0.00500437  -0.00500437  0.26853745  1.0
  Re  Re23  1  0.00500437  -0.00500437  0.73146255  1.0
  Si  Si24  1  -0.14199244  0.29081985  0.14360476  1.0
  Si  Si25  1  -0.29081985  1.14199244  0.14360476  1.0
  Si  Si26  1  -0.14199244  0.29081985  0.85639524  1.0
  Si  Si27  1  -0.29081985  1.14199244  0.85639524  1.0
  Si  Si28  1  -0.22646217  0.72645744  0.25001290  1.0
  Si  Si29  1  -0.72645744  1.22646217  0.25001290  1.0
  Si  Si30  1  -0.22646217  0.72645744  0.74998710  1.0
  Si  Si31  1  -0.72645744  1.22646217  0.74998710  1.0
  Si  Si32  1  0.20920469  0.64196193  0.35638999  1.0
  Si  Si33  1  -0.64196193  0.79079531  0.35638999  1.0
  Si  Si34  1  0.20920469  0.64196193  0.64361001  1.0
  Si  Si35  1  -0.64196193  0.79079531  0.64361001  1.0
  Si  Si36  1  -0.08260327  0.84421227  0.50000000  1.0
  Si  Si37  1  -0.84421227  1.08260327  0.50000000  1.0
  Si  Si38  1  -0.15276772  0.57271530  0.50000000  1.0
  Si  Si39  1  -0.57271530  1.15276772  0.50000000  1.0
  Si  Si40  1  -0.07287789  0.65290426  0.00000000  1.0
  Si  Si41  1  -0.65290426  1.07287789  0.00000000  1.0
  Si  Si42  1  -0.34429219  0.58276645  0.00000000  1.0
  Si  Si43  1  -0.58276645  1.34429219  0.00000000  1.0
  Si  Si44  1  -0.80389389  0.80389389  0.11038239  1.0
  Si  Si45  1  -0.80389389  0.80389389  0.88961761  1.0
  Si  Si46  1  -0.30389339  0.30389339  0.38961161  1.0
  Si  Si47  1  -0.30389339  0.30389339  0.61038839  1.0
