# generated using pymatgen
data_V8N
_symmetry_space_group_name_H-M   'P 1'
_cell_length_a   8.71937920
_cell_length_b   8.71937920
_cell_length_c   2.96977357
_cell_angle_alpha   90.00000000
_cell_angle_beta   90.00000000
_cell_angle_gamma   90.00000000
_symmetry_Int_Tables_number   1
_chemical_formula_structural   V8N
_chemical_formula_sum   'V16 N2'
_cell_volume   225.78467860
_cell_formula_units_Z   2
loop_
 _symmetry_equiv_pos_site_id
 _symmetry_equiv_pos_as_xyz
  1  'x, y, z'
loop_
 _atom_site_type_symbol
 _atom_site_label
 _atom_site_symmetry_multiplicity
 _atom_site_fract_x
 _atom_site_fract_y
 _atom_site_fract_z
 _atom_site_occupancy
  V  V0  1  0.38543343  0.12688741  0.50000000  1.0
  V  V1  1  0.88543343  0.37311259  0.00000000  1.0
  V  V2  1  0.87311259  0.61456657  0.50000000  1.0
  V  V3  1  0.37311259  0.88543343  0.00000000  1.0
  V  V4  1  0.61456657  0.87311259  0.50000000  1.0
  V  V5  1  0.11456657  0.62688741  0.00000000  1.0
  V  V6  1  0.12688741  0.38543343  0.50000000  1.0
  V  V7  1  0.62688741  0.11456657  0.00000000  1.0
  V  V8  1  0.34297695  0.65702305  0.50000000  1.0
  V  V9  1  0.84297695  0.84297695  0.00000000  1.0
  V  V10  1  0.65702305  0.34297695  0.50000000  1.0
  V  V11  1  0.15702305  0.15702305  0.00000000  1.0
  V  V12  1  0.11211337  0.88788663  0.50000000  1.0
  V  V13  1  0.61211337  0.61211337  0.00000000  1.0
  V  V14  1  0.88788663  0.11211337  0.50000000  1.0
  V  V15  1  0.38788663  0.38788663  0.00000000  1.0
  N  N16  1  0.50000000  0.50000000  0.50000000  1.0
  N  N17  1  0.00000000  0.00000000  0.00000000  1.0
