# generated using pymatgen
data_BaY2(MoO4)4
_symmetry_space_group_name_H-M   'P 1'
_cell_length_a   6.86319038
_cell_length_b   6.86319038
_cell_length_c   19.98539040
_cell_angle_alpha   89.40211575
_cell_angle_beta   90.59788425
_cell_angle_gamma   45.42321574
_symmetry_Int_Tables_number   1
_chemical_formula_structural   BaY2(MoO4)4
_chemical_formula_sum   'Ba2 Y4 Mo8 O32'
_cell_volume   670.30953562
_cell_formula_units_Z   2
loop_
 _symmetry_equiv_pos_site_id
 _symmetry_equiv_pos_as_xyz
  1  'x, y, z'
loop_
 _atom_site_type_symbol
 _atom_site_label
 _atom_site_symmetry_multiplicity
 _atom_site_fract_x
 _atom_site_fract_y
 _atom_site_fract_z
 _atom_site_occupancy
  Ba  Ba0  1  0.52839909  -0.47160091  0.75000000  1.0
  Ba  Ba1  1  0.47160091  0.47160091  0.25000000  1.0
  Y  Y2  1  0.64585816  -0.34847218  0.53121407  1.0
  Y  Y3  1  1.34847218  -0.64585816  0.03121407  1.0
  Y  Y4  1  0.65152782  -0.35414184  0.96878593  1.0
  Y  Y5  1  0.35414184  0.34847218  0.46878593  1.0
  Mo  Mo6  1  0.93137410  -0.04968577  0.91223804  1.0
  Mo  Mo7  1  1.04968577  -0.93137410  0.41223804  1.0
  Mo  Mo8  1  0.95031423  -0.06862590  0.58776196  1.0
  Mo  Mo9  1  0.06862590  0.04968577  0.08776196  1.0
  Mo  Mo10  1  0.23866168  0.23864480  0.85525255  1.0
  Mo  Mo11  1  0.76135520  -0.23866168  0.35525255  1.0
  Mo  Mo12  1  1.23864480  -0.76133832  0.64474745  1.0
  Mo  Mo13  1  0.76133832  -0.23864480  0.14474745  1.0
  O  O14  1  0.80688927  0.02380772  0.66582193  1.0
  O  O15  1  0.97619228  -0.80688927  0.16582193  1.0
  O  O16  1  1.02380772  -0.19311073  0.83417807  1.0
  O  O17  1  0.19311073  -0.02380772  0.33417807  1.0
  O  O18  1  0.67029884  -0.00883065  0.95697220  1.0
  O  O19  1  1.00883065  -0.67029884  0.45697220  1.0
  O  O20  1  0.99116935  -0.32970116  0.54302780  1.0
  O  O21  1  0.32970116  0.00883065  0.04302780  1.0
  O  O22  1  0.72620962  0.18028820  0.40223670  1.0
  O  O23  1  0.81971180  -0.72620962  0.90223670  1.0
  O  O24  1  1.18028820  -0.27379038  0.09776330  1.0
  O  O25  1  0.27379038  -0.18028820  0.59776330  1.0
  O  O26  1  0.41922144  -0.11501352  0.87062835  1.0
  O  O27  1  1.11501352  -0.41922144  0.37062835  1.0
  O  O28  1  0.88498648  -0.58077856  0.62937165  1.0
  O  O29  1  0.58077856  0.11501352  0.12937165  1.0
  O  O30  1  0.71906661  0.24442428  0.53579712  1.0
  O  O31  1  0.75557572  -0.71906661  0.03579712  1.0
  O  O32  1  1.24442428  -0.28093339  0.96420288  1.0
  O  O33  1  0.28093339  -0.24442428  0.46420288  1.0
  O  O34  1  0.38627496  -0.01354544  0.70654819  1.0
  O  O35  1  1.01354544  -0.38627496  0.20654819  1.0
  O  O36  1  0.98645456  -0.61372504  0.79345181  1.0
  O  O37  1  0.61372504  0.01354544  0.29345181  1.0
  O  O38  1  0.43170499  0.08737339  0.56580036  1.0
  O  O39  1  0.91262661  -0.43170499  0.06580036  1.0
  O  O40  1  1.08737339  -0.56829501  0.93419964  1.0
  O  O41  1  0.56829501  -0.08737339  0.43419964  1.0
  O  O42  1  0.47301445  0.24709577  0.82729327  1.0
  O  O43  1  0.75290423  -0.47301445  0.32729327  1.0
  O  O44  1  1.24709577  -0.52698555  0.67270673  1.0
  O  O45  1  0.52698555  -0.24709577  0.17270673  1.0
