# generated using pymatgen
data_Zr3Pb(O2F3)2
_symmetry_space_group_name_H-M   'P 1'
_cell_length_a   7.80409077
_cell_length_b   7.80409077
_cell_length_c   7.80409077
_cell_angle_alpha   60.00000000
_cell_angle_beta   60.00000000
_cell_angle_gamma   60.00000000
_symmetry_Int_Tables_number   1
_chemical_formula_structural   Zr3Pb(O2F3)2
_chemical_formula_sum   'Zr6 Pb2 O8 F12'
_cell_volume   336.08717416
_cell_formula_units_Z   2
loop_
 _symmetry_equiv_pos_site_id
 _symmetry_equiv_pos_as_xyz
  1  'x, y, z'
loop_
 _atom_site_type_symbol
 _atom_site_label
 _atom_site_symmetry_multiplicity
 _atom_site_fract_x
 _atom_site_fract_y
 _atom_site_fract_z
 _atom_site_occupancy
  Zr  Zr0  1  -0.77737985  0.77737985  0.77737985  1.0
  Zr  Zr1  1  -0.22262015  0.22262015  0.77737985  1.0
  Zr  Zr2  1  0.77737985  0.77737985  -0.77737985  1.0
  Zr  Zr3  1  0.22262015  1.22262015  -0.22262015  1.0
  Zr  Zr4  1  0.22262015  -0.22262015  1.22262015  1.0
  Zr  Zr5  1  -0.22262015  0.22262015  0.22262015  1.0
  Pb  Pb6  1  0.75000000  0.75000000  -0.25000000  1.0
  Pb  Pb7  1  1.25000000  0.25000000  0.25000000  1.0
  O  O8  1  0.88465544  0.88465544  -0.11534456  1.0
  O  O9  1  1.11534456  0.11534456  0.65396631  1.0
  O  O10  1  1.11534456  0.65396631  0.11534456  1.0
  O  O11  1  0.34603369  0.88465544  -0.11534456  1.0
  O  O12  1  1.65396631  0.11534456  0.11534456  1.0
  O  O13  1  0.88465544  0.34603369  -0.11534456  1.0
  O  O14  1  0.88465544  0.88465544  -0.65396631  1.0
  O  O15  1  1.11534456  0.11534456  0.11534456  1.0
  F  F16  1  1.17218396  0.50000000  0.50000000  1.0
  F  F17  1  1.50000000  -0.17218396  0.17218396  1.0
  F  F18  1  0.50000000  1.17218396  -0.17218396  1.0
  F  F19  1  0.82781604  0.50000000  -0.50000000  1.0
  F  F20  1  0.50000000  1.17218396  -0.50000000  1.0
  F  F21  1  -0.17218396  1.50000000  0.17218396  1.0
  F  F22  1  0.50000000  -0.50000000  1.17218396  1.0
  F  F23  1  -0.17218396  0.17218396  0.50000000  1.0
  F  F24  1  0.17218396  1.50000000  -0.17218396  1.0
  F  F25  1  0.50000000  0.82781604  -0.50000000  1.0
  F  F26  1  0.17218396  -0.17218396  1.50000000  1.0
  F  F27  1  -0.50000000  0.50000000  0.82781604  1.0
