# generated using pymatgen
data_Y11(In3Si2)2
_symmetry_space_group_name_H-M   'P 1'
_cell_length_a   11.49082732
_cell_length_b   11.49082732
_cell_length_c   11.49082732
_cell_angle_alpha   120.02634494
_cell_angle_beta   120.02634494
_cell_angle_gamma   89.95437528
_symmetry_Int_Tables_number   1
_chemical_formula_structural   Y11(In3Si2)2
_chemical_formula_sum   'Y22 In12 Si8'
_cell_volume   1072.42214976
_cell_formula_units_Z   2
loop_
 _symmetry_equiv_pos_site_id
 _symmetry_equiv_pos_as_xyz
  1  'x, y, z'
loop_
 _atom_site_type_symbol
 _atom_site_label
 _atom_site_symmetry_multiplicity
 _atom_site_fract_x
 _atom_site_fract_y
 _atom_site_fract_z
 _atom_site_occupancy
  Y  Y0  1  0.43505370  0.68531638  0.74973732  1.0
  Y  Y1  1  1.06442094  1.31468362  0.74973732  1.0
  Y  Y2  1  0.93557906  0.68531638  0.25026268  1.0
  Y  Y3  1  0.56494630  0.31468362  0.25026268  1.0
  Y  Y4  1  0.68531638  0.43505370  0.74973732  1.0
  Y  Y5  1  1.31468362  1.06442094  0.74973732  1.0
  Y  Y6  1  0.68531638  0.93557906  0.25026268  1.0
  Y  Y7  1  0.31468362  0.56494630  0.25026268  1.0
  Y  Y8  1  1.55132234  0.89881231  0.65251003  1.0
  Y  Y9  1  0.75369773  1.10118769  0.65251003  1.0
  Y  Y10  1  1.24630227  0.89881231  0.34748997  1.0
  Y  Y11  1  1.44867766  1.10118769  1.34748997  1.0
  Y  Y12  1  0.89881231  1.55132234  0.65251003  1.0
  Y  Y13  1  1.10118769  0.75369773  0.65251003  1.0
  Y  Y14  1  0.89881231  1.24630227  0.34748997  1.0
  Y  Y15  1  1.10118769  1.44867766  1.34748997  1.0
  Y  Y16  1  0.66700773  0.66700773  0.33401546  1.0
  Y  Y17  1  1.33299227  0.66700773  1.00000000  1.0
  Y  Y18  1  0.66700773  1.33299227  1.00000000  1.0
  Y  Y19  1  0.33299227  0.33299227  0.66598454  1.0
  Y  Y20  1  0.83105269  0.83105269  0.00000000  1.0
  Y  Y21  1  0.16894731  0.16894731  0.00000000  1.0
  In  In22  1  0.62296023  0.62296023  0.58791733  1.0
  In  In23  1  0.96495710  0.96495710  0.58791733  1.0
  In  In24  1  1.03504290  0.62296023  1.00000000  1.0
  In  In25  1  1.37703977  0.96495710  1.00000000  1.0
  In  In26  1  0.62296023  1.03504290  1.00000000  1.0
  In  In27  1  0.96495710  1.37703977  1.00000000  1.0
  In  In28  1  1.03504290  1.03504290  0.41208267  1.0
  In  In29  1  0.37703977  0.37703977  0.41208267  1.0
  In  In30  1  0.87111625  0.87111625  0.74223249  1.0
  In  In31  1  1.12888375  0.87111625  1.00000000  1.0
  In  In32  1  0.87111625  1.12888375  1.00000000  1.0
  In  In33  1  0.12888375  0.12888375  0.25776751  1.0
  Si  Si34  1  0.50000000  0.84710154  0.34710154  1.0
  Si  Si35  1  0.84710154  0.50000000  0.34710154  1.0
  Si  Si36  1  0.15289846  0.50000000  0.65289846  1.0
  Si  Si37  1  0.50000000  0.15289846  0.65289846  1.0
  Si  Si38  1  0.62042582  0.62042582  0.00000000  1.0
  Si  Si39  1  0.37957418  0.37957418  0.00000000  1.0
  Si  Si40  1  1.25000000  0.75000000  0.50000000  1.0
  Si  Si41  1  0.75000000  1.25000000  0.50000000  1.0
