# generated using pymatgen
data_AlFeF5
_symmetry_space_group_name_H-M   'P 1'
_cell_length_a   5.23894535
_cell_length_b   5.23894535
_cell_length_c   5.23894535
_cell_angle_alpha   139.64280093
_cell_angle_beta   105.75087124
_cell_angle_gamma   88.08153144
_symmetry_Int_Tables_number   1
_chemical_formula_structural   AlFeF5
_chemical_formula_sum   'Al1 Fe1 F5'
_cell_volume   86.07824865
_cell_formula_units_Z   1
loop_
 _symmetry_equiv_pos_site_id
 _symmetry_equiv_pos_as_xyz
  1  'x, y, z'
loop_
 _atom_site_type_symbol
 _atom_site_label
 _atom_site_symmetry_multiplicity
 _atom_site_fract_x
 _atom_site_fract_y
 _atom_site_fract_z
 _atom_site_occupancy
  Al  Al0  1  -0.00000000  -0.00000000  -0.00000000  1.0
  Fe  Fe1  1  0.50000000  0.50000000  1.00000000  1.0
  F  F2  1  0.75819888  0.75819888  1.00000000  1.0
  F  F3  1  1.24180112  1.24180112  1.00000000  1.0
  F  F4  1  0.70881025  0.00000000  0.70881025  1.0
  F  F5  1  0.29118975  0.00000000  0.29118975  1.0
  F  F6  1  -0.00000000  0.50000000  0.50000000  1.0
