# generated using pymatgen
data_NaSb(PS3)2
_symmetry_space_group_name_H-M   'P 1'
_cell_length_a   11.46480793
_cell_length_b   7.40966936
_cell_length_c   12.00677315
_cell_angle_alpha   90.00000000
_cell_angle_beta   109.21714267
_cell_angle_gamma   90.00000000
_symmetry_Int_Tables_number   1
_chemical_formula_structural   NaSb(PS3)2
_chemical_formula_sum   'Na4 Sb4 P8 S24'
_cell_volume   963.14518563
_cell_formula_units_Z   4
loop_
 _symmetry_equiv_pos_site_id
 _symmetry_equiv_pos_as_xyz
  1  'x, y, z'
loop_
 _atom_site_type_symbol
 _atom_site_label
 _atom_site_symmetry_multiplicity
 _atom_site_fract_x
 _atom_site_fract_y
 _atom_site_fract_z
 _atom_site_occupancy
  Na  Na0  1  0.40698082  0.38626109  0.11867239  1.0
  Na  Na1  1  0.40698082  0.11373891  0.61867239  1.0
  Na  Na2  1  0.59301918  0.88626109  0.38132761  1.0
  Na  Na3  1  0.59301918  0.61373891  0.88132761  1.0
  Sb  Sb4  1  0.86802643  0.15887277  0.18005572  1.0
  Sb  Sb5  1  0.86802643  0.34112723  0.68005572  1.0
  Sb  Sb6  1  0.13197357  0.65887277  0.31994428  1.0
  Sb  Sb7  1  0.13197357  0.84112723  0.81994428  1.0
  P  P8  1  0.75645596  0.39898261  0.33463193  1.0
  P  P9  1  0.75645596  0.10101739  0.83463193  1.0
  P  P10  1  0.24354404  0.89898261  0.16536807  1.0
  P  P11  1  0.24354404  0.60101739  0.66536807  1.0
  P  P12  1  0.24554608  0.12017943  0.29578517  1.0
  P  P13  1  0.24554608  0.37982057  0.79578517  1.0
  P  P14  1  0.75445392  0.62017943  0.20421483  1.0
  P  P15  1  0.75445392  0.87982057  0.70421483  1.0
  S  S16  1  0.93657387  0.30747518  0.38973132  1.0
  S  S17  1  0.93657387  0.19252482  0.88973132  1.0
  S  S18  1  0.06342613  0.80747518  0.11026868  1.0
  S  S19  1  0.06342613  0.69252482  0.61026868  1.0
  S  S20  1  0.87850788  0.80381866  0.30423019  1.0
  S  S21  1  0.87850788  0.69618134  0.80423019  1.0
  S  S22  1  0.12149212  0.30381866  0.19576981  1.0
  S  S23  1  0.12149212  0.19618134  0.69576981  1.0
  S  S24  1  0.68865871  0.49512645  0.45608349  1.0
  S  S25  1  0.68865871  0.00487355  0.95608349  1.0
  S  S26  1  0.31134129  0.99512645  0.04391651  1.0
  S  S27  1  0.31134129  0.50487355  0.54391651  1.0
  S  S28  1  0.65813380  0.19362293  0.22573736  1.0
  S  S29  1  0.65813380  0.30637707  0.72573736  1.0
  S  S30  1  0.34186620  0.69362293  0.27426264  1.0
  S  S31  1  0.34186620  0.80637707  0.77426264  1.0
  S  S32  1  0.41908327  0.21193021  0.36516587  1.0
  S  S33  1  0.41908327  0.28806979  0.86516587  1.0
  S  S34  1  0.58091673  0.71193021  0.13483413  1.0
  S  S35  1  0.58091673  0.78806979  0.63483413  1.0
  S  S36  1  0.17923915  0.98796492  0.41591126  1.0
  S  S37  1  0.17923915  0.51203508  0.91591126  1.0
  S  S38  1  0.82076085  0.48796492  0.08408874  1.0
  S  S39  1  0.82076085  0.01203508  0.58408874  1.0
