# generated using pymatgen
data_La(BRu)2
_symmetry_space_group_name_H-M   'P 1'
_cell_length_a   6.85074054
_cell_length_b   6.03479104
_cell_length_c   5.63668022
_cell_angle_alpha   71.79172431
_cell_angle_beta   56.80237231
_cell_angle_gamma   51.40590337
_symmetry_Int_Tables_number   1
_chemical_formula_structural   La(BRu)2
_chemical_formula_sum   'La2 B4 Ru4'
_cell_volume   152.25955251
_cell_formula_units_Z   2
loop_
 _symmetry_equiv_pos_site_id
 _symmetry_equiv_pos_as_xyz
  1  'x, y, z'
loop_
 _atom_site_type_symbol
 _atom_site_label
 _atom_site_symmetry_multiplicity
 _atom_site_fract_x
 _atom_site_fract_y
 _atom_site_fract_z
 _atom_site_occupancy
  La  La0  1  0.00000000  0.00000000  0.00000000  1.0
  La  La1  1  -0.25000000  0.75000000  0.75000000  1.0
  B  B2  1  -0.32159345  0.32159345  0.67840655  1.0
  B  B3  1  0.32159345  -0.32159345  1.32159345  1.0
  B  B4  1  0.42842658  0.07157342  1.42842658  1.0
  B  B5  1  0.07157342  0.42842658  1.07157342  1.0
  Ru  Ru6  1  0.36329941  0.36329941  -0.36329941  1.0
  Ru  Ru7  1  -0.36329941  0.63670059  0.36329941  1.0
  Ru  Ru8  1  0.11330184  0.11330184  1.38669816  1.0
  Ru  Ru9  1  0.38669816  0.38669816  1.11330184  1.0
