# generated using pymatgen
data_Zr6Al16Os7
_symmetry_space_group_name_H-M   'P 1'
_cell_length_a   8.75306264
_cell_length_b   8.75306264
_cell_length_c   8.75306264
_cell_angle_alpha   60.00000000
_cell_angle_beta   60.00000000
_cell_angle_gamma   60.00000000
_symmetry_Int_Tables_number   1
_chemical_formula_structural   Zr6Al16Os7
_chemical_formula_sum   'Zr6 Al16 Os7'
_cell_volume   474.20388903
_cell_formula_units_Z   1
loop_
 _symmetry_equiv_pos_site_id
 _symmetry_equiv_pos_as_xyz
  1  'x, y, z'
loop_
 _atom_site_type_symbol
 _atom_site_label
 _atom_site_symmetry_multiplicity
 _atom_site_fract_x
 _atom_site_fract_y
 _atom_site_fract_z
 _atom_site_occupancy
  Zr  Zr0  1  -0.70857815  0.70857815  0.70857815  1.0
  Zr  Zr1  1  -0.29142185  0.29142185  0.70857815  1.0
  Zr  Zr2  1  0.70857815  0.70857815  -0.70857815  1.0
  Zr  Zr3  1  0.29142185  1.29142185  -0.29142185  1.0
  Zr  Zr4  1  0.29142185  -0.29142185  1.29142185  1.0
  Zr  Zr5  1  -0.29142185  0.29142185  0.29142185  1.0
  Al  Al6  1  0.66322757  0.66322757  -0.33677243  1.0
  Al  Al7  1  1.33677243  0.33677243  -0.01031730  1.0
  Al  Al8  1  1.33677243  -0.01031730  0.33677243  1.0
  Al  Al9  1  1.01031730  0.66322757  -0.33677243  1.0
  Al  Al10  1  0.98968270  0.33677243  0.33677243  1.0
  Al  Al11  1  0.66322757  1.01031730  -0.33677243  1.0
  Al  Al12  1  0.66322757  0.66322757  0.01031730  1.0
  Al  Al13  1  1.33677243  0.33677243  0.33677243  1.0
  Al  Al14  1  0.88002991  0.88002991  -0.11997009  1.0
  Al  Al15  1  1.11997009  0.11997009  0.64008973  1.0
  Al  Al16  1  1.11997009  0.64008973  0.11997009  1.0
  Al  Al17  1  0.35991027  0.88002991  -0.11997009  1.0
  Al  Al18  1  1.64008973  0.11997009  0.11997009  1.0
  Al  Al19  1  0.88002991  0.35991027  -0.11997009  1.0
  Al  Al20  1  0.88002991  0.88002991  -0.64008973  1.0
  Al  Al21  1  1.11997009  0.11997009  0.11997009  1.0
  Os  Os22  1  1.50000000  0.00000000  -0.00000000  1.0
  Os  Os23  1  1.00000000  0.50000000  -0.50000000  1.0
  Os  Os24  1  0.00000000  1.50000000  -0.00000000  1.0
  Os  Os25  1  0.50000000  1.00000000  -0.50000000  1.0
  Os  Os26  1  0.00000000  0.00000000  0.50000000  1.0
  Os  Os27  1  0.50000000  -0.50000000  1.00000000  1.0
  Os  Os28  1  0.00000000  0.00000000  0.00000000  1.0
