# generated using pymatgen
data_RbH6C2S2NO4
_symmetry_space_group_name_H-M   'P 1'
_cell_length_a   8.00414489
_cell_length_b   8.89852976
_cell_length_c   12.43616504
_cell_angle_alpha   90.00000000
_cell_angle_beta   106.91676748
_cell_angle_gamma   90.00000000
_symmetry_Int_Tables_number   1
_chemical_formula_structural   RbH6C2S2NO4
_chemical_formula_sum   'Rb4 H24 C8 S8 N4 O16'
_cell_volume   847.43885734
_cell_formula_units_Z   4
loop_
 _symmetry_equiv_pos_site_id
 _symmetry_equiv_pos_as_xyz
  1  'x, y, z'
loop_
 _atom_site_type_symbol
 _atom_site_label
 _atom_site_symmetry_multiplicity
 _atom_site_fract_x
 _atom_site_fract_y
 _atom_site_fract_z
 _atom_site_occupancy
  Rb  Rb0  1  0.42512133  0.97164830  0.20996575  1.0
  Rb  Rb1  1  0.57487867  0.47164830  0.29003425  1.0
  Rb  Rb2  1  0.57487867  0.02835170  0.79003425  1.0
  Rb  Rb3  1  0.42512133  0.52835170  0.70996575  1.0
  H  H4  1  0.15014813  0.39419355  0.04895203  1.0
  H  H5  1  0.84985187  0.89419355  0.45104797  1.0
  H  H6  1  0.84985187  0.60580645  0.95104797  1.0
  H  H7  1  0.15014813  0.10580645  0.54895203  1.0
  H  H8  1  0.26530492  0.51717965  0.98038847  1.0
  H  H9  1  0.73469508  0.01717965  0.51961153  1.0
  H  H10  1  0.73469508  0.48282035  0.01961153  1.0
  H  H11  1  0.26530492  0.98282035  0.48038847  1.0
  H  H12  1  0.09104797  0.40001871  0.89726910  1.0
  H  H13  1  0.90895203  0.90001871  0.60273090  1.0
  H  H14  1  0.90895203  0.59998129  0.10273090  1.0
  H  H15  1  0.09104797  0.09998129  0.39726910  1.0
  H  H16  1  0.06926561  0.85070648  0.97246983  1.0
  H  H17  1  0.93073439  0.35070648  0.52753017  1.0
  H  H18  1  0.93073439  0.14929352  0.02753017  1.0
  H  H19  1  0.06926561  0.64929352  0.47246983  1.0
  H  H20  1  0.01758243  0.79635505  0.82617785  1.0
  H  H21  1  0.98241757  0.29635505  0.67382215  1.0
  H  H22  1  0.98241757  0.20364495  0.17382215  1.0
  H  H23  1  0.01758243  0.70364495  0.32617785  1.0
  H  H24  1  0.24141887  0.80188088  0.91075423  1.0
  H  H25  1  0.75858113  0.30188088  0.58924577  1.0
  H  H26  1  0.75858113  0.19811912  0.08924577  1.0
  H  H27  1  0.24141887  0.69811912  0.41075423  1.0
  C  C28  1  0.19791509  0.40896196  0.97553877  1.0
  C  C29  1  0.80208491  0.90896196  0.52446123  1.0
  C  C30  1  0.80208491  0.59103804  0.02446123  1.0
  C  C31  1  0.19791509  0.09103804  0.47553877  1.0
  C  C32  1  0.11206071  0.85265381  0.89642398  1.0
  C  C33  1  0.88793929  0.35265381  0.60357602  1.0
  C  C34  1  0.88793929  0.14734619  0.10357602  1.0
  C  C35  1  0.11206071  0.64734619  0.39642398  1.0
  S  S36  1  0.35605141  0.26621459  0.97900331  1.0
  S  S37  1  0.64394859  0.76621459  0.52099669  1.0
  S  S38  1  0.64394859  0.73378541  0.02099669  1.0
  S  S39  1  0.35605141  0.23378541  0.47900331  1.0
  S  S40  1  0.12497802  0.04258368  0.85597394  1.0
  S  S41  1  0.87502198  0.54258368  0.64402606  1.0
  S  S42  1  0.87502198  0.95741632  0.14402606  1.0
  S  S43  1  0.12497802  0.45741632  0.35597394  1.0
  N  N44  1  0.26330679  0.10594770  0.96922576  1.0
  N  N45  1  0.73669321  0.60594770  0.53077424  1.0
  N  N46  1  0.73669321  0.89405230  0.03077424  1.0
  N  N47  1  0.26330679  0.39405230  0.46922576  1.0
  O  O48  1  0.48063421  0.27025901  0.09248629  1.0
  O  O49  1  0.51936579  0.77025901  0.40751371  1.0
  O  O50  1  0.51936579  0.72974099  0.90751371  1.0
  O  O51  1  0.48063421  0.22974099  0.59248629  1.0
  O  O52  1  0.43202215  0.29906213  0.88694381  1.0
  O  O53  1  0.56797785  0.79906213  0.61305619  1.0
  O  O54  1  0.56797785  0.70093787  0.11305619  1.0
  O  O55  1  0.43202215  0.20093787  0.38694381  1.0
  O  O56  1  0.95098583  0.11103119  0.83647202  1.0
  O  O57  1  0.04901417  0.61103119  0.66352798  1.0
  O  O58  1  0.04901417  0.88896881  0.16352798  1.0
  O  O59  1  0.95098583  0.38896881  0.33647202  1.0
  O  O60  1  0.19120760  0.04487448  0.75732706  1.0
  O  O61  1  0.80879240  0.54487448  0.74267294  1.0
  O  O62  1  0.80879240  0.95512552  0.24267294  1.0
  O  O63  1  0.19120760  0.45512552  0.25732706  1.0
