# generated using pymatgen
data_Rb2PtC4(N2Cl)2
_symmetry_space_group_name_H-M   'P 1'
_cell_length_a   9.98995367
_cell_length_b   9.52405039
_cell_length_c   7.00859431
_cell_angle_alpha   105.82033194
_cell_angle_beta   104.59219047
_cell_angle_gamma   86.53456951
_symmetry_Int_Tables_number   1
_chemical_formula_structural   Rb2PtC4(N2Cl)2
_chemical_formula_sum   'Rb4 Pt2 C8 N8 Cl4'
_cell_volume   620.85358092
_cell_formula_units_Z   2
loop_
 _symmetry_equiv_pos_site_id
 _symmetry_equiv_pos_as_xyz
  1  'x, y, z'
loop_
 _atom_site_type_symbol
 _atom_site_label
 _atom_site_symmetry_multiplicity
 _atom_site_fract_x
 _atom_site_fract_y
 _atom_site_fract_z
 _atom_site_occupancy
  Rb  Rb0  1  0.45215593  0.83552104  -0.85939504  1.0
  Rb  Rb1  1  0.54784407  0.16447896  -0.14060496  1.0
  Rb  Rb2  1  0.94578956  0.63816793  -0.73046711  1.0
  Rb  Rb3  1  0.05421044  0.36183207  -0.26953289  1.0
  Pt  Pt4  1  0.50000000  0.50000000  -0.50000000  1.0
  Pt  Pt5  1  0.00000000  0.00000000  0.00000000  1.0
  C  C6  1  0.83376264  0.93380919  -0.93286503  1.0
  C  C7  1  0.16623736  0.06619081  -0.06713497  1.0
  C  C8  1  0.97814831  0.20241473  -0.82687813  1.0
  C  C9  1  0.02185169  0.79758527  -0.17312187  1.0
  C  C10  1  0.32058222  0.50521649  -0.70890639  1.0
  C  C11  1  0.67941778  0.49478351  -0.29109361  1.0
  C  C12  1  0.49620666  0.71936339  -0.40580123  1.0
  C  C13  1  0.50379334  0.28063661  -0.59419877  1.0
  N  N14  1  0.73847174  0.89451883  -0.89243234  1.0
  N  N15  1  0.26152826  0.10548117  -0.10756766  1.0
  N  N16  1  0.21834648  0.51185292  -0.83124187  1.0
  N  N17  1  0.78165352  0.48814708  -0.16875813  1.0
  N  N18  1  0.96537972  0.31972662  -0.72597420  1.0
  N  N19  1  0.03462028  0.68027338  -0.27402580  1.0
  N  N20  1  0.49189836  0.84659988  -0.35541721  1.0
  N  N21  1  0.50810164  0.15340012  -0.64458279  1.0
  Cl  Cl22  1  0.62038239  0.51459264  -0.74545097  1.0
  Cl  Cl23  1  0.37961761  0.48540736  -0.25454903  1.0
  Cl  Cl24  1  0.14459574  0.93961994  -0.70860269  1.0
  Cl  Cl25  1  0.85540426  0.06038006  -0.29139731  1.0
