# generated using pymatgen
data_SrNiGe3
_symmetry_space_group_name_H-M   'P 1'
_cell_length_a   5.91225992
_cell_length_b   5.91225992
_cell_length_c   5.91225992
_cell_angle_alpha   136.25639591
_cell_angle_beta   136.25639591
_cell_angle_gamma   63.58419127
_symmetry_Int_Tables_number   1
_chemical_formula_structural   SrNiGe3
_chemical_formula_sum   'Sr1 Ni1 Ge3'
_cell_volume   97.50948615
_cell_formula_units_Z   1
loop_
 _symmetry_equiv_pos_site_id
 _symmetry_equiv_pos_as_xyz
  1  'x, y, z'
loop_
 _atom_site_type_symbol
 _atom_site_label
 _atom_site_symmetry_multiplicity
 _atom_site_fract_x
 _atom_site_fract_y
 _atom_site_fract_z
 _atom_site_occupancy
  Sr  Sr0  1  0.58711971  0.58711971  1.00000000  1.0
  Ni  Ni1  1  0.23800668  0.23800668  0.00000000  1.0
  Ge  Ge2  1  0.33810172  0.83810172  0.50000000  1.0
  Ge  Ge3  1  0.83810172  0.33810172  0.50000000  1.0
  Ge  Ge4  1  0.00087016  0.00087016  -0.00000000  1.0
