# generated using pymatgen
data_Cu3B7ClO13
_symmetry_space_group_name_H-M   'P 1'
_cell_length_a   8.52463477
_cell_length_b   8.52463477
_cell_length_c   8.52463477
_cell_angle_alpha   60.00000000
_cell_angle_beta   60.00000000
_cell_angle_gamma   60.00000000
_symmetry_Int_Tables_number   1
_chemical_formula_structural   Cu3B7ClO13
_chemical_formula_sum   'Cu6 B14 Cl2 O26'
_cell_volume   438.03856328
_cell_formula_units_Z   2
loop_
 _symmetry_equiv_pos_site_id
 _symmetry_equiv_pos_as_xyz
  1  'x, y, z'
loop_
 _atom_site_type_symbol
 _atom_site_label
 _atom_site_symmetry_multiplicity
 _atom_site_fract_x
 _atom_site_fract_y
 _atom_site_fract_z
 _atom_site_occupancy
  Cu  Cu0  1  0.50000000  0.00000000  -0.00000000  1.0
  Cu  Cu1  1  1.00000000  0.50000000  -0.50000000  1.0
  Cu  Cu2  1  -0.50000000  0.50000000  1.00000000  1.0
  Cu  Cu3  1  0.00000000  0.50000000  -0.00000000  1.0
  Cu  Cu4  1  0.00000000  -0.00000000  0.50000000  1.0
  Cu  Cu5  1  0.50000000  1.00000000  -0.50000000  1.0
  B  B6  1  0.91874264  0.91874264  -0.08125736  1.0
  B  B7  1  0.41874264  1.41874264  0.41874264  1.0
  B  B8  1  0.24377207  0.91874264  -0.08125736  1.0
  B  B9  1  -0.25622793  0.41874264  0.41874264  1.0
  B  B10  1  0.91874264  0.91874264  -0.75622793  1.0
  B  B11  1  0.41874264  1.41874264  -0.25622793  1.0
  B  B12  1  0.91874264  0.24377207  -0.08125736  1.0
  B  B13  1  0.41874264  -0.25622793  0.41874264  1.0
  B  B14  1  -0.75000000  0.75000000  0.75000000  1.0
  B  B15  1  -0.25000000  0.25000000  0.25000000  1.0
  B  B16  1  0.25000000  1.25000000  -0.25000000  1.0
  B  B17  1  -0.25000000  0.25000000  0.75000000  1.0
  B  B18  1  -0.25000000  0.75000000  0.25000000  1.0
  B  B19  1  0.25000000  -0.25000000  0.25000000  1.0
  Cl  Cl20  1  0.75000000  0.75000000  -0.25000000  1.0
  Cl  Cl21  1  0.25000000  0.25000000  0.25000000  1.0
  O  O22  1  0.73901458  1.06381484  -0.09988197  1.0
  O  O23  1  0.23901458  1.40011803  0.56381484  1.0
  O  O24  1  -0.70294745  0.90011803  1.06381484  1.0
  O  O25  1  -0.20294745  0.56381484  0.40011803  1.0
  O  O26  1  0.40011803  1.56381484  0.23901458  1.0
  O  O27  1  -0.09988197  0.73901458  1.06381484  1.0
  O  O28  1  -0.20294745  0.23901458  0.56381484  1.0
  O  O29  1  0.29705255  1.06381484  -0.26098542  1.0
  O  O30  1  1.06381484  0.90011803  -0.26098542  1.0
  O  O31  1  0.56381484  1.23901458  0.40011803  1.0
  O  O32  1  -0.70294745  0.73901458  0.90011803  1.0
  O  O33  1  -0.20294745  0.40011803  0.23901458  1.0
  O  O34  1  1.06381484  0.73901458  -0.70294745  1.0
  O  O35  1  0.40011803  1.23901458  -0.20294745  1.0
  O  O36  1  -0.09988197  0.29705255  0.73901458  1.0
  O  O37  1  0.56381484  -0.20294745  0.23901458  1.0
  O  O38  1  0.56381484  1.40011803  -0.20294745  1.0
  O  O39  1  -0.26098542  0.90011803  0.29705255  1.0
  O  O40  1  0.23901458  -0.20294745  0.40011803  1.0
  O  O41  1  1.06381484  0.29705255  -0.09988197  1.0
  O  O42  1  0.90011803  1.06381484  -0.70294745  1.0
  O  O43  1  0.23901458  1.56381484  -0.20294745  1.0
  O  O44  1  -0.26098542  0.29705255  1.06381484  1.0
  O  O45  1  0.40011803  -0.20294745  0.56381484  1.0
  O  O46  1  0.00000000  0.00000000  0.00000000  1.0
  O  O47  1  -0.50000000  0.50000000  0.50000000  1.0
