# generated using pymatgen
data_KBeF3
_symmetry_space_group_name_H-M   'P 1'
_cell_length_a   4.56856974
_cell_length_b   5.57384995
_cell_length_c   12.36972140
_cell_angle_alpha   90.00000000
_cell_angle_beta   90.00000000
_cell_angle_gamma   90.00000000
_symmetry_Int_Tables_number   1
_chemical_formula_structural   KBeF3
_chemical_formula_sum   'K4 Be4 F12'
_cell_volume   314.98904501
_cell_formula_units_Z   4
loop_
 _symmetry_equiv_pos_site_id
 _symmetry_equiv_pos_as_xyz
  1  'x, y, z'
loop_
 _atom_site_type_symbol
 _atom_site_label
 _atom_site_symmetry_multiplicity
 _atom_site_fract_x
 _atom_site_fract_y
 _atom_site_fract_z
 _atom_site_occupancy
  K  K0  1  0.22979825  0.68343520  0.85907545  1.0
  K  K1  1  0.72979825  0.81656480  0.14092455  1.0
  K  K2  1  0.77020175  0.18343520  0.64092455  1.0
  K  K3  1  0.27020175  0.31656480  0.35907545  1.0
  Be  Be4  1  0.32282776  0.69778557  0.57061567  1.0
  Be  Be5  1  0.82282776  0.80221443  0.42938433  1.0
  Be  Be6  1  0.67717224  0.19778557  0.92938433  1.0
  Be  Be7  1  0.17717224  0.30221443  0.07061567  1.0
  F  F8  1  0.26122656  0.43175251  0.59179674  1.0
  F  F9  1  0.76122656  0.06824749  0.40820326  1.0
  F  F10  1  0.73877344  0.93175251  0.90820326  1.0
  F  F11  1  0.23877344  0.56824749  0.09179674  1.0
  F  F12  1  0.25361773  0.87192295  0.66253477  1.0
  F  F13  1  0.75361773  0.62807705  0.33746523  1.0
  F  F14  1  0.74638227  0.37192295  0.83746523  1.0
  F  F15  1  0.24638227  0.12807705  0.16253477  1.0
  F  F16  1  0.66502093  0.72269507  0.54040702  1.0
  F  F17  1  0.16502093  0.77730493  0.45959298  1.0
  F  F18  1  0.33497907  0.22269507  0.95959298  1.0
  F  F19  1  0.83497907  0.27730493  0.04040702  1.0
