# generated using pymatgen
data_Zr2InC
_symmetry_space_group_name_H-M   'P 1'
_cell_length_a   3.36538268
_cell_length_b   3.36538268
_cell_length_c   15.09913349
_cell_angle_alpha   90.00000000
_cell_angle_beta   90.00000000
_cell_angle_gamma   120.00000000
_symmetry_Int_Tables_number   1
_chemical_formula_structural   Zr2InC
_chemical_formula_sum   'Zr4 In2 C2'
_cell_volume   148.09880896
_cell_formula_units_Z   2
loop_
 _symmetry_equiv_pos_site_id
 _symmetry_equiv_pos_as_xyz
  1  'x, y, z'
loop_
 _atom_site_type_symbol
 _atom_site_label
 _atom_site_symmetry_multiplicity
 _atom_site_fract_x
 _atom_site_fract_y
 _atom_site_fract_z
 _atom_site_occupancy
  Zr  Zr0  1  0.33333333  0.66666667  0.91815148  1.0
  Zr  Zr1  1  0.33333333  0.66666667  0.58184852  1.0
  Zr  Zr2  1  0.66666667  0.33333333  0.41815148  1.0
  Zr  Zr3  1  0.66666667  0.33333333  0.08184852  1.0
  In  In4  1  0.33333333  0.66666667  0.25000000  1.0
  In  In5  1  0.66666667  0.33333333  0.75000000  1.0
  C  C6  1  0.00000000  0.00000000  0.50000000  1.0
  C  C7  1  0.00000000  0.00000000  0.00000000  1.0
