# generated using pymatgen
data_LiP(HO2)2
_symmetry_space_group_name_H-M   'P 1'
_cell_length_a   6.39837158
_cell_length_b   7.69063123
_cell_length_c   6.92928905
_cell_angle_alpha   90.00000000
_cell_angle_beta   90.00000000
_cell_angle_gamma   90.00000000
_symmetry_Int_Tables_number   1
_chemical_formula_structural   LiP(HO2)2
_chemical_formula_sum   'Li4 P4 H8 O16'
_cell_volume   340.97310372
_cell_formula_units_Z   4
loop_
 _symmetry_equiv_pos_site_id
 _symmetry_equiv_pos_as_xyz
  1  'x, y, z'
loop_
 _atom_site_type_symbol
 _atom_site_label
 _atom_site_symmetry_multiplicity
 _atom_site_fract_x
 _atom_site_fract_y
 _atom_site_fract_z
 _atom_site_occupancy
  Li  Li0  1  0.51457131  0.72606625  0.00326586  1.0
  Li  Li1  1  0.01457131  0.77393375  0.00326586  1.0
  Li  Li2  1  0.48542869  0.27393375  0.50326586  1.0
  Li  Li3  1  0.98542869  0.22606625  0.50326586  1.0
  P  P4  1  0.80264924  0.56910482  0.32800318  1.0
  P  P5  1  0.30264924  0.93089518  0.32800318  1.0
  P  P6  1  0.19735076  0.43089518  0.82800318  1.0
  P  P7  1  0.69735076  0.06910482  0.82800318  1.0
  H  H8  1  0.49108012  0.61330810  0.44219617  1.0
  H  H9  1  -0.00891988  0.88669190  0.44219617  1.0
  H  H10  1  0.50891988  0.38669190  0.94219617  1.0
  H  H11  1  1.00891988  0.11330810  0.94219617  1.0
  H  H12  1  0.53602286  0.14044976  0.11487135  1.0
  H  H13  1  0.03602286  0.35955024  0.11487135  1.0
  H  H14  1  0.46397714  0.85955024  0.61487135  1.0
  H  H15  1  0.96397714  0.64044976  0.61487135  1.0
  O  O16  1  0.56919993  0.90338044  0.80622105  1.0
  O  O17  1  0.06919993  0.59661956  0.80622105  1.0
  O  O18  1  0.43080007  0.09661956  0.30622105  1.0
  O  O19  1  0.93080007  0.40338044  0.30622105  1.0
  O  O20  1  0.57762650  0.50792953  0.40887304  1.0
  O  O21  1  0.07762650  0.99207047  0.40887304  1.0
  O  O22  1  0.42237350  0.49207047  0.90887304  1.0
  O  O23  1  0.92237350  0.00792953  0.90887304  1.0
  O  O24  1  0.77472945  0.68201658  0.15026864  1.0
  O  O25  1  0.27472945  0.81798342  0.15026864  1.0
  O  O26  1  0.22527055  0.31798342  0.65026864  1.0
  O  O27  1  0.72527055  0.18201658  0.65026864  1.0
  O  O28  1  0.89746176  0.69323977  0.49190071  1.0
  O  O29  1  0.39746176  0.80676023  0.49190071  1.0
  O  O30  1  0.10253824  0.30676023  -0.00809929  1.0
  O  O31  1  0.60253824  0.19323977  -0.00809929  1.0
