# generated using pymatgen
data_LaMg2Ni
_symmetry_space_group_name_H-M   'P 1'
_cell_length_a   5.52974212
_cell_length_b   5.52974212
_cell_length_c   8.37674173
_cell_angle_alpha   90.00000000
_cell_angle_beta   90.00000000
_cell_angle_gamma   135.34161188
_symmetry_Int_Tables_number   1
_chemical_formula_structural   LaMg2Ni
_chemical_formula_sum   'La2 Mg4 Ni2'
_cell_volume   180.03834484
_cell_formula_units_Z   2
loop_
 _symmetry_equiv_pos_site_id
 _symmetry_equiv_pos_as_xyz
  1  'x, y, z'
loop_
 _atom_site_type_symbol
 _atom_site_label
 _atom_site_symmetry_multiplicity
 _atom_site_fract_x
 _atom_site_fract_y
 _atom_site_fract_z
 _atom_site_occupancy
  La  La0  1  0.43980844  0.56019156  0.75000000  1.0
  La  La1  1  -0.43980844  0.43980844  0.25000000  1.0
  Mg  Mg2  1  0.15469462  0.84530538  0.94479164  1.0
  Mg  Mg3  1  0.15469462  0.84530538  0.55520836  1.0
  Mg  Mg4  1  -0.15469462  0.15469462  0.44479164  1.0
  Mg  Mg5  1  -0.15469462  0.15469462  0.05520836  1.0
  Ni  Ni6  1  -0.27418275  0.27418275  0.75000000  1.0
  Ni  Ni7  1  0.27418275  0.72581725  0.25000000  1.0
