# generated using pymatgen
data_KHgC2N2ClO
_symmetry_space_group_name_H-M   'P 1'
_cell_length_a   9.09069757
_cell_length_b   4.38467986
_cell_length_c   17.99927728
_cell_angle_alpha   90.00000000
_cell_angle_beta   90.00000000
_cell_angle_gamma   90.00000000
_symmetry_Int_Tables_number   1
_chemical_formula_structural   KHgC2N2ClO
_chemical_formula_sum   'K4 Hg4 C8 N8 Cl4 O4'
_cell_volume   717.44756669
_cell_formula_units_Z   4
loop_
 _symmetry_equiv_pos_site_id
 _symmetry_equiv_pos_as_xyz
  1  'x, y, z'
loop_
 _atom_site_type_symbol
 _atom_site_label
 _atom_site_symmetry_multiplicity
 _atom_site_fract_x
 _atom_site_fract_y
 _atom_site_fract_z
 _atom_site_occupancy
  K  K0  1  0.74994735  0.25000000  0.49771351  1.0
  K  K1  1  0.24994735  0.25000000  1.00228649  1.0
  K  K2  1  0.25005265  0.75000000  0.50228649  1.0
  K  K3  1  0.75005265  0.75000000  -0.00228649  1.0
  Hg  Hg4  1  0.50018567  0.25000000  0.24999188  1.0
  Hg  Hg5  1  0.00018567  0.25000000  0.25000812  1.0
  Hg  Hg6  1  0.49981433  0.75000000  0.75000812  1.0
  Hg  Hg7  1  0.99981433  0.75000000  0.74999188  1.0
  C  C8  1  0.54043732  0.25000000  0.13867118  1.0
  C  C9  1  0.04043732  0.25000000  0.36132882  1.0
  C  C10  1  0.45956268  0.75000000  0.86132882  1.0
  C  C11  1  0.95956268  0.75000000  0.63867118  1.0
  C  C12  1  0.95978759  0.25000000  0.13870149  1.0
  C  C13  1  0.45978759  0.25000000  0.36129851  1.0
  C  C14  1  0.04021241  0.75000000  0.86129851  1.0
  C  C15  1  0.54021241  0.75000000  0.63870149  1.0
  N  N16  1  0.56588772  0.25000000  0.07518158  1.0
  N  N17  1  0.06588772  0.25000000  0.42481842  1.0
  N  N18  1  0.43411228  0.75000000  0.92481842  1.0
  N  N19  1  0.93411228  0.75000000  0.57518158  1.0
  N  N20  1  0.93429701  0.25000000  0.07521589  1.0
  N  N21  1  0.43429701  0.25000000  0.42478411  1.0
  N  N22  1  0.06570299  0.75000000  0.92478411  1.0
  N  N23  1  0.56570299  0.75000000  0.57521589  1.0
  Cl  Cl24  1  0.75011703  0.25000000  0.77075376  1.0
  Cl  Cl25  1  0.25011703  0.25000000  0.72924624  1.0
  Cl  Cl26  1  0.24988297  0.75000000  0.22924624  1.0
  Cl  Cl27  1  0.74988297  0.75000000  0.27075376  1.0
  O  O28  1  0.24996477  0.25000000  0.59864328  1.0
  O  O29  1  0.74996477  0.25000000  0.90135672  1.0
  O  O30  1  0.75003523  0.75000000  0.40135672  1.0
  O  O31  1  0.25003523  0.75000000  0.09864328  1.0
