# generated using pymatgen
data_KBPO4F
_symmetry_space_group_name_H-M   'P 1'
_cell_length_a   4.55797385
_cell_length_b   4.55797385
_cell_length_c   12.40200459
_cell_angle_alpha   89.80527980
_cell_angle_beta   90.19472020
_cell_angle_gamma   57.44514272
_symmetry_Int_Tables_number   1
_chemical_formula_structural   KBPO4F
_chemical_formula_sum   'K2 B2 P2 O8 F2'
_cell_volume   217.16443272
_cell_formula_units_Z   2
loop_
 _symmetry_equiv_pos_site_id
 _symmetry_equiv_pos_as_xyz
  1  'x, y, z'
loop_
 _atom_site_type_symbol
 _atom_site_label
 _atom_site_symmetry_multiplicity
 _atom_site_fract_x
 _atom_site_fract_y
 _atom_site_fract_z
 _atom_site_occupancy
  K  K0  1  0.78857293  -0.48405563  0.83992987  1.0
  K  K1  1  0.48405563  0.21142707  0.33992987  1.0
  B  B2  1  0.56202866  0.11492541  0.04261819  1.0
  B  B3  1  0.88507459  -0.56202866  0.54261819  1.0
  P  P4  1  0.23241196  -0.20268177  0.12213783  1.0
  P  P5  1  1.20268177  -0.23241196  0.62213783  1.0
  O  O6  1  0.93040457  0.00075757  0.03639326  1.0
  O  O7  1  0.99924243  -0.93040457  0.53639326  1.0
  O  O8  1  1.36424993  -0.60151525  0.11875006  1.0
  O  O9  1  0.60151525  -0.36424993  0.61875006  1.0
  O  O10  1  0.54116497  -0.18500165  0.07290811  1.0
  O  O11  1  1.18500165  -0.54116497  0.57290811  1.0
  O  O12  1  0.13613008  -0.07934542  0.23614757  1.0
  O  O13  1  1.07934542  -0.13613008  0.73614757  1.0
  F  F14  1  0.42981398  0.22469380  0.93451512  1.0
  F  F15  1  0.77530620  -0.42981398  0.43451512  1.0
