# generated using pymatgen
data_LiZn(ClO)3
_symmetry_space_group_name_H-M   'P 1'
_cell_length_a   6.33285904
_cell_length_b   7.82357317
_cell_length_c   15.97151995
_cell_angle_alpha   90.00000000
_cell_angle_beta   90.00000000
_cell_angle_gamma   90.00000000
_symmetry_Int_Tables_number   1
_chemical_formula_structural   LiZn(ClO)3
_chemical_formula_sum   'Li4 Zn4 Cl12 O12'
_cell_volume   791.31831626
_cell_formula_units_Z   4
loop_
 _symmetry_equiv_pos_site_id
 _symmetry_equiv_pos_as_xyz
  1  'x, y, z'
loop_
 _atom_site_type_symbol
 _atom_site_label
 _atom_site_symmetry_multiplicity
 _atom_site_fract_x
 _atom_site_fract_y
 _atom_site_fract_z
 _atom_site_occupancy
  Li  Li0  1  0.49311243  0.75000000  0.24645945  1.0
  Li  Li1  1  0.99311243  0.75000000  0.25354055  1.0
  Li  Li2  1  0.50688757  0.25000000  0.75354055  1.0
  Li  Li3  1  0.00688757  0.25000000  0.74645945  1.0
  Zn  Zn4  1  0.12428259  0.75000000  0.71255231  1.0
  Zn  Zn5  1  0.62428259  0.75000000  0.78744769  1.0
  Zn  Zn6  1  0.87571741  0.25000000  0.28744769  1.0
  Zn  Zn7  1  0.37571741  0.25000000  0.21255231  1.0
  Cl  Cl8  1  0.29436386  0.99030495  0.65891730  1.0
  Cl  Cl9  1  0.29436386  0.50969505  0.65891730  1.0
  Cl  Cl10  1  0.79436386  0.99030495  0.84108270  1.0
  Cl  Cl11  1  0.79436386  0.50969505  0.84108270  1.0
  Cl  Cl12  1  0.70563614  0.49030495  0.34108270  1.0
  Cl  Cl13  1  0.70563614  0.00969505  0.34108270  1.0
  Cl  Cl14  1  0.20563614  0.49030495  0.15891730  1.0
  Cl  Cl15  1  0.20563614  0.00969505  0.15891730  1.0
  Cl  Cl16  1  0.29032949  0.75000000  0.84269008  1.0
  Cl  Cl17  1  0.79032949  0.75000000  0.65730992  1.0
  Cl  Cl18  1  0.70967051  0.25000000  0.15730992  1.0
  Cl  Cl19  1  0.20967051  0.25000000  0.34269008  1.0
  O  O20  1  0.28486460  0.32820536  0.94458231  1.0
  O  O21  1  0.28486460  0.17179464  0.94458231  1.0
  O  O22  1  0.78486460  0.32820536  0.55541769  1.0
  O  O23  1  0.78486460  0.17179464  0.55541769  1.0
  O  O24  1  0.71513540  0.82820536  0.05541769  1.0
  O  O25  1  0.71513540  0.67179464  0.05541769  1.0
  O  O26  1  0.21513540  0.82820536  0.44458231  1.0
  O  O27  1  0.21513540  0.67179464  0.44458231  1.0
  O  O28  1  0.23715430  0.75000000  0.18650753  1.0
  O  O29  1  0.73715430  0.75000000  0.31349247  1.0
  O  O30  1  0.76284570  0.25000000  0.81349247  1.0
  O  O31  1  0.26284570  0.25000000  0.68650753  1.0
