# generated using pymatgen
data_TcH4NO4
_symmetry_space_group_name_H-M   'P 1'
_cell_length_a   8.20499012
_cell_length_b   8.20499012
_cell_length_c   8.20499012
_cell_angle_alpha   139.00019862
_cell_angle_beta   139.00019862
_cell_angle_gamma   59.37454909
_symmetry_Int_Tables_number   1
_chemical_formula_structural   TcH4NO4
_chemical_formula_sum   'Tc2 H8 N2 O8'
_cell_volume   235.41348048
_cell_formula_units_Z   2
loop_
 _symmetry_equiv_pos_site_id
 _symmetry_equiv_pos_as_xyz
  1  'x, y, z'
loop_
 _atom_site_type_symbol
 _atom_site_label
 _atom_site_symmetry_multiplicity
 _atom_site_fract_x
 _atom_site_fract_y
 _atom_site_fract_z
 _atom_site_occupancy
  Tc  Tc0  1  0.75000000  0.25000000  0.50000000  1.0
  Tc  Tc1  1  1.00000000  1.00000000  1.00000000  1.0
  H  H2  1  0.38641769  0.90513091  0.70944436  1.0
  H  H3  1  1.19568655  0.67697333  1.29055564  1.0
  H  H4  1  1.42697333  0.63641769  0.98128678  1.0
  H  H5  1  0.65513091  1.44568655  1.01871322  1.0
  H  H6  1  1.36358231  1.34486909  1.79055564  1.0
  H  H7  1  0.55431345  0.57302667  0.20944436  1.0
  H  H8  1  0.32302667  0.61358231  0.51871322  1.0
  H  H9  1  1.09486909  0.80431345  1.48128678  1.0
  N  N10  1  0.25000000  0.75000000  0.50000000  1.0
  N  N11  1  0.50000000  0.50000000  -0.00000000  1.0
  O  O12  1  0.79994530  0.96498770  1.40422065  1.0
  O  O13  1  0.56076704  0.39572465  0.59577935  1.0
  O  O14  1  1.14572465  1.04994530  1.33495760  1.0
  O  O15  1  0.71498770  0.81076704  0.66504240  1.0
  O  O16  1  0.95005470  1.28501230  1.09577935  1.0
  O  O17  1  1.18923296  0.85427535  0.90422065  1.0
  O  O18  1  0.60427535  1.20005470  1.16504240  1.0
  O  O19  1  1.03501230  0.43923296  0.83495760  1.0
