# generated using pymatgen
data_Bi(MoO5)2
_symmetry_space_group_name_H-M   'P 1'
_cell_length_a   5.65894992
_cell_length_b   11.44925408
_cell_length_c   6.08649295
_cell_angle_alpha   90.00000000
_cell_angle_beta   109.35814568
_cell_angle_gamma   90.00000000
_symmetry_Int_Tables_number   1
_chemical_formula_structural   Bi(MoO5)2
_chemical_formula_sum   'Bi2 Mo4 O20'
_cell_volume   372.05400493
_cell_formula_units_Z   2
loop_
 _symmetry_equiv_pos_site_id
 _symmetry_equiv_pos_as_xyz
  1  'x, y, z'
loop_
 _atom_site_type_symbol
 _atom_site_label
 _atom_site_symmetry_multiplicity
 _atom_site_fract_x
 _atom_site_fract_y
 _atom_site_fract_z
 _atom_site_occupancy
  O  O0  1  0.97252375  0.25000000  0.90882594  1.0
  O  O1  1  0.02747625  0.75000000  0.09117406  1.0
  O  O2  1  0.84519650  0.93369158  0.87805164  1.0
  O  O3  1  0.84519650  0.56630842  0.87805164  1.0
  O  O4  1  0.15480350  0.43369158  0.12194836  1.0
  O  O5  1  0.15480350  0.06630842  0.12194836  1.0
  O  O6  1  0.60565552  0.37646597  1.01317270  1.0
  O  O7  1  0.60565552  0.12353403  1.01317270  1.0
  O  O8  1  0.39434448  0.87646597  -0.01317270  1.0
  O  O9  1  0.39434448  0.62353403  -0.01317270  1.0
  O  O10  1  0.60307371  0.37859861  0.56422362  1.0
  O  O11  1  0.60307371  0.12140139  0.56422362  1.0
  O  O12  1  0.39692629  0.87859861  0.43577638  1.0
  O  O13  1  0.39692629  0.62140139  0.43577638  1.0
  O  O14  1  0.96779518  0.91373235  0.39660365  1.0
  O  O15  1  0.96779518  0.58626765  0.39660365  1.0
  O  O16  1  0.03220482  0.41373235  0.60339635  1.0
  O  O17  1  0.03220482  0.08626765  0.60339635  1.0
  O  O18  1  0.05302229  0.25000000  0.40824786  1.0
  O  O19  1  0.94697771  0.75000000  0.59175214  1.0
  Bi  Bi20  1  0.36155549  0.25000000  0.24875707  1.0
  Bi  Bi21  1  0.63844451  0.75000000  0.75124293  1.0
  Mo  Mo22  1  0.80146382  0.40341766  0.85480333  1.0
  Mo  Mo23  1  0.80146382  0.09658234  0.85480333  1.0
  Mo  Mo24  1  0.19853618  0.90341766  0.14519667  1.0
  Mo  Mo25  1  0.19853618  0.59658234  0.14519667  1.0
