# generated using pymatgen
data_RbV2SeO7
_symmetry_space_group_name_H-M   'P 1'
_cell_length_a   19.27250227
_cell_length_b   5.48065700
_cell_length_c   7.09058937
_cell_angle_alpha   90.00000000
_cell_angle_beta   90.00000000
_cell_angle_gamma   90.00000000
_symmetry_Int_Tables_number   1
_chemical_formula_structural   RbV2SeO7
_chemical_formula_sum   'Rb4 V8 Se4 O28'
_cell_volume   748.95041121
_cell_formula_units_Z   4
loop_
 _symmetry_equiv_pos_site_id
 _symmetry_equiv_pos_as_xyz
  1  'x, y, z'
loop_
 _atom_site_type_symbol
 _atom_site_label
 _atom_site_symmetry_multiplicity
 _atom_site_fract_x
 _atom_site_fract_y
 _atom_site_fract_z
 _atom_site_occupancy
  O  O0  1  0.39860871  0.49031443  0.56275226  1.0
  O  O1  1  0.39860871  0.00968557  0.56275226  1.0
  O  O2  1  0.89860871  0.49031443  0.93724774  1.0
  O  O3  1  0.89860871  0.00968557  0.93724774  1.0
  O  O4  1  0.60139129  0.99031443  0.43724774  1.0
  O  O5  1  0.60139129  0.50968557  0.43724774  1.0
  O  O6  1  0.10139129  0.99031443  0.06275226  1.0
  O  O7  1  0.10139129  0.50968557  0.06275226  1.0
  O  O8  1  0.33046265  0.50469734  0.91749380  1.0
  O  O9  1  0.33046265  0.99530266  0.91749380  1.0
  O  O10  1  0.83046265  0.50469734  0.58250620  1.0
  O  O11  1  0.83046265  0.99530266  0.58250620  1.0
  O  O12  1  0.66953735  0.00469734  0.08250620  1.0
  O  O13  1  0.66953735  0.49530266  0.08250620  1.0
  O  O14  1  0.16953735  0.00469734  0.41749380  1.0
  O  O15  1  0.16953735  0.49530266  0.41749380  1.0
  O  O16  1  0.45250392  0.75000000  0.85078038  1.0
  O  O17  1  0.95250392  0.75000000  0.64921962  1.0
  O  O18  1  0.54749608  0.25000000  0.14921962  1.0
  O  O19  1  0.04749608  0.25000000  0.35078038  1.0
  O  O20  1  0.27349013  0.75000000  0.60147769  1.0
  O  O21  1  0.77349013  0.75000000  0.89852231  1.0
  O  O22  1  0.72650987  0.25000000  0.39852231  1.0
  O  O23  1  0.22650987  0.25000000  0.10147769  1.0
  O  O24  1  0.13609290  0.75000000  0.76074013  1.0
  O  O25  1  0.63609290  0.75000000  0.73925987  1.0
  O  O26  1  0.86390710  0.25000000  0.23925987  1.0
  O  O27  1  0.36390710  0.25000000  0.26074013  1.0
  Rb  Rb28  1  0.47235128  0.75000000  0.25337242  1.0
  Rb  Rb29  1  0.97235128  0.75000000  0.24662758  1.0
  Rb  Rb30  1  0.52764872  0.25000000  0.74662758  1.0
  Rb  Rb31  1  0.02764872  0.25000000  0.75337242  1.0
  V  V32  1  0.19000561  0.75000000  0.54441138  1.0
  V  V33  1  0.69000561  0.75000000  0.95558862  1.0
  V  V34  1  0.80999439  0.25000000  0.45558862  1.0
  V  V35  1  0.30999439  0.25000000  0.04441138  1.0
  V  V36  1  0.37463165  0.75000000  0.76271450  1.0
  V  V37  1  0.87463165  0.75000000  0.73728550  1.0
  V  V38  1  0.62536835  0.25000000  0.23728550  1.0
  V  V39  1  0.12536835  0.25000000  0.26271450  1.0
  Se  Se40  1  0.15439620  0.75000000  0.00729681  1.0
  Se  Se41  1  0.65439620  0.75000000  0.49270319  1.0
  Se  Se42  1  0.84560380  0.25000000  0.99270319  1.0
  Se  Se43  1  0.34560380  0.25000000  0.50729681  1.0
