# generated using pymatgen
data_Ti6H2O13
_symmetry_space_group_name_H-M   'P 1'
_cell_length_a   7.63650827
_cell_length_b   7.63650827
_cell_length_c   9.37599635
_cell_angle_alpha   82.94256061
_cell_angle_beta   97.05743939
_cell_angle_gamma   151.52637045
_symmetry_Int_Tables_number   1
_chemical_formula_structural   Ti6H2O13
_chemical_formula_sum   'Ti6 H2 O13'
_cell_volume   258.57367601
_cell_formula_units_Z   1
loop_
 _symmetry_equiv_pos_site_id
 _symmetry_equiv_pos_as_xyz
  1  'x, y, z'
loop_
 _atom_site_type_symbol
 _atom_site_label
 _atom_site_symmetry_multiplicity
 _atom_site_fract_x
 _atom_site_fract_y
 _atom_site_fract_z
 _atom_site_occupancy
  Ti  Ti0  1  0.88536915  0.11463085  0.90849854  1.0
  Ti  Ti1  1  0.11463085  -0.11463085  0.09150146  1.0
  Ti  Ti2  1  0.83465394  0.16534606  0.55169045  1.0
  Ti  Ti3  1  0.16534606  -0.16534606  0.44830955  1.0
  Ti  Ti4  1  0.77160960  0.22839040  0.22877478  1.0
  Ti  Ti5  1  0.22839040  -0.22839040  0.77122522  1.0
  H  H6  1  1.00149367  -0.00149367  0.68285311  1.0
  H  H7  1  -0.00149367  0.00149367  0.31714689  1.0
  O  O8  1  0.93667329  0.06332671  0.69712414  1.0
  O  O9  1  0.06332671  -0.06332671  0.30287586  1.0
  O  O10  1  0.87563540  0.12436460  0.38146779  1.0
  O  O11  1  0.12436460  -0.12436460  0.61853221  1.0
  O  O12  1  0.76273827  0.23726173  0.75018761  1.0
  O  O13  1  0.23726173  -0.23726173  0.24981239  1.0
  O  O14  1  0.70262663  0.29737337  0.43505862  1.0
  O  O15  1  0.29737337  -0.29737337  0.56494138  1.0
  O  O16  1  0.35720570  -0.35720570  0.87497523  1.0
  O  O17  1  0.64279430  0.35720570  0.12502477  1.0
  O  O18  1  0.16966739  -0.16966739  0.92283113  1.0
  O  O19  1  0.83033261  0.16966739  0.07716887  1.0
  O  O20  1  0.00000000  0.00000000  0.00000000  1.0
