# generated using pymatgen
data_NbSn2
_symmetry_space_group_name_H-M   'P 1'
_cell_length_a   10.85727826
_cell_length_b   10.07532968
_cell_length_c   5.72147225
_cell_angle_alpha   81.83859607
_cell_angle_beta   66.71948186
_cell_angle_gamma   31.44192207
_symmetry_Int_Tables_number   1
_chemical_formula_structural   NbSn2
_chemical_formula_sum   'Nb4 Sn8'
_cell_volume   273.87264236
_cell_formula_units_Z   4
loop_
 _symmetry_equiv_pos_site_id
 _symmetry_equiv_pos_as_xyz
  1  'x, y, z'
loop_
 _atom_site_type_symbol
 _atom_site_label
 _atom_site_symmetry_multiplicity
 _atom_site_fract_x
 _atom_site_fract_y
 _atom_site_fract_z
 _atom_site_occupancy
  Nb  Nb0  1  0.37709365  1.37709365  0.12290635  1.0
  Nb  Nb1  1  0.12290635  0.12290635  0.37709365  1.0
  Nb  Nb2  1  -0.12709365  0.87290635  0.12709365  1.0
  Nb  Nb3  1  0.12709365  0.12709365  -0.12709365  1.0
  Sn  Sn4  1  0.08121893  0.41878107  0.08121893  1.0
  Sn  Sn5  1  0.41878107  0.08121893  1.41878107  1.0
  Sn  Sn6  1  0.16878107  -0.16878107  0.16878107  1.0
  Sn  Sn7  1  -0.16878107  0.16878107  0.83121893  1.0
  Sn  Sn8  1  -0.16721328  0.83278672  0.66721328  1.0
  Sn  Sn9  1  -0.33278672  0.66721328  0.83278672  1.0
  Sn  Sn10  1  0.41721328  1.41721328  -0.41721328  1.0
  Sn  Sn11  1  -0.41721328  0.58278672  0.41721328  1.0
