# generated using pymatgen
data_Cs2Sn(GeO3)3
_symmetry_space_group_name_H-M   'P 1'
_cell_length_a   7.40832433
_cell_length_b   7.40832433
_cell_length_c   10.63416862
_cell_angle_alpha   90.00000000
_cell_angle_beta   90.00000000
_cell_angle_gamma   120.00000000
_symmetry_Int_Tables_number   1
_chemical_formula_structural   Cs2Sn(GeO3)3
_chemical_formula_sum   'Cs4 Sn2 Ge6 O18'
_cell_volume   505.44528376
_cell_formula_units_Z   2
loop_
 _symmetry_equiv_pos_site_id
 _symmetry_equiv_pos_as_xyz
  1  'x, y, z'
loop_
 _atom_site_type_symbol
 _atom_site_label
 _atom_site_symmetry_multiplicity
 _atom_site_fract_x
 _atom_site_fract_y
 _atom_site_fract_z
 _atom_site_occupancy
  Cs  Cs0  1  0.33333333  0.66666667  0.43975137  1.0
  Cs  Cs1  1  0.33333333  0.66666667  0.06024863  1.0
  Cs  Cs2  1  0.66666667  0.33333333  0.93975137  1.0
  Cs  Cs3  1  0.66666667  0.33333333  0.56024863  1.0
  Sn  Sn4  1  0.00000000  0.00000000  0.50000000  1.0
  Sn  Sn5  1  0.00000000  0.00000000  0.00000000  1.0
  Ge  Ge6  1  0.76727234  0.62540341  0.25000000  1.0
  Ge  Ge7  1  0.62540341  0.85813106  0.75000000  1.0
  Ge  Ge8  1  0.85813106  0.23272766  0.25000000  1.0
  Ge  Ge9  1  0.37459659  0.14186894  0.25000000  1.0
  Ge  Ge10  1  0.23272766  0.37459659  0.75000000  1.0
  Ge  Ge11  1  0.14186894  0.76727234  0.75000000  1.0
  O  O12  1  0.78293324  0.75128297  0.39182358  1.0
  O  O13  1  0.78293324  0.75128297  0.10817642  1.0
  O  O14  1  0.75128297  0.96834973  0.89182358  1.0
  O  O15  1  0.75128297  0.96834973  0.60817642  1.0
  O  O16  1  0.96834973  0.21706676  0.39182358  1.0
  O  O17  1  0.96834973  0.21706676  0.10817642  1.0
  O  O18  1  0.24871703  0.03165027  0.39182358  1.0
  O  O19  1  0.24871703  0.03165027  0.10817642  1.0
  O  O20  1  0.21706676  0.24871703  0.89182358  1.0
  O  O21  1  0.21706676  0.24871703  0.60817642  1.0
  O  O22  1  0.03165027  0.78293324  0.89182358  1.0
  O  O23  1  0.03165027  0.78293324  0.60817642  1.0
  O  O24  1  0.49464077  0.42055749  0.25000000  1.0
  O  O25  1  0.42055749  0.92591671  0.75000000  1.0
  O  O26  1  0.92591671  0.50535923  0.25000000  1.0
  O  O27  1  0.57944251  0.07408329  0.25000000  1.0
  O  O28  1  0.50535923  0.57944251  0.75000000  1.0
  O  O29  1  0.07408329  0.49464077  0.75000000  1.0
