# generated using pymatgen
data_As4(Pb3S5)3
_symmetry_space_group_name_H-M   'P 1'
_cell_length_a   10.79456323
_cell_length_b   10.79456323
_cell_length_c   10.79456323
_cell_angle_alpha   114.34423096
_cell_angle_beta   114.34423096
_cell_angle_gamma   114.34423096
_symmetry_Int_Tables_number   1
_chemical_formula_structural   As4(Pb3S5)3
_chemical_formula_sum   'As4 Pb9 S15'
_cell_volume   744.27785211
_cell_formula_units_Z   1
loop_
 _symmetry_equiv_pos_site_id
 _symmetry_equiv_pos_as_xyz
  1  'x, y, z'
loop_
 _atom_site_type_symbol
 _atom_site_label
 _atom_site_symmetry_multiplicity
 _atom_site_fract_x
 _atom_site_fract_y
 _atom_site_fract_z
 _atom_site_occupancy
  As  As0  1  0.34833667  0.34833667  -0.21555314  1.0
  As  As1  1  0.34833667  0.78444686  -0.65166333  1.0
  As  As2  1  0.78444686  0.34833667  0.34833667  1.0
  As  As3  1  -0.00532473  -0.00532473  -0.00532473  1.0
  Pb  Pb4  1  0.92151707  1.18668849  -0.28149353  1.0
  Pb  Pb5  1  1.18668849  0.92151707  0.71850647  1.0
  Pb  Pb6  1  0.92151707  0.71850647  0.18668849  1.0
  Pb  Pb7  1  0.71850647  -0.07848293  0.18668849  1.0
  Pb  Pb8  1  0.71850647  0.18668849  -0.07848293  1.0
  Pb  Pb9  1  1.18668849  0.71850647  0.92151707  1.0
  Pb  Pb10  1  0.54322394  0.54322394  0.27833471  1.0
  Pb  Pb11  1  0.54322394  1.27833471  -0.45677606  1.0
  Pb  Pb12  1  1.27833471  0.54322394  0.54322394  1.0
  S  S13  1  0.52920786  0.98287333  -0.66227876  1.0
  S  S14  1  0.98287333  0.52920786  0.33772124  1.0
  S  S15  1  0.52920786  0.33772124  -0.01712667  1.0
  S  S16  1  1.33772124  1.52920786  -0.01712667  1.0
  S  S17  1  1.33772124  0.98287333  0.52920786  1.0
  S  S18  1  0.98287333  0.33772124  0.52920786  1.0
  S  S19  1  0.57271774  0.57271774  -0.17012536  1.0
  S  S20  1  0.57271774  0.82987464  -0.42728226  1.0
  S  S21  1  0.82987464  0.57271774  0.57271774  1.0
  S  S22  1  1.07037990  1.07037990  0.26325729  1.0
  S  S23  1  1.07037990  1.26325729  0.07037990  1.0
  S  S24  1  0.26325729  0.07037990  0.07037990  1.0
  S  S25  1  0.86910459  0.86910459  0.42335663  1.0
  S  S26  1  0.86910459  1.42335663  -0.13089541  1.0
  S  S27  1  0.42335663  -0.13089541  -0.13089541  1.0
