# generated using pymatgen
data_Sr(ScTe2)2
_symmetry_space_group_name_H-M   'P 1'
_cell_length_a   13.29060158
_cell_length_b   4.25787008
_cell_length_c   15.47186610
_cell_angle_alpha   90.00000000
_cell_angle_beta   90.00000000
_cell_angle_gamma   90.00000000
_symmetry_Int_Tables_number   1
_chemical_formula_structural   Sr(ScTe2)2
_chemical_formula_sum   'Sr4 Sc8 Te16'
_cell_volume   875.54756185
_cell_formula_units_Z   4
loop_
 _symmetry_equiv_pos_site_id
 _symmetry_equiv_pos_as_xyz
  1  'x, y, z'
loop_
 _atom_site_type_symbol
 _atom_site_label
 _atom_site_symmetry_multiplicity
 _atom_site_fract_x
 _atom_site_fract_y
 _atom_site_fract_z
 _atom_site_occupancy
  Sr  Sr0  1  0.76196536  0.75000000  0.67375188  1.0
  Sr  Sr1  1  0.26196536  0.75000000  0.82624812  1.0
  Sr  Sr2  1  0.23803464  0.25000000  0.32624812  1.0
  Sr  Sr3  1  0.73803464  0.25000000  0.17375188  1.0
  Sc  Sc4  1  0.91597082  0.75000000  0.40622573  1.0
  Sc  Sc5  1  0.41597082  0.75000000  0.09377427  1.0
  Sc  Sc6  1  0.08402918  0.25000000  0.59377427  1.0
  Sc  Sc7  1  0.58402918  0.25000000  0.90622573  1.0
  Sc  Sc8  1  0.44646889  0.75000000  0.61175708  1.0
  Sc  Sc9  1  0.94646889  0.75000000  0.88824292  1.0
  Sc  Sc10  1  0.55353111  0.25000000  0.38824292  1.0
  Sc  Sc11  1  0.05353111  0.25000000  0.11175708  1.0
  Te  Te12  1  0.90716867  0.75000000  0.07349090  1.0
  Te  Te13  1  0.40716867  0.75000000  0.42650910  1.0
  Te  Te14  1  0.09283133  0.25000000  0.92650910  1.0
  Te  Te15  1  0.59283133  0.25000000  0.57349090  1.0
  Te  Te16  1  0.70200124  0.75000000  0.34266531  1.0
  Te  Te17  1  0.20200124  0.75000000  0.15733469  1.0
  Te  Te18  1  0.29799876  0.25000000  0.65733469  1.0
  Te  Te19  1  0.79799876  0.25000000  0.84266531  1.0
  Te  Te20  1  0.62449086  0.75000000  0.03238192  1.0
  Te  Te21  1  0.12449086  0.75000000  0.46761808  1.0
  Te  Te22  1  0.37550914  0.25000000  0.96761808  1.0
  Te  Te23  1  0.87550914  0.25000000  0.53238192  1.0
  Te  Te24  1  0.53208856  0.75000000  0.78592534  1.0
  Te  Te25  1  0.03208856  0.75000000  0.71407466  1.0
  Te  Te26  1  0.46791144  0.25000000  0.21407466  1.0
  Te  Te27  1  0.96791144  0.25000000  0.28592534  1.0
