# generated using pymatgen
data_MgSi2O5
_symmetry_space_group_name_H-M   'P 1'
_cell_length_a   5.36907494
_cell_length_b   7.00296062
_cell_length_c   7.68504923
_cell_angle_alpha   90.00000000
_cell_angle_beta   89.99968786
_cell_angle_gamma   90.00000000
_symmetry_Int_Tables_number   1
_chemical_formula_structural   MgSi2O5
_chemical_formula_sum   'Mg4 Si8 O20'
_cell_volume   288.95339656
_cell_formula_units_Z   4
loop_
 _symmetry_equiv_pos_site_id
 _symmetry_equiv_pos_as_xyz
  1  'x, y, z'
loop_
 _atom_site_type_symbol
 _atom_site_label
 _atom_site_symmetry_multiplicity
 _atom_site_fract_x
 _atom_site_fract_y
 _atom_site_fract_z
 _atom_site_occupancy
  Mg  Mg0  1  0.99999856  0.15394404  0.65643747  1.0
  Mg  Mg1  1  0.00000144  0.65394404  0.84356253  1.0
  Mg  Mg2  1  0.00000144  0.84605596  0.34356253  1.0
  Mg  Mg3  1  0.99999856  0.34605596  0.15643747  1.0
  Si  Si4  1  0.49999893  1.11418806  0.35314220  1.0
  Si  Si5  1  0.50000107  0.61418806  0.14685780  1.0
  Si  Si6  1  0.50000107  -0.11418806  0.64685780  1.0
  Si  Si7  1  0.49999893  0.38581194  0.85314220  1.0
  Si  Si8  1  0.24515577  0.50000118  0.50000030  1.0
  Si  Si9  1  0.75484423  1.00000118  -0.00000030  1.0
  Si  Si10  1  0.75484423  0.49999882  0.49999970  1.0
  Si  Si11  1  0.24515577  -0.00000118  1.00000030  1.0
  O  O12  1  0.26171625  0.11817360  0.20271016  1.0
  O  O13  1  0.73828375  0.61817360  0.29728984  1.0
  O  O14  1  0.73828375  0.88182640  0.79728984  1.0
  O  O15  1  0.26171625  0.38182640  0.70271016  1.0
  O  O16  1  0.73827809  0.38181705  0.70270538  1.0
  O  O17  1  0.26172191  0.88181705  0.79729462  1.0
  O  O18  1  0.26172191  0.61818295  0.29729462  1.0
  O  O19  1  0.73827809  0.11818295  0.20270538  1.0
  O  O20  1  0.28770960  0.00000321  0.50000512  1.0
  O  O21  1  0.71229040  0.50000321  -0.00000512  1.0
  O  O22  1  0.71229040  0.99999679  0.49999488  1.0
  O  O23  1  0.28770960  0.49999679  0.00000512  1.0
  O  O24  1  -0.00000187  0.65252983  0.56736541  1.0
  O  O25  1  1.00000187  0.15252983  0.93263459  1.0
  O  O26  1  1.00000187  0.34747017  0.43263459  1.0
  O  O27  1  -0.00000187  0.84747017  0.06736541  1.0
  O  O28  1  0.49999800  0.34615278  0.42116910  1.0
  O  O29  1  0.50000200  0.84615278  0.07883090  1.0
  O  O30  1  0.50000200  0.65384722  0.57883090  1.0
  O  O31  1  0.49999800  0.15384722  0.92116910  1.0
