# generated using pymatgen
data_V2Pb2O7
_symmetry_space_group_name_H-M   'P 1'
_cell_length_a   7.22950164
_cell_length_b   7.34464252
_cell_length_c   13.73281215
_cell_angle_alpha   90.00000000
_cell_angle_beta   107.64039871
_cell_angle_gamma   90.00000000
_symmetry_Int_Tables_number   1
_chemical_formula_structural   V2Pb2O7
_chemical_formula_sum   'V8 Pb8 O28'
_cell_volume   694.89794538
_cell_formula_units_Z   4
loop_
 _symmetry_equiv_pos_site_id
 _symmetry_equiv_pos_as_xyz
  1  'x, y, z'
loop_
 _atom_site_type_symbol
 _atom_site_label
 _atom_site_symmetry_multiplicity
 _atom_site_fract_x
 _atom_site_fract_y
 _atom_site_fract_z
 _atom_site_occupancy
  V  V0  1  0.88265112  0.32436030  0.08433838  1.0
  V  V1  1  0.88265112  0.17563970  0.58433838  1.0
  V  V2  1  0.11734888  0.82436030  0.41566162  1.0
  V  V3  1  0.11734888  0.67563970  0.91566162  1.0
  V  V4  1  0.70459988  0.43276385  0.38890341  1.0
  V  V5  1  0.70459988  0.06723615  0.88890341  1.0
  V  V6  1  0.29540012  0.93276385  0.11109659  1.0
  V  V7  1  0.29540012  0.56723615  0.61109659  1.0
  Pb  Pb8  1  0.82823980  0.83187444  0.15614634  1.0
  Pb  Pb9  1  0.82823980  0.66812556  0.65614634  1.0
  Pb  Pb10  1  0.17176020  0.33187444  0.34385366  1.0
  Pb  Pb11  1  0.17176020  0.16812556  0.84385366  1.0
  Pb  Pb12  1  0.44902644  0.39671906  0.13073831  1.0
  Pb  Pb13  1  0.44902644  0.10328094  0.63073831  1.0
  Pb  Pb14  1  0.55097356  0.89671906  0.36926169  1.0
  Pb  Pb15  1  0.55097356  0.60328094  0.86926169  1.0
  O  O16  1  0.89346729  0.28900306  0.46975198  1.0
  O  O17  1  0.89346729  0.21099694  0.96975198  1.0
  O  O18  1  0.10653271  0.78900306  0.03024802  1.0
  O  O19  1  0.10653271  0.71099694  0.53024802  1.0
  O  O20  1  0.89590625  0.90264114  0.34427732  1.0
  O  O21  1  0.89590625  0.59735886  0.84427732  1.0
  O  O22  1  0.10409375  0.40264114  0.15572268  1.0
  O  O23  1  0.10409375  0.09735886  0.65572268  1.0
  O  O24  1  0.79008189  0.17680294  0.15159528  1.0
  O  O25  1  0.79008189  0.32319706  0.65159528  1.0
  O  O26  1  0.20991811  0.67680294  0.34840472  1.0
  O  O27  1  0.20991811  0.82319706  0.84840472  1.0
  O  O28  1  0.78098841  0.50581211  0.29288754  1.0
  O  O29  1  0.78098841  0.99418789  0.79288754  1.0
  O  O30  1  0.21901159  0.00581211  0.20711246  1.0
  O  O31  1  0.21901159  0.49418789  0.70711246  1.0
  O  O32  1  0.65863334  0.88581645  0.95625539  1.0
  O  O33  1  0.65863334  0.61418355  0.45625539  1.0
  O  O34  1  0.34136666  0.38581645  0.54374461  1.0
  O  O35  1  0.34136666  0.11418355  0.04374461  1.0
  O  O36  1  0.49493356  0.30971470  0.33432608  1.0
  O  O37  1  0.49493356  0.19028530  0.83432608  1.0
  O  O38  1  0.50506644  0.80971470  0.16567392  1.0
  O  O39  1  0.50506644  0.69028530  0.66567392  1.0
  O  O40  1  0.28034273  1.00241005  0.44964967  1.0
  O  O41  1  0.28034273  0.49758995  0.94964967  1.0
  O  O42  1  0.71965727  0.50241005  0.05035033  1.0
  O  O43  1  0.71965727  -0.00241005  0.55035033  1.0
