# generated using pymatgen
data_TiSi
_symmetry_space_group_name_H-M   'P 1'
_cell_length_a   6.53340897
_cell_length_b   3.64704634
_cell_length_c   5.00705099
_cell_angle_alpha   90.00000000
_cell_angle_beta   90.00000000
_cell_angle_gamma   90.00000000
_symmetry_Int_Tables_number   1
_chemical_formula_structural   TiSi
_chemical_formula_sum   'Ti4 Si4'
_cell_volume   119.30623476
_cell_formula_units_Z   4
loop_
 _symmetry_equiv_pos_site_id
 _symmetry_equiv_pos_as_xyz
  1  'x, y, z'
loop_
 _atom_site_type_symbol
 _atom_site_label
 _atom_site_symmetry_multiplicity
 _atom_site_fract_x
 _atom_site_fract_y
 _atom_site_fract_z
 _atom_site_occupancy
  Ti  Ti0  1  0.32383271  0.75000000  0.12876437  1.0
  Ti  Ti1  1  0.82383271  0.75000000  0.37123563  1.0
  Ti  Ti2  1  0.67616729  0.25000000  0.87123563  1.0
  Ti  Ti3  1  0.17616729  0.25000000  0.62876437  1.0
  Si  Si4  1  0.45578893  0.75000000  0.64596405  1.0
  Si  Si5  1  0.95578893  0.75000000  0.85403595  1.0
  Si  Si6  1  0.54421107  0.25000000  0.35403595  1.0
  Si  Si7  1  0.04421107  0.25000000  0.14596405  1.0
