# generated using pymatgen
data_Mg2SiO4
_symmetry_space_group_name_H-M   'P 1'
_cell_length_a   10.02958890
_cell_length_b   5.78128797
_cell_length_c   5.10132474
_cell_angle_alpha   107.67201484
_cell_angle_beta   99.25325880
_cell_angle_gamma   92.04967459
_symmetry_Int_Tables_number   1
_chemical_formula_structural   Mg2SiO4
_chemical_formula_sum   'Mg8 Si4 O16'
_cell_volume   277.04151123
_cell_formula_units_Z   4
loop_
 _symmetry_equiv_pos_site_id
 _symmetry_equiv_pos_as_xyz
  1  'x, y, z'
loop_
 _atom_site_type_symbol
 _atom_site_label
 _atom_site_symmetry_multiplicity
 _atom_site_fract_x
 _atom_site_fract_y
 _atom_site_fract_z
 _atom_site_occupancy
  Mg  Mg0  1  -0.40567858  -0.16678930  -0.51992724  1.0
  Mg  Mg1  1  -0.59432142  -0.83321070  -0.48007276  1.0
  Mg  Mg2  1  -0.85692136  -0.11571692  -0.49846907  1.0
  Mg  Mg3  1  0.00000000  0.00000000  0.00000000  1.0
  Mg  Mg4  1  -0.72144958  -0.69815790  -0.95366194  1.0
  Mg  Mg5  1  -0.14307864  -0.88428308  -0.50153093  1.0
  Mg  Mg6  1  -0.27855042  -0.30184210  -0.04633806  1.0
  Mg  Mg7  1  -0.00000000  -0.50000000  -0.00000000  1.0
  Si  Si8  1  -0.12892385  -0.39539976  -0.50828529  1.0
  Si  Si9  1  -0.87107615  -0.60460024  -0.49171471  1.0
  Si  Si10  1  -0.39452108  -0.75279503  -0.88180628  1.0
  Si  Si11  1  -0.60547892  -0.24720497  -0.11819372  1.0
  O  O12  1  -0.68494961  -0.03791345  -0.23049831  1.0
  O  O13  1  -0.82104826  -0.87683466  -0.70475587  1.0
  O  O14  1  -0.29168545  -0.47601310  -0.74776627  1.0
  O  O15  1  -0.46726223  -0.31326924  -0.24294348  1.0
  O  O16  1  -0.31505039  -0.96208655  -0.76950169  1.0
  O  O17  1  -0.17895174  -0.12316534  -0.29524413  1.0
  O  O18  1  -0.70831455  -0.52398690  -0.25223373  1.0
  O  O19  1  -0.82762078  -0.45116355  -0.71264072  1.0
  O  O20  1  -0.04980526  -0.67131701  -0.71009760  1.0
  O  O21  1  -0.53273777  -0.68673076  -0.75705652  1.0
  O  O22  1  -0.95019474  -0.32868299  -0.28990240  1.0
  O  O23  1  -0.07011203  -0.21292396  -0.73390531  1.0
  O  O24  1  -0.42009178  -0.82773511  -0.22163547  1.0
  O  O25  1  -0.92988797  -0.78707604  -0.26609469  1.0
  O  O26  1  -0.17237922  -0.54883645  -0.28735928  1.0
  O  O27  1  -0.57990822  -0.17226489  -0.77836453  1.0
