# generated using pymatgen
data_Rb7NbAs4
_symmetry_space_group_name_H-M   'P 1'
_cell_length_a   10.76039095
_cell_length_b   9.63174762
_cell_length_c   8.77680082
_cell_angle_alpha   90.00000000
_cell_angle_beta   90.00000000
_cell_angle_gamma   90.00000000
_symmetry_Int_Tables_number   1
_chemical_formula_structural   Rb7NbAs4
_chemical_formula_sum   'Rb14 Nb2 As8'
_cell_volume   909.63966042
_cell_formula_units_Z   2
loop_
 _symmetry_equiv_pos_site_id
 _symmetry_equiv_pos_as_xyz
  1  'x, y, z'
loop_
 _atom_site_type_symbol
 _atom_site_label
 _atom_site_symmetry_multiplicity
 _atom_site_fract_x
 _atom_site_fract_y
 _atom_site_fract_z
 _atom_site_occupancy
  Rb  Rb0  1  0.21418156  0.16672152  0.45405363  1.0
  Rb  Rb1  1  0.71418156  0.83327848  0.95405363  1.0
  Rb  Rb2  1  0.78581844  0.16672152  0.45405363  1.0
  Rb  Rb3  1  0.28581844  0.83327848  0.95405363  1.0
  Rb  Rb4  1  0.21173070  0.53145637  0.28975456  1.0
  Rb  Rb5  1  0.71173070  0.46854363  0.78975456  1.0
  Rb  Rb6  1  0.78826930  0.53145637  0.28975456  1.0
  Rb  Rb7  1  0.28826930  0.46854363  0.78975456  1.0
  Rb  Rb8  1  0.50000000  0.11321860  0.77076904  1.0
  Rb  Rb9  1  0.00000000  0.88678140  0.27076904  1.0
  Rb  Rb10  1  0.50000000  0.66086893  0.49790609  1.0
  Rb  Rb11  1  0.00000000  0.33913107  -0.00209391  1.0
  Rb  Rb12  1  0.50000000  0.97125638  0.28640138  1.0
  Rb  Rb13  1  0.00000000  0.02874362  0.78640138  1.0
  Nb  Nb14  1  0.50000000  0.32694562  0.16472850  1.0
  Nb  Nb15  1  0.00000000  0.67305438  0.66472850  1.0
  As  As16  1  0.30456766  0.19947809  0.07230404  1.0
  As  As17  1  0.80456766  0.80052191  0.57230404  1.0
  As  As18  1  0.69543234  0.19947809  0.07230404  1.0
  As  As19  1  0.19543234  0.80052191  0.57230404  1.0
  As  As20  1  0.50000000  0.31675032  0.45148114  1.0
  As  As21  1  0.00000000  0.68324968  0.95148114  1.0
  As  As22  1  0.50000000  0.58041270  0.08718938  1.0
  As  As23  1  0.00000000  0.41958730  0.58718938  1.0
