# generated using pymatgen
data_Cs2H4Pd
_symmetry_space_group_name_H-M   'P 1'
_cell_length_a   6.24755955
_cell_length_b   6.24755955
_cell_length_c   9.04777780
_cell_angle_alpha   90.00000000
_cell_angle_beta   90.00000000
_cell_angle_gamma   90.00000000
_symmetry_Int_Tables_number   1
_chemical_formula_structural   Cs2H4Pd
_chemical_formula_sum   'Cs4 H8 Pd2'
_cell_volume   353.15286651
_cell_formula_units_Z   2
loop_
 _symmetry_equiv_pos_site_id
 _symmetry_equiv_pos_as_xyz
  1  'x, y, z'
loop_
 _atom_site_type_symbol
 _atom_site_label
 _atom_site_symmetry_multiplicity
 _atom_site_fract_x
 _atom_site_fract_y
 _atom_site_fract_z
 _atom_site_occupancy
  Cs  Cs0  1  0.50000000  0.00000000  0.25000000  1.0
  Cs  Cs1  1  0.50000000  0.00000000  0.75000000  1.0
  Cs  Cs2  1  0.00000000  0.50000000  0.75000000  1.0
  Cs  Cs3  1  0.00000000  0.50000000  0.25000000  1.0
  H  H4  1  0.31197306  0.68802694  0.50000000  1.0
  H  H5  1  0.81197306  0.81197306  0.00000000  1.0
  H  H6  1  0.68802694  0.31197306  0.50000000  1.0
  H  H7  1  0.18802694  0.18802694  0.00000000  1.0
  H  H8  1  0.50000000  0.50000000  0.31653903  1.0
  H  H9  1  0.50000000  0.50000000  0.68346097  1.0
  H  H10  1  0.00000000  0.00000000  0.81653903  1.0
  H  H11  1  0.00000000  0.00000000  0.18346097  1.0
  Pd  Pd12  1  0.50000000  0.50000000  0.50000000  1.0
  Pd  Pd13  1  0.00000000  0.00000000  0.00000000  1.0
