# generated using pymatgen
data_Rb2Be2Si2O7
_symmetry_space_group_name_H-M   'P 1'
_cell_length_a   5.20220538
_cell_length_b   8.47281658
_cell_length_c   9.01959393
_cell_angle_alpha   90.00000000
_cell_angle_beta   90.00000000
_cell_angle_gamma   90.00000000
_symmetry_Int_Tables_number   1
_chemical_formula_structural   Rb2Be2Si2O7
_chemical_formula_sum   'Rb4 Be4 Si4 O14'
_cell_volume   397.55963662
_cell_formula_units_Z   2
loop_
 _symmetry_equiv_pos_site_id
 _symmetry_equiv_pos_as_xyz
  1  'x, y, z'
loop_
 _atom_site_type_symbol
 _atom_site_label
 _atom_site_symmetry_multiplicity
 _atom_site_fract_x
 _atom_site_fract_y
 _atom_site_fract_z
 _atom_site_occupancy
  Rb  Rb0  1  0.50000000  0.00000000  0.81393461  1.0
  Rb  Rb1  1  0.00000000  0.50000000  0.31393461  1.0
  Rb  Rb2  1  0.50000000  0.50000000  0.87776240  1.0
  Rb  Rb3  1  0.00000000  0.00000000  0.37776240  1.0
  Be  Be4  1  -0.00259202  0.73867617  0.68685710  1.0
  Be  Be5  1  0.49740798  0.76132383  0.18685710  1.0
  Be  Be6  1  0.00259202  0.26132383  0.68685710  1.0
  Be  Be7  1  0.50259202  0.23867617  0.18685710  1.0
  Si  Si8  1  0.49774622  0.69522773  0.51599241  1.0
  Si  Si9  1  0.99774622  0.80477227  0.01599241  1.0
  Si  Si10  1  0.50225378  0.30477227  0.51599241  1.0
  Si  Si11  1  0.00225378  0.19522773  0.01599241  1.0
  O  O12  1  0.28118039  0.74471451  0.63805100  1.0
  O  O13  1  0.78118039  0.75528549  0.13805100  1.0
  O  O14  1  0.71881961  0.25528549  0.63805100  1.0
  O  O15  1  0.21881961  0.24471451  0.13805100  1.0
  O  O16  1  0.28264525  0.74935820  0.06983792  1.0
  O  O17  1  0.78264525  0.75064180  0.56983792  1.0
  O  O18  1  0.71735475  0.25064180  0.06983792  1.0
  O  O19  1  0.21735475  0.24935820  0.56983792  1.0
  O  O20  1  0.92844147  0.73369854  0.85295834  1.0
  O  O21  1  0.42844147  0.76630146  0.35295834  1.0
  O  O22  1  0.07155853  0.26630146  0.85295834  1.0
  O  O23  1  0.57155853  0.23369854  0.35295834  1.0
  O  O24  1  0.50000000  0.50000000  0.49890947  1.0
  O  O25  1  0.00000000  0.00000000  -0.00109053  1.0
