# generated using pymatgen
data_HfS3
_symmetry_space_group_name_H-M   'P 1'
_cell_length_a   5.14776191
_cell_length_b   3.61388917
_cell_length_c   9.62241880
_cell_angle_alpha   90.00000000
_cell_angle_beta   96.62805031
_cell_angle_gamma   90.00000000
_symmetry_Int_Tables_number   1
_chemical_formula_structural   HfS3
_chemical_formula_sum   'Hf2 S6'
_cell_volume   177.81366452
_cell_formula_units_Z   2
loop_
 _symmetry_equiv_pos_site_id
 _symmetry_equiv_pos_as_xyz
  1  'x, y, z'
loop_
 _atom_site_type_symbol
 _atom_site_label
 _atom_site_symmetry_multiplicity
 _atom_site_fract_x
 _atom_site_fract_y
 _atom_site_fract_z
 _atom_site_occupancy
  Hf  Hf0  1  0.78121415  0.75000000  0.64473172  1.0
  Hf  Hf1  1  0.21878585  0.25000000  0.35526828  1.0
  S  S2  1  0.38726376  0.75000000  0.19245060  1.0
  S  S3  1  0.61273624  0.25000000  0.80754940  1.0
  S  S4  1  -0.01981837  0.75000000  0.19205653  1.0
  S  S5  1  1.01981837  0.25000000  0.80794347  1.0
  S  S6  1  0.26077516  0.75000000  0.55003421  1.0
  S  S7  1  0.73922484  0.25000000  0.44996579  1.0
