# generated using pymatgen
data_CsI
_symmetry_space_group_name_H-M   'P 1'
_cell_length_a   7.84715017
_cell_length_b   7.84607985
_cell_length_c   7.85277080
_cell_angle_alpha   90.00000000
_cell_angle_beta   90.00000000
_cell_angle_gamma   90.00000000
_symmetry_Int_Tables_number   1
_chemical_formula_structural   CsI
_chemical_formula_sum   'Cs4 I4'
_cell_volume   483.49012611
_cell_formula_units_Z   4
loop_
 _symmetry_equiv_pos_site_id
 _symmetry_equiv_pos_as_xyz
  1  'x, y, z'
loop_
 _atom_site_type_symbol
 _atom_site_label
 _atom_site_symmetry_multiplicity
 _atom_site_fract_x
 _atom_site_fract_y
 _atom_site_fract_z
 _atom_site_occupancy
  Cs  Cs0  1  0.75061042  0.25000000  0.50147372  1.0
  Cs  Cs1  1  0.25061042  0.25000000  0.99852628  1.0
  Cs  Cs2  1  0.24938958  0.75000000  0.49852628  1.0
  Cs  Cs3  1  0.74938958  0.75000000  0.00147372  1.0
  I  I4  1  0.75063184  0.25000000  0.00150653  1.0
  I  I5  1  0.25063184  0.25000000  0.49849347  1.0
  I  I6  1  0.24936816  0.75000000  0.99849347  1.0
  I  I7  1  0.74936816  0.75000000  0.50150653  1.0
