# generated using pymatgen
data_SrTa2Bi2O9
_symmetry_space_group_name_H-M   'P 1'
_cell_length_a   13.08228415
_cell_length_b   13.08228415
_cell_length_c   5.61399608
_cell_angle_alpha   90.00000000
_cell_angle_beta   90.00000000
_cell_angle_gamma   24.70048577
_symmetry_Int_Tables_number   1
_chemical_formula_structural   SrTa2Bi2O9
_chemical_formula_sum   'Sr2 Ta4 Bi4 O18'
_cell_volume   401.49987818
_cell_formula_units_Z   2
loop_
 _symmetry_equiv_pos_site_id
 _symmetry_equiv_pos_as_xyz
  1  'x, y, z'
loop_
 _atom_site_type_symbol
 _atom_site_label
 _atom_site_symmetry_multiplicity
 _atom_site_fract_x
 _atom_site_fract_y
 _atom_site_fract_z
 _atom_site_occupancy
  Sr  Sr0  1  -0.25135656  0.25135656  0.49355751  1.0
  Sr  Sr1  1  -0.74864344  0.74864344  0.99355751  1.0
  Ta  Ta2  1  0.66977123  1.16560468  0.99792131  1.0
  Ta  Ta3  1  0.16560468  1.66977123  0.49792131  1.0
  Ta  Ta4  1  -0.16560468  1.33022877  0.99792131  1.0
  Ta  Ta5  1  0.33022877  0.83439532  0.49792131  1.0
  Bi  Bi6  1  0.41700813  0.98345487  0.89688171  1.0
  Bi  Bi7  1  -0.01654513  1.41700813  0.39688171  1.0
  Bi  Bi8  1  0.01654513  1.58299187  0.89688171  1.0
  Bi  Bi9  1  0.58299187  1.01654513  0.39688171  1.0
  O  O10  1  0.92449009  0.94292027  0.74960493  1.0
  O  O11  1  -0.05707973  1.92449009  0.24960493  1.0
  O  O12  1  0.05707973  1.07550991  0.74960493  1.0
  O  O13  1  0.07550991  1.05707973  0.24960493  1.0
  O  O14  1  0.66644764  1.02363318  1.01594425  1.0
  O  O15  1  0.02363318  1.66644764  0.51594425  1.0
  O  O16  1  -0.02363318  1.33355236  1.01594425  1.0
  O  O17  1  0.33355236  0.97636682  0.51594425  1.0
  O  O18  1  0.73151325  0.76758223  0.68642908  1.0
  O  O19  1  -0.23241777  1.73151325  0.18642908  1.0
  O  O20  1  0.23241777  1.26848675  0.68642908  1.0
  O  O21  1  0.26848675  1.23241777  0.18642908  1.0
  O  O22  1  0.57059051  0.59616073  0.76900600  1.0
  O  O23  1  -0.40383927  1.57059051  0.26900600  1.0
  O  O24  1  0.40383927  1.42940949  0.76900600  1.0
  O  O25  1  0.42940949  1.40383927  0.26900600  1.0
  O  O26  1  -0.29623155  0.29623155  0.01266792  1.0
  O  O27  1  -0.70376845  0.70376845  0.51266792  1.0
