# generated using pymatgen
data_AgP(NO)2
_symmetry_space_group_name_H-M   'P 1'
_cell_length_a   5.40112605
_cell_length_b   5.40112605
_cell_length_c   10.94434516
_cell_angle_alpha   90.00000000
_cell_angle_beta   90.00000000
_cell_angle_gamma   120.00000000
_symmetry_Int_Tables_number   1
_chemical_formula_structural   AgP(NO)2
_chemical_formula_sum   'Ag3 P3 N6 O6'
_cell_volume   276.49611828
_cell_formula_units_Z   3
loop_
 _symmetry_equiv_pos_site_id
 _symmetry_equiv_pos_as_xyz
  1  'x, y, z'
loop_
 _atom_site_type_symbol
 _atom_site_label
 _atom_site_symmetry_multiplicity
 _atom_site_fract_x
 _atom_site_fract_y
 _atom_site_fract_z
 _atom_site_occupancy
  Ag  Ag0  1  0.68907212  0.68907212  0.00000000  1.0
  Ag  Ag1  1  -0.00000000  0.31092788  0.66666667  1.0
  Ag  Ag2  1  0.31092788  -0.00000000  0.33333333  1.0
  P  P3  1  0.69204576  0.69204576  0.50000000  1.0
  P  P4  1  0.00000000  0.30795424  0.16666667  1.0
  P  P5  1  0.30795424  0.00000000  0.83333333  1.0
  N  N6  1  0.95925488  0.58271423  0.10946534  1.0
  N  N7  1  0.58271423  0.95925488  0.89053466  1.0
  N  N8  1  0.62345935  0.04074512  0.77613201  1.0
  N  N9  1  0.41728577  0.37654065  0.44279868  1.0
  N  N10  1  0.04074512  0.62345935  0.22386799  1.0
  N  N11  1  0.37654065  0.41728577  0.55720132  1.0
  O  O12  1  0.04012109  0.72502437  0.80318234  1.0
  O  O13  1  0.72502437  0.04012109  0.19681766  1.0
  O  O14  1  0.68490328  0.95987891  0.46984901  1.0
  O  O15  1  0.27497563  0.31509672  0.13651568  1.0
  O  O16  1  0.95987891  0.68490328  0.53015099  1.0
  O  O17  1  0.31509672  0.27497563  0.86348432  1.0
