# generated using pymatgen
data_V4Ni2N
_symmetry_space_group_name_H-M   'P 1'
_cell_length_a   7.66744087
_cell_length_b   7.66744087
_cell_length_c   7.66744087
_cell_angle_alpha   60.00000000
_cell_angle_beta   60.00000000
_cell_angle_gamma   60.00000000
_symmetry_Int_Tables_number   1
_chemical_formula_structural   V4Ni2N
_chemical_formula_sum   'V16 Ni8 N4'
_cell_volume   318.73980902
_cell_formula_units_Z   4
loop_
 _symmetry_equiv_pos_site_id
 _symmetry_equiv_pos_as_xyz
  1  'x, y, z'
loop_
 _atom_site_type_symbol
 _atom_site_label
 _atom_site_symmetry_multiplicity
 _atom_site_fract_x
 _atom_site_fract_y
 _atom_site_fract_z
 _atom_site_occupancy
  V  V0  1  1.12500000  0.62500000  0.62500000  1.0
  V  V1  1  0.62500000  1.12500000  -0.37500000  1.0
  V  V2  1  -0.37500000  0.62500000  1.12500000  1.0
  V  V3  1  -0.37500000  0.62500000  0.62500000  1.0
  V  V4  1  0.81968842  0.81968842  -0.81968842  1.0
  V  V5  1  0.18031158  1.18031158  -0.18031158  1.0
  V  V6  1  0.81968842  -0.81968842  0.81968842  1.0
  V  V7  1  0.18031158  -0.18031158  0.18031158  1.0
  V  V8  1  -0.81968842  0.81968842  0.81968842  1.0
  V  V9  1  -0.18031158  0.18031158  0.18031158  1.0
  V  V10  1  0.43031158  1.43031158  0.06968842  1.0
  V  V11  1  0.06968842  0.06968842  0.43031158  1.0
  V  V12  1  0.43031158  1.06968842  0.43031158  1.0
  V  V13  1  0.06968842  1.43031158  0.06968842  1.0
  V  V14  1  0.06968842  1.43031158  0.43031158  1.0
  V  V15  1  0.43031158  1.06968842  0.06968842  1.0
  Ni  Ni16  1  -0.25450334  0.41816778  0.41816778  1.0
  Ni  Ni17  1  0.41816778  -0.25450334  0.41816778  1.0
  Ni  Ni18  1  0.41816778  1.41816778  -0.25450334  1.0
  Ni  Ni19  1  0.41816778  1.41816778  0.41816778  1.0
  Ni  Ni20  1  0.50450334  0.83183222  -0.16816778  1.0
  Ni  Ni21  1  0.83183222  0.50450334  0.83183222  1.0
  Ni  Ni22  1  0.83183222  0.83183222  -0.49549666  1.0
  Ni  Ni23  1  0.83183222  0.83183222  0.83183222  1.0
  N  N24  1  0.62500000  1.12500000  0.12500000  1.0
  N  N25  1  0.12500000  1.62500000  0.12500000  1.0
  N  N26  1  0.12500000  0.12500000  1.62500000  1.0
  N  N27  1  0.12500000  0.12500000  0.12500000  1.0
