# generated using pymatgen
data_Cs2FeO4
_symmetry_space_group_name_H-M   'P 1'
_cell_length_a   8.56631003
_cell_length_b   6.37448614
_cell_length_c   11.35784394
_cell_angle_alpha   90.00000000
_cell_angle_beta   90.00000000
_cell_angle_gamma   90.00000000
_symmetry_Int_Tables_number   1
_chemical_formula_structural   Cs2FeO4
_chemical_formula_sum   'Cs8 Fe4 O16'
_cell_volume   620.20443375
_cell_formula_units_Z   4
loop_
 _symmetry_equiv_pos_site_id
 _symmetry_equiv_pos_as_xyz
  1  'x, y, z'
loop_
 _atom_site_type_symbol
 _atom_site_label
 _atom_site_symmetry_multiplicity
 _atom_site_fract_x
 _atom_site_fract_y
 _atom_site_fract_z
 _atom_site_occupancy
  Cs  Cs0  1  0.83362503  0.75000000  0.41283439  1.0
  Cs  Cs1  1  0.33362503  0.75000000  0.08716561  1.0
  Cs  Cs2  1  0.16637497  0.25000000  0.58716561  1.0
  Cs  Cs3  1  0.66637497  0.25000000  0.91283439  1.0
  Cs  Cs4  1  0.51028497  0.75000000  0.69357009  1.0
  Cs  Cs5  1  0.01028497  0.75000000  0.80642991  1.0
  Cs  Cs6  1  0.48971503  0.25000000  0.30642991  1.0
  Cs  Cs7  1  0.98971503  0.25000000  0.19357009  1.0
  Fe  Fe8  1  0.76561065  0.75000000  0.08121795  1.0
  Fe  Fe9  1  0.26561065  0.75000000  0.41878205  1.0
  Fe  Fe10  1  0.23438935  0.25000000  0.91878205  1.0
  Fe  Fe11  1  0.73438935  0.25000000  0.58121795  1.0
  O  O12  1  0.69690462  0.96378054  0.14768209  1.0
  O  O13  1  0.69690462  0.53621946  0.14768209  1.0
  O  O14  1  0.19690462  0.96378054  0.35231791  1.0
  O  O15  1  0.19690462  0.53621946  0.35231791  1.0
  O  O16  1  0.30309538  0.46378054  0.85231791  1.0
  O  O17  1  0.30309538  0.03621946  0.85231791  1.0
  O  O18  1  0.80309538  0.46378054  0.64768209  1.0
  O  O19  1  0.80309538  0.03621946  0.64768209  1.0
  O  O20  1  0.95905674  0.75000000  0.08565537  1.0
  O  O21  1  0.45905674  0.75000000  0.41434463  1.0
  O  O22  1  0.04094326  0.25000000  0.91434463  1.0
  O  O23  1  0.54094326  0.25000000  0.58565537  1.0
  O  O24  1  0.20412351  0.75000000  0.55836414  1.0
  O  O25  1  0.70412351  0.75000000  0.94163586  1.0
  O  O26  1  0.79587649  0.25000000  0.44163586  1.0
  O  O27  1  0.29587649  0.25000000  0.05836414  1.0
