# generated using pymatgen
data_Cs3H(SeO4)2
_symmetry_space_group_name_H-M   'P 1'
_cell_length_a   8.91119437
_cell_length_b   8.91119437
_cell_length_c   11.10183700
_cell_angle_alpha   77.28282629
_cell_angle_beta   102.71717371
_cell_angle_gamma   136.64198942
_symmetry_Int_Tables_number   1
_chemical_formula_structural   Cs3H(SeO4)2
_chemical_formula_sum   'Cs6 H2 Se4 O16'
_cell_volume   588.03141464
_cell_formula_units_Z   2
loop_
 _symmetry_equiv_pos_site_id
 _symmetry_equiv_pos_as_xyz
  1  'x, y, z'
loop_
 _atom_site_type_symbol
 _atom_site_label
 _atom_site_symmetry_multiplicity
 _atom_site_fract_x
 _atom_site_fract_y
 _atom_site_fract_z
 _atom_site_occupancy
  Cs  Cs0  1  0.39954206  0.02459197  0.65276708  1.0
  Cs  Cs1  1  0.97540803  0.60045794  0.15276708  1.0
  Cs  Cs2  1  1.02459197  0.39954206  0.84723292  1.0
  Cs  Cs3  1  0.60045794  -0.02459197  0.34723292  1.0
  Cs  Cs4  1  0.75502988  0.75502988  0.75000000  1.0
  Cs  Cs5  1  0.24497012  0.24497012  0.25000000  1.0
  H  H6  1  0.50000000  0.50000000  -0.00000000  1.0
  H  H7  1  0.50000000  0.50000000  0.50000000  1.0
  Se  Se8  1  0.40603318  0.17654857  0.96736966  1.0
  Se  Se9  1  0.82345143  0.59396682  0.46736966  1.0
  Se  Se10  1  1.17654857  0.40603318  0.53263034  1.0
  Se  Se11  1  0.59396682  -0.17654857  0.03263034  1.0
  O  O12  1  0.57484028  -0.11758839  0.88062943  1.0
  O  O13  1  1.11758839  0.42515972  0.38062943  1.0
  O  O14  1  0.88241161  0.57484028  0.61937057  1.0
  O  O15  1  0.42515972  0.11758839  0.11937057  1.0
  O  O16  1  0.64211303  0.33271464  0.90742805  1.0
  O  O17  1  0.66728536  0.35788697  0.40742805  1.0
  O  O18  1  1.33271464  0.64211303  0.59257195  1.0
  O  O19  1  0.35788697  -0.33271464  0.09257195  1.0
  O  O20  1  0.19727895  -0.04564548  0.89365254  1.0
  O  O21  1  1.04564548  0.80272105  0.39365254  1.0
  O  O22  1  0.95435452  0.19727895  0.60634746  1.0
  O  O23  1  0.80272105  0.04564548  0.10634746  1.0
  O  O24  1  0.35124041  0.33200402  0.94790423  1.0
  O  O25  1  0.66799598  0.64875959  0.44790423  1.0
  O  O26  1  1.33200402  0.35124041  0.55209577  1.0
  O  O27  1  0.64875959  -0.33200402  0.05209577  1.0
