# generated using pymatgen
data_RbV(CuS2)2
_symmetry_space_group_name_H-M   'P 1'
_cell_length_a   9.70981877
_cell_length_b   9.70981877
_cell_length_c   7.52211636
_cell_angle_alpha   90.00000000
_cell_angle_beta   90.00000000
_cell_angle_gamma   32.48076680
_symmetry_Int_Tables_number   1
_chemical_formula_structural   RbV(CuS2)2
_chemical_formula_sum   'Rb2 V2 Cu4 S8'
_cell_volume   380.84643785
_cell_formula_units_Z   2
loop_
 _symmetry_equiv_pos_site_id
 _symmetry_equiv_pos_as_xyz
  1  'x, y, z'
loop_
 _atom_site_type_symbol
 _atom_site_label
 _atom_site_symmetry_multiplicity
 _atom_site_fract_x
 _atom_site_fract_y
 _atom_site_fract_z
 _atom_site_occupancy
  Rb  Rb0  1  0.55045495  1.08368077  0.25000000  1.0
  Rb  Rb1  1  -0.08368077  1.44954505  0.75000000  1.0
  V  V2  1  0.08340987  1.12714563  0.25000000  1.0
  V  V3  1  0.87285437  0.91659013  0.75000000  1.0
  Cu  Cu4  1  0.58104247  0.62558971  0.25000000  1.0
  Cu  Cu5  1  0.37441029  1.41895753  0.75000000  1.0
  Cu  Cu6  1  -0.00738664  0.00738664  0.50000000  1.0
  Cu  Cu7  1  -0.00738664  0.00738664  0.00000000  1.0
  S  S8  1  0.10645567  1.68310238  0.51161505  1.0
  S  S9  1  0.31689762  0.89354433  0.01161505  1.0
  S  S10  1  0.31689762  0.89354433  0.48838495  1.0
  S  S11  1  0.10645567  1.68310238  0.98838495  1.0
  S  S12  1  -0.24777604  1.26112776  0.25000000  1.0
  S  S13  1  0.73887224  1.24777604  0.75000000  1.0
  S  S14  1  -0.05811274  1.45640793  0.25000000  1.0
  S  S15  1  0.54359207  1.05811274  0.75000000  1.0
