# generated using pymatgen
data_Li7P3S11
_symmetry_space_group_name_H-M   'P 1'
_cell_length_a   12.37423904
_cell_length_b   6.33032099
_cell_length_c   12.74287228
_cell_angle_alpha   73.80238172
_cell_angle_beta   66.24740571
_cell_angle_gamma   77.76318393
_symmetry_Int_Tables_number   1
_chemical_formula_structural   Li7P3S11
_chemical_formula_sum   'Li14 P6 S22'
_cell_volume   871.71621583
_cell_formula_units_Z   2
loop_
 _symmetry_equiv_pos_site_id
 _symmetry_equiv_pos_as_xyz
  1  'x, y, z'
loop_
 _atom_site_type_symbol
 _atom_site_label
 _atom_site_symmetry_multiplicity
 _atom_site_fract_x
 _atom_site_fract_y
 _atom_site_fract_z
 _atom_site_occupancy
  Li  Li0  1  -0.38857921  0.23313513  0.61517843  1.0
  Li  Li1  1  -0.61142079  -0.23313513  0.38482157  1.0
  Li  Li2  1  -0.29440066  0.30123487  0.79720589  1.0
  Li  Li3  1  -0.70559934  -0.30123487  0.20279411  1.0
  Li  Li4  1  -0.66866081  0.14876624  0.59615255  1.0
  Li  Li5  1  -0.33133919  -0.14876624  0.40384745  1.0
  Li  Li6  1  -0.96869038  0.04542050  0.75094584  1.0
  Li  Li7  1  -0.03130962  -0.04542050  0.24905416  1.0
  Li  Li8  1  -0.86403771  0.20616442  0.38306177  1.0
  Li  Li9  1  -0.13596229  -0.20616442  0.61693823  1.0
  Li  Li10  1  -0.67306635  -0.70056294  1.00116359  1.0
  Li  Li11  1  -0.32693365  0.70056294  -0.00116359  1.0
  Li  Li12  1  -0.82214955  -0.49378772  0.79767807  1.0
  Li  Li13  1  -0.17785045  0.49378772  0.20232193  1.0
  P  P14  1  -0.77685634  -0.13124723  0.94985897  1.0
  P  P15  1  -0.22314366  0.13124723  0.05014103  1.0
  P  P16  1  -0.47145164  -0.29521087  0.77233795  1.0
  P  P17  1  -0.52854836  0.29521087  0.22766205  1.0
  P  P18  1  -0.83531497  -0.41527637  0.55833800  1.0
  P  P19  1  -0.16468503  0.41527637  0.44166200  1.0
  S  S20  1  -0.81238232  0.09433774  0.81614362  1.0
  S  S21  1  -0.18761768  -0.09433774  0.18385638  1.0
  S  S22  1  -0.17946591  0.00991253  0.90211118  1.0
  S  S23  1  -0.82053409  -0.00991253  0.09788882  1.0
  S  S24  1  -0.31965934  0.43894534  0.41203815  1.0
  S  S25  1  -0.68034066  -0.43894534  0.58796185  1.0
  S  S26  1  -0.17875121  0.20184090  0.60092228  1.0
  S  S27  1  -0.82124879  -0.20184090  0.39907772  1.0
  S  S28  1  -0.58920939  -0.16617780  0.92308772  1.0
  S  S29  1  -0.41079061  0.16617780  0.07691228  1.0
  S  S30  1  -0.85917330  0.27213637  0.55710241  1.0
  S  S31  1  -0.14082670  -0.27213637  0.44289759  1.0
  S  S32  1  -0.47703964  -0.08419111  0.62106079  1.0
  S  S33  1  -0.52296036  0.08419111  0.37893921  1.0
  S  S34  1  -0.31588495  -0.30657875  0.79752175  1.0
  S  S35  1  -0.68411505  0.30657875  0.20247825  1.0
  S  S36  1  -0.83786208  -0.42268329  0.98261586  1.0
  S  S37  1  -0.16213792  0.42268329  0.01738414  1.0
  S  S38  1  -0.97364750  -0.31239902  0.69873262  1.0
  S  S39  1  -0.02635250  0.31239902  0.30126738  1.0
  S  S40  1  -0.50806938  -0.60965677  0.79554262  1.0
  S  S41  1  -0.49193062  0.60965677  0.20445738  1.0
