# generated using pymatgen
data_AlTl2OF5
_symmetry_space_group_name_H-M   'P 1'
_cell_length_a   6.62843140
_cell_length_b   6.62843140
_cell_length_c   7.36379161
_cell_angle_alpha   90.00000000
_cell_angle_beta   90.00000000
_cell_angle_gamma   87.05566927
_symmetry_Int_Tables_number   1
_chemical_formula_structural   AlTl2OF5
_chemical_formula_sum   'Al2 Tl4 O2 F10'
_cell_volume   323.10920907
_cell_formula_units_Z   2
loop_
 _symmetry_equiv_pos_site_id
 _symmetry_equiv_pos_as_xyz
  1  'x, y, z'
loop_
 _atom_site_type_symbol
 _atom_site_label
 _atom_site_symmetry_multiplicity
 _atom_site_fract_x
 _atom_site_fract_y
 _atom_site_fract_z
 _atom_site_occupancy
  Al  Al0  1  -0.00000000  -0.00000000  0.50000000  1.0
  Al  Al1  1  -0.00000000  -0.00000000  0.00000000  1.0
  Tl  Tl2  1  0.16964552  0.46977257  0.25000000  1.0
  Tl  Tl3  1  -0.53022743  1.16964552  0.75000000  1.0
  Tl  Tl4  1  0.53022743  0.83035448  0.25000000  1.0
  Tl  Tl5  1  -0.16964552  1.53022743  0.75000000  1.0
  O  O6  1  -0.49909754  1.49909754  0.25000000  1.0
  O  O7  1  0.49909754  0.50090246  0.75000000  1.0
  F  F8  1  0.19418629  0.80581371  0.04716014  1.0
  F  F9  1  0.19418629  0.80581371  0.45283986  1.0
  F  F10  1  -0.19418629  1.19418629  0.54716014  1.0
  F  F11  1  -0.19418629  1.19418629  0.95283986  1.0
  F  F12  1  0.80840194  0.80840194  0.50000000  1.0
  F  F13  1  0.80840194  0.80840194  0.00000000  1.0
  F  F14  1  0.19159806  0.19159806  0.50000000  1.0
  F  F15  1  0.19159806  0.19159806  0.00000000  1.0
  F  F16  1  -0.04229237  1.04229237  0.25000000  1.0
  F  F17  1  0.04229237  0.95770763  0.75000000  1.0
