# generated using pymatgen
data_Rb3Sc(HO)6
_symmetry_space_group_name_H-M   'P 1'
_cell_length_a   7.73063194
_cell_length_b   7.73063194
_cell_length_c   7.73063194
_cell_angle_alpha   96.89553480
_cell_angle_beta   96.89553480
_cell_angle_gamma   96.89553480
_symmetry_Int_Tables_number   1
_chemical_formula_structural   Rb3Sc(HO)6
_chemical_formula_sum   'Rb6 Sc2 H12 O12'
_cell_volume   451.08551591
_cell_formula_units_Z   2
loop_
 _symmetry_equiv_pos_site_id
 _symmetry_equiv_pos_as_xyz
  1  'x, y, z'
loop_
 _atom_site_type_symbol
 _atom_site_label
 _atom_site_symmetry_multiplicity
 _atom_site_fract_x
 _atom_site_fract_y
 _atom_site_fract_z
 _atom_site_occupancy
  Rb  Rb0  1  0.86972299  1.25000000  -0.36972299  1.0
  Rb  Rb1  1  1.36972299  0.13027701  -0.25000000  1.0
  Rb  Rb2  1  0.75000000  0.36972299  0.13027701  1.0
  Rb  Rb3  1  1.25000000  0.63027701  -0.13027701  1.0
  Rb  Rb4  1  1.13027701  -0.25000000  0.36972299  1.0
  Rb  Rb5  1  0.63027701  0.86972299  0.25000000  1.0
  Sc  Sc6  1  0.50000000  0.50000000  0.50000000  1.0
  Sc  Sc7  1  -0.00000000  -0.00000000  -0.00000000  1.0
  H  H8  1  1.16548092  0.37348559  -0.57615192  1.0
  H  H9  1  1.66548092  0.92384808  -0.12651441  1.0
  H  H10  1  1.07615192  0.12651441  -0.66548092  1.0
  H  H11  1  1.57615192  -0.16548092  0.62651441  1.0
  H  H12  1  1.62651441  0.57615192  -0.16548092  1.0
  H  H13  1  1.12651441  -0.66548092  0.07615192  1.0
  H  H14  1  0.83451908  0.62651441  0.57615192  1.0
  H  H15  1  0.33451908  0.07615192  0.12651441  1.0
  H  H16  1  0.42384808  1.16548092  -0.62651441  1.0
  H  H17  1  0.92384808  0.87348559  0.66548092  1.0
  H  H18  1  0.87348559  1.66548092  -0.07615192  1.0
  H  H19  1  0.37348559  0.42384808  0.16548092  1.0
  O  O20  1  1.23571171  0.40447770  -0.46129685  1.0
  O  O21  1  0.73571171  1.03870315  -0.09552230  1.0
  O  O22  1  0.96129685  0.09552230  0.26428829  1.0
  O  O23  1  1.46129685  -0.23571171  0.59552230  1.0
  O  O24  1  1.59552230  0.46129685  -0.23571171  1.0
  O  O25  1  1.09552230  0.26428829  -0.03870315  1.0
  O  O26  1  0.76428829  0.59552230  0.46129685  1.0
  O  O27  1  1.26428829  -0.03870315  0.09552230  1.0
  O  O28  1  0.53870315  1.23571171  -0.59552230  1.0
  O  O29  1  1.03870315  0.90447770  -0.26428829  1.0
  O  O30  1  0.90447770  0.73571171  0.03870315  1.0
  O  O31  1  0.40447770  0.53870315  0.23571171  1.0
