# generated using pymatgen
data_NiAs2
_symmetry_space_group_name_H-M   'P 1'
_cell_length_a   5.82352324
_cell_length_b   5.89693472
_cell_length_c   11.54983677
_cell_angle_alpha   90.00000000
_cell_angle_beta   90.00000000
_cell_angle_gamma   90.00000000
_symmetry_Int_Tables_number   1
_chemical_formula_structural   NiAs2
_chemical_formula_sum   'Ni8 As16'
_cell_volume   396.63220958
_cell_formula_units_Z   8
loop_
 _symmetry_equiv_pos_site_id
 _symmetry_equiv_pos_as_xyz
  1  'x, y, z'
loop_
 _atom_site_type_symbol
 _atom_site_label
 _atom_site_symmetry_multiplicity
 _atom_site_fract_x
 _atom_site_fract_y
 _atom_site_fract_z
 _atom_site_occupancy
  Ni  Ni0  1  0.49598777  0.82535489  0.62856583  1.0
  Ni  Ni1  1  0.49598777  0.67464511  0.12856583  1.0
  Ni  Ni2  1  0.99598777  0.82535489  0.87143417  1.0
  Ni  Ni3  1  0.99598777  0.67464511  0.37143417  1.0
  Ni  Ni4  1  0.50401223  0.32535489  0.87143417  1.0
  Ni  Ni5  1  0.50401223  0.17464511  0.37143417  1.0
  Ni  Ni6  1  0.00401223  0.32535489  0.62856583  1.0
  Ni  Ni7  1  0.00401223  0.17464511  0.12856583  1.0
  As  As8  1  0.36411547  0.69029344  0.93130301  1.0
  As  As9  1  0.36411547  0.80970656  0.43130301  1.0
  As  As10  1  0.86411547  0.69029344  0.56869699  1.0
  As  As11  1  0.86411547  0.80970656  0.06869699  1.0
  As  As12  1  0.63588453  0.19029344  0.56869699  1.0
  As  As13  1  0.63588453  0.30970656  0.06869699  1.0
  As  As14  1  0.13588453  0.19029344  0.93130301  1.0
  As  As15  1  0.13588453  0.30970656  0.43130301  1.0
  As  As16  1  0.12067324  0.94671166  0.68140220  1.0
  As  As17  1  0.12067324  0.55328834  0.18140220  1.0
  As  As18  1  0.62067324  0.94671166  0.81859780  1.0
  As  As19  1  0.62067324  0.55328834  0.31859780  1.0
  As  As20  1  0.87932676  0.44671166  0.81859780  1.0
  As  As21  1  0.87932676  0.05328834  0.31859780  1.0
  As  As22  1  0.37932676  0.44671166  0.68140220  1.0
  As  As23  1  0.37932676  0.05328834  0.18140220  1.0
