# generated using pymatgen
data_Tl2C3O4
_symmetry_space_group_name_H-M   'P 1'
_cell_length_a   7.60398654
_cell_length_b   7.60398654
_cell_length_c   7.54445156
_cell_angle_alpha   73.42085331
_cell_angle_beta   106.57914669
_cell_angle_gamma   125.59878489
_symmetry_Int_Tables_number   1
_chemical_formula_structural   Tl2C3O4
_chemical_formula_sum   'Tl4 C6 O8'
_cell_volume   335.95091611
_cell_formula_units_Z   2
loop_
 _symmetry_equiv_pos_site_id
 _symmetry_equiv_pos_as_xyz
  1  'x, y, z'
loop_
 _atom_site_type_symbol
 _atom_site_label
 _atom_site_symmetry_multiplicity
 _atom_site_fract_x
 _atom_site_fract_y
 _atom_site_fract_z
 _atom_site_occupancy
  Tl  Tl0  1  1.43338806  0.24156665  0.79198917  1.0
  Tl  Tl1  1  1.24156665  -0.56661194  0.20801083  1.0
  Tl  Tl2  1  1.12791176  -0.38995707  0.65972042  1.0
  Tl  Tl3  1  1.61004293  0.12791176  0.34027958  1.0
  C  C4  1  1.72604103  0.04869837  0.90222379  1.0
  C  C5  1  1.04869837  -0.27395897  0.09777621  1.0
  C  C6  1  1.82788652  -0.07677558  0.96971827  1.0
  C  C7  1  0.92322442  -0.17211348  0.03028173  1.0
  C  C8  1  0.74074446  0.74074446  0.50000000  1.0
  C  C9  1  0.96717688  0.96717688  0.50000000  1.0
  O  O10  1  1.58187624  0.00359101  0.75676006  1.0
  O  O11  1  1.00359101  -0.41812376  0.24323994  1.0
  O  O12  1  0.79216528  -0.80211537  0.99509976  1.0
  O  O13  1  1.19788463  -0.20783472  0.00490024  1.0
  O  O14  1  0.74464787  -0.42969262  0.56901222  1.0
  O  O15  1  1.57030738  -0.25535213  0.43098778  1.0
  O  O16  1  1.14005820  -0.03315169  0.53279355  1.0
  O  O17  1  0.96684831  -0.85994180  0.46720645  1.0
