# generated using pymatgen
data_Zn(InS2)2
_symmetry_space_group_name_H-M   'P 1'
_cell_length_a   3.92323117
_cell_length_b   3.92323117
_cell_length_c   25.24286790
_cell_angle_alpha   90.00000000
_cell_angle_beta   90.00000000
_cell_angle_gamma   120.00000000
_symmetry_Int_Tables_number   1
_chemical_formula_structural   Zn(InS2)2
_chemical_formula_sum   'Zn2 In4 S8'
_cell_volume   336.47834887
_cell_formula_units_Z   2
loop_
 _symmetry_equiv_pos_site_id
 _symmetry_equiv_pos_as_xyz
  1  'x, y, z'
loop_
 _atom_site_type_symbol
 _atom_site_label
 _atom_site_symmetry_multiplicity
 _atom_site_fract_x
 _atom_site_fract_y
 _atom_site_fract_z
 _atom_site_occupancy
  Zn  Zn0  1  0.00000000  0.00000000  -0.00563167  1.0
  Zn  Zn1  1  0.00000000  0.00000000  0.49436833  1.0
  In  In2  1  0.33333333  0.66666667  0.30889332  1.0
  In  In3  1  0.66666667  0.33333333  0.80889332  1.0
  In  In4  1  0.33333333  0.66666667  0.65001677  1.0
  In  In5  1  0.66666667  0.33333333  0.15001677  1.0
  S  S6  1  0.33333333  0.66666667  0.21149916  1.0
  S  S7  1  0.66666667  0.33333333  0.71149916  1.0
  S  S8  1  0.33333333  0.66666667  0.47492785  1.0
  S  S9  1  0.66666667  0.33333333  0.97492785  1.0
  S  S10  1  0.00000000  0.00000000  0.10036835  1.0
  S  S11  1  0.00000000  0.00000000  0.60036835  1.0
  S  S12  1  0.00000000  0.00000000  0.35192622  1.0
  S  S13  1  0.00000000  0.00000000  0.85192622  1.0
