# generated using pymatgen
data_Y4Mn4Sn7
_symmetry_space_group_name_H-M   'P 1'
_cell_length_a   11.05600350
_cell_length_b   11.05600350
_cell_length_c   11.05600350
_cell_angle_alpha   94.04213302
_cell_angle_beta   94.04213302
_cell_angle_gamma   149.20672074
_symmetry_Int_Tables_number   1
_chemical_formula_structural   Y4Mn4Sn7
_chemical_formula_sum   'Y8 Mn8 Sn14'
_cell_volume   667.02541395
_cell_formula_units_Z   2
loop_
 _symmetry_equiv_pos_site_id
 _symmetry_equiv_pos_as_xyz
  1  'x, y, z'
loop_
 _atom_site_type_symbol
 _atom_site_label
 _atom_site_symmetry_multiplicity
 _atom_site_fract_x
 _atom_site_fract_y
 _atom_site_fract_z
 _atom_site_occupancy
  Y  Y0  1  0.63956952  0.63956952  0.27913903  1.0
  Y  Y1  1  1.36043048  0.63956952  1.00000000  1.0
  Y  Y2  1  0.63956952  0.36043048  1.00000000  1.0
  Y  Y3  1  0.36043048  0.36043048  0.72086097  1.0
  Y  Y4  1  0.00000000  0.80593191  0.80593191  1.0
  Y  Y5  1  0.80593191  1.00000000  0.80593191  1.0
  Y  Y6  1  1.19406809  1.00000000  1.19406809  1.0
  Y  Y7  1  0.00000000  0.19406809  0.19406809  1.0
  Mn  Mn8  1  1.10081120  0.60081120  1.20162240  1.0
  Mn  Mn9  1  1.60081120  1.10081120  1.20162240  1.0
  Mn  Mn10  1  0.39918880  0.60081120  0.50000000  1.0
  Mn  Mn11  1  0.89918880  1.10081120  0.50000000  1.0
  Mn  Mn12  1  1.10081120  0.89918880  1.50000000  1.0
  Mn  Mn13  1  1.60081120  1.39918880  1.50000000  1.0
  Mn  Mn14  1  0.39918880  0.89918880  0.79837760  1.0
  Mn  Mn15  1  0.89918880  1.39918880  0.79837760  1.0
  Sn  Sn16  1  0.74944023  0.74944023  0.00000000  1.0
  Sn  Sn17  1  0.25055977  0.25055977  0.00000000  1.0
  Sn  Sn18  1  0.79521209  0.79521209  0.59042418  1.0
  Sn  Sn19  1  1.20478791  0.79521209  1.00000000  1.0
  Sn  Sn20  1  0.79521209  0.20478791  1.00000000  1.0
  Sn  Sn21  1  0.20478791  0.20478791  0.40957582  1.0
  Sn  Sn22  1  0.00000000  0.59666185  0.59666185  1.0
  Sn  Sn23  1  0.59666185  1.00000000  0.59666185  1.0
  Sn  Sn24  1  1.40333815  1.00000000  1.40333815  1.0
  Sn  Sn25  1  0.00000000  0.40333815  0.40333815  1.0
  Sn  Sn26  1  0.50000000  0.78831161  0.28831161  1.0
  Sn  Sn27  1  0.78831161  0.50000000  1.28831161  1.0
  Sn  Sn28  1  0.21168839  0.50000000  0.71168839  1.0
  Sn  Sn29  1  0.50000000  1.21168839  0.71168839  1.0
