# generated using pymatgen
data_Ag8GeSe6
_symmetry_space_group_name_H-M   'P 1'
_cell_length_a   8.03661032
_cell_length_b   7.81563470
_cell_length_c   10.99249582
_cell_angle_alpha   90.00000000
_cell_angle_beta   90.00000000
_cell_angle_gamma   90.00000000
_symmetry_Int_Tables_number   1
_chemical_formula_structural   Ag8GeSe6
_chemical_formula_sum   'Ag16 Ge2 Se12'
_cell_volume   690.45196866
_cell_formula_units_Z   2
loop_
 _symmetry_equiv_pos_site_id
 _symmetry_equiv_pos_as_xyz
  1  'x, y, z'
loop_
 _atom_site_type_symbol
 _atom_site_label
 _atom_site_symmetry_multiplicity
 _atom_site_fract_x
 _atom_site_fract_y
 _atom_site_fract_z
 _atom_site_occupancy
  Ag  Ag0  1  0.79929649  0.84571245  0.49232588  1.0
  Ag  Ag1  1  0.29929649  0.15428755  0.99232588  1.0
  Ag  Ag2  1  0.20070351  0.84571245  0.49232588  1.0
  Ag  Ag3  1  0.70070351  0.15428755  0.99232588  1.0
  Ag  Ag4  1  0.78976697  0.89563960  0.78603349  1.0
  Ag  Ag5  1  0.28976697  0.10436040  0.28603349  1.0
  Ag  Ag6  1  0.21023303  0.89563960  0.78603349  1.0
  Ag  Ag7  1  0.71023303  0.10436040  0.28603349  1.0
  Ag  Ag8  1  0.80237217  0.46593169  0.38183603  1.0
  Ag  Ag9  1  0.30237217  0.53406831  0.88183603  1.0
  Ag  Ag10  1  0.19762783  0.46593169  0.38183603  1.0
  Ag  Ag11  1  0.69762783  0.53406831  0.88183603  1.0
  Ag  Ag12  1  0.00000000  0.38344429  0.60772155  1.0
  Ag  Ag13  1  0.50000000  0.61655571  0.10772155  1.0
  Ag  Ag14  1  0.00000000  0.27606937  0.16869636  1.0
  Ag  Ag15  1  0.50000000  0.72393063  0.66869636  1.0
  Ge  Ge16  1  0.00000000  0.75076998  0.12980704  1.0
  Ge  Ge17  1  0.50000000  0.24923002  0.62980704  1.0
  Se  Se18  1  0.75129185  0.75087934  0.24985828  1.0
  Se  Se19  1  0.25129185  0.24912066  0.74985828  1.0
  Se  Se20  1  0.24870815  0.75087934  0.24985828  1.0
  Se  Se21  1  0.74870815  0.24912066  0.74985828  1.0
  Se  Se22  1  0.00000000  0.99602186  -0.00241740  1.0
  Se  Se23  1  0.50000000  0.00397814  0.49758260  1.0
  Se  Se24  1  0.00000000  0.71738575  0.65149157  1.0
  Se  Se25  1  0.50000000  0.28261425  0.15149157  1.0
  Se  Se26  1  0.00000000  0.50874622  -0.00148755  1.0
  Se  Se27  1  0.50000000  0.49125378  0.49851245  1.0
  Se  Se28  1  0.00000000  0.19062397  0.40328107  1.0
  Se  Se29  1  0.50000000  0.80937603  0.90328107  1.0
