# generated using pymatgen
data_Li8CeO6
_symmetry_space_group_name_H-M   'P 1'
_cell_length_a   6.31063680
_cell_length_b   6.31063680
_cell_length_c   6.31063680
_cell_angle_alpha   53.06023248
_cell_angle_beta   53.06023248
_cell_angle_gamma   53.06023248
_symmetry_Int_Tables_number   1
_chemical_formula_structural   Li8CeO6
_chemical_formula_sum   'Li8 Ce1 O6'
_cell_volume   148.80697273
_cell_formula_units_Z   1
loop_
 _symmetry_equiv_pos_site_id
 _symmetry_equiv_pos_as_xyz
  1  'x, y, z'
loop_
 _atom_site_type_symbol
 _atom_site_label
 _atom_site_symmetry_multiplicity
 _atom_site_fract_x
 _atom_site_fract_y
 _atom_site_fract_z
 _atom_site_occupancy
  Li  Li0  1  0.22926905  0.90019009  -0.50046099  1.0
  Li  Li1  1  0.50046099  -0.22926905  0.09980991  1.0
  Li  Li2  1  1.09980991  -0.49953901  -0.22926905  1.0
  Li  Li3  1  0.77073095  0.09980991  -0.49953901  1.0
  Li  Li4  1  0.49953901  0.22926905  -0.09980991  1.0
  Li  Li5  1  0.90019009  0.49953901  -0.77073095  1.0
  Li  Li6  1  0.35872355  0.35872355  -0.64127645  1.0
  Li  Li7  1  0.64127645  0.64127645  -0.35872355  1.0
  Ce  Ce8  1  0.00000000  0.00000000  0.00000000  1.0
  O  O9  1  0.10352346  0.75916349  -0.60518050  1.0
  O  O10  1  0.60518050  -0.10352346  0.24083651  1.0
  O  O11  1  1.24083651  -0.39481950  -0.10352346  1.0
  O  O12  1  0.89647654  0.24083651  -0.39481950  1.0
  O  O13  1  0.39481950  0.10352346  -0.24083651  1.0
  O  O14  1  0.75916349  0.39481950  -0.89647654  1.0
