# generated using pymatgen
data_KSmTiO4
_symmetry_space_group_name_H-M   'P 1'
_cell_length_a   13.27813383
_cell_length_b   5.49485020
_cell_length_c   5.42397369
_cell_angle_alpha   90.00000000
_cell_angle_beta   90.00000000
_cell_angle_gamma   90.00000000
_symmetry_Int_Tables_number   1
_chemical_formula_structural   KSmTiO4
_chemical_formula_sum   'K4 Sm4 Ti4 O16'
_cell_volume   395.74047699
_cell_formula_units_Z   4
loop_
 _symmetry_equiv_pos_site_id
 _symmetry_equiv_pos_as_xyz
  1  'x, y, z'
loop_
 _atom_site_type_symbol
 _atom_site_label
 _atom_site_symmetry_multiplicity
 _atom_site_fract_x
 _atom_site_fract_y
 _atom_site_fract_z
 _atom_site_occupancy
  Sm  Sm0  1  0.89748473  0.52299808  0.75000000  1.0
  Sm  Sm1  1  0.89748473  0.97700192  0.25000000  1.0
  Sm  Sm2  1  0.10251527  0.02299808  0.75000000  1.0
  Sm  Sm3  1  0.10251527  0.47700192  0.25000000  1.0
  O  O4  1  0.38232179  0.52319919  0.75000000  1.0
  O  O5  1  0.38232179  0.97680081  0.25000000  1.0
  O  O6  1  0.61767821  0.02319919  0.75000000  1.0
  O  O7  1  0.61767821  0.47680081  0.25000000  1.0
  O  O8  1  0.77080655  0.75000000  0.00000000  1.0
  O  O9  1  0.77080655  0.75000000  0.50000000  1.0
  O  O10  1  0.22919345  0.25000000  0.00000000  1.0
  O  O11  1  0.22919345  0.25000000  0.50000000  1.0
  O  O12  1  0.21034980  0.75000000  0.00000000  1.0
  O  O13  1  0.21034980  0.75000000  0.50000000  1.0
  O  O14  1  0.78965020  0.25000000  0.00000000  1.0
  O  O15  1  0.78965020  0.25000000  0.50000000  1.0
  O  O16  1  0.93544531  0.94180369  0.75000000  1.0
  O  O17  1  0.93544531  0.55819631  0.25000000  1.0
  O  O18  1  0.06455469  0.44180369  0.75000000  1.0
  O  O19  1  0.06455469  0.05819631  0.25000000  1.0
  K  K20  1  0.40492485  0.01463850  0.75000000  1.0
  K  K21  1  0.40492485  0.48536150  0.25000000  1.0
  K  K22  1  0.59507515  0.51463850  0.75000000  1.0
  K  K23  1  0.59507515  0.98536150  0.25000000  1.0
  Ti  Ti24  1  0.74957787  0.00636832  0.75000000  1.0
  Ti  Ti25  1  0.74957787  0.49363168  0.25000000  1.0
  Ti  Ti26  1  0.25042213  0.50636832  0.75000000  1.0
  Ti  Ti27  1  0.25042213  0.99363168  0.25000000  1.0
