# generated using pymatgen
data_P4C2Se3N2
_symmetry_space_group_name_H-M   'P 1'
_cell_length_a   14.21127376
_cell_length_b   7.27463034
_cell_length_c   12.65866376
_cell_angle_alpha   90.00000000
_cell_angle_beta   105.36471835
_cell_angle_gamma   90.00000000
_symmetry_Int_Tables_number   1
_chemical_formula_structural   P4C2Se3N2
_chemical_formula_sum   'P16 C8 Se12 N8'
_cell_volume   1261.90129504
_cell_formula_units_Z   4
loop_
 _symmetry_equiv_pos_site_id
 _symmetry_equiv_pos_as_xyz
  1  'x, y, z'
loop_
 _atom_site_type_symbol
 _atom_site_label
 _atom_site_symmetry_multiplicity
 _atom_site_fract_x
 _atom_site_fract_y
 _atom_site_fract_z
 _atom_site_occupancy
  P  P0  1  0.15024709  0.84066892  0.74093479  1.0
  P  P1  1  0.84975291  0.34066892  0.75906521  1.0
  P  P2  1  0.84975291  0.15933108  0.25906521  1.0
  P  P3  1  0.15024709  0.65933108  0.24093479  1.0
  P  P4  1  0.10864405  0.01852480  0.86422015  1.0
  P  P5  1  0.89135595  0.51852480  0.63577985  1.0
  P  P6  1  0.89135595  0.98147520  0.13577985  1.0
  P  P7  1  0.10864405  0.48147520  0.36422015  1.0
  P  P8  1  0.33199720  0.76950939  -0.02586912  1.0
  P  P9  1  0.66800280  0.26950939  0.52586912  1.0
  P  P10  1  0.66800280  0.23049061  1.02586912  1.0
  P  P11  1  0.33199720  0.73049061  0.47413088  1.0
  P  P12  1  0.39679244  0.96636344  0.87848634  1.0
  P  P13  1  0.60320756  0.46636344  0.62151366  1.0
  P  P14  1  0.60320756  0.03363656  0.12151366  1.0
  P  P15  1  0.39679244  0.53363656  0.37848634  1.0
  C  C16  1  0.02174896  0.86300756  0.89542299  1.0
  C  C17  1  0.97825104  0.36300756  0.60457701  1.0
  C  C18  1  0.97825104  0.13699244  0.10457701  1.0
  C  C19  1  0.02174896  0.63699244  0.39542299  1.0
  C  C20  1  0.46403190  0.79947091  0.82383267  1.0
  C  C21  1  0.53596810  0.29947091  0.67616733  1.0
  C  C22  1  0.53596810  0.20052909  0.17616733  1.0
  C  C23  1  0.46403190  0.70052909  0.32383267  1.0
  Se  Se24  1  0.22819073  0.60192582  0.84295820  1.0
  Se  Se25  1  0.77180927  0.10192582  0.65704180  1.0
  Se  Se26  1  0.77180927  0.39807418  0.15704180  1.0
  Se  Se27  1  0.22819073  0.89807418  0.34295820  1.0
  Se  Se28  1  0.23420545  -0.01314072  0.02185129  1.0
  Se  Se29  1  0.76579455  0.48685928  0.47814871  1.0
  Se  Se30  1  0.76579455  1.01314072  0.97814871  1.0
  Se  Se31  1  0.23420545  0.51314072  0.52185129  1.0
  Se  Se32  1  0.27345398  0.02850911  0.72236001  1.0
  Se  Se33  1  0.72654602  0.52850911  0.77763999  1.0
  Se  Se34  1  0.72654602  0.97149089  0.27763999  1.0
  Se  Se35  1  0.27345398  0.47149089  0.22236001  1.0
  N  N36  1  0.95806370  0.77576160  0.91225790  1.0
  N  N37  1  0.04193630  0.27576160  0.58774210  1.0
  N  N38  1  0.04193630  0.22423840  0.08774210  1.0
  N  N39  1  0.95806370  0.72423840  0.41225790  1.0
  N  N40  1  0.51415420  0.69742460  0.79250189  1.0
  N  N41  1  0.48584580  0.19742460  0.70749811  1.0
  N  N42  1  0.48584580  0.30257540  0.20749811  1.0
  N  N43  1  0.51415420  0.80257540  0.29250189  1.0
