# generated using pymatgen
data_KVH6SO9
_symmetry_space_group_name_H-M   'P 1'
_cell_length_a   6.26260564
_cell_length_b   9.94749629
_cell_length_c   6.61149024
_cell_angle_alpha   90.00000000
_cell_angle_beta   106.77701817
_cell_angle_gamma   90.00000000
_symmetry_Int_Tables_number   1
_chemical_formula_structural   KVH6SO9
_chemical_formula_sum   'K2 V2 H12 S2 O18'
_cell_volume   394.34621094
_cell_formula_units_Z   2
loop_
 _symmetry_equiv_pos_site_id
 _symmetry_equiv_pos_as_xyz
  1  'x, y, z'
loop_
 _atom_site_type_symbol
 _atom_site_label
 _atom_site_symmetry_multiplicity
 _atom_site_fract_x
 _atom_site_fract_y
 _atom_site_fract_z
 _atom_site_occupancy
  K  K0  1  0.69501061  0.84400351  0.18363254  1.0
  K  K1  1  0.30498939  0.34400351  0.81636746  1.0
  V  V2  1  0.38301256  -0.00368394  0.62022103  1.0
  V  V3  1  0.61698744  0.49631606  0.37977897  1.0
  H  H4  1  0.19231042  0.91420992  0.17448361  1.0
  H  H5  1  0.80768958  0.41420992  0.82551639  1.0
  H  H6  1  0.89063898  0.14833358  0.07305071  1.0
  H  H7  1  0.10936102  0.64833358  0.92694929  1.0
  H  H8  1  1.02961348  0.14106558  0.30872558  1.0
  H  H9  1  -0.02961348  0.64106558  0.69127442  1.0
  H  H10  1  0.31051109  0.73039360  0.74001281  1.0
  H  H11  1  0.68948891  0.23039360  0.25998719  1.0
  H  H12  1  0.23371936  0.78208075  0.30311347  1.0
  H  H13  1  0.76628064  0.28208075  0.69688653  1.0
  H  H14  1  0.46793433  0.23160831  0.33981338  1.0
  H  H15  1  0.53206567  0.73160831  0.66018662  1.0
  S  S16  1  0.91849703  0.99273421  0.73347056  1.0
  S  S17  1  0.08150297  0.49273421  0.26652944  1.0
  O  O18  1  0.54483348  0.55521149  0.14162484  1.0
  O  O19  1  0.45516652  0.05521149  0.85837516  1.0
  O  O20  1  0.67967946  0.63135158  0.53270827  1.0
  O  O21  1  0.32032054  0.13135158  0.46729173  1.0
  O  O22  1  0.56097490  0.28783184  0.27404496  1.0
  O  O23  1  0.43902510  0.78783184  0.72595504  1.0
  O  O24  1  0.70492938  0.37332491  0.69862062  1.0
  O  O25  1  0.29507062  0.87332491  0.30137938  1.0
  O  O26  1  0.06716035  0.94753172  0.60027329  1.0
  O  O27  1  0.93283965  0.44753172  0.39972671  1.0
  O  O28  1  0.68631947  0.96565881  0.58479362  1.0
  O  O29  1  0.31368053  0.46565881  0.41520638  1.0
  O  O30  1  0.95972403  0.90982117  0.92446257  1.0
  O  O31  1  0.04027597  0.40982117  0.07553743  1.0
  O  O32  1  0.05335854  0.63799884  0.21785468  1.0
  O  O33  1  0.94664146  0.13799884  0.78214532  1.0
  O  O34  1  0.87610316  0.13172410  0.21449599  1.0
  O  O35  1  0.12389684  0.63172410  0.78550401  1.0
