# generated using pymatgen
data_KLa(WO4)2
_symmetry_space_group_name_H-M   'P 1'
_cell_length_a   7.59528299
_cell_length_b   7.59528299
_cell_length_c   7.67200730
_cell_angle_alpha   65.74735205
_cell_angle_beta   114.25264795
_cell_angle_gamma   87.13720524
_symmetry_Int_Tables_number   1
_chemical_formula_structural   KLa(WO4)2
_chemical_formula_sum   'K2 La2 W4 O16'
_cell_volume   354.95299740
_cell_formula_units_Z   2
loop_
 _symmetry_equiv_pos_site_id
 _symmetry_equiv_pos_as_xyz
  1  'x, y, z'
loop_
 _atom_site_type_symbol
 _atom_site_label
 _atom_site_symmetry_multiplicity
 _atom_site_fract_x
 _atom_site_fract_y
 _atom_site_fract_z
 _atom_site_occupancy
  K  K0  1  0.69237281  -0.69237281  0.52857343  1.0
  K  K1  1  0.30762719  -0.30762719  0.47142657  1.0
  La  La2  1  0.69749922  -0.30250078  0.00000000  1.0
  La  La3  1  1.30250078  0.30250078  0.00000000  1.0
  W  W4  1  0.20093954  -0.20093954  0.94120804  1.0
  W  W5  1  0.79906046  -0.79906046  0.05879196  1.0
  W  W6  1  0.83682885  -0.16317115  0.50000000  1.0
  W  W7  1  1.16317115  0.16317115  0.50000000  1.0
  O  O8  1  0.69201528  -0.21661640  0.64142571  1.0
  O  O9  1  1.21661640  0.30798472  0.64142571  1.0
  O  O10  1  0.78338360  -0.30798472  0.35857429  1.0
  O  O11  1  1.30798472  0.21661640  0.35857429  1.0
  O  O12  1  1.70494519  0.04412243  0.93800216  1.0
  O  O13  1  0.95587757  -0.70494519  0.93800216  1.0
  O  O14  1  1.04412243  0.70494519  0.06199784  1.0
  O  O15  1  0.29505481  -0.04412243  0.06199784  1.0
  O  O16  1  0.34248137  -0.09168447  0.73592633  1.0
  O  O17  1  1.09168447  0.65751863  0.73592633  1.0
  O  O18  1  0.90831553  -0.65751863  0.26407367  1.0
  O  O19  1  1.65751863  0.09168447  0.26407367  1.0
  O  O20  1  0.98536155  -0.98536155  0.65671735  1.0
  O  O21  1  0.01463845  -0.01463845  0.34328265  1.0
  O  O22  1  0.57833817  -0.57833817  0.89771702  1.0
  O  O23  1  0.42166183  -0.42166183  0.10228298  1.0
