# generated using pymatgen
data_Ce(BH4)3
_symmetry_space_group_name_H-M   'P 1'
_cell_length_a   8.14562267
_cell_length_b   8.14562267
_cell_length_c   8.14562267
_cell_angle_alpha   60.00000000
_cell_angle_beta   60.00000000
_cell_angle_gamma   60.00000000
_symmetry_Int_Tables_number   1
_chemical_formula_structural   Ce(BH4)3
_chemical_formula_sum   'Ce2 B6 H24'
_cell_volume   382.17112255
_cell_formula_units_Z   2
loop_
 _symmetry_equiv_pos_site_id
 _symmetry_equiv_pos_as_xyz
  1  'x, y, z'
loop_
 _atom_site_type_symbol
 _atom_site_label
 _atom_site_symmetry_multiplicity
 _atom_site_fract_x
 _atom_site_fract_y
 _atom_site_fract_z
 _atom_site_occupancy
  Ce  Ce0  1  0.50000000  0.50000000  -0.50000000  1.0
  Ce  Ce1  1  0.00000000  0.00000000  0.00000000  1.0
  B  B2  1  0.75000000  0.75000000  -0.75000000  1.0
  B  B3  1  0.25000000  0.25000000  -0.25000000  1.0
  B  B4  1  0.25000000  0.75000000  -0.25000000  1.0
  B  B5  1  -0.25000000  0.25000000  0.25000000  1.0
  B  B6  1  0.75000000  0.25000000  -0.25000000  1.0
  B  B7  1  1.25000000  -0.25000000  0.25000000  1.0
  H  H8  1  0.22044680  0.39830138  -0.22044680  1.0
  H  H9  1  -0.22044680  0.60169862  0.22044680  1.0
  H  H10  1  0.39830138  1.22044680  -0.39830138  1.0
  H  H11  1  0.60169862  0.77955320  -0.60169862  1.0
  H  H12  1  0.72044680  1.10169862  -0.72044680  1.0
  H  H13  1  0.27955320  0.89830138  -0.27955320  1.0
  H  H14  1  0.10169862  0.72044680  -0.10169862  1.0
  H  H15  1  -0.10169862  0.27955320  0.10169862  1.0
  H  H16  1  -0.22044680  0.22044680  0.39830138  1.0
  H  H17  1  1.22044680  -0.22044680  0.60169862  1.0
  H  H18  1  0.60169862  -0.60169862  1.22044680  1.0
  H  H19  1  0.39830138  0.60169862  -0.22044680  1.0
  H  H20  1  0.27955320  -0.27955320  1.10169862  1.0
  H  H21  1  0.72044680  0.27955320  -0.10169862  1.0
  H  H22  1  -0.10169862  0.10169862  0.72044680  1.0
  H  H23  1  1.10169862  -0.10169862  0.27955320  1.0
  H  H24  1  1.39830138  -0.22044680  0.22044680  1.0
  H  H25  1  0.60169862  0.22044680  -0.22044680  1.0
  H  H26  1  1.22044680  -0.39830138  0.39830138  1.0
  H  H27  1  0.77955320  0.39830138  -0.39830138  1.0
  H  H28  1  1.10169862  -0.72044680  0.72044680  1.0
  H  H29  1  0.89830138  0.72044680  -0.72044680  1.0
  H  H30  1  1.72044680  -0.10169862  0.10169862  1.0
  H  H31  1  0.27955320  0.10169862  -0.10169862  1.0
