# generated using pymatgen
data_EuGaPt
_symmetry_space_group_name_H-M   'P 1'
_cell_length_a   7.20752909
_cell_length_b   4.47481262
_cell_length_c   7.80724245
_cell_angle_alpha   90.00000000
_cell_angle_beta   90.00000000
_cell_angle_gamma   90.00000000
_symmetry_Int_Tables_number   1
_chemical_formula_structural   EuGaPt
_chemical_formula_sum   'Eu4 Ga4 Pt4'
_cell_volume   251.80185442
_cell_formula_units_Z   4
loop_
 _symmetry_equiv_pos_site_id
 _symmetry_equiv_pos_as_xyz
  1  'x, y, z'
loop_
 _atom_site_type_symbol
 _atom_site_label
 _atom_site_symmetry_multiplicity
 _atom_site_fract_x
 _atom_site_fract_y
 _atom_site_fract_z
 _atom_site_occupancy
  Eu  Eu0  1  1.01706626  0.75000000  0.69073872  1.0
  Eu  Eu1  1  0.51706626  0.75000000  0.80926128  1.0
  Eu  Eu2  1  -0.01706626  0.25000000  0.30926128  1.0
  Eu  Eu3  1  0.48293374  0.25000000  0.19073872  1.0
  Ga  Ga4  1  0.66415432  0.75000000  0.42539042  1.0
  Ga  Ga5  1  0.16415432  0.75000000  0.07460958  1.0
  Ga  Ga6  1  0.33584568  0.25000000  0.57460958  1.0
  Ga  Ga7  1  0.83584568  0.25000000  0.92539042  1.0
  Pt  Pt8  1  0.78937742  0.75000000  0.10343977  1.0
  Pt  Pt9  1  0.28937742  0.75000000  0.39656023  1.0
  Pt  Pt10  1  0.21062258  0.25000000  0.89656023  1.0
  Pt  Pt11  1  0.71062258  0.25000000  0.60343977  1.0
