# generated using pymatgen
data_Nb3VSe6
_symmetry_space_group_name_H-M   'P 1'
_cell_length_a   6.05198112
_cell_length_b   6.05198112
_cell_length_c   12.79287089
_cell_angle_alpha   90.00000000
_cell_angle_beta   90.00000000
_cell_angle_gamma   120.00000000
_symmetry_Int_Tables_number   1
_chemical_formula_structural   Nb3VSe6
_chemical_formula_sum   'Nb6 V2 Se12'
_cell_volume   405.78293330
_cell_formula_units_Z   2
loop_
 _symmetry_equiv_pos_site_id
 _symmetry_equiv_pos_as_xyz
  1  'x, y, z'
loop_
 _atom_site_type_symbol
 _atom_site_label
 _atom_site_symmetry_multiplicity
 _atom_site_fract_x
 _atom_site_fract_y
 _atom_site_fract_z
 _atom_site_occupancy
  Nb  Nb0  1  0.00000000  0.00000000  0.00000000  1.0
  Nb  Nb1  1  0.00000000  0.00000000  0.50000000  1.0
  Nb  Nb2  1  0.33333333  0.66666667  0.49993775  1.0
  Nb  Nb3  1  0.33333333  0.66666667  1.00006225  1.0
  Nb  Nb4  1  0.66666667  0.33333333  0.50006225  1.0
  Nb  Nb5  1  0.66666667  0.33333333  -0.00006225  1.0
  V  V6  1  0.33333333  0.66666667  0.25000000  1.0
  V  V7  1  0.66666667  0.33333333  0.75000000  1.0
  Se  Se8  1  0.66957040  0.66701775  0.13041069  1.0
  Se  Se9  1  0.66957040  0.00255265  0.36958931  1.0
  Se  Se10  1  0.66701775  0.66957040  0.86958931  1.0
  Se  Se11  1  0.66701775  0.99744735  0.63041069  1.0
  Se  Se12  1  0.99744735  0.66701775  0.36958931  1.0
  Se  Se13  1  0.99744735  0.33042960  0.13041069  1.0
  Se  Se14  1  0.33298225  0.33042960  0.36958931  1.0
  Se  Se15  1  0.33298225  0.00255265  0.13041069  1.0
  Se  Se16  1  0.33042960  0.99744735  0.86958931  1.0
  Se  Se17  1  0.33042960  0.33298225  0.63041069  1.0
  Se  Se18  1  0.00255265  0.66957040  0.63041069  1.0
  Se  Se19  1  0.00255265  0.33298225  0.86958931  1.0
