# generated using pymatgen
data_Ca6Cu2Sn7
_symmetry_space_group_name_H-M   'P 1'
_cell_length_a   7.51971731
_cell_length_b   7.51971731
_cell_length_c   12.43813903
_cell_angle_alpha   86.15804009
_cell_angle_beta   93.84195991
_cell_angle_gamma   144.48926514
_symmetry_Int_Tables_number   1
_chemical_formula_structural   Ca6Cu2Sn7
_chemical_formula_sum   'Ca6 Cu2 Sn7'
_cell_volume   407.52005699
_cell_formula_units_Z   1
loop_
 _symmetry_equiv_pos_site_id
 _symmetry_equiv_pos_as_xyz
  1  'x, y, z'
loop_
 _atom_site_type_symbol
 _atom_site_label
 _atom_site_symmetry_multiplicity
 _atom_site_fract_x
 _atom_site_fract_y
 _atom_site_fract_z
 _atom_site_occupancy
  Ca  Ca0  1  0.80402103  0.19597897  0.20550632  1.0
  Ca  Ca1  1  0.19597897  -0.19597897  0.79449368  1.0
  Ca  Ca2  1  0.63599795  0.36400205  0.50178935  1.0
  Ca  Ca3  1  0.36400205  -0.36400205  0.49821065  1.0
  Ca  Ca4  1  0.46080462  -0.46080462  0.79889598  1.0
  Ca  Ca5  1  0.53919538  0.46080462  0.20110402  1.0
  Cu  Cu6  1  0.82956199  0.17043801  0.88846920  1.0
  Cu  Cu7  1  0.17043801  -0.17043801  0.11153080  1.0
  Sn  Sn8  1  0.98858849  0.01141151  0.38093679  1.0
  Sn  Sn9  1  0.01141151  -0.01141151  0.61906321  1.0
  Sn  Sn10  1  0.81671097  0.18328903  0.67512193  1.0
  Sn  Sn11  1  0.18328903  -0.18328903  0.32487807  1.0
  Sn  Sn12  1  0.65925123  0.34074877  0.98130428  1.0
  Sn  Sn13  1  0.34074877  -0.34074877  0.01869572  1.0
  Sn  Sn14  1  0.00000000  0.00000000  0.00000000  1.0
