# generated using pymatgen
data_Ta2FeO6
_symmetry_space_group_name_H-M   'P 1'
_cell_length_a   4.82829488
_cell_length_b   4.82829488
_cell_length_c   9.12984676
_cell_angle_alpha   90.00000000
_cell_angle_beta   90.00000000
_cell_angle_gamma   90.00000000
_symmetry_Int_Tables_number   1
_chemical_formula_structural   Ta2FeO6
_chemical_formula_sum   'Ta4 Fe2 O12'
_cell_volume   212.83892634
_cell_formula_units_Z   2
loop_
 _symmetry_equiv_pos_site_id
 _symmetry_equiv_pos_as_xyz
  1  'x, y, z'
loop_
 _atom_site_type_symbol
 _atom_site_label
 _atom_site_symmetry_multiplicity
 _atom_site_fract_x
 _atom_site_fract_y
 _atom_site_fract_z
 _atom_site_occupancy
  Ta  Ta0  1  0.50000000  0.50000000  0.17066878  1.0
  Ta  Ta1  1  0.50000000  0.50000000  0.82933122  1.0
  Ta  Ta2  1  0.00000000  0.00000000  0.67066878  1.0
  Ta  Ta3  1  0.00000000  0.00000000  0.32933122  1.0
  Fe  Fe4  1  0.50000000  0.50000000  0.50000000  1.0
  Fe  Fe5  1  0.00000000  0.00000000  0.00000000  1.0
  O  O6  1  0.20729267  0.79270733  0.17755628  1.0
  O  O7  1  0.20729267  0.79270733  0.82244372  1.0
  O  O8  1  0.70729267  0.70729267  0.67755628  1.0
  O  O9  1  0.70729267  0.70729267  0.32244372  1.0
  O  O10  1  0.79270733  0.20729267  0.17755628  1.0
  O  O11  1  0.79270733  0.20729267  0.82244372  1.0
  O  O12  1  0.29270733  0.29270733  0.67755628  1.0
  O  O13  1  0.29270733  0.29270733  0.32244372  1.0
  O  O14  1  0.18973050  0.81026950  0.50000000  1.0
  O  O15  1  0.68973050  0.68973050  0.00000000  1.0
  O  O16  1  0.81026950  0.18973050  0.50000000  1.0
  O  O17  1  0.31026950  0.31026950  0.00000000  1.0
