# generated using pymatgen
data_La5Ge3Cl
_symmetry_space_group_name_H-M   'P 1'
_cell_length_a   9.22779876
_cell_length_b   9.22779876
_cell_length_c   6.84115214
_cell_angle_alpha   90.00000000
_cell_angle_beta   90.00000000
_cell_angle_gamma   120.00000000
_symmetry_Int_Tables_number   1
_chemical_formula_structural   La5Ge3Cl
_chemical_formula_sum   'La10 Ge6 Cl2'
_cell_volume   504.49412173
_cell_formula_units_Z   2
loop_
 _symmetry_equiv_pos_site_id
 _symmetry_equiv_pos_as_xyz
  1  'x, y, z'
loop_
 _atom_site_type_symbol
 _atom_site_label
 _atom_site_symmetry_multiplicity
 _atom_site_fract_x
 _atom_site_fract_y
 _atom_site_fract_z
 _atom_site_occupancy
  La  La0  1  0.73209321  0.73209321  0.25000000  1.0
  La  La1  1  0.73209321  0.00000000  0.75000000  1.0
  La  La2  1  0.00000000  0.73209321  0.75000000  1.0
  La  La3  1  -0.00000000  0.26790679  0.25000000  1.0
  La  La4  1  0.26790679  0.26790679  0.75000000  1.0
  La  La5  1  0.26790679  0.00000000  0.25000000  1.0
  La  La6  1  0.33333333  0.66666667  0.50000000  1.0
  La  La7  1  0.33333333  0.66666667  0.00000000  1.0
  La  La8  1  0.66666667  0.33333333  0.50000000  1.0
  La  La9  1  0.66666667  0.33333333  0.00000000  1.0
  Ge  Ge10  1  0.38571807  0.38571807  0.25000000  1.0
  Ge  Ge11  1  0.38571807  -0.00000000  0.75000000  1.0
  Ge  Ge12  1  -0.00000000  0.38571807  0.75000000  1.0
  Ge  Ge13  1  0.00000000  0.61428193  0.25000000  1.0
  Ge  Ge14  1  0.61428193  0.61428193  0.75000000  1.0
  Ge  Ge15  1  0.61428193  -0.00000000  0.25000000  1.0
  Cl  Cl16  1  0.00000000  0.00000000  0.50000000  1.0
  Cl  Cl17  1  0.00000000  -0.00000000  0.00000000  1.0
