# generated using pymatgen
data_Na3GaB4O9
_symmetry_space_group_name_H-M   'P 1'
_cell_length_a   6.31604092
_cell_length_b   8.79372444
_cell_length_c   6.90139374
_cell_angle_alpha   90.00000000
_cell_angle_beta   98.79837413
_cell_angle_gamma   90.00000000
_symmetry_Int_Tables_number   1
_chemical_formula_structural   Na3GaB4O9
_chemical_formula_sum   'Na6 Ga2 B8 O18'
_cell_volume   378.80336054
_cell_formula_units_Z   2
loop_
 _symmetry_equiv_pos_site_id
 _symmetry_equiv_pos_as_xyz
  1  'x, y, z'
loop_
 _atom_site_type_symbol
 _atom_site_label
 _atom_site_symmetry_multiplicity
 _atom_site_fract_x
 _atom_site_fract_y
 _atom_site_fract_z
 _atom_site_occupancy
  Na  Na0  1  0.24611673  0.46584330  0.82376754  1.0
  Na  Na1  1  0.24611673  0.03415670  0.82376754  1.0
  Na  Na2  1  0.75388327  0.96584330  0.17623246  1.0
  Na  Na3  1  0.75388327  0.53415670  0.17623246  1.0
  Na  Na4  1  0.92032504  0.25000000  0.49272859  1.0
  Na  Na5  1  0.07967496  0.75000000  0.50727141  1.0
  Ga  Ga6  1  0.70244458  0.25000000  0.86174131  1.0
  Ga  Ga7  1  0.29755542  0.75000000  0.13825869  1.0
  B  B8  1  0.74560509  0.95475092  0.71967888  1.0
  B  B9  1  0.74560509  0.54524908  0.71967888  1.0
  B  B10  1  0.25439491  0.45475092  0.28032112  1.0
  B  B11  1  0.25439491  0.04524908  0.28032112  1.0
  B  B12  1  0.51135803  0.25000000  0.21652508  1.0
  B  B13  1  0.48864197  0.75000000  0.78347492  1.0
  B  B14  1  0.37633288  0.25000000  0.52325838  1.0
  B  B15  1  0.62366712  0.75000000  0.47674162  1.0
  O  O16  1  0.85964298  0.41347992  0.77689999  1.0
  O  O17  1  0.85964298  0.08652008  0.77689999  1.0
  O  O18  1  0.14035702  0.91347992  0.22310001  1.0
  O  O19  1  0.14035702  0.58652008  0.22310001  1.0
  O  O20  1  0.76557465  0.88845827  0.54238437  1.0
  O  O21  1  0.76557465  0.61154173  0.54238437  1.0
  O  O22  1  0.23442535  0.38845827  0.45761563  1.0
  O  O23  1  0.23442535  0.11154173  0.45761563  1.0
  O  O24  1  0.61935828  0.89112836  0.84603193  1.0
  O  O25  1  0.61935828  0.60887164  0.84603193  1.0
  O  O26  1  0.38064172  0.39112836  0.15396807  1.0
  O  O27  1  0.38064172  0.10887164  0.15396807  1.0
  O  O28  1  0.71017925  0.25000000  0.13127354  1.0
  O  O29  1  0.28982075  0.75000000  0.86872646  1.0
  O  O30  1  0.56320474  0.25000000  0.42828171  1.0
  O  O31  1  0.43679526  0.75000000  0.57171829  1.0
  O  O32  1  0.42221988  0.25000000  0.73459856  1.0
  O  O33  1  0.57778012  0.75000000  0.26540144  1.0
