# generated using pymatgen
data_TlSbO3
_symmetry_space_group_name_H-M   'P 1'
_cell_length_a   5.42055517
_cell_length_b   5.42055517
_cell_length_c   16.07625778
_cell_angle_alpha   90.00000000
_cell_angle_beta   90.00000000
_cell_angle_gamma   120.00000000
_symmetry_Int_Tables_number   1
_chemical_formula_structural   TlSbO3
_chemical_formula_sum   'Tl4 Sb4 O12'
_cell_volume   409.07518140
_cell_formula_units_Z   4
loop_
 _symmetry_equiv_pos_site_id
 _symmetry_equiv_pos_as_xyz
  1  'x, y, z'
loop_
 _atom_site_type_symbol
 _atom_site_label
 _atom_site_symmetry_multiplicity
 _atom_site_fract_x
 _atom_site_fract_y
 _atom_site_fract_z
 _atom_site_occupancy
  Tl  Tl0  1  0.33333333  0.66666667  0.58511420  1.0
  Tl  Tl1  1  0.33333333  0.66666667  0.91488580  1.0
  Tl  Tl2  1  0.66666667  0.33333333  0.41488580  1.0
  Tl  Tl3  1  0.66666667  0.33333333  0.08511420  1.0
  Sb  Sb4  1  0.33333333  0.66666667  0.25000000  1.0
  Sb  Sb5  1  0.66666667  0.33333333  0.75000000  1.0
  Sb  Sb6  1  0.00000000  0.00000000  0.25000000  1.0
  Sb  Sb7  1  0.00000000  0.00000000  0.75000000  1.0
  O  O8  1  0.28375137  0.95042551  0.17953276  1.0
  O  O9  1  0.28375137  0.33332586  0.32046724  1.0
  O  O10  1  0.95042551  0.28375137  0.82046724  1.0
  O  O11  1  0.95042551  0.66667414  0.67953276  1.0
  O  O12  1  0.66667414  0.95042551  0.32046724  1.0
  O  O13  1  0.66667414  0.71624863  0.17953276  1.0
  O  O14  1  0.04957449  0.71624863  0.32046724  1.0
  O  O15  1  0.04957449  0.33332586  0.17953276  1.0
  O  O16  1  0.71624863  0.66667414  0.82046724  1.0
  O  O17  1  0.71624863  0.04957449  0.67953276  1.0
  O  O18  1  0.33332586  0.28375137  0.67953276  1.0
  O  O19  1  0.33332586  0.04957449  0.82046724  1.0
