# generated using pymatgen
data_Rb2MnSO4F3
_symmetry_space_group_name_H-M   'P 1'
_cell_length_a   7.48381494
_cell_length_b   11.36358105
_cell_length_c   8.96184433
_cell_angle_alpha   90.00000000
_cell_angle_beta   93.33117385
_cell_angle_gamma   90.00000000
_symmetry_Int_Tables_number   1
_chemical_formula_structural   Rb2MnSO4F3
_chemical_formula_sum   'Rb8 Mn4 S4 O16 F12'
_cell_volume   760.85381472
_cell_formula_units_Z   4
loop_
 _symmetry_equiv_pos_site_id
 _symmetry_equiv_pos_as_xyz
  1  'x, y, z'
loop_
 _atom_site_type_symbol
 _atom_site_label
 _atom_site_symmetry_multiplicity
 _atom_site_fract_x
 _atom_site_fract_y
 _atom_site_fract_z
 _atom_site_occupancy
  Rb  Rb0  1  0.79986557  0.80893675  0.32845038  1.0
  Rb  Rb1  1  0.79986557  0.69106325  0.82845038  1.0
  Rb  Rb2  1  0.20013443  0.30893675  0.17154962  1.0
  Rb  Rb3  1  0.20013443  0.19106325  0.67154962  1.0
  Rb  Rb4  1  0.69135790  0.19097118  0.33257622  1.0
  Rb  Rb5  1  0.69135790  0.30902882  0.83257622  1.0
  Rb  Rb6  1  0.30864210  0.69097118  0.16742378  1.0
  Rb  Rb7  1  0.30864210  0.80902882  0.66742378  1.0
  Mn  Mn8  1  0.50000000  0.50000000  0.50000000  1.0
  Mn  Mn9  1  0.50000000  0.00000000  0.00000000  1.0
  Mn  Mn10  1  -0.00000000  0.50000000  0.50000000  1.0
  Mn  Mn11  1  0.00000000  0.00000000  0.00000000  1.0
  S  S12  1  0.75283905  0.49897751  0.19731070  1.0
  S  S13  1  0.75283905  0.00102249  0.69731070  1.0
  S  S14  1  0.24716095  0.99897751  0.30268930  1.0
  S  S15  1  0.24716095  0.50102249  0.80268930  1.0
  O  O16  1  0.89574969  0.94580280  0.80886691  1.0
  O  O17  1  0.89574969  0.55419720  0.30886691  1.0
  O  O18  1  0.10425031  0.44580280  0.69113309  1.0
  O  O19  1  0.10425031  0.05419720  0.19113309  1.0
  O  O20  1  0.83871680  0.40833875  0.10779671  1.0
  O  O21  1  0.83871680  0.09166125  0.60779671  1.0
  O  O22  1  0.16128320  0.90833875  0.39220329  1.0
  O  O23  1  0.16128320  0.59166125  0.89220329  1.0
  O  O24  1  0.61014510  0.44349914  0.28519290  1.0
  O  O25  1  0.61014510  0.05650086  0.78519290  1.0
  O  O26  1  0.38985490  0.94349914  0.21480710  1.0
  O  O27  1  0.38985490  0.55650086  0.71480710  1.0
  O  O28  1  0.31928424  0.09886540  0.39275363  1.0
  O  O29  1  0.31928424  0.40113460  0.89275363  1.0
  O  O30  1  0.68071576  0.59886540  0.10724637  1.0
  O  O31  1  0.68071576  0.90113460  0.60724637  1.0
  F  F32  1  0.97852496  0.34384742  0.44486131  1.0
  F  F33  1  0.97852496  0.15615258  0.94486131  1.0
  F  F34  1  0.02147504  0.84384742  0.05513869  1.0
  F  F35  1  0.02147504  0.65615258  0.55513869  1.0
  F  F36  1  0.73317316  0.00094786  0.09951020  1.0
  F  F37  1  0.73317316  0.49905214  0.59951020  1.0
  F  F38  1  0.26682684  0.50094786  0.40048980  1.0
  F  F39  1  0.26682684  0.99905214  0.90048980  1.0
  F  F40  1  0.47751568  0.15785545  0.04558067  1.0
  F  F41  1  0.47751568  0.34214455  0.54558067  1.0
  F  F42  1  0.52248432  0.65785545  0.45441933  1.0
  F  F43  1  0.52248432  0.84214455  0.95441933  1.0
