# generated using pymatgen
data_SrPdF4
_symmetry_space_group_name_H-M   'P 1'
_cell_length_a   6.82517373
_cell_length_b   6.82517373
_cell_length_c   6.82517373
_cell_angle_alpha   128.60643196
_cell_angle_beta   128.60643196
_cell_angle_gamma   75.64467094
_symmetry_Int_Tables_number   1
_chemical_formula_structural   SrPdF4
_chemical_formula_sum   'Sr2 Pd2 F8'
_cell_volume   188.87637326
_cell_formula_units_Z   2
loop_
 _symmetry_equiv_pos_site_id
 _symmetry_equiv_pos_as_xyz
  1  'x, y, z'
loop_
 _atom_site_type_symbol
 _atom_site_label
 _atom_site_symmetry_multiplicity
 _atom_site_fract_x
 _atom_site_fract_y
 _atom_site_fract_z
 _atom_site_occupancy
  Sr  Sr0  1  0.25000000  0.25000000  -0.00000000  1.0
  Sr  Sr1  1  0.75000000  0.75000000  1.00000000  1.0
  Pd  Pd2  1  0.50000000  -0.00000000  0.50000000  1.0
  Pd  Pd3  1  -0.00000000  0.50000000  0.50000000  1.0
  F  F4  1  0.53668453  1.03668453  0.83774696  1.0
  F  F5  1  1.19893757  0.69893757  1.16225304  1.0
  F  F6  1  1.03668453  1.19893757  1.50000000  1.0
  F  F7  1  0.69893757  0.53668453  0.50000000  1.0
  F  F8  1  0.46331547  0.96331547  1.16225304  1.0
  F  F9  1  0.80106243  0.30106243  0.83774696  1.0
  F  F10  1  0.96331547  0.80106243  1.50000000  1.0
  F  F11  1  0.30106243  0.46331547  0.50000000  1.0
