# generated using pymatgen
data_Na(Ga2Au)2
_symmetry_space_group_name_H-M   'P 1'
_cell_length_a   16.92037067
_cell_length_b   4.38149789
_cell_length_c   7.53621268
_cell_angle_alpha   90.00000000
_cell_angle_beta   90.00000000
_cell_angle_gamma   90.00000000
_symmetry_Int_Tables_number   1
_chemical_formula_structural   Na(Ga2Au)2
_chemical_formula_sum   'Na4 Ga16 Au8'
_cell_volume   558.70894724
_cell_formula_units_Z   4
loop_
 _symmetry_equiv_pos_site_id
 _symmetry_equiv_pos_as_xyz
  1  'x, y, z'
loop_
 _atom_site_type_symbol
 _atom_site_label
 _atom_site_symmetry_multiplicity
 _atom_site_fract_x
 _atom_site_fract_y
 _atom_site_fract_z
 _atom_site_occupancy
  Na  Na0  1  0.37517421  0.75000000  0.74974829  1.0
  Na  Na1  1  0.87517421  0.75000000  0.75025171  1.0
  Na  Na2  1  0.62482579  0.25000000  0.25025171  1.0
  Na  Na3  1  0.12482579  0.25000000  0.24974829  1.0
  Ga  Ga4  1  0.54830562  0.75000000  0.94370420  1.0
  Ga  Ga5  1  0.04830562  0.75000000  0.55629580  1.0
  Ga  Ga6  1  0.45169438  0.25000000  0.05629580  1.0
  Ga  Ga7  1  0.95169438  0.25000000  0.44370420  1.0
  Ga  Ga8  1  0.31635070  0.75000000  0.29623296  1.0
  Ga  Ga9  1  0.81635070  0.75000000  0.20376704  1.0
  Ga  Ga10  1  0.68364930  0.25000000  0.70376704  1.0
  Ga  Ga11  1  0.18364930  0.25000000  0.79623296  1.0
  Ga  Ga12  1  0.19849178  0.75000000  0.56637378  1.0
  Ga  Ga13  1  0.69849178  0.75000000  0.93362622  1.0
  Ga  Ga14  1  0.80150822  0.25000000  0.43362622  1.0
  Ga  Ga15  1  0.30150822  0.25000000  0.06637378  1.0
  Ga  Ga16  1  0.06288824  0.75000000  0.94663445  1.0
  Ga  Ga17  1  0.56288824  0.75000000  0.55336555  1.0
  Ga  Ga18  1  0.93711176  0.25000000  0.05336555  1.0
  Ga  Ga19  1  0.43711176  0.25000000  0.44663445  1.0
  Au  Au20  1  0.47637457  0.75000000  0.25767222  1.0
  Au  Au21  1  0.97637457  0.75000000  0.24232778  1.0
  Au  Au22  1  0.52362543  0.25000000  0.74232778  1.0
  Au  Au23  1  0.02362543  0.25000000  0.75767222  1.0
  Au  Au24  1  0.21896834  0.75000000  -0.00752575  1.0
  Au  Au25  1  0.71896834  0.75000000  0.50752575  1.0
  Au  Au26  1  0.78103166  0.25000000  1.00752575  1.0
  Au  Au27  1  0.28103166  0.25000000  0.49247425  1.0
