# generated using pymatgen
data_TlCuSe2
_symmetry_space_group_name_H-M   'P 1'
_cell_length_a   7.33190316
_cell_length_b   7.33190316
_cell_length_c   7.33190316
_cell_angle_alpha   132.07395354
_cell_angle_beta   132.07395354
_cell_angle_gamma   70.11225036
_symmetry_Int_Tables_number   1
_chemical_formula_structural   TlCuSe2
_chemical_formula_sum   'Tl2 Cu2 Se4'
_cell_volume   212.88396361
_cell_formula_units_Z   2
loop_
 _symmetry_equiv_pos_site_id
 _symmetry_equiv_pos_as_xyz
  1  'x, y, z'
loop_
 _atom_site_type_symbol
 _atom_site_label
 _atom_site_symmetry_multiplicity
 _atom_site_fract_x
 _atom_site_fract_y
 _atom_site_fract_z
 _atom_site_occupancy
  Tl  Tl0  1  0.25000000  0.75000000  0.50000000  1.0
  Tl  Tl1  1  0.50000000  0.50000000  0.00000000  1.0
  Cu  Cu2  1  0.75000000  0.25000000  0.50000000  1.0
  Cu  Cu3  1  1.00000000  1.00000000  1.00000000  1.0
  Se  Se4  1  1.07646780  1.12500000  1.45146780  1.0
  Se  Se5  1  1.37500000  0.92353220  1.04853220  1.0
  Se  Se6  1  0.87500000  1.32646780  0.95146780  1.0
  Se  Se7  1  0.67353220  0.62500000  0.54853220  1.0
