# generated using pymatgen
data_La5Ga3
_symmetry_space_group_name_H-M   'P 1'
_cell_length_a   9.32552445
_cell_length_b   9.32552445
_cell_length_c   9.32552445
_cell_angle_alpha   128.92467244
_cell_angle_beta   128.92467244
_cell_angle_gamma   75.13180918
_symmetry_Int_Tables_number   1
_chemical_formula_structural   La5Ga3
_chemical_formula_sum   'La10 Ga6'
_cell_volume   477.88943194
_cell_formula_units_Z   2
loop_
 _symmetry_equiv_pos_site_id
 _symmetry_equiv_pos_as_xyz
  1  'x, y, z'
loop_
 _atom_site_type_symbol
 _atom_site_label
 _atom_site_symmetry_multiplicity
 _atom_site_fract_x
 _atom_site_fract_y
 _atom_site_fract_z
 _atom_site_occupancy
  La  La0  1  0.00000000  0.00000000  0.00000000  1.0
  La  La1  1  0.50000000  0.50000000  1.00000000  1.0
  La  La2  1  1.17446719  0.67446719  1.14971242  1.0
  La  La3  1  0.47524523  0.97524523  1.14971242  1.0
  La  La4  1  1.02475477  1.17446719  1.50000000  1.0
  La  La5  1  0.32553281  0.47524523  0.50000000  1.0
  La  La6  1  0.67446719  0.52475477  0.50000000  1.0
  La  La7  1  0.97524523  0.82553281  1.50000000  1.0
  La  La8  1  0.52475477  1.02475477  0.85028758  1.0
  La  La9  1  0.82553281  0.32553281  0.85028758  1.0
  Ga  Ga10  1  0.88439274  0.38439274  1.26878548  1.0
  Ga  Ga11  1  0.61560726  0.88439274  1.50000000  1.0
  Ga  Ga12  1  0.38439274  0.11560726  0.50000000  1.0
  Ga  Ga13  1  0.11560726  0.61560726  0.73121452  1.0
  Ga  Ga14  1  0.75000000  0.75000000  1.00000000  1.0
  Ga  Ga15  1  0.25000000  0.25000000  -0.00000000  1.0
