# generated using pymatgen
data_Gd5Bi3
_symmetry_space_group_name_H-M   'P 1'
_cell_length_a   12.13780520
_cell_length_b   9.72266880
_cell_length_c   8.38937872
_cell_angle_alpha   90.00000000
_cell_angle_beta   90.00000000
_cell_angle_gamma   90.00000000
_symmetry_Int_Tables_number   1
_chemical_formula_structural   Gd5Bi3
_chemical_formula_sum   'Gd20 Bi12'
_cell_volume   990.04618627
_cell_formula_units_Z   4
loop_
 _symmetry_equiv_pos_site_id
 _symmetry_equiv_pos_as_xyz
  1  'x, y, z'
loop_
 _atom_site_type_symbol
 _atom_site_label
 _atom_site_symmetry_multiplicity
 _atom_site_fract_x
 _atom_site_fract_y
 _atom_site_fract_z
 _atom_site_occupancy
  Gd  Gd0  1  0.70868724  0.25000000  0.33646992  1.0
  Gd  Gd1  1  0.20868724  0.25000000  0.16353008  1.0
  Gd  Gd2  1  0.29131276  0.75000000  0.66353008  1.0
  Gd  Gd3  1  0.79131276  0.75000000  0.83646992  1.0
  Gd  Gd4  1  0.93632942  0.44272086  0.19017815  1.0
  Gd  Gd5  1  0.93632942  0.05727914  0.19017815  1.0
  Gd  Gd6  1  0.43632942  0.44272086  0.30982185  1.0
  Gd  Gd7  1  0.43632942  0.05727914  0.30982185  1.0
  Gd  Gd8  1  0.06367058  0.94272086  0.80982185  1.0
  Gd  Gd9  1  0.06367058  0.55727914  0.80982185  1.0
  Gd  Gd10  1  0.56367058  0.94272086  0.69017815  1.0
  Gd  Gd11  1  0.56367058  0.55727914  0.69017815  1.0
  Gd  Gd12  1  0.99618801  0.25000000  0.52184784  1.0
  Gd  Gd13  1  0.49618801  0.25000000  0.97815216  1.0
  Gd  Gd14  1  0.00381199  0.75000000  0.47815216  1.0
  Gd  Gd15  1  0.50381199  0.75000000  0.02184784  1.0
  Gd  Gd16  1  0.76918291  0.25000000  0.82141592  1.0
  Gd  Gd17  1  0.26918291  0.25000000  0.67858408  1.0
  Gd  Gd18  1  0.23081709  0.75000000  0.17858408  1.0
  Gd  Gd19  1  0.73081709  0.75000000  0.32141592  1.0
  Bi  Bi20  1  0.67589456  0.49291563  0.06271165  1.0
  Bi  Bi21  1  0.67589456  0.00708437  0.06271165  1.0
  Bi  Bi22  1  0.17589456  0.49291563  0.43728835  1.0
  Bi  Bi23  1  0.17589456  0.00708437  0.43728835  1.0
  Bi  Bi24  1  0.32410544  0.99291563  0.93728835  1.0
  Bi  Bi25  1  0.32410544  0.50708437  0.93728835  1.0
  Bi  Bi26  1  0.82410544  0.99291563  0.56271165  1.0
  Bi  Bi27  1  0.82410544  0.50708437  0.56271165  1.0
  Bi  Bi28  1  0.52412863  0.25000000  0.59858654  1.0
  Bi  Bi29  1  0.02412863  0.25000000  0.90141346  1.0
  Bi  Bi30  1  0.47587137  0.75000000  0.40141346  1.0
  Bi  Bi31  1  0.97587137  0.75000000  0.09858654  1.0
