# generated using pymatgen
data_NaIrO3
_symmetry_space_group_name_H-M   'P 1'
_cell_length_a   5.43078265
_cell_length_b   5.43078265
_cell_length_c   7.22164078
_cell_angle_alpha   90.00000000
_cell_angle_beta   90.00000000
_cell_angle_gamma   146.80598517
_symmetry_Int_Tables_number   1
_chemical_formula_structural   NaIrO3
_chemical_formula_sum   'Na2 Ir2 O6'
_cell_volume   116.60727883
_cell_formula_units_Z   2
loop_
 _symmetry_equiv_pos_site_id
 _symmetry_equiv_pos_as_xyz
  1  'x, y, z'
loop_
 _atom_site_type_symbol
 _atom_site_label
 _atom_site_symmetry_multiplicity
 _atom_site_fract_x
 _atom_site_fract_y
 _atom_site_fract_z
 _atom_site_occupancy
  Na  Na0  1  -0.25207717  0.25207717  0.75000000  1.0
  Na  Na1  1  0.25207717  0.74792283  0.25000000  1.0
  Ir  Ir2  1  0.00000000  0.00000000  0.00000000  1.0
  Ir  Ir3  1  0.00000000  0.00000000  0.50000000  1.0
  O  O4  1  0.38687909  0.61312091  0.94319212  1.0
  O  O5  1  0.38687909  0.61312091  0.55680788  1.0
  O  O6  1  -0.38687909  0.38687909  0.44319212  1.0
  O  O7  1  -0.38687909  0.38687909  0.05680788  1.0
  O  O8  1  0.07138770  0.92861230  0.75000000  1.0
  O  O9  1  -0.07138770  0.07138770  0.25000000  1.0
