# generated using pymatgen
data_Ba3(PS4)2
_symmetry_space_group_name_H-M   'P 1'
_cell_length_a   6.72423571
_cell_length_b   6.72423571
_cell_length_c   8.76564698
_cell_angle_alpha   89.99888387
_cell_angle_beta   90.00111613
_cell_angle_gamma   120.06091940
_symmetry_Int_Tables_number   1
_chemical_formula_structural   Ba3(PS4)2
_chemical_formula_sum   'Ba3 P2 S8'
_cell_volume   343.03113465
_cell_formula_units_Z   1
loop_
 _symmetry_equiv_pos_site_id
 _symmetry_equiv_pos_as_xyz
  1  'x, y, z'
loop_
 _atom_site_type_symbol
 _atom_site_label
 _atom_site_symmetry_multiplicity
 _atom_site_fract_x
 _atom_site_fract_y
 _atom_site_fract_z
 _atom_site_occupancy
  Ba  Ba0  1  0.66671171  -0.66671171  0.63130159  1.0
  Ba  Ba1  1  0.33328829  -0.33328829  0.36869841  1.0
  Ba  Ba2  1  0.00000000  0.00000000  0.00000000  1.0
  P  P3  1  0.33351909  -0.33351909  0.78406532  1.0
  P  P4  1  0.66648091  -0.66648091  0.21593468  1.0
  S  S5  1  0.66011213  -0.16994475  0.69234350  1.0
  S  S6  1  1.16994475  0.33988787  0.69234350  1.0
  S  S7  1  0.83005525  -0.33988787  0.30765650  1.0
  S  S8  1  1.33988787  0.16994475  0.30765650  1.0
  S  S9  1  0.82977468  -0.82977468  0.30724406  1.0
  S  S10  1  0.17022532  -0.17022532  0.69275594  1.0
  S  S11  1  0.66618731  -0.66618731  0.98539669  1.0
  S  S12  1  0.33381269  -0.33381269  0.01460331  1.0
