# generated using pymatgen
data_Li4MnSn2Se7
_symmetry_space_group_name_H-M   'P 1'
_cell_length_a   9.92062931
_cell_length_b   9.92062931
_cell_length_c   10.86991432
_cell_angle_alpha   87.03307052
_cell_angle_beta   92.96692948
_cell_angle_gamma   136.72075724
_symmetry_Int_Tables_number   1
_chemical_formula_structural   Li4MnSn2Se7
_chemical_formula_sum   'Li8 Mn2 Sn4 Se14'
_cell_volume   732.27176267
_cell_formula_units_Z   2
loop_
 _symmetry_equiv_pos_site_id
 _symmetry_equiv_pos_as_xyz
  1  'x, y, z'
loop_
 _atom_site_type_symbol
 _atom_site_label
 _atom_site_symmetry_multiplicity
 _atom_site_fract_x
 _atom_site_fract_y
 _atom_site_fract_z
 _atom_site_occupancy
  Li  Li0  1  1.18092752  0.47143343  0.58807373  1.0
  Li  Li1  1  0.52856657  -0.18092752  0.08807373  1.0
  Li  Li2  1  0.22464942  0.08755150  0.66584573  1.0
  Li  Li3  1  0.91244850  0.77535058  0.16584573  1.0
  Li  Li4  1  1.30980905  0.32039150  0.30132958  1.0
  Li  Li5  1  0.67960850  -0.30980905  0.80132958  1.0
  Li  Li6  1  0.38543826  -0.03878280  0.38417178  1.0
  Li  Li7  1  1.03878280  0.61456175  0.88417178  1.0
  Mn  Mn8  1  0.63242549  0.06821564  0.74038008  1.0
  Mn  Mn9  1  0.93178436  0.36757451  0.24038008  1.0
  Sn  Sn10  1  0.81016230  0.52872869  0.52982261  1.0
  Sn  Sn11  1  0.47127131  0.18983770  0.02982261  1.0
  Sn  Sn12  1  0.77070216  -0.07633356  0.46201155  1.0
  Sn  Sn13  1  1.07633356  0.22929784  0.96201155  1.0
  Se  Se14  1  0.68994859  0.63135038  0.36472649  1.0
  Se  Se15  1  0.36864962  0.31005141  0.86472649  1.0
  Se  Se16  1  0.54873631  -0.21888553  0.64946363  1.0
  Se  Se17  1  1.21888553  0.45126369  0.14946363  1.0
  Se  Se18  1  0.64641794  0.00488830  0.29092234  1.0
  Se  Se19  1  0.99511170  0.35358206  0.79092234  1.0
  Se  Se20  1  0.94012656  0.72764791  0.72172419  1.0
  Se  Se21  1  0.27235209  0.05987344  0.22172419  1.0
  Se  Se22  1  1.07649328  0.58475272  0.42739137  1.0
  Se  Se23  1  0.41524728  -0.07649328  0.92739137  1.0
  Se  Se24  1  0.51307543  0.16189114  0.58212233  1.0
  Se  Se25  1  0.83810886  0.48692457  0.08212233  1.0
  Se  Se26  1  1.13555090  0.20711390  0.50368460  1.0
  Se  Se27  1  0.79288610  -0.13555090  0.00368460  1.0
