# generated using pymatgen
data_Ni10SbP3
_symmetry_space_group_name_H-M   'P 1'
_cell_length_a   7.68040007
_cell_length_b   7.68040007
_cell_length_c   9.69267493
_cell_angle_alpha   90.00000000
_cell_angle_beta   90.00000000
_cell_angle_gamma   120.00000000
_symmetry_Int_Tables_number   1
_chemical_formula_structural   Ni10SbP3
_chemical_formula_sum   'Ni30 Sb3 P9'
_cell_volume   495.15590857
_cell_formula_units_Z   3
loop_
 _symmetry_equiv_pos_site_id
 _symmetry_equiv_pos_as_xyz
  1  'x, y, z'
loop_
 _atom_site_type_symbol
 _atom_site_label
 _atom_site_symmetry_multiplicity
 _atom_site_fract_x
 _atom_site_fract_y
 _atom_site_fract_z
 _atom_site_occupancy
  Ni  Ni0  1  0.33333333  0.66666667  0.09685029  1.0
  Ni  Ni1  1  0.66666667  0.33333333  0.90314971  1.0
  Ni  Ni2  1  0.72906232  0.86453116  0.19746444  1.0
  Ni  Ni3  1  0.86453116  0.72906232  0.80253556  1.0
  Ni  Ni4  1  0.86453116  0.13546884  0.80253556  1.0
  Ni  Ni5  1  0.13546884  0.86453116  0.19746444  1.0
  Ni  Ni6  1  0.13546884  0.27093768  0.19746444  1.0
  Ni  Ni7  1  0.27093768  0.13546884  0.80253556  1.0
  Ni  Ni8  1  0.98398712  0.49199356  0.24087170  1.0
  Ni  Ni9  1  0.49199356  0.98398712  0.75912830  1.0
  Ni  Ni10  1  0.49199356  0.50800644  0.75912830  1.0
  Ni  Ni11  1  0.50800644  0.49199356  0.24087170  1.0
  Ni  Ni12  1  0.50800644  0.01601288  0.24087170  1.0
  Ni  Ni13  1  0.01601288  0.50800644  0.75912830  1.0
  Ni  Ni14  1  0.37881351  0.18940675  0.07277642  1.0
  Ni  Ni15  1  0.18940675  0.37881351  0.92722358  1.0
  Ni  Ni16  1  0.18940675  0.81059325  0.92722358  1.0
  Ni  Ni17  1  0.81059325  0.18940675  0.07277642  1.0
  Ni  Ni18  1  0.81059325  0.62118649  0.07277642  1.0
  Ni  Ni19  1  0.62118649  0.81059325  0.92722358  1.0
  Ni  Ni20  1  0.66310718  0.66310718  0.50000000  1.0
  Ni  Ni21  1  0.66310718  0.00000000  0.50000000  1.0
  Ni  Ni22  1  0.00000000  0.66310718  0.50000000  1.0
  Ni  Ni23  1  -0.00000000  0.33689282  0.50000000  1.0
  Ni  Ni24  1  0.33689282  0.33689282  0.50000000  1.0
  Ni  Ni25  1  0.33689282  0.00000000  0.50000000  1.0
  Ni  Ni26  1  0.33333333  0.66666667  0.61127645  1.0
  Ni  Ni27  1  0.66666667  0.33333333  0.38872355  1.0
  Ni  Ni28  1  0.00000000  0.00000000  0.38043086  1.0
  Ni  Ni29  1  0.00000000  0.00000000  0.61956914  1.0
  Sb  Sb30  1  0.33333333  0.66666667  0.35917371  1.0
  Sb  Sb31  1  0.66666667  0.33333333  0.64082629  1.0
  Sb  Sb32  1  0.00000000  0.00000000  0.00000000  1.0
  P  P33  1  0.32952383  0.16476192  0.30937772  1.0
  P  P34  1  0.16476192  0.32952383  0.69062228  1.0
  P  P35  1  0.16476192  0.83523808  0.69062228  1.0
  P  P36  1  0.83523808  0.16476192  0.30937772  1.0
  P  P37  1  0.83523808  0.67047617  0.30937772  1.0
  P  P38  1  0.67047617  0.83523808  0.69062228  1.0
  P  P39  1  0.50000000  0.50000000  0.00000000  1.0
  P  P40  1  0.50000000  0.00000000  0.00000000  1.0
  P  P41  1  0.00000000  0.50000000  0.00000000  1.0
