# generated using pymatgen
data_RbLaO2
_symmetry_space_group_name_H-M   'P 1'
_cell_length_a   6.95139587
_cell_length_b   6.95139587
_cell_length_c   6.95139587
_cell_angle_alpha   31.39865422
_cell_angle_beta   31.39865422
_cell_angle_gamma   31.39865422
_symmetry_Int_Tables_number   1
_chemical_formula_structural   RbLaO2
_chemical_formula_sum   'Rb1 La1 O2'
_cell_volume   80.93214022
_cell_formula_units_Z   1
loop_
 _symmetry_equiv_pos_site_id
 _symmetry_equiv_pos_as_xyz
  1  'x, y, z'
loop_
 _atom_site_type_symbol
 _atom_site_label
 _atom_site_symmetry_multiplicity
 _atom_site_fract_x
 _atom_site_fract_y
 _atom_site_fract_z
 _atom_site_occupancy
  Rb  Rb0  1  0.00000000  0.00000000  0.00000000  1.0
  La  La1  1  1.50000000  0.50000000  0.50000000  1.0
  O  O2  1  0.77299847  0.77299847  0.77299847  1.0
  O  O3  1  1.22700153  1.22700153  0.22700153  1.0
