# generated using pymatgen
data_Ba6Y2Ti4O17
_symmetry_space_group_name_H-M   'P 1'
_cell_length_a   5.98223523
_cell_length_b   5.98223523
_cell_length_c   29.90013303
_cell_angle_alpha   90.00000000
_cell_angle_beta   90.00000000
_cell_angle_gamma   120.00000000
_symmetry_Int_Tables_number   1
_chemical_formula_structural   Ba6Y2Ti4O17
_chemical_formula_sum   'Ba12 Y4 Ti8 O34'
_cell_volume   926.68199380
_cell_formula_units_Z   2
loop_
 _symmetry_equiv_pos_site_id
 _symmetry_equiv_pos_as_xyz
  1  'x, y, z'
loop_
 _atom_site_type_symbol
 _atom_site_label
 _atom_site_symmetry_multiplicity
 _atom_site_fract_x
 _atom_site_fract_y
 _atom_site_fract_z
 _atom_site_occupancy
  Ba  Ba0  1  0.33333333  0.66666667  0.31530918  1.0
  Ba  Ba1  1  0.33333333  0.66666667  0.18469082  1.0
  Ba  Ba2  1  0.66666667  0.33333333  0.81530918  1.0
  Ba  Ba3  1  0.66666667  0.33333333  0.68469082  1.0
  Ba  Ba4  1  0.33333333  0.66666667  0.91052801  1.0
  Ba  Ba5  1  0.33333333  0.66666667  0.58947199  1.0
  Ba  Ba6  1  0.66666667  0.33333333  0.41052801  1.0
  Ba  Ba7  1  0.66666667  0.33333333  0.08947199  1.0
  Ba  Ba8  1  0.00000000  0.00000000  0.25000000  1.0
  Ba  Ba9  1  0.00000000  0.00000000  0.75000000  1.0
  Ba  Ba10  1  0.00000000  0.00000000  0.50000000  1.0
  Ba  Ba11  1  0.00000000  0.00000000  0.00000000  1.0
  Y  Y12  1  0.00000000  0.00000000  0.37318983  1.0
  Y  Y13  1  0.00000000  0.00000000  0.12681017  1.0
  Y  Y14  1  0.00000000  0.00000000  0.87318983  1.0
  Y  Y15  1  0.00000000  0.00000000  0.62681017  1.0
  Ti  Ti16  1  0.33333333  0.66666667  0.44530395  1.0
  Ti  Ti17  1  0.33333333  0.66666667  0.05469605  1.0
  Ti  Ti18  1  0.66666667  0.33333333  0.94530395  1.0
  Ti  Ti19  1  0.66666667  0.33333333  0.55469605  1.0
  Ti  Ti20  1  0.33333333  0.66666667  0.79628934  1.0
  Ti  Ti21  1  0.33333333  0.66666667  0.70371066  1.0
  Ti  Ti22  1  0.66666667  0.33333333  0.29628934  1.0
  Ti  Ti23  1  0.66666667  0.33333333  0.20371066  1.0
  O  O24  1  0.16808210  0.83191790  0.42260492  1.0
  O  O25  1  0.16808210  0.83191790  0.07739508  1.0
  O  O26  1  0.16808210  0.33616419  0.42260492  1.0
  O  O27  1  0.16808210  0.33616419  0.07739508  1.0
  O  O28  1  0.83191790  0.16808210  0.92260492  1.0
  O  O29  1  0.83191790  0.16808210  0.57739508  1.0
  O  O30  1  0.83191790  0.66383581  0.92260492  1.0
  O  O31  1  0.83191790  0.66383581  0.57739508  1.0
  O  O32  1  0.66383581  0.83191790  0.42260492  1.0
  O  O33  1  0.66383581  0.83191790  0.07739508  1.0
  O  O34  1  0.33616419  0.16808210  0.92260492  1.0
  O  O35  1  0.33616419  0.16808210  0.57739508  1.0
  O  O36  1  0.17563462  0.82436538  0.83035589  1.0
  O  O37  1  0.17563462  0.82436538  0.66964411  1.0
  O  O38  1  0.17563462  0.35126923  0.83035589  1.0
  O  O39  1  0.17563462  0.35126923  0.66964411  1.0
  O  O40  1  0.82436538  0.17563462  0.33035589  1.0
  O  O41  1  0.82436538  0.17563462  0.16964411  1.0
  O  O42  1  0.82436538  0.64873077  0.33035589  1.0
  O  O43  1  0.82436538  0.64873077  0.16964411  1.0
  O  O44  1  0.64873077  0.82436538  0.83035589  1.0
  O  O45  1  0.64873077  0.82436538  0.66964411  1.0
  O  O46  1  0.35126923  0.17563462  0.33035589  1.0
  O  O47  1  0.35126923  0.17563462  0.16964411  1.0
  O  O48  1  0.51818794  0.48181206  0.25000000  1.0
  O  O49  1  0.51818794  0.03637589  0.25000000  1.0
  O  O50  1  0.48181206  0.51818794  0.75000000  1.0
  O  O51  1  0.48181206  0.96362411  0.75000000  1.0
  O  O52  1  0.96362411  0.48181206  0.25000000  1.0
  O  O53  1  0.03637589  0.51818794  0.75000000  1.0
  O  O54  1  0.33333333  0.66666667  0.99550005  1.0
  O  O55  1  0.33333333  0.66666667  0.50449995  1.0
  O  O56  1  0.66666667  0.33333333  0.49550005  1.0
  O  O57  1  0.66666667  0.33333333  0.00449995  1.0
