# generated using pymatgen
data_SrMn(GeO3)2
_symmetry_space_group_name_H-M   'P 1'
_cell_length_a   7.08221893
_cell_length_b   7.08221893
_cell_length_c   5.58922785
_cell_angle_alpha   78.82268581
_cell_angle_beta   101.17731419
_cell_angle_gamma   95.84829029
_symmetry_Int_Tables_number   1
_chemical_formula_structural   SrMn(GeO3)2
_chemical_formula_sum   'Sr2 Mn2 Ge4 O12'
_cell_volume   269.20606861
_cell_formula_units_Z   2
loop_
 _symmetry_equiv_pos_site_id
 _symmetry_equiv_pos_as_xyz
  1  'x, y, z'
loop_
 _atom_site_type_symbol
 _atom_site_label
 _atom_site_symmetry_multiplicity
 _atom_site_fract_x
 _atom_site_fract_y
 _atom_site_fract_z
 _atom_site_occupancy
  Sr  Sr0  1  0.80825152  0.80825152  0.75000000  1.0
  Sr  Sr1  1  0.19174848  0.19174848  0.25000000  1.0
  Mn  Mn2  1  0.40458262  0.40458262  0.75000000  1.0
  Mn  Mn3  1  0.59541738  0.59541738  0.25000000  1.0
  Ge  Ge4  1  1.31414720  -0.12249430  0.78404790  1.0
  Ge  Ge5  1  1.12249430  -0.31414720  0.28404790  1.0
  Ge  Ge6  1  0.87750570  0.31414720  0.71595210  1.0
  Ge  Ge7  1  0.68585280  0.12249430  0.21595210  1.0
  O  O8  1  0.83178468  0.12356569  0.98033328  1.0
  O  O9  1  0.87643431  0.16821532  0.48033328  1.0
  O  O10  1  1.12356569  -0.16821532  0.51966672  1.0
  O  O11  1  1.16821532  -0.12356569  0.01966672  1.0
  O  O12  1  1.47766039  -0.30377068  0.86575321  1.0
  O  O13  1  1.30377068  -0.47766039  0.36575321  1.0
  O  O14  1  0.69622932  0.47766039  0.63424679  1.0
  O  O15  1  0.52233961  0.30377068  0.13424679  1.0
  O  O16  1  0.39483319  0.11445163  0.68192083  1.0
  O  O17  1  0.88554837  0.60516681  0.18192083  1.0
  O  O18  1  1.11445163  -0.60516681  0.81807917  1.0
  O  O19  1  1.60516681  -0.11445163  0.31807917  1.0
