# generated using pymatgen
data_Te(NO3)2
_symmetry_space_group_name_H-M   'P 1'
_cell_length_a   4.43564229
_cell_length_b   4.43564229
_cell_length_c   7.49459986
_cell_angle_alpha   88.93802199
_cell_angle_beta   91.06197801
_cell_angle_gamma   92.63377150
_symmetry_Int_Tables_number   1
_chemical_formula_structural   Te(NO3)2
_chemical_formula_sum   'Te1 N2 O6'
_cell_volume   147.25152408
_cell_formula_units_Z   1
loop_
 _symmetry_equiv_pos_site_id
 _symmetry_equiv_pos_as_xyz
  1  'x, y, z'
loop_
 _atom_site_type_symbol
 _atom_site_label
 _atom_site_symmetry_multiplicity
 _atom_site_fract_x
 _atom_site_fract_y
 _atom_site_fract_z
 _atom_site_occupancy
  O  O0  1  0.31741497  0.11671200  0.83535445  1.0
  O  O1  1  0.88328800  0.68258503  0.83535445  1.0
  O  O2  1  1.11671200  -0.68258503  0.16464555  1.0
  O  O3  1  1.68258503  -0.11671200  0.16464555  1.0
  O  O4  1  0.75859956  0.24140044  0.44501722  1.0
  O  O5  1  1.24140044  -0.24140044  0.55498278  1.0
  N  N6  1  0.71817163  0.28182837  0.29706599  1.0
  N  N7  1  1.28182837  -0.28182837  0.70293401  1.0
  Te  Te8  1  0.00000000  0.00000000  0.00000000  1.0
