# generated using pymatgen
data_BaCuCO3F2
_symmetry_space_group_name_H-M   'P 1'
_cell_length_a   4.97262508
_cell_length_b   8.61192638
_cell_length_c   9.78653033
_cell_angle_alpha   90.00000000
_cell_angle_beta   90.00000000
_cell_angle_gamma   90.00000000
_symmetry_Int_Tables_number   1
_chemical_formula_structural   BaCuCO3F2
_chemical_formula_sum   'Ba4 Cu4 C4 O12 F8'
_cell_volume   419.09721109
_cell_formula_units_Z   4
loop_
 _symmetry_equiv_pos_site_id
 _symmetry_equiv_pos_as_xyz
  1  'x, y, z'
loop_
 _atom_site_type_symbol
 _atom_site_label
 _atom_site_symmetry_multiplicity
 _atom_site_fract_x
 _atom_site_fract_y
 _atom_site_fract_z
 _atom_site_occupancy
  Ba  Ba0  1  0.22441175  0.75000000  0.00000000  1.0
  Ba  Ba1  1  0.22441175  0.75000000  0.50000000  1.0
  Ba  Ba2  1  0.77558825  0.25000000  0.00000000  1.0
  Ba  Ba3  1  0.77558825  0.25000000  0.50000000  1.0
  Cu  Cu4  1  0.74381898  0.91277970  0.75000000  1.0
  Cu  Cu5  1  0.74381898  0.58722030  0.25000000  1.0
  Cu  Cu6  1  0.25618102  0.41277970  0.75000000  1.0
  Cu  Cu7  1  0.25618102  0.08722030  0.25000000  1.0
  C  C8  1  0.70757561  0.58337983  0.75000000  1.0
  C  C9  1  0.70757561  0.91662017  0.25000000  1.0
  C  C10  1  0.29242439  0.08337983  0.75000000  1.0
  C  C11  1  0.29242439  0.41662017  0.25000000  1.0
  O  O12  1  0.87968573  0.69646421  0.75000000  1.0
  O  O13  1  0.87968573  0.80353579  0.25000000  1.0
  O  O14  1  0.12031427  0.19646421  0.75000000  1.0
  O  O15  1  0.12031427  0.30353579  0.25000000  1.0
  O  O16  1  0.78749685  0.44269048  0.75000000  1.0
  O  O17  1  0.78749685  0.05730952  0.25000000  1.0
  O  O18  1  0.21250315  0.94269048  0.75000000  1.0
  O  O19  1  0.21250315  0.55730952  0.25000000  1.0
  O  O20  1  0.45041398  0.61560689  0.75000000  1.0
  O  O21  1  0.45041398  0.88439311  0.25000000  1.0
  O  O22  1  0.54958602  0.11560689  0.75000000  1.0
  O  O23  1  0.54958602  0.38439311  0.25000000  1.0
  F  F24  1  0.74186006  0.91474097  0.94957793  1.0
  F  F25  1  0.74186006  0.91474097  0.55042207  1.0
  F  F26  1  0.74186006  0.58525903  0.44957793  1.0
  F  F27  1  0.74186006  0.58525903  0.05042207  1.0
  F  F28  1  0.25813994  0.41474097  0.94957793  1.0
  F  F29  1  0.25813994  0.41474097  0.55042207  1.0
  F  F30  1  0.25813994  0.08525903  0.44957793  1.0
  F  F31  1  0.25813994  0.08525903  0.05042207  1.0
