# generated using pymatgen
data_Cs4Mn2PdF12
_symmetry_space_group_name_H-M   'P 1'
_cell_length_a   11.63318529
_cell_length_b   11.63318529
_cell_length_c   11.63318529
_cell_angle_alpha   135.90686474
_cell_angle_beta   135.90686474
_cell_angle_gamma   64.12435668
_symmetry_Int_Tables_number   1
_chemical_formula_structural   Cs4Mn2PdF12
_chemical_formula_sum   'Cs8 Mn4 Pd2 F24'
_cell_volume   751.93039322
_cell_formula_units_Z   2
loop_
 _symmetry_equiv_pos_site_id
 _symmetry_equiv_pos_as_xyz
  1  'x, y, z'
loop_
 _atom_site_type_symbol
 _atom_site_label
 _atom_site_symmetry_multiplicity
 _atom_site_fract_x
 _atom_site_fract_y
 _atom_site_fract_z
 _atom_site_occupancy
  Cs  Cs0  1  1.63150702  1.12500000  1.00650702  1.0
  Cs  Cs1  1  1.11849298  1.12500000  0.49349298  1.0
  Cs  Cs2  1  0.87500000  0.88150702  0.50650702  1.0
  Cs  Cs3  1  1.37500000  0.88150702  1.00650702  1.0
  Cs  Cs4  1  1.63150702  1.62500000  1.50650702  1.0
  Cs  Cs5  1  1.11849298  1.62500000  0.99349298  1.0
  Cs  Cs6  1  0.87500000  1.36849298  0.99349298  1.0
  Cs  Cs7  1  1.37500000  1.36849298  1.49349298  1.0
  Mn  Mn8  1  1.25070187  1.25070187  1.00000000  1.0
  Mn  Mn9  1  0.00070187  0.50070187  0.50000000  1.0
  Mn  Mn10  1  1.49929813  0.99929813  0.50000000  1.0
  Mn  Mn11  1  0.74929813  0.74929813  -0.00000000  1.0
  Pd  Pd12  1  1.25000000  0.75000000  0.50000000  1.0
  Pd  Pd13  1  0.50000000  0.50000000  1.00000000  1.0
  F  F14  1  1.25015734  0.98315872  0.73300137  1.0
  F  F15  1  0.73315872  0.50015734  1.23300137  1.0
  F  F16  1  0.26715597  0.50015734  0.76699863  1.0
  F  F17  1  1.25015734  1.51715597  1.26699863  1.0
  F  F18  1  1.49984266  1.26684128  0.76699863  1.0
  F  F19  1  1.01684128  0.74984266  0.26699863  1.0
  F  F20  1  1.48284403  0.74984266  0.73300137  1.0
  F  F21  1  1.49984266  1.73284403  1.23300137  1.0
  F  F22  1  0.74935931  0.95938588  0.21002658  1.0
  F  F23  1  1.70938588  0.99935931  0.71002658  1.0
  F  F24  1  1.28933273  0.99935931  0.28997342  1.0
  F  F25  1  0.74935931  1.53933273  0.78997342  1.0
  F  F26  1  0.00064069  0.29061412  0.28997342  1.0
  F  F27  1  1.04061412  1.25064069  0.78997342  1.0
  F  F28  1  1.46066727  1.25064069  1.21002658  1.0
  F  F29  1  0.00064069  0.71066727  0.71002658  1.0
  F  F30  1  1.34461546  1.34461546  1.00000000  1.0
  F  F31  1  0.09461546  0.59461546  0.50000000  1.0
  F  F32  1  1.40538454  0.90538454  0.50000000  1.0
  F  F33  1  0.65538454  0.65538454  0.00000000  1.0
  F  F34  1  1.15644507  1.15644507  1.00000000  1.0
  F  F35  1  0.90644507  1.40644507  0.50000000  1.0
  F  F36  1  0.59355493  0.09355493  0.50000000  1.0
  F  F37  1  0.84355493  0.84355493  -0.00000000  1.0
