# generated using pymatgen
data_Na3V(SO4)3
_symmetry_space_group_name_H-M   'P 1'
_cell_length_a   8.47766079
_cell_length_b   8.47766079
_cell_length_c   8.47766079
_cell_angle_alpha   107.58806835
_cell_angle_beta   107.58806835
_cell_angle_gamma   107.58806835
_symmetry_Int_Tables_number   1
_chemical_formula_structural   Na3V(SO4)3
_chemical_formula_sum   'Na6 V2 S6 O24'
_cell_volume   499.06349934
_cell_formula_units_Z   2
loop_
 _symmetry_equiv_pos_site_id
 _symmetry_equiv_pos_as_xyz
  1  'x, y, z'
loop_
 _atom_site_type_symbol
 _atom_site_label
 _atom_site_symmetry_multiplicity
 _atom_site_fract_x
 _atom_site_fract_y
 _atom_site_fract_z
 _atom_site_occupancy
  Na  Na0  1  0.73204428  0.88260653  0.35451333  1.0
  Na  Na1  1  1.11739347  -0.35451333  0.26795572  1.0
  Na  Na2  1  0.64548667  0.26795572  0.11739347  1.0
  Na  Na3  1  1.26795572  0.11739347  -0.35451333  1.0
  Na  Na4  1  0.88260653  1.35451333  -0.26795572  1.0
  Na  Na5  1  1.35451333  0.73204428  -0.11739347  1.0
  V  V6  1  0.50000000  0.50000000  0.50000000  1.0
  V  V7  1  0.00000000  0.00000000  0.00000000  1.0
  S  S8  1  1.73609368  0.59955269  -0.05413126  1.0
  S  S9  1  0.40044731  1.05413126  -0.73609368  1.0
  S  S10  1  1.05413126  0.26390632  -0.59955269  1.0
  S  S11  1  0.26390632  0.40044731  0.05413126  1.0
  S  S12  1  1.59955269  -0.05413126  0.73609368  1.0
  S  S13  1  0.94586874  0.73609368  0.59955269  1.0
  O  O14  1  1.48698903  0.73876472  -0.37017683  1.0
  O  O15  1  1.26123528  0.37017683  -0.48698903  1.0
  O  O16  1  1.37017683  -0.48698903  0.26123528  1.0
  O  O17  1  0.51301097  0.26123528  0.37017683  1.0
  O  O18  1  0.73876472  0.62982317  0.48698903  1.0
  O  O19  1  0.62982317  1.48698903  -0.26123528  1.0
  O  O20  1  1.74777549  0.98095571  -0.08549412  1.0
  O  O21  1  1.01904429  0.08549412  -0.74777549  1.0
  O  O22  1  1.08549412  -0.74777549  0.01904429  1.0
  O  O23  1  0.25222451  0.01904429  0.08549412  1.0
  O  O24  1  0.98095571  0.91450588  0.74777549  1.0
  O  O25  1  0.91450588  1.74777549  -0.01904429  1.0
  O  O26  1  0.63087879  0.67873575  0.02533084  1.0
  O  O27  1  1.32126425  -0.02533084  0.36912121  1.0
  O  O28  1  0.97466916  0.36912121  0.32126425  1.0
  O  O29  1  1.36912121  0.32126425  -0.02533084  1.0
  O  O30  1  0.67873575  1.02533084  -0.36912121  1.0
  O  O31  1  1.02533084  0.63087879  -0.32126425  1.0
  O  O32  1  0.47805220  1.02099344  -0.20836480  1.0
  O  O33  1  0.97900656  0.20836480  0.52194780  1.0
  O  O34  1  1.20836480  0.52194780  -0.02099344  1.0
  O  O35  1  1.52194780  -0.02099344  0.20836480  1.0
  O  O36  1  1.02099344  0.79163520  -0.52194780  1.0
  O  O37  1  0.79163520  0.47805220  0.02099344  1.0
