# generated using pymatgen
data_SiO2
_symmetry_space_group_name_H-M   'P 1'
_cell_length_a   9.35892635
_cell_length_b   9.35892635
_cell_length_c   9.35892635
_cell_angle_alpha   94.22865238
_cell_angle_beta   94.22865238
_cell_angle_gamma   94.22865238
_symmetry_Int_Tables_number   1
_chemical_formula_structural   SiO2
_chemical_formula_sum   'Si12 O24'
_cell_volume   812.69920089
_cell_formula_units_Z   12
loop_
 _symmetry_equiv_pos_site_id
 _symmetry_equiv_pos_as_xyz
  1  'x, y, z'
loop_
 _atom_site_type_symbol
 _atom_site_label
 _atom_site_symmetry_multiplicity
 _atom_site_fract_x
 _atom_site_fract_y
 _atom_site_fract_z
 _atom_site_occupancy
  Si  Si0  1  0.66718522  0.89566754  0.12450411  1.0
  Si  Si1  1  0.66718522  1.12450411  -0.10433246  1.0
  Si  Si2  1  0.87549589  0.10433246  0.33281478  1.0
  Si  Si3  1  0.87549589  0.33281478  0.10433246  1.0
  Si  Si4  1  1.10433246  -0.12450411  0.33281478  1.0
  Si  Si5  1  1.10433246  0.33281478  -0.12450411  1.0
  Si  Si6  1  1.33281478  0.10433246  -0.12450411  1.0
  Si  Si7  1  1.33281478  -0.12450411  0.10433246  1.0
  Si  Si8  1  1.12450411  0.66718522  -0.10433246  1.0
  Si  Si9  1  1.12450411  0.89566754  -0.33281478  1.0
  Si  Si10  1  0.89566754  0.66718522  0.12450411  1.0
  Si  Si11  1  0.89566754  1.12450411  -0.33281478  1.0
  O  O12  1  1.25089854  0.25089854  -0.10969926  1.0
  O  O13  1  1.25089854  -0.10969926  0.25089854  1.0
  O  O14  1  1.10969926  0.74910146  -0.25089854  1.0
  O  O15  1  0.74910146  1.10969926  -0.25089854  1.0
  O  O16  1  0.74910146  0.74910146  0.10969926  1.0
  O  O17  1  0.89030074  0.25089854  0.25089854  1.0
  O  O18  1  1.02244457  0.02244457  -0.68114502  1.0
  O  O19  1  1.02244457  -0.68114502  0.02244457  1.0
  O  O20  1  1.68114502  0.97755543  -0.02244457  1.0
  O  O21  1  0.97755543  1.68114502  -0.02244457  1.0
  O  O22  1  0.97755543  0.97755543  0.68114502  1.0
  O  O23  1  0.31885498  0.02244457  0.02244457  1.0
  O  O24  1  1.14780106  0.50000000  -0.14780106  1.0
  O  O25  1  1.14780106  -0.14780106  0.50000000  1.0
  O  O26  1  0.50000000  1.14780106  -0.14780106  1.0
  O  O27  1  0.50000000  0.85219894  0.14780106  1.0
  O  O28  1  0.85219894  0.50000000  0.14780106  1.0
  O  O29  1  0.85219894  0.14780106  0.50000000  1.0
  O  O30  1  0.73676553  -0.00000000  0.26323447  1.0
  O  O31  1  0.73676553  0.26323447  -0.00000000  1.0
  O  O32  1  1.00000000  -0.26323447  0.26323447  1.0
  O  O33  1  1.00000000  0.26323447  -0.26323447  1.0
  O  O34  1  1.26323447  -0.00000000  -0.26323447  1.0
  O  O35  1  1.26323447  -0.26323447  -0.00000000  1.0
