# generated using pymatgen
data_Mn2BO4
_symmetry_space_group_name_H-M   'P 1'
_cell_length_a   3.30168468
_cell_length_b   9.50141856
_cell_length_c   9.89264018
_cell_angle_alpha   90.00000000
_cell_angle_beta   109.02742677
_cell_angle_gamma   90.00000000
_symmetry_Int_Tables_number   1
_chemical_formula_structural   Mn2BO4
_chemical_formula_sum   'Mn8 B4 O16'
_cell_volume   293.38282427
_cell_formula_units_Z   4
loop_
 _symmetry_equiv_pos_site_id
 _symmetry_equiv_pos_as_xyz
  1  'x, y, z'
loop_
 _atom_site_type_symbol
 _atom_site_label
 _atom_site_symmetry_multiplicity
 _atom_site_fract_x
 _atom_site_fract_y
 _atom_site_fract_z
 _atom_site_occupancy
  Mn  Mn0  1  0.08561536  0.90244518  0.31576870  1.0
  Mn  Mn1  1  0.08561536  0.59755482  0.81576870  1.0
  Mn  Mn2  1  0.91438464  0.09755482  0.68423130  1.0
  Mn  Mn3  1  0.91438464  0.40244518  0.18423130  1.0
  Mn  Mn4  1  0.70444410  0.61695810  0.43352648  1.0
  Mn  Mn5  1  0.70444410  0.88304190  0.93352648  1.0
  Mn  Mn6  1  0.29555590  0.38304190  0.56647352  1.0
  Mn  Mn7  1  0.29555590  0.11695810  0.06647352  1.0
  B  B8  1  0.43890518  0.83269239  0.62903806  1.0
  B  B9  1  0.43890518  0.66730761  0.12903806  1.0
  B  B10  1  0.56109482  0.16730761  0.37096194  1.0
  B  B11  1  0.56109482  0.33269239  0.87096194  1.0
  O  O12  1  0.35356139  0.76412980  0.49833210  1.0
  O  O13  1  0.35356139  0.73587020  -0.00166790  1.0
  O  O14  1  0.64643861  0.23587020  0.50166790  1.0
  O  O15  1  0.64643861  0.26412980  1.00166790  1.0
  O  O16  1  0.62967371  0.02538830  0.36826517  1.0
  O  O17  1  0.62967371  0.47461170  0.86826517  1.0
  O  O18  1  0.37032629  0.97461170  0.63173483  1.0
  O  O19  1  0.37032629  0.52538830  0.13173483  1.0
  O  O20  1  0.89984122  0.51619066  0.61353003  1.0
  O  O21  1  0.89984122  0.98380934  0.11353003  1.0
  O  O22  1  0.10015878  0.48380934  0.38646997  1.0
  O  O23  1  0.10015878  0.01619066  0.88646997  1.0
  O  O24  1  0.59035657  0.74050751  0.25803077  1.0
  O  O25  1  0.59035657  0.75949249  0.75803077  1.0
  O  O26  1  0.40964343  0.25949249  0.74196923  1.0
  O  O27  1  0.40964343  0.24050751  0.24196923  1.0
