# generated using pymatgen
data_Hf3(VGa3)2
_symmetry_space_group_name_H-M   'P 1'
_cell_length_a   5.38861395
_cell_length_b   8.84740130
_cell_length_c   7.77699438
_cell_angle_alpha   90.00000000
_cell_angle_beta   90.00000000
_cell_angle_gamma   90.00000000
_symmetry_Int_Tables_number   1
_chemical_formula_structural   Hf3(VGa3)2
_chemical_formula_sum   'Hf6 V4 Ga12'
_cell_volume   370.76999633
_cell_formula_units_Z   2
loop_
 _symmetry_equiv_pos_site_id
 _symmetry_equiv_pos_as_xyz
  1  'x, y, z'
loop_
 _atom_site_type_symbol
 _atom_site_label
 _atom_site_symmetry_multiplicity
 _atom_site_fract_x
 _atom_site_fract_y
 _atom_site_fract_z
 _atom_site_occupancy
  Hf  Hf0  1  0.50000000  0.77847228  0.15496457  1.0
  Hf  Hf1  1  0.50000000  0.22152772  0.15496457  1.0
  Hf  Hf2  1  0.00000000  0.72152772  0.84503543  1.0
  Hf  Hf3  1  0.00000000  0.27847228  0.84503543  1.0
  Hf  Hf4  1  0.50000000  0.50000000  0.71563285  1.0
  Hf  Hf5  1  0.00000000  0.00000000  0.28436715  1.0
  V  V6  1  0.25000000  0.25000000  0.50000000  1.0
  V  V7  1  0.25000000  0.75000000  0.50000000  1.0
  V  V8  1  0.75000000  0.25000000  0.50000000  1.0
  V  V9  1  0.75000000  0.75000000  0.50000000  1.0
  Ga  Ga10  1  0.50000000  0.18899329  0.77155279  1.0
  Ga  Ga11  1  0.50000000  0.81100671  0.77155279  1.0
  Ga  Ga12  1  0.00000000  0.31100671  0.22844721  1.0
  Ga  Ga13  1  0.00000000  0.68899329  0.22844721  1.0
  Ga  Ga14  1  0.50000000  0.50000000  0.36477755  1.0
  Ga  Ga15  1  0.00000000  0.00000000  0.63522245  1.0
  Ga  Ga16  1  0.00000000  0.50000000  0.56305298  1.0
  Ga  Ga17  1  0.50000000  0.00000000  0.43694702  1.0
  Ga  Ga18  1  0.25927573  0.50000000  0.03725958  1.0
  Ga  Ga19  1  0.74072427  0.50000000  0.03725958  1.0
  Ga  Ga20  1  0.24072427  0.00000000  0.96274042  1.0
  Ga  Ga21  1  0.75927573  0.00000000  0.96274042  1.0
