# generated using pymatgen
data_Ba(InTe2)2
_symmetry_space_group_name_H-M   'P 1'
_cell_length_a   7.13619208
_cell_length_b   7.13619208
_cell_length_c   12.42454438
_cell_angle_alpha   90.00000000
_cell_angle_beta   90.00000000
_cell_angle_gamma   118.97911718
_symmetry_Int_Tables_number   1
_chemical_formula_structural   Ba(InTe2)2
_chemical_formula_sum   'Ba2 In4 Te8'
_cell_volume   553.50365913
_cell_formula_units_Z   2
loop_
 _symmetry_equiv_pos_site_id
 _symmetry_equiv_pos_as_xyz
  1  'x, y, z'
loop_
 _atom_site_type_symbol
 _atom_site_label
 _atom_site_symmetry_multiplicity
 _atom_site_fract_x
 _atom_site_fract_y
 _atom_site_fract_z
 _atom_site_occupancy
  Ba  Ba0  1  0.00000000  0.00000000  0.75000000  1.0
  Ba  Ba1  1  0.00000000  0.00000000  0.25000000  1.0
  In  In2  1  -0.26570786  1.26169420  0.00000000  1.0
  In  In3  1  0.26169420  0.73429214  0.50000000  1.0
  In  In4  1  -0.26169420  1.26570786  0.50000000  1.0
  In  In5  1  0.26570786  0.73830580  0.00000000  1.0
  Te  Te6  1  -0.15481941  1.69995885  0.00000000  1.0
  Te  Te7  1  0.69995885  0.84518059  0.50000000  1.0
  Te  Te8  1  -0.69995885  1.15481941  0.50000000  1.0
  Te  Te9  1  0.15481941  0.30004115  0.00000000  1.0
  Te  Te10  1  -0.00000000  1.50000000  0.67771539  1.0
  Te  Te11  1  -0.00000000  1.50000000  0.32228461  1.0
  Te  Te12  1  0.50000000  1.00000000  0.17771539  1.0
  Te  Te13  1  0.50000000  1.00000000  0.82228461  1.0
