# generated using pymatgen
data_InAg3(PO4)2
_symmetry_space_group_name_H-M   'P 1'
_cell_length_a   5.22932265
_cell_length_b   5.22932265
_cell_length_c   7.62522170
_cell_angle_alpha   85.44975374
_cell_angle_beta   94.55024626
_cell_angle_gamma   115.75642448
_symmetry_Int_Tables_number   1
_chemical_formula_structural   InAg3(PO4)2
_chemical_formula_sum   'In1 Ag3 P2 O8'
_cell_volume   186.97579505
_cell_formula_units_Z   1
loop_
 _symmetry_equiv_pos_site_id
 _symmetry_equiv_pos_as_xyz
  1  'x, y, z'
loop_
 _atom_site_type_symbol
 _atom_site_label
 _atom_site_symmetry_multiplicity
 _atom_site_fract_x
 _atom_site_fract_y
 _atom_site_fract_z
 _atom_site_occupancy
  In  In0  1  0.00000000  -0.00000000  0.50000000  1.0
  Ag  Ag1  1  0.36598406  -0.36598406  0.85985994  1.0
  Ag  Ag2  1  0.63401594  -0.63401594  0.14014006  1.0
  Ag  Ag3  1  0.00000000  0.00000000  0.00000000  1.0
  P  P4  1  0.66557773  -0.66557773  0.70908845  1.0
  P  P5  1  0.33442227  -0.33442227  0.29091155  1.0
  O  O6  1  1.33159878  0.21472730  0.70230174  1.0
  O  O7  1  0.78527270  -0.33159878  0.70230174  1.0
  O  O8  1  1.21472730  0.33159878  0.29769826  1.0
  O  O9  1  0.66840122  -0.21472730  0.29769826  1.0
  O  O10  1  0.76805594  -0.76805594  0.55828772  1.0
  O  O11  1  0.23194406  -0.23194406  0.44171228  1.0
  O  O12  1  0.75904001  -0.75904001  0.89440893  1.0
  O  O13  1  0.24095999  -0.24095999  0.10559107  1.0
