# generated using pymatgen
data_CaV4(CoO4)3
_symmetry_space_group_name_H-M   'P 1'
_cell_length_a   6.32440229
_cell_length_b   6.32440229
_cell_length_c   6.32440229
_cell_angle_alpha   109.47122063
_cell_angle_beta   109.47122063
_cell_angle_gamma   109.47122063
_symmetry_Int_Tables_number   1
_chemical_formula_structural   CaV4(CoO4)3
_chemical_formula_sum   'Ca1 V4 Co3 O12'
_cell_volume   194.73166211
_cell_formula_units_Z   1
loop_
 _symmetry_equiv_pos_site_id
 _symmetry_equiv_pos_as_xyz
  1  'x, y, z'
loop_
 _atom_site_type_symbol
 _atom_site_label
 _atom_site_symmetry_multiplicity
 _atom_site_fract_x
 _atom_site_fract_y
 _atom_site_fract_z
 _atom_site_occupancy
  Ca  Ca0  1  0.00000000  0.00000000  0.00000000  1.0
  V  V1  1  0.50000000  1.00000000  1.00000000  1.0
  V  V2  1  0.50000000  0.50000000  0.50000000  1.0
  V  V3  1  1.00000000  1.00000000  0.50000000  1.0
  V  V4  1  1.00000000  0.50000000  1.00000000  1.0
  Co  Co5  1  0.50000000  0.50000000  0.00000000  1.0
  Co  Co6  1  -0.00000000  0.50000000  0.50000000  1.0
  Co  Co7  1  0.50000000  0.00000000  0.50000000  1.0
  O  O8  1  0.82062212  1.30707400  1.12769612  1.0
  O  O9  1  0.82062212  0.69292600  0.51354812  1.0
  O  O10  1  0.17937788  0.30707400  0.48645188  1.0
  O  O11  1  0.17937788  0.69292600  0.87230388  1.0
  O  O12  1  0.51354812  0.82062212  0.69292600  1.0
  O  O13  1  1.12769612  0.82062212  1.30707400  1.0
  O  O14  1  0.69292600  0.87230388  0.17937788  1.0
  O  O15  1  0.69292600  0.51354812  0.82062212  1.0
  O  O16  1  0.87230388  0.17937788  0.69292600  1.0
  O  O17  1  0.48645188  0.17937788  0.30707400  1.0
  O  O18  1  0.30707400  0.48645188  0.17937788  1.0
  O  O19  1  1.30707400  1.12769612  0.82062212  1.0
