# generated using pymatgen
data_MgB4Os3
_symmetry_space_group_name_H-M   'P 1'
_cell_length_a   6.12304908
_cell_length_b   6.12304908
_cell_length_c   9.79066408
_cell_angle_alpha   90.00000000
_cell_angle_beta   90.00000000
_cell_angle_gamma   152.42032823
_symmetry_Int_Tables_number   1
_chemical_formula_structural   MgB4Os3
_chemical_formula_sum   'Mg2 B8 Os6'
_cell_volume   169.94615774
_cell_formula_units_Z   2
loop_
 _symmetry_equiv_pos_site_id
 _symmetry_equiv_pos_as_xyz
  1  'x, y, z'
loop_
 _atom_site_type_symbol
 _atom_site_label
 _atom_site_symmetry_multiplicity
 _atom_site_fract_x
 _atom_site_fract_y
 _atom_site_fract_z
 _atom_site_occupancy
  Mg  Mg0  1  0.50000000  0.50000000  0.00000000  1.0
  Mg  Mg1  1  0.50000000  0.50000000  0.50000000  1.0
  B  B2  1  0.15922475  0.84077525  0.88931653  1.0
  B  B3  1  0.15922475  0.84077525  0.61068347  1.0
  B  B4  1  -0.15922475  0.15922475  0.38931653  1.0
  B  B5  1  -0.15922475  0.15922475  0.11068347  1.0
  B  B6  1  0.37644279  0.62355721  0.75000000  1.0
  B  B7  1  -0.37644279  0.37644279  0.25000000  1.0
  B  B8  1  -0.34585430  0.34585430  0.75000000  1.0
  B  B9  1  0.34585430  0.65414570  0.25000000  1.0
  Os  Os10  1  0.19954040  0.80045960  0.39283366  1.0
  Os  Os11  1  0.19954040  0.80045960  0.10716634  1.0
  Os  Os12  1  -0.19954040  0.19954040  0.89283366  1.0
  Os  Os13  1  -0.19954040  0.19954040  0.60716634  1.0
  Os  Os14  1  0.01610889  0.98389111  0.75000000  1.0
  Os  Os15  1  -0.01610889  0.01610889  0.25000000  1.0
