# generated using pymatgen
data_Cs3PSe4
_symmetry_space_group_name_H-M   'P 1'
_cell_length_a   10.17592139
_cell_length_b   12.14608686
_cell_length_c   10.23545792
_cell_angle_alpha   90.00000000
_cell_angle_beta   90.00000000
_cell_angle_gamma   90.00000000
_symmetry_Int_Tables_number   1
_chemical_formula_structural   Cs3PSe4
_chemical_formula_sum   'Cs12 P4 Se16'
_cell_volume   1265.07829204
_cell_formula_units_Z   4
loop_
 _symmetry_equiv_pos_site_id
 _symmetry_equiv_pos_as_xyz
  1  'x, y, z'
loop_
 _atom_site_type_symbol
 _atom_site_label
 _atom_site_symmetry_multiplicity
 _atom_site_fract_x
 _atom_site_fract_y
 _atom_site_fract_z
 _atom_site_occupancy
  Cs  Cs0  1  0.46141091  0.45787841  0.79705105  1.0
  Cs  Cs1  1  0.46141091  0.04212159  0.79705105  1.0
  Cs  Cs2  1  0.96141091  0.45787841  0.70294895  1.0
  Cs  Cs3  1  0.96141091  0.04212159  0.70294895  1.0
  Cs  Cs4  1  0.53858909  0.95787841  0.20294895  1.0
  Cs  Cs5  1  0.53858909  0.54212159  0.20294895  1.0
  Cs  Cs6  1  0.03858909  0.95787841  0.29705105  1.0
  Cs  Cs7  1  0.03858909  0.54212159  0.29705105  1.0
  Cs  Cs8  1  0.34916315  0.75000000  0.58896920  1.0
  Cs  Cs9  1  0.84916315  0.75000000  0.91103080  1.0
  Cs  Cs10  1  0.65083685  0.25000000  0.41103080  1.0
  Cs  Cs11  1  0.15083685  0.25000000  0.08896920  1.0
  P  P12  1  0.27255368  0.75000000  0.01994165  1.0
  P  P13  1  0.77255368  0.75000000  0.48005835  1.0
  P  P14  1  0.72744632  0.25000000  0.98005835  1.0
  P  P15  1  0.22744632  0.25000000  0.51994165  1.0
  Se  Se16  1  0.16718585  0.90241812  0.95725754  1.0
  Se  Se17  1  0.16718585  0.59758188  0.95725754  1.0
  Se  Se18  1  0.66718585  0.90241812  0.54274246  1.0
  Se  Se19  1  0.66718585  0.59758188  0.54274246  1.0
  Se  Se20  1  0.83281415  0.40241812  0.04274246  1.0
  Se  Se21  1  0.83281415  0.09758188  0.04274246  1.0
  Se  Se22  1  0.33281415  0.40241812  0.45725754  1.0
  Se  Se23  1  0.33281415  0.09758188  0.45725754  1.0
  Se  Se24  1  0.47395200  0.75000000  0.93096730  1.0
  Se  Se25  1  0.97395200  0.75000000  0.56903270  1.0
  Se  Se26  1  0.52604800  0.25000000  0.06903270  1.0
  Se  Se27  1  0.02604800  0.25000000  0.43096730  1.0
  Se  Se28  1  0.28693944  0.75000000  0.23776784  1.0
  Se  Se29  1  0.78693944  0.75000000  0.26223216  1.0
  Se  Se30  1  0.71306056  0.25000000  0.76223216  1.0
  Se  Se31  1  0.21306056  0.25000000  0.73776784  1.0
