# generated using pymatgen
data_H10C3NClO4
_symmetry_space_group_name_H-M   'P 1'
_cell_length_a   5.69631624
_cell_length_b   9.02158070
_cell_length_c   7.90215417
_cell_angle_alpha   90.00000000
_cell_angle_beta   105.51442938
_cell_angle_gamma   90.00000000
_symmetry_Int_Tables_number   1
_chemical_formula_structural   H10C3NClO4
_chemical_formula_sum   'H20 C6 N2 Cl2 O8'
_cell_volume   391.29328785
_cell_formula_units_Z   2
loop_
 _symmetry_equiv_pos_site_id
 _symmetry_equiv_pos_as_xyz
  1  'x, y, z'
loop_
 _atom_site_type_symbol
 _atom_site_label
 _atom_site_symmetry_multiplicity
 _atom_site_fract_x
 _atom_site_fract_y
 _atom_site_fract_z
 _atom_site_occupancy
  H  H0  1  0.76158297  0.75000000  0.62717033  1.0
  H  H1  1  0.23841703  0.25000000  0.37282967  1.0
  H  H2  1  0.20874172  0.89172878  0.84906644  1.0
  H  H3  1  0.79125828  0.39172878  0.15093356  1.0
  H  H4  1  0.79125828  0.10827122  0.15093356  1.0
  H  H5  1  0.20874172  0.60827122  0.84906644  1.0
  H  H6  1  0.12516250  0.88133608  0.61341344  1.0
  H  H7  1  0.87483750  0.38133608  0.38658656  1.0
  H  H8  1  0.87483750  0.11866392  0.38658656  1.0
  H  H9  1  0.12516250  0.61866392  0.61341344  1.0
  H  H10  1  0.93879397  0.98356334  0.72421201  1.0
  H  H11  1  0.06120603  0.48356334  0.27578799  1.0
  H  H12  1  0.06120603  0.01643666  0.27578799  1.0
  H  H13  1  0.93879397  0.51643666  0.72421201  1.0
  H  H14  1  0.70332344  0.84973550  0.89088076  1.0
  H  H15  1  0.29667656  0.34973550  0.10911924  1.0
  H  H16  1  0.29667656  0.15026450  0.10911924  1.0
  H  H17  1  0.70332344  0.65026450  0.89088076  1.0
  H  H18  1  0.96681044  0.75000000  0.01311245  1.0
  H  H19  1  0.03318956  0.25000000  0.98688755  1.0
  C  C20  1  0.05677846  0.88689845  0.73010841  1.0
  C  C21  1  0.94322154  0.38689845  0.26989159  1.0
  C  C22  1  0.94322154  0.11310155  0.26989159  1.0
  C  C23  1  0.05677846  0.61310155  0.73010841  1.0
  C  C24  1  0.81398167  0.75000000  0.89476296  1.0
  C  C25  1  0.18601833  0.25000000  0.10523704  1.0
  N  N26  1  0.91222111  0.75000000  0.73731865  1.0
  N  N27  1  0.08777889  0.25000000  0.26268135  1.0
  Cl  Cl28  1  0.51384548  0.75000000  0.28725571  1.0
  Cl  Cl29  1  0.48615452  0.25000000  0.71274429  1.0
  O  O30  1  0.77774454  0.75000000  0.30896471  1.0
  O  O31  1  0.22225546  0.25000000  0.69103529  1.0
  O  O32  1  0.46984380  0.75000000  0.46440638  1.0
  O  O33  1  0.53015620  0.25000000  0.53559362  1.0
  O  O34  1  0.40325649  0.88276580  0.19145559  1.0
  O  O35  1  0.59674351  0.38276580  0.80854441  1.0
  O  O36  1  0.59674351  0.11723420  0.80854441  1.0
  O  O37  1  0.40325649  0.61723420  0.19145559  1.0
