# generated using pymatgen
data_KCdC3(NO)3
_symmetry_space_group_name_H-M   'P 1'
_cell_length_a   10.21351063
_cell_length_b   3.77219357
_cell_length_c   18.48622727
_cell_angle_alpha   90.00000000
_cell_angle_beta   90.00000000
_cell_angle_gamma   90.00000000
_symmetry_Int_Tables_number   1
_chemical_formula_structural   KCdC3(NO)3
_chemical_formula_sum   'K4 Cd4 C12 N12 O12'
_cell_volume   712.22514687
_cell_formula_units_Z   4
loop_
 _symmetry_equiv_pos_site_id
 _symmetry_equiv_pos_as_xyz
  1  'x, y, z'
loop_
 _atom_site_type_symbol
 _atom_site_label
 _atom_site_symmetry_multiplicity
 _atom_site_fract_x
 _atom_site_fract_y
 _atom_site_fract_z
 _atom_site_occupancy
  K  K0  1  0.92845814  0.75000000  0.83541885  1.0
  K  K1  1  0.42845814  0.75000000  0.66458115  1.0
  K  K2  1  0.07154186  0.25000000  0.16458115  1.0
  K  K3  1  0.57154186  0.25000000  0.33541885  1.0
  Cd  Cd4  1  0.86188010  0.75000000  0.45667556  1.0
  Cd  Cd5  1  0.36188010  0.75000000  0.04332444  1.0
  Cd  Cd6  1  0.13811990  0.25000000  0.54332444  1.0
  Cd  Cd7  1  0.63811990  0.25000000  0.95667556  1.0
  C  C8  1  0.91736018  0.75000000  0.62394884  1.0
  C  C9  1  0.41736018  0.75000000  0.87605116  1.0
  C  C10  1  0.08263982  0.25000000  0.37605116  1.0
  C  C11  1  0.58263982  0.25000000  0.12394884  1.0
  C  C12  1  0.86062804  0.75000000  0.02990057  1.0
  C  C13  1  0.36062804  0.75000000  0.47009943  1.0
  C  C14  1  0.13937196  0.25000000  0.97009943  1.0
  C  C15  1  0.63937196  0.25000000  0.52990057  1.0
  C  C16  1  0.85132306  0.75000000  0.28794729  1.0
  C  C17  1  0.35132306  0.75000000  0.21205271  1.0
  C  C18  1  0.14867694  0.25000000  0.71205271  1.0
  C  C19  1  0.64867694  0.25000000  0.78794729  1.0
  N  N20  1  0.97737317  0.75000000  0.56705501  1.0
  N  N21  1  0.47737317  0.75000000  0.93294499  1.0
  N  N22  1  0.02262683  0.25000000  0.43294499  1.0
  N  N23  1  0.52262683  0.25000000  0.06705501  1.0
  N  N24  1  0.78522421  0.75000000  0.34187362  1.0
  N  N25  1  0.28522421  0.75000000  0.15812638  1.0
  N  N26  1  0.21477579  0.25000000  0.65812638  1.0
  N  N27  1  0.71477579  0.25000000  0.84187362  1.0
  N  N28  1  0.26575638  0.75000000  0.50895938  1.0
  N  N29  1  0.76575638  0.75000000  0.99104062  1.0
  N  N30  1  0.73424362  0.25000000  0.49104062  1.0
  N  N31  1  0.23424362  0.25000000  0.00895938  1.0
  O  O32  1  0.95591776  0.75000000  0.06806786  1.0
  O  O33  1  0.45591776  0.75000000  0.43193214  1.0
  O  O34  1  0.04408224  0.25000000  0.93193214  1.0
  O  O35  1  0.54408224  0.25000000  0.56806786  1.0
  O  O36  1  0.91508342  0.75000000  0.23312807  1.0
  O  O37  1  0.41508342  0.75000000  0.26687193  1.0
  O  O38  1  0.08491658  0.25000000  0.76687193  1.0
  O  O39  1  0.58491658  0.25000000  0.73312807  1.0
  O  O40  1  0.85982783  0.75000000  0.68002669  1.0
  O  O41  1  0.35982783  0.75000000  0.81997331  1.0
  O  O42  1  0.14017217  0.25000000  0.31997331  1.0
  O  O43  1  0.64017217  0.25000000  0.18002669  1.0
