# generated using pymatgen
data_Ca5(PO4)3
_symmetry_space_group_name_H-M   'P 1'
_cell_length_a   9.70323252
_cell_length_b   9.70323252
_cell_length_c   6.78090149
_cell_angle_alpha   90.00000000
_cell_angle_beta   90.00000000
_cell_angle_gamma   120.00000000
_symmetry_Int_Tables_number   1
_chemical_formula_structural   Ca5(PO4)3
_chemical_formula_sum   'Ca10 P6 O24'
_cell_volume   552.90554299
_cell_formula_units_Z   2
loop_
 _symmetry_equiv_pos_site_id
 _symmetry_equiv_pos_as_xyz
  1  'x, y, z'
loop_
 _atom_site_type_symbol
 _atom_site_label
 _atom_site_symmetry_multiplicity
 _atom_site_fract_x
 _atom_site_fract_y
 _atom_site_fract_z
 _atom_site_occupancy
  Ca  Ca0  1  0.66666667  0.33333333  0.50309404  1.0
  Ca  Ca1  1  0.33333333  0.66666667  0.00309404  1.0
  Ca  Ca2  1  0.33333333  0.66666667  0.49690596  1.0
  Ca  Ca3  1  0.66666667  0.33333333  0.99690596  1.0
  Ca  Ca4  1  0.75362338  0.74210449  0.25000000  1.0
  Ca  Ca5  1  -0.01151890  0.24637662  0.25000000  1.0
  Ca  Ca6  1  0.25789551  1.01151890  0.25000000  1.0
  Ca  Ca7  1  0.24637662  0.25789551  0.75000000  1.0
  Ca  Ca8  1  1.01151890  0.75362338  0.75000000  1.0
  Ca  Ca9  1  0.74210449  -0.01151890  0.75000000  1.0
  P  P10  1  0.96970631  0.59572410  0.25000000  1.0
  P  P11  1  0.62601779  0.03029369  0.25000000  1.0
  P  P12  1  0.40427590  0.37398221  0.25000000  1.0
  P  P13  1  0.03029369  0.40427590  0.75000000  1.0
  P  P14  1  0.37398221  0.96970631  0.75000000  1.0
  P  P15  1  0.59572410  0.62601779  0.75000000  1.0
  O  O16  1  0.15092969  0.65666365  0.25000000  1.0
  O  O17  1  0.50573396  0.84907031  0.25000000  1.0
  O  O18  1  0.34333635  0.49426604  0.25000000  1.0
  O  O19  1  0.84907031  0.34333635  0.75000000  1.0
  O  O20  1  0.49426604  0.15092969  0.75000000  1.0
  O  O21  1  0.65666365  0.50573396  0.75000000  1.0
  O  O22  1  0.87177863  0.40874749  0.25000000  1.0
  O  O23  1  0.53696886  0.12822137  0.25000000  1.0
  O  O24  1  0.59125251  0.46303114  0.25000000  1.0
  O  O25  1  0.12822137  0.59125251  0.75000000  1.0
  O  O26  1  0.46303114  0.87177863  0.75000000  1.0
  O  O27  1  0.40874749  0.53696886  0.75000000  1.0
  O  O28  1  0.91644147  0.65361879  0.43434592  1.0
  O  O29  1  0.73717732  0.08355853  0.43434592  1.0
  O  O30  1  0.34638121  0.26282268  0.43434592  1.0
  O  O31  1  0.08355853  0.34638121  0.93434592  1.0
  O  O32  1  0.26282268  0.91644147  0.93434592  1.0
  O  O33  1  0.65361879  0.73717732  0.93434592  1.0
  O  O34  1  0.08355853  0.34638121  0.56565408  1.0
  O  O35  1  0.26282268  0.91644147  0.56565408  1.0
  O  O36  1  0.65361879  0.73717732  0.56565408  1.0
  O  O37  1  0.91644147  0.65361879  0.06565408  1.0
  O  O38  1  0.73717732  0.08355853  0.06565408  1.0
  O  O39  1  0.34638121  0.26282268  0.06565408  1.0
