# generated using pymatgen
data_CeSi2Ni
_symmetry_space_group_name_H-M   'P 1'
_cell_length_a   8.41280105
_cell_length_b   8.41280105
_cell_length_c   4.05911174
_cell_angle_alpha   90.00000000
_cell_angle_beta   90.00000000
_cell_angle_gamma   151.70048932
_symmetry_Int_Tables_number   1
_chemical_formula_structural   CeSi2Ni
_chemical_formula_sum   'Ce2 Si4 Ni2'
_cell_volume   136.19604941
_cell_formula_units_Z   2
loop_
 _symmetry_equiv_pos_site_id
 _symmetry_equiv_pos_as_xyz
  1  'x, y, z'
loop_
 _atom_site_type_symbol
 _atom_site_label
 _atom_site_symmetry_multiplicity
 _atom_site_fract_x
 _atom_site_fract_y
 _atom_site_fract_z
 _atom_site_occupancy
  Ce  Ce0  1  0.39385268  0.60614732  0.75000000  1.0
  Ce  Ce1  1  -0.39385268  0.39385268  0.25000000  1.0
  Si  Si2  1  0.03979494  0.96020506  0.75000000  1.0
  Si  Si3  1  -0.03979494  0.03979494  0.25000000  1.0
  Si  Si4  1  -0.25070574  0.25070574  0.75000000  1.0
  Si  Si5  1  0.25070574  0.74929426  0.25000000  1.0
  Ni  Ni6  1  0.18074737  0.81925263  0.75000000  1.0
  Ni  Ni7  1  -0.18074737  0.18074737  0.25000000  1.0
