# generated using pymatgen
data_P2PdPbO7
_symmetry_space_group_name_H-M   'P 1'
_cell_length_a   13.63514517
_cell_length_b   6.13356649
_cell_length_c   7.55399048
_cell_angle_alpha   90.00000000
_cell_angle_beta   90.00000000
_cell_angle_gamma   90.00000000
_symmetry_Int_Tables_number   1
_chemical_formula_structural   P2PdPbO7
_chemical_formula_sum   'P8 Pd4 Pb4 O28'
_cell_volume   631.75585689
_cell_formula_units_Z   4
loop_
 _symmetry_equiv_pos_site_id
 _symmetry_equiv_pos_as_xyz
  1  'x, y, z'
loop_
 _atom_site_type_symbol
 _atom_site_label
 _atom_site_symmetry_multiplicity
 _atom_site_fract_x
 _atom_site_fract_y
 _atom_site_fract_z
 _atom_site_occupancy
  P  P0  1  0.39421043  0.75000000  0.80105181  1.0
  P  P1  1  0.89421043  0.75000000  0.69894819  1.0
  P  P2  1  0.60578957  0.25000000  0.19894819  1.0
  P  P3  1  0.10578957  0.25000000  0.30105181  1.0
  P  P4  1  0.10596039  0.75000000  0.69914940  1.0
  P  P5  1  0.60596039  0.75000000  0.80085060  1.0
  P  P6  1  0.89403961  0.25000000  0.30085060  1.0
  P  P7  1  0.39403961  0.25000000  0.19914940  1.0
  Pd  Pd8  1  0.50000000  0.00000000  0.50000000  1.0
  Pd  Pd9  1  0.50000000  0.50000000  0.50000000  1.0
  Pd  Pd10  1  0.00000000  0.00000000  0.00000000  1.0
  Pd  Pd11  1  0.00000000  0.50000000  0.00000000  1.0
  Pb  Pb12  1  0.24999523  0.75000000  0.25002530  1.0
  Pb  Pb13  1  0.74999523  0.75000000  0.24997470  1.0
  Pb  Pb14  1  0.75000477  0.25000000  0.74997470  1.0
  Pb  Pb15  1  0.25000477  0.25000000  0.75002530  1.0
  O  O16  1  0.39195174  0.96233396  0.68557536  1.0
  O  O17  1  0.39195174  0.53766604  0.68557536  1.0
  O  O18  1  0.89195174  0.96233396  0.81442464  1.0
  O  O19  1  0.89195174  0.53766604  0.81442464  1.0
  O  O20  1  0.60804826  0.46233396  0.31442464  1.0
  O  O21  1  0.60804826  0.03766604  0.31442464  1.0
  O  O22  1  0.10804826  0.46233396  0.18557536  1.0
  O  O23  1  0.10804826  0.03766604  0.18557536  1.0
  O  O24  1  0.10816068  0.96229951  0.81467748  1.0
  O  O25  1  0.10816068  0.53770049  0.81467748  1.0
  O  O26  1  0.60816068  0.96229951  0.68532252  1.0
  O  O27  1  0.60816068  0.53770049  0.68532252  1.0
  O  O28  1  0.89183932  0.46229951  0.18532252  1.0
  O  O29  1  0.89183932  0.03770049  0.18532252  1.0
  O  O30  1  0.39183932  0.46229951  0.31467748  1.0
  O  O31  1  0.39183932  0.03770049  0.31467748  1.0
  O  O32  1  0.50011826  0.75000000  0.90163314  1.0
  O  O33  1  1.00011826  0.75000000  0.59836686  1.0
  O  O34  1  0.49988174  0.25000000  0.09836686  1.0
  O  O35  1  -0.00011826  0.25000000  0.40163314  1.0
  O  O36  1  0.31378070  0.75000000  0.93713827  1.0
  O  O37  1  0.81378070  0.75000000  0.56286173  1.0
  O  O38  1  0.68621930  0.25000000  0.06286173  1.0
  O  O39  1  0.18621930  0.25000000  0.43713827  1.0
  O  O40  1  0.18646606  0.75000000  0.56320848  1.0
  O  O41  1  0.68646606  0.75000000  0.93679152  1.0
  O  O42  1  0.81353394  0.25000000  0.43679152  1.0
  O  O43  1  0.31353394  0.25000000  0.06320848  1.0
