# generated using pymatgen
data_KAu(SO4)2
_symmetry_space_group_name_H-M   'P 1'
_cell_length_a   6.86772783
_cell_length_b   6.86772783
_cell_length_c   9.60201234
_cell_angle_alpha   67.00773290
_cell_angle_beta   112.99226710
_cell_angle_gamma   111.81867868
_symmetry_Int_Tables_number   1
_chemical_formula_structural   KAu(SO4)2
_chemical_formula_sum   'K2 Au2 S4 O16'
_cell_volume   370.73812667
_cell_formula_units_Z   2
loop_
 _symmetry_equiv_pos_site_id
 _symmetry_equiv_pos_as_xyz
  1  'x, y, z'
loop_
 _atom_site_type_symbol
 _atom_site_label
 _atom_site_symmetry_multiplicity
 _atom_site_fract_x
 _atom_site_fract_y
 _atom_site_fract_z
 _atom_site_occupancy
  K  K0  1  0.50667398  -0.49332602  0.75000000  1.0
  K  K1  1  0.49332602  0.49332602  0.25000000  1.0
  Au  Au2  1  0.00000000  0.00000000  0.00000000  1.0
  Au  Au3  1  0.00000000  -0.00000000  0.50000000  1.0
  S  S4  1  0.21491128  -0.17802567  0.85828325  1.0
  S  S5  1  1.17802567  0.78508872  0.35828325  1.0
  S  S6  1  0.82197433  0.21491128  0.64171675  1.0
  S  S7  1  0.78508872  0.17802567  0.14171675  1.0
  O  O8  1  1.78076527  0.00816485  0.78456706  1.0
  O  O9  1  0.99183515  0.21923473  0.28456706  1.0
  O  O10  1  1.00816485  0.78076527  0.71543294  1.0
  O  O11  1  1.21923473  -0.00816485  0.21543294  1.0
  O  O12  1  0.77083640  0.11185786  0.50815690  1.0
  O  O13  1  0.88814214  0.22916360  0.00815690  1.0
  O  O14  1  1.11185786  0.77083640  0.99184310  1.0
  O  O15  1  0.22916360  -0.11185786  0.49184310  1.0
  O  O16  1  0.65064914  0.32701026  0.58589108  1.0
  O  O17  1  0.67298974  0.34935086  0.08589108  1.0
  O  O18  1  1.32701026  0.65064914  0.91410892  1.0
  O  O19  1  0.34935086  -0.32701026  0.41410892  1.0
  O  O20  1  1.34222112  0.04735108  0.81802569  1.0
  O  O21  1  0.95264892  0.65777888  0.31802569  1.0
  O  O22  1  1.04735108  0.34222112  0.68197431  1.0
  O  O23  1  1.65777888  -0.04735108  0.18197431  1.0
