# generated using pymatgen
data_FeAsO4
_symmetry_space_group_name_H-M   'P 1'
_cell_length_a   9.18727819
_cell_length_b   6.62374691
_cell_length_c   4.97589722
_cell_angle_alpha   90.00000000
_cell_angle_beta   90.00000000
_cell_angle_gamma   90.00000000
_symmetry_Int_Tables_number   1
_chemical_formula_structural   FeAsO4
_chemical_formula_sum   'Fe4 As4 O16'
_cell_volume   302.80427227
_cell_formula_units_Z   4
loop_
 _symmetry_equiv_pos_site_id
 _symmetry_equiv_pos_as_xyz
  1  'x, y, z'
loop_
 _atom_site_type_symbol
 _atom_site_label
 _atom_site_symmetry_multiplicity
 _atom_site_fract_x
 _atom_site_fract_y
 _atom_site_fract_z
 _atom_site_occupancy
  Fe  Fe0  1  -0.00000000  0.50000000  0.00000000  1.0
  Fe  Fe1  1  0.00000000  0.00000000  0.00000000  1.0
  Fe  Fe2  1  0.50000000  0.50000000  0.50000000  1.0
  Fe  Fe3  1  0.50000000  0.00000000  0.50000000  1.0
  As  As4  1  0.67810229  0.25000000  0.02815115  1.0
  As  As5  1  0.17810229  0.25000000  0.47184885  1.0
  As  As6  1  0.32189771  0.75000000  0.97184885  1.0
  As  As7  1  0.82189771  0.75000000  0.52815115  1.0
  O  O8  1  0.61879656  0.46656164  0.18697474  1.0
  O  O9  1  0.61879656  0.03343836  0.18697474  1.0
  O  O10  1  0.11879656  0.46656164  0.31302526  1.0
  O  O11  1  0.11879656  0.03343836  0.31302526  1.0
  O  O12  1  0.38120344  0.96656164  0.81302526  1.0
  O  O13  1  0.38120344  0.53343836  0.81302526  1.0
  O  O14  1  0.88120344  0.96656164  0.68697474  1.0
  O  O15  1  0.88120344  0.53343836  0.68697474  1.0
  O  O16  1  0.86877177  0.25000000  0.08390454  1.0
  O  O17  1  0.36877177  0.25000000  0.41609546  1.0
  O  O18  1  0.13122823  0.75000000  0.91609546  1.0
  O  O19  1  0.63122823  0.75000000  0.58390454  1.0
  O  O20  1  0.61834179  0.25000000  0.69397022  1.0
  O  O21  1  0.11834179  0.25000000  0.80602978  1.0
  O  O22  1  0.38165821  0.75000000  0.30602978  1.0
  O  O23  1  0.88165821  0.75000000  0.19397022  1.0
