# generated using pymatgen
data_Gd2Cu(SO6)2
_symmetry_space_group_name_H-M   'P 1'
_cell_length_a   6.47492056
_cell_length_b   6.94372694
_cell_length_c   10.53829248
_cell_angle_alpha   90.00000000
_cell_angle_beta   98.87437183
_cell_angle_gamma   90.00000000
_symmetry_Int_Tables_number   1
_chemical_formula_structural   Gd2Cu(SO6)2
_chemical_formula_sum   'Gd4 Cu2 S4 O24'
_cell_volume   468.13057249
_cell_formula_units_Z   2
loop_
 _symmetry_equiv_pos_site_id
 _symmetry_equiv_pos_as_xyz
  1  'x, y, z'
loop_
 _atom_site_type_symbol
 _atom_site_label
 _atom_site_symmetry_multiplicity
 _atom_site_fract_x
 _atom_site_fract_y
 _atom_site_fract_z
 _atom_site_occupancy
  S  S0  1  0.63318753  0.66823285  0.87525788  1.0
  S  S1  1  0.63318753  0.83176715  0.37525788  1.0
  S  S2  1  0.36681247  0.16823285  0.62474212  1.0
  S  S3  1  0.36681247  0.33176715  0.12474212  1.0
  O  O4  1  0.77905119  0.52089454  0.95065096  1.0
  O  O5  1  0.77905119  0.97910546  0.45065096  1.0
  O  O6  1  0.22094881  0.02089454  0.54934904  1.0
  O  O7  1  0.22094881  0.47910546  0.04934904  1.0
  O  O8  1  0.43303620  0.57479414  0.82358685  1.0
  O  O9  1  0.43303620  0.92520586  0.32358685  1.0
  O  O10  1  0.56696380  0.07479414  0.67641315  1.0
  O  O11  1  0.56696380  0.42520586  0.17641315  1.0
  O  O12  1  0.93663345  0.33748409  0.62610835  1.0
  O  O13  1  0.93663345  0.16251591  0.12610835  1.0
  O  O14  1  0.06336655  0.83748409  0.87389165  1.0
  O  O15  1  0.06336655  0.66251591  0.37389165  1.0
  O  O16  1  0.95198485  0.17818414  0.87436396  1.0
  O  O17  1  0.95198485  0.32181586  0.37436396  1.0
  O  O18  1  0.04801515  0.67818414  0.62563604  1.0
  O  O19  1  0.04801515  0.82181586  0.12563604  1.0
  O  O20  1  0.61325186  0.84072856  0.94967491  1.0
  O  O21  1  0.61325186  0.65927144  0.44967491  1.0
  O  O22  1  0.38674814  0.34072856  0.55032509  1.0
  O  O23  1  0.38674814  0.15927144  0.05032509  1.0
  O  O24  1  0.74715073  0.70602997  0.75955563  1.0
  O  O25  1  0.74715073  0.79397003  0.25955563  1.0
  O  O26  1  0.25284927  0.20602997  0.74044437  1.0
  O  O27  1  0.25284927  0.29397003  0.24044437  1.0
  Cu  Cu28  1  0.00000000  0.00000000  0.00000000  1.0
  Cu  Cu29  1  0.00000000  0.50000000  0.50000000  1.0
  Gd  Gd30  1  0.92240086  0.99645827  0.67719301  1.0
  Gd  Gd31  1  0.92240086  0.50354173  0.17719301  1.0
  Gd  Gd32  1  0.07759914  0.49645827  0.82280699  1.0
  Gd  Gd33  1  0.07759914  0.00354173  0.32280699  1.0
