# generated using pymatgen
data_Ba(ZnAs)2
_symmetry_space_group_name_H-M   'P 1'
_cell_length_a   10.12026390
_cell_length_b   4.29039370
_cell_length_c   10.99149168
_cell_angle_alpha   90.00000000
_cell_angle_beta   90.00000000
_cell_angle_gamma   90.00000000
_symmetry_Int_Tables_number   1
_chemical_formula_structural   Ba(ZnAs)2
_chemical_formula_sum   'Ba4 Zn8 As8'
_cell_volume   477.24965071
_cell_formula_units_Z   4
loop_
 _symmetry_equiv_pos_site_id
 _symmetry_equiv_pos_as_xyz
  1  'x, y, z'
loop_
 _atom_site_type_symbol
 _atom_site_label
 _atom_site_symmetry_multiplicity
 _atom_site_fract_x
 _atom_site_fract_y
 _atom_site_fract_z
 _atom_site_occupancy
  Ba  Ba0  1  0.75222361  0.75000000  0.32520491  1.0
  Ba  Ba1  1  0.25222361  0.75000000  0.17479509  1.0
  Ba  Ba2  1  0.24777639  0.25000000  0.67479509  1.0
  Ba  Ba3  1  0.74777639  0.25000000  0.82520491  1.0
  Zn  Zn4  1  0.95049456  0.75000000  0.61728304  1.0
  Zn  Zn5  1  0.45049456  0.75000000  0.88271696  1.0
  Zn  Zn6  1  0.04950544  0.25000000  0.38271696  1.0
  Zn  Zn7  1  0.54950544  0.25000000  0.11728304  1.0
  Zn  Zn8  1  0.90174313  0.75000000  0.04948721  1.0
  Zn  Zn9  1  0.40174313  0.75000000  0.45051279  1.0
  Zn  Zn10  1  0.09825687  0.25000000  0.95051279  1.0
  Zn  Zn11  1  0.59825687  0.25000000  0.54948721  1.0
  As  As12  1  0.65002983  0.75000000  0.03866220  1.0
  As  As13  1  0.15002983  0.75000000  0.46133780  1.0
  As  As14  1  0.34997017  0.25000000  0.96133780  1.0
  As  As15  1  0.84997017  0.25000000  0.53866220  1.0
  As  As16  1  0.52236112  0.75000000  0.66036868  1.0
  As  As17  1  0.02236112  0.75000000  0.83963132  1.0
  As  As18  1  0.47763888  0.25000000  0.33963132  1.0
  As  As19  1  0.97763888  0.25000000  0.16036868  1.0
