# generated using pymatgen
data_CdInGaS4
_symmetry_space_group_name_H-M   'P 1'
_cell_length_a   4.06528790
_cell_length_b   4.06528790
_cell_length_c   12.55659043
_cell_angle_alpha   90.00000000
_cell_angle_beta   90.00000000
_cell_angle_gamma   120.00000000
_symmetry_Int_Tables_number   1
_chemical_formula_structural   CdInGaS4
_chemical_formula_sum   'Cd1 In1 Ga1 S4'
_cell_volume   179.71526773
_cell_formula_units_Z   1
loop_
 _symmetry_equiv_pos_site_id
 _symmetry_equiv_pos_as_xyz
  1  'x, y, z'
loop_
 _atom_site_type_symbol
 _atom_site_label
 _atom_site_symmetry_multiplicity
 _atom_site_fract_x
 _atom_site_fract_y
 _atom_site_fract_z
 _atom_site_occupancy
  S  S0  1  0.66666667  0.33333333  0.80167604  1.0
  S  S1  1  0.33333333  0.66666667  0.24108458  1.0
  S  S2  1  -0.00000000  -0.00000000  0.52413747  1.0
  S  S3  1  0.00000000  0.00000000  -0.00749623  1.0
  Ga  Ga4  1  -0.00000000  -0.00000000  0.15950000  1.0
  Cd  Cd5  1  0.33333333  0.66666667  0.44287166  1.0
  In  In6  1  0.00000000  0.00000000  0.72922648  1.0
