# generated using pymatgen
data_AlTc2
_symmetry_space_group_name_H-M   'P 1'
_cell_length_a   5.20252610
_cell_length_b   5.20252610
_cell_length_c   5.20252610
_cell_angle_alpha   146.73551805
_cell_angle_beta   146.73551805
_cell_angle_gamma   47.75555116
_symmetry_Int_Tables_number   1
_chemical_formula_structural   AlTc2
_chemical_formula_sum   'Al1 Tc2'
_cell_volume   42.19560462
_cell_formula_units_Z   1
loop_
 _symmetry_equiv_pos_site_id
 _symmetry_equiv_pos_as_xyz
  1  'x, y, z'
loop_
 _atom_site_type_symbol
 _atom_site_label
 _atom_site_symmetry_multiplicity
 _atom_site_fract_x
 _atom_site_fract_y
 _atom_site_fract_z
 _atom_site_occupancy
  Al  Al0  1  0.00000000  0.00000000  0.00000000  1.0
  Tc  Tc1  1  0.66922690  0.66922690  1.00000000  1.0
  Tc  Tc2  1  0.33077310  0.33077310  -0.00000000  1.0
