# generated using pymatgen
data_KGd(PO3)4
_symmetry_space_group_name_H-M   'P 1'
_cell_length_a   7.37821551
_cell_length_b   8.51094959
_cell_length_c   8.02014599
_cell_angle_alpha   90.00000000
_cell_angle_beta   91.57392723
_cell_angle_gamma   90.00000000
_symmetry_Int_Tables_number   1
_chemical_formula_structural   KGd(PO3)4
_chemical_formula_sum   'K2 Gd2 P8 O24'
_cell_volume   503.44003060
_cell_formula_units_Z   2
loop_
 _symmetry_equiv_pos_site_id
 _symmetry_equiv_pos_as_xyz
  1  'x, y, z'
loop_
 _atom_site_type_symbol
 _atom_site_label
 _atom_site_symmetry_multiplicity
 _atom_site_fract_x
 _atom_site_fract_y
 _atom_site_fract_z
 _atom_site_occupancy
  K  K0  1  0.73295943  0.64051945  0.78279139  1.0
  K  K1  1  0.26704057  0.14051945  0.21720861  1.0
  Gd  Gd2  1  0.23755673  0.45525404  0.74205241  1.0
  Gd  Gd3  1  0.76244327  0.95525404  0.25794759  1.0
  P  P4  1  -0.00428657  0.10659570  0.88143930  1.0
  P  P5  1  1.00428657  0.60659570  0.11856070  1.0
  P  P6  1  0.90206157  0.37559888  0.39928996  1.0
  P  P7  1  0.09793843  0.87559888  0.60071004  1.0
  P  P8  1  0.61467139  0.20500596  0.89788528  1.0
  P  P9  1  0.38532861  0.70500596  0.10211472  1.0
  P  P10  1  0.43350978  0.08072098  0.59425372  1.0
  P  P11  1  0.56649022  0.58072098  0.40574628  1.0
  O  O12  1  0.98808615  -0.00353885  0.71816860  1.0
  O  O13  1  0.01191385  0.49646115  0.28183140  1.0
  O  O14  1  0.96553178  0.00882090  0.03504744  1.0
  O  O15  1  0.03446822  0.50882090  0.96495256  1.0
  O  O16  1  0.97555317  0.40627786  0.57364763  1.0
  O  O17  1  0.02444683  0.90627786  0.42635237  1.0
  O  O18  1  0.91258498  0.21359668  0.32610336  1.0
  O  O19  1  0.08741502  0.71359668  0.67389664  1.0
  O  O20  1  0.82270959  0.21795339  0.84124178  1.0
  O  O21  1  0.17729041  0.71795339  0.15875822  1.0
  O  O22  1  0.69130131  0.42586114  0.38640563  1.0
  O  O23  1  0.30869869  0.92586114  0.61359437  1.0
  O  O24  1  0.56650363  0.05023719  0.45858362  1.0
  O  O25  1  0.43349637  0.55023719  0.54141638  1.0
  O  O26  1  0.53715832  0.06750316  0.77448202  1.0
  O  O27  1  0.46284168  0.56750316  0.22551798  1.0
  O  O28  1  0.52648940  0.35911565  0.85300884  1.0
  O  O29  1  0.47351060  0.85911565  0.14699116  1.0
  O  O30  1  0.39254066  0.64597514  0.92577695  1.0
  O  O31  1  0.60745934  0.14597514  0.07422305  1.0
  O  O32  1  0.31948257  0.22614921  0.57226632  1.0
  O  O33  1  0.68051744  0.72614921  0.42773368  1.0
  O  O34  1  0.16211411  0.20935350  0.88445338  1.0
  O  O35  1  0.83788589  0.70935350  0.11554662  1.0
