# generated using pymatgen
data_Gd2AlGe2
_symmetry_space_group_name_H-M   'P 1'
_cell_length_a   5.86078564
_cell_length_b   5.86078564
_cell_length_c   7.79102358
_cell_angle_alpha   76.89338813
_cell_angle_beta   103.10661187
_cell_angle_gamma   121.80765444
_symmetry_Int_Tables_number   1
_chemical_formula_structural   Gd2AlGe2
_chemical_formula_sum   'Gd4 Al2 Ge4'
_cell_volume   219.63136133
_cell_formula_units_Z   2
loop_
 _symmetry_equiv_pos_site_id
 _symmetry_equiv_pos_as_xyz
  1  'x, y, z'
loop_
 _atom_site_type_symbol
 _atom_site_label
 _atom_site_symmetry_multiplicity
 _atom_site_fract_x
 _atom_site_fract_y
 _atom_site_fract_z
 _atom_site_occupancy
  Gd  Gd0  1  0.51607321  0.22527164  0.64755440  1.0
  Gd  Gd1  1  0.77472836  0.48392679  0.14755440  1.0
  Gd  Gd2  1  1.22527164  0.51607321  0.85244560  1.0
  Gd  Gd3  1  0.48392679  -0.22527164  0.35244560  1.0
  Al  Al4  1  0.83465383  0.83465383  0.75000000  1.0
  Al  Al5  1  0.16534617  0.16534617  0.25000000  1.0
  Ge  Ge6  1  0.73472955  0.00839604  0.00220354  1.0
  Ge  Ge7  1  0.99160396  0.26527045  0.50220354  1.0
  Ge  Ge8  1  1.00839604  0.73472955  0.49779646  1.0
  Ge  Ge9  1  0.26527045  -0.00839604  0.99779646  1.0
