# generated using pymatgen
data_Mn3Zn2
_symmetry_space_group_name_H-M   'P 1'
_cell_length_a   6.50861408
_cell_length_b   6.50861408
_cell_length_c   6.50861408
_cell_angle_alpha   90.00000000
_cell_angle_beta   90.00000000
_cell_angle_gamma   90.00000000
_symmetry_Int_Tables_number   1
_chemical_formula_structural   Mn3Zn2
_chemical_formula_sum   'Mn12 Zn8'
_cell_volume   275.71828181
_cell_formula_units_Z   4
loop_
 _symmetry_equiv_pos_site_id
 _symmetry_equiv_pos_as_xyz
  1  'x, y, z'
loop_
 _atom_site_type_symbol
 _atom_site_label
 _atom_site_symmetry_multiplicity
 _atom_site_fract_x
 _atom_site_fract_y
 _atom_site_fract_z
 _atom_site_occupancy
  Mn  Mn0  1  0.79721630  0.95278370  0.37500000  1.0
  Mn  Mn1  1  0.70278370  0.04721630  0.87500000  1.0
  Mn  Mn2  1  0.20278370  0.45278370  0.12500000  1.0
  Mn  Mn3  1  0.29721630  0.54721630  0.62500000  1.0
  Mn  Mn4  1  0.95278370  0.37500000  0.79721630  1.0
  Mn  Mn5  1  0.04721630  0.87500000  0.70278370  1.0
  Mn  Mn6  1  0.45278370  0.12500000  0.20278370  1.0
  Mn  Mn7  1  0.54721630  0.62500000  0.29721630  1.0
  Mn  Mn8  1  0.37500000  0.79721630  0.95278370  1.0
  Mn  Mn9  1  0.87500000  0.70278370  0.04721630  1.0
  Mn  Mn10  1  0.12500000  0.20278370  0.45278370  1.0
  Mn  Mn11  1  0.62500000  0.29721630  0.54721630  1.0
  Zn  Zn12  1  0.18943255  0.81056745  0.31056745  1.0
  Zn  Zn13  1  0.31056745  0.18943255  0.81056745  1.0
  Zn  Zn14  1  0.81056745  0.31056745  0.18943255  1.0
  Zn  Zn15  1  0.68943255  0.68943255  0.68943255  1.0
  Zn  Zn16  1  0.56056745  0.43943255  0.93943255  1.0
  Zn  Zn17  1  0.43943255  0.93943255  0.56056745  1.0
  Zn  Zn18  1  0.93943255  0.56056745  0.43943255  1.0
  Zn  Zn19  1  0.06056745  0.06056745  0.06056745  1.0
