# generated using pymatgen
data_Li2TcO3
_symmetry_space_group_name_H-M   'P 1'
_cell_length_a   4.84011290
_cell_length_b   4.84011290
_cell_length_c   10.24731641
_cell_angle_alpha   85.54068823
_cell_angle_beta   94.45931177
_cell_angle_gamma   60.08848945
_symmetry_Int_Tables_number   1
_chemical_formula_structural   Li2TcO3
_chemical_formula_sum   'Li8 Tc4 O12'
_cell_volume   205.55939529
_cell_formula_units_Z   4
loop_
 _symmetry_equiv_pos_site_id
 _symmetry_equiv_pos_as_xyz
  1  'x, y, z'
loop_
 _atom_site_type_symbol
 _atom_site_label
 _atom_site_symmetry_multiplicity
 _atom_site_fract_x
 _atom_site_fract_y
 _atom_site_fract_z
 _atom_site_occupancy
  Li  Li0  1  1.50000000  -0.00000000  0.00000000  1.0
  Li  Li1  1  1.00000000  -0.50000000  0.50000000  1.0
  Li  Li2  1  0.58289250  -0.41710750  0.25000000  1.0
  Li  Li3  1  1.41710750  0.41710750  0.75000000  1.0
  Li  Li4  1  1.65768264  0.18355364  0.49983213  1.0
  Li  Li5  1  0.81644636  -0.65768264  0.99983213  1.0
  Li  Li6  1  1.18355364  0.65768264  0.00016787  1.0
  Li  Li7  1  0.34231736  -0.18355364  0.50016787  1.0
  Tc  Tc8  1  1.24847911  0.24847911  0.25000000  1.0
  Tc  Tc9  1  0.75152089  -0.24847911  0.75000000  1.0
  Tc  Tc10  1  0.91621934  -0.08378066  0.25000000  1.0
  Tc  Tc11  1  1.08378066  0.08378066  0.75000000  1.0
  O  O12  1  1.54276550  0.29682885  0.12948579  1.0
  O  O13  1  0.70317115  -0.54276550  0.62948579  1.0
  O  O14  1  1.29682885  0.54276550  0.37051421  1.0
  O  O15  1  0.45723450  -0.29682885  0.87051421  1.0
  O  O16  1  0.62261813  -0.13152964  0.37152754  1.0
  O  O17  1  1.13152964  0.37738187  0.87152754  1.0
  O  O18  1  0.86847036  -0.37738187  0.12847246  1.0
  O  O19  1  1.37738187  0.13152964  0.62847246  1.0
  O  O20  1  1.78366763  0.05130769  0.87174447  1.0
  O  O21  1  0.94869231  -0.78366763  0.37174447  1.0
  O  O22  1  1.05130769  0.78366763  0.62825553  1.0
  O  O23  1  0.21633237  -0.05130769  0.12825553  1.0
