# generated using pymatgen
data_Pd2PbO4
_symmetry_space_group_name_H-M   'P 1'
_cell_length_a   6.62256648
_cell_length_b   6.62256648
_cell_length_c   5.95088935
_cell_angle_alpha   63.30763284
_cell_angle_beta   116.69236716
_cell_angle_gamma   78.90196417
_symmetry_Int_Tables_number   1
_chemical_formula_structural   Pd2PbO4
_chemical_formula_sum   'Pd4 Pb2 O8'
_cell_volume   181.14470040
_cell_formula_units_Z   2
loop_
 _symmetry_equiv_pos_site_id
 _symmetry_equiv_pos_as_xyz
  1  'x, y, z'
loop_
 _atom_site_type_symbol
 _atom_site_label
 _atom_site_symmetry_multiplicity
 _atom_site_fract_x
 _atom_site_fract_y
 _atom_site_fract_z
 _atom_site_occupancy
  Pd  Pd0  1  1.50000000  -0.00000000  0.50000000  1.0
  Pd  Pd1  1  1.00000000  0.50000000  0.00000000  1.0
  Pd  Pd2  1  0.00000000  -0.00000000  0.00000000  1.0
  Pd  Pd3  1  0.00000000  -0.00000000  0.50000000  1.0
  Pb  Pb4  1  1.37501729  0.37501729  0.75000000  1.0
  Pb  Pb5  1  0.62498271  0.62498271  0.25000000  1.0
  O  O6  1  1.33149771  0.01209508  0.11399599  1.0
  O  O7  1  0.98790492  0.66850229  0.61399599  1.0
  O  O8  1  1.01209508  0.33149771  0.38600401  1.0
  O  O9  1  1.66850229  -0.01209508  0.88600401  1.0
  O  O10  1  1.62611086  0.21749973  0.29454510  1.0
  O  O11  1  0.78250027  0.37388914  0.79454510  1.0
  O  O12  1  1.21749973  0.62611086  0.20545490  1.0
  O  O13  1  1.37388914  -0.21749973  0.70545490  1.0
