# generated using pymatgen
data_K2V2CuClO7
_symmetry_space_group_name_H-M   'P 1'
_cell_length_a   8.77321610
_cell_length_b   8.77321610
_cell_length_c   5.84704997
_cell_angle_alpha   90.00000000
_cell_angle_beta   90.00000000
_cell_angle_gamma   90.00000000
_symmetry_Int_Tables_number   1
_chemical_formula_structural   K2V2CuClO7
_chemical_formula_sum   'K4 V4 Cu2 Cl2 O14'
_cell_volume   450.04346476
_cell_formula_units_Z   2
loop_
 _symmetry_equiv_pos_site_id
 _symmetry_equiv_pos_as_xyz
  1  'x, y, z'
loop_
 _atom_site_type_symbol
 _atom_site_label
 _atom_site_symmetry_multiplicity
 _atom_site_fract_x
 _atom_site_fract_y
 _atom_site_fract_z
 _atom_site_occupancy
  K  K0  1  0.17396721  0.67396721  0.43627778  1.0
  K  K1  1  0.32603279  0.17396721  0.43627778  1.0
  K  K2  1  0.82603279  0.32603279  0.43627778  1.0
  K  K3  1  0.67396721  0.82603279  0.43627778  1.0
  V  V4  1  0.36446796  0.86446796  0.96065360  1.0
  V  V5  1  0.13553204  0.36446796  0.96065360  1.0
  V  V6  1  0.63553204  0.13553204  0.96065360  1.0
  V  V7  1  0.86446796  0.63553204  0.96065360  1.0
  Cu  Cu8  1  0.00000000  0.00000000  0.03434696  1.0
  Cu  Cu9  1  0.50000000  0.50000000  0.03434696  1.0
  Cl  Cl10  1  0.00000000  0.00000000  0.57885888  1.0
  Cl  Cl11  1  0.50000000  0.50000000  0.57885888  1.0
  O  O12  1  0.37075836  0.87075836  0.68090757  1.0
  O  O13  1  0.12924164  0.37075836  0.68090757  1.0
  O  O14  1  0.62924164  0.12924164  0.68090757  1.0
  O  O15  1  0.87075836  0.62924164  0.68090757  1.0
  O  O16  1  0.18814198  0.90684275  0.07411585  1.0
  O  O17  1  0.09315725  0.18814198  0.07411585  1.0
  O  O18  1  0.81185802  0.09315725  0.07411585  1.0
  O  O19  1  0.90684275  0.81185802  0.07411585  1.0
  O  O20  1  0.31185802  0.40684275  0.07411585  1.0
  O  O21  1  0.59315725  0.31185802  0.07411585  1.0
  O  O22  1  0.68814198  0.59315725  0.07411585  1.0
  O  O23  1  0.40684275  0.68814198  0.07411585  1.0
  O  O24  1  0.50000000  0.00000000  0.07685288  1.0
  O  O25  1  0.00000000  0.50000000  0.07685288  1.0
