# generated using pymatgen
data_Co2H3ClO3
_symmetry_space_group_name_H-M   'P 1'
_cell_length_a   6.15159678
_cell_length_b   6.15159678
_cell_length_c   6.15159678
_cell_angle_alpha   68.72805587
_cell_angle_beta   68.72805587
_cell_angle_gamma   68.72805587
_symmetry_Int_Tables_number   1
_chemical_formula_structural   Co2H3ClO3
_chemical_formula_sum   'Co4 H6 Cl2 O6'
_cell_volume   194.85501138
_cell_formula_units_Z   2
loop_
 _symmetry_equiv_pos_site_id
 _symmetry_equiv_pos_as_xyz
  1  'x, y, z'
loop_
 _atom_site_type_symbol
 _atom_site_label
 _atom_site_symmetry_multiplicity
 _atom_site_fract_x
 _atom_site_fract_y
 _atom_site_fract_z
 _atom_site_occupancy
  Co  Co0  1  1.00000000  1.50000000  0.00000000  1.0
  Co  Co1  1  1.00000000  0.00000000  -0.50000000  1.0
  Co  Co2  1  0.50000000  -0.00000000  0.00000000  1.0
  Co  Co3  1  0.00000000  0.00000000  0.00000000  1.0
  H  H4  1  0.26734741  0.26734741  -0.33936623  1.0
  H  H5  1  0.26734741  0.66063377  -0.73265259  1.0
  H  H6  1  0.33936623  0.73265259  -0.26734741  1.0
  H  H7  1  0.73265259  0.33936623  -0.26734741  1.0
  H  H8  1  0.73265259  0.73265259  -0.66063377  1.0
  H  H9  1  0.66063377  0.26734741  -0.73265259  1.0
  Cl  Cl10  1  0.71470052  0.71470052  -0.28529948  1.0
  Cl  Cl11  1  1.28529948  1.28529948  0.28529948  1.0
  O  O12  1  0.23005479  0.23005479  -0.16316707  1.0
  O  O13  1  0.23005479  0.83683293  -0.76994521  1.0
  O  O14  1  1.16316707  -0.23005479  -0.23005479  1.0
  O  O15  1  0.76994521  0.16316707  -0.23005479  1.0
  O  O16  1  0.76994521  -0.23005479  0.16316707  1.0
  O  O17  1  0.83683293  0.23005479  -0.76994521  1.0
