# generated using pymatgen
data_NbAlBr8
_symmetry_space_group_name_H-M   'P 1'
_cell_length_a   10.50718073
_cell_length_b   10.50718073
_cell_length_c   9.24518453
_cell_angle_alpha   90.00000000
_cell_angle_beta   90.00000000
_cell_angle_gamma   128.34327005
_symmetry_Int_Tables_number   1
_chemical_formula_structural   NbAlBr8
_chemical_formula_sum   'Nb2 Al2 Br16'
_cell_volume   800.52459870
_cell_formula_units_Z   2
loop_
 _symmetry_equiv_pos_site_id
 _symmetry_equiv_pos_as_xyz
  1  'x, y, z'
loop_
 _atom_site_type_symbol
 _atom_site_label
 _atom_site_symmetry_multiplicity
 _atom_site_fract_x
 _atom_site_fract_y
 _atom_site_fract_z
 _atom_site_occupancy
  Nb  Nb0  1  -0.38717301  1.38717301  0.25000000  1.0
  Nb  Nb1  1  -0.61282699  0.61282699  0.75000000  1.0
  Al  Al2  1  -0.18778914  1.18778914  0.25000000  1.0
  Al  Al3  1  -0.81221086  0.81221086  0.75000000  1.0
  Br  Br4  1  -0.46811211  1.07330712  0.25000000  1.0
  Br  Br5  1  0.07330712  1.53188789  0.75000000  1.0
  Br  Br6  1  -0.53188789  0.92669288  0.75000000  1.0
  Br  Br7  1  -0.07330712  1.46811211  0.25000000  1.0
  Br  Br8  1  -0.36680932  1.36680932  0.98558253  1.0
  Br  Br9  1  -0.63319068  0.63319068  0.01441747  1.0
  Br  Br10  1  -0.36680932  1.36680932  0.51441747  1.0
  Br  Br11  1  -0.63319068  0.63319068  0.48558253  1.0
  Br  Br12  1  -0.67302464  1.26029910  0.25000000  1.0
  Br  Br13  1  0.26029910  1.32697536  0.75000000  1.0
  Br  Br14  1  -0.32697536  0.73970090  0.75000000  1.0
  Br  Br15  1  -0.26029910  1.67302464  0.25000000  1.0
  Br  Br16  1  -0.12226464  1.12226464  0.45716499  1.0
  Br  Br17  1  -0.87773536  0.87773536  0.54283501  1.0
  Br  Br18  1  -0.12226464  1.12226464  0.04283501  1.0
  Br  Br19  1  -0.87773536  0.87773536  0.95716499  1.0
