# generated using pymatgen
data_LiH3IN
_symmetry_space_group_name_H-M   'P 1'
_cell_length_a   4.54835211
_cell_length_b   6.23731556
_cell_length_c   7.55589512
_cell_angle_alpha   90.00000000
_cell_angle_beta   107.27483225
_cell_angle_gamma   90.00000000
_symmetry_Int_Tables_number   1
_chemical_formula_structural   LiH3IN
_chemical_formula_sum   'Li2 H6 I2 N2'
_cell_volume   204.68766288
_cell_formula_units_Z   2
loop_
 _symmetry_equiv_pos_site_id
 _symmetry_equiv_pos_as_xyz
  1  'x, y, z'
loop_
 _atom_site_type_symbol
 _atom_site_label
 _atom_site_symmetry_multiplicity
 _atom_site_fract_x
 _atom_site_fract_y
 _atom_site_fract_z
 _atom_site_occupancy
  Li  Li0  1  0.82498579  0.74073845  0.65097756  1.0
  Li  Li1  1  0.17501421  0.24073845  0.34902244  1.0
  H  H2  1  0.87225185  0.36588101  0.79047638  1.0
  H  H3  1  0.12774815  0.86588101  0.20952362  1.0
  H  H4  1  0.79734841  0.52523402  0.94375187  1.0
  H  H5  1  0.20265159  0.02523402  0.05624813  1.0
  H  H6  1  0.14662883  0.50893703  0.92978179  1.0
  H  H7  1  0.85337117  0.00893703  0.07021821  1.0
  I  I8  1  0.65574773  0.51005682  0.31113658  1.0
  I  I9  1  0.34425227  0.01005682  0.68886342  1.0
  N  N10  1  0.92077562  0.51415267  0.85050875  1.0
  N  N11  1  0.07922438  0.01415267  0.14949125  1.0
