# generated using pymatgen
data_Li2Lu5B3O13
_symmetry_space_group_name_H-M   'P 1'
_cell_length_a   10.20762597
_cell_length_b   3.53777869
_cell_length_c   15.71628371
_cell_angle_alpha   90.00000000
_cell_angle_beta   104.64682090
_cell_angle_gamma   90.00000000
_symmetry_Int_Tables_number   1
_chemical_formula_structural   Li2Lu5B3O13
_chemical_formula_sum   'Li4 Lu10 B6 O26'
_cell_volume   549.10769276
_cell_formula_units_Z   2
loop_
 _symmetry_equiv_pos_site_id
 _symmetry_equiv_pos_as_xyz
  1  'x, y, z'
loop_
 _atom_site_type_symbol
 _atom_site_label
 _atom_site_symmetry_multiplicity
 _atom_site_fract_x
 _atom_site_fract_y
 _atom_site_fract_z
 _atom_site_occupancy
  Li  Li0  1  0.38277685  0.25000000  0.94320874  1.0
  Li  Li1  1  0.61722315  0.75000000  0.05679126  1.0
  Li  Li2  1  0.78115931  0.25000000  0.26503716  1.0
  Li  Li3  1  0.21884069  0.75000000  0.73496284  1.0
  Lu  Lu4  1  0.47566112  0.25000000  0.69956643  1.0
  Lu  Lu5  1  0.52433888  0.75000000  0.30043357  1.0
  Lu  Lu6  1  0.36358773  0.25000000  0.43572770  1.0
  Lu  Lu7  1  0.63641227  0.75000000  0.56427230  1.0
  Lu  Lu8  1  0.19045095  0.25000000  0.20471371  1.0
  Lu  Lu9  1  0.80954905  0.75000000  0.79528629  1.0
  Lu  Lu10  1  0.95835107  0.25000000  0.62944880  1.0
  Lu  Lu11  1  0.04164893  0.75000000  0.37055120  1.0
  Lu  Lu12  1  0.85744097  0.25000000  0.00049030  1.0
  Lu  Lu13  1  0.14255903  0.75000000  0.99950970  1.0
  B  B14  1  0.78852899  0.25000000  0.42402553  1.0
  B  B15  1  0.21147101  0.75000000  0.57597447  1.0
  B  B16  1  0.59497943  0.25000000  0.89249976  1.0
  B  B17  1  0.40502057  0.75000000  0.10750024  1.0
  B  B18  1  0.08952321  0.25000000  0.81646412  1.0
  B  B19  1  0.91047679  0.75000000  0.18353588  1.0
  O  O20  1  0.51301826  0.25000000  0.56825332  1.0
  O  O21  1  0.48698174  0.75000000  0.43174668  1.0
  O  O22  1  0.46642987  0.25000000  0.84040852  1.0
  O  O23  1  0.53357013  0.75000000  0.15959148  1.0
  O  O24  1  0.39370277  0.25000000  0.29368428  1.0
  O  O25  1  0.60629723  0.75000000  0.70631572  1.0
  O  O26  1  0.94734737  0.25000000  0.79098529  1.0
  O  O27  1  0.05265263  0.75000000  0.20901471  1.0
  O  O28  1  0.91884582  0.25000000  0.41184446  1.0
  O  O29  1  0.08115418  0.75000000  0.58815554  1.0
  O  O30  1  0.76784932  0.25000000  0.50790988  1.0
  O  O31  1  0.23215068  0.75000000  0.49209012  1.0
  O  O32  1  0.70916286  0.25000000  0.85500465  1.0
  O  O33  1  0.29083714  0.75000000  0.14499535  1.0
  O  O34  1  0.67889936  0.25000000  0.34943176  1.0
  O  O35  1  0.32110064  0.75000000  0.65056824  1.0
  O  O36  1  0.62627197  0.25000000  0.98362216  1.0
  O  O37  1  0.37372803  0.75000000  0.01637784  1.0
  O  O38  1  0.16337727  0.25000000  0.90241365  1.0
  O  O39  1  0.83662273  0.75000000  0.09758635  1.0
  O  O40  1  0.14925612  0.25000000  0.74675495  1.0
  O  O41  1  0.85074388  0.75000000  0.25324505  1.0
  O  O42  1  0.15415731  0.25000000  0.34520511  1.0
  O  O43  1  0.84584269  0.75000000  0.65479489  1.0
  O  O44  1  0.08013722  0.25000000  0.06277913  1.0
  O  O45  1  0.91986278  0.75000000  0.93722087  1.0
