# generated using pymatgen
data_K2Te2As
_symmetry_space_group_name_H-M   'P 1'
_cell_length_a   20.51076337
_cell_length_b   8.32319237
_cell_length_c   9.23336178
_cell_angle_alpha   90.00000000
_cell_angle_beta   90.00000000
_cell_angle_gamma   90.00000000
_symmetry_Int_Tables_number   1
_chemical_formula_structural   K2Te2As
_chemical_formula_sum   'K16 Te16 As8'
_cell_volume   1576.27362616
_cell_formula_units_Z   8
loop_
 _symmetry_equiv_pos_site_id
 _symmetry_equiv_pos_as_xyz
  1  'x, y, z'
loop_
 _atom_site_type_symbol
 _atom_site_label
 _atom_site_symmetry_multiplicity
 _atom_site_fract_x
 _atom_site_fract_y
 _atom_site_fract_z
 _atom_site_occupancy
  K  K0  1  0.31146232  0.75000000  0.00054560  1.0
  K  K1  1  0.81146232  0.75000000  0.49945440  1.0
  K  K2  1  0.68853768  0.25000000  0.99945440  1.0
  K  K3  1  0.18853768  0.25000000  0.50054560  1.0
  K  K4  1  0.28475781  0.75000000  0.60561604  1.0
  K  K5  1  0.78475781  0.75000000  0.89438396  1.0
  K  K6  1  0.71524219  0.25000000  0.39438396  1.0
  K  K7  1  0.21524219  0.25000000  0.10561604  1.0
  K  K8  1  0.06159129  0.75000000  0.57358296  1.0
  K  K9  1  0.56159129  0.75000000  0.92641704  1.0
  K  K10  1  0.93840871  0.25000000  0.42641704  1.0
  K  K11  1  0.43840871  0.25000000  0.07358296  1.0
  K  K12  1  0.95682679  0.75000000  0.08293037  1.0
  K  K13  1  0.45682679  0.75000000  0.41706963  1.0
  K  K14  1  0.04317321  0.25000000  0.91706963  1.0
  K  K15  1  0.54317321  0.25000000  0.58293037  1.0
  Te  Te16  1  0.41841176  0.99455308  0.76000892  1.0
  Te  Te17  1  0.41841176  0.50544692  0.76000892  1.0
  Te  Te18  1  0.91841176  0.99455308  0.73999108  1.0
  Te  Te19  1  0.91841176  0.50544692  0.73999108  1.0
  Te  Te20  1  0.58158824  0.49455308  0.23999108  1.0
  Te  Te21  1  0.58158824  0.00544692  0.23999108  1.0
  Te  Te22  1  0.08158824  0.49455308  0.26000892  1.0
  Te  Te23  1  0.08158824  0.00544692  0.26000892  1.0
  Te  Te24  1  0.17956320  0.99300776  0.81942751  1.0
  Te  Te25  1  0.17956320  0.50699224  0.81942751  1.0
  Te  Te26  1  0.67956320  0.99300776  0.68057249  1.0
  Te  Te27  1  0.67956320  0.50699224  0.68057249  1.0
  Te  Te28  1  0.82043680  0.49300776  0.18057249  1.0
  Te  Te29  1  0.82043680  0.00699224  0.18057249  1.0
  Te  Te30  1  0.32043680  0.49300776  0.31942751  1.0
  Te  Te31  1  0.32043680  0.00699224  0.31942751  1.0
  As  As32  1  0.15098479  0.75000000  0.18784775  1.0
  As  As33  1  0.65098479  0.75000000  0.31215225  1.0
  As  As34  1  0.84901521  0.25000000  0.81215225  1.0
  As  As35  1  0.34901521  0.25000000  0.68784775  1.0
  As  As36  1  0.11320349  0.75000000  0.92842379  1.0
  As  As37  1  0.61320349  0.75000000  0.57157621  1.0
  As  As38  1  0.88679651  0.25000000  0.07157621  1.0
  As  As39  1  0.38679651  0.25000000  0.42842379  1.0
