# generated using pymatgen
data_SnH6Au2(C3N2)2
_symmetry_space_group_name_H-M   'P 1'
_cell_length_a   10.86807938
_cell_length_b   10.86807938
_cell_length_c   7.23725543
_cell_angle_alpha   69.65710487
_cell_angle_beta   110.34289513
_cell_angle_gamma   113.58872149
_symmetry_Int_Tables_number   1
_chemical_formula_structural   SnH6Au2(C3N2)2
_chemical_formula_sum   'Sn2 H12 Au4 C12 N8'
_cell_volume   712.58304715
_cell_formula_units_Z   2
loop_
 _symmetry_equiv_pos_site_id
 _symmetry_equiv_pos_as_xyz
  1  'x, y, z'
loop_
 _atom_site_type_symbol
 _atom_site_label
 _atom_site_symmetry_multiplicity
 _atom_site_fract_x
 _atom_site_fract_y
 _atom_site_fract_z
 _atom_site_occupancy
  Sn  Sn0  1  1.00000000  -0.50000000  0.00000000  1.0
  Sn  Sn1  1  1.50000000  -0.00000000  0.50000000  1.0
  H  H2  1  0.73150270  -0.56099291  0.98127161  1.0
  H  H3  1  0.43900709  -0.26849730  0.51872839  1.0
  H  H4  1  1.26849730  0.56099291  0.01872839  1.0
  H  H5  1  1.56099291  0.26849730  0.48127161  1.0
  H  H6  1  0.79405948  -0.69904577  0.16004433  1.0
  H  H7  1  0.30095423  -0.20594052  0.33995567  1.0
  H  H8  1  1.20594052  0.69904577  0.83995567  1.0
  H  H9  1  1.69904577  0.20594052  0.66004433  1.0
  H  H10  1  0.83463236  -0.54164885  0.23133594  1.0
  H  H11  1  0.45835115  -0.16536764  0.26866406  1.0
  H  H12  1  1.16536764  0.54164885  0.76866406  1.0
  H  H13  1  1.54164885  0.16536764  0.73133594  1.0
  Au  Au14  1  0.00000000  0.00000000  0.00000000  1.0
  Au  Au15  1  -0.00000000  0.00000000  0.50000000  1.0
  Au  Au16  1  0.72434004  -0.27565996  0.25000000  1.0
  Au  Au17  1  1.27565996  0.27565996  0.75000000  1.0
  C  C18  1  1.01982081  0.82029463  0.03250137  1.0
  C  C19  1  1.82029463  0.01982081  0.46749863  1.0
  C  C20  1  0.98017919  -0.82029463  0.96749863  1.0
  C  C21  1  0.17970537  -0.01982081  0.53250137  1.0
  C  C22  1  0.81858566  -0.37449322  0.51067052  1.0
  C  C23  1  0.62550678  -0.18141434  0.98932948  1.0
  C  C24  1  1.18141434  0.37449322  0.48932948  1.0
  C  C25  1  1.37449322  0.18141434  0.01067052  1.0
  C  C26  1  0.81607267  -0.58685206  0.10672621  1.0
  C  C27  1  0.41314794  -0.18392733  0.39327379  1.0
  C  C28  1  1.18392733  0.58685206  0.89327379  1.0
  C  C29  1  1.58685206  0.18392733  0.60672621  1.0
  N  N30  1  1.03002721  0.71369337  0.04929739  1.0
  N  N31  1  1.71369337  0.03002721  0.45070261  1.0
  N  N32  1  0.96997279  -0.71369337  0.95070261  1.0
  N  N33  1  0.28630663  -0.03002721  0.54929739  1.0
  N  N34  1  0.87400058  -0.43262887  0.66586355  1.0
  N  N35  1  0.56737113  -0.12599942  0.83413645  1.0
  N  N36  1  1.12599942  0.43262887  0.33413645  1.0
  N  N37  1  1.43262887  0.12599942  0.16586355  1.0
