# generated using pymatgen
data_Ti5As3
_symmetry_space_group_name_H-M   'P 1'
_cell_length_a   7.54476829
_cell_length_b   7.54476829
_cell_length_c   5.19427032
_cell_angle_alpha   90.00000000
_cell_angle_beta   90.00000000
_cell_angle_gamma   120.00000000
_symmetry_Int_Tables_number   1
_chemical_formula_structural   Ti5As3
_chemical_formula_sum   'Ti10 As6'
_cell_volume   256.06309640
_cell_formula_units_Z   2
loop_
 _symmetry_equiv_pos_site_id
 _symmetry_equiv_pos_as_xyz
  1  'x, y, z'
loop_
 _atom_site_type_symbol
 _atom_site_label
 _atom_site_symmetry_multiplicity
 _atom_site_fract_x
 _atom_site_fract_y
 _atom_site_fract_z
 _atom_site_occupancy
  Ti  Ti0  1  0.74364654  0.74364654  0.25000000  1.0
  Ti  Ti1  1  0.74364654  0.00000000  0.75000000  1.0
  Ti  Ti2  1  0.00000000  0.74364654  0.75000000  1.0
  Ti  Ti3  1  0.00000000  0.25635346  0.25000000  1.0
  Ti  Ti4  1  0.25635346  0.25635346  0.75000000  1.0
  Ti  Ti5  1  0.25635346  0.00000000  0.25000000  1.0
  Ti  Ti6  1  0.33333333  0.66666667  0.50000000  1.0
  Ti  Ti7  1  0.33333333  0.66666667  0.00000000  1.0
  Ti  Ti8  1  0.66666667  0.33333333  0.50000000  1.0
  Ti  Ti9  1  0.66666667  0.33333333  0.00000000  1.0
  As  As10  1  0.38409342  0.38409342  0.25000000  1.0
  As  As11  1  0.38409342  0.00000000  0.75000000  1.0
  As  As12  1  0.00000000  0.38409342  0.75000000  1.0
  As  As13  1  -0.00000000  0.61590658  0.25000000  1.0
  As  As14  1  0.61590658  0.61590658  0.75000000  1.0
  As  As15  1  0.61590658  0.00000000  0.25000000  1.0
