# generated using pymatgen
data_KPAuSe3
_symmetry_space_group_name_H-M   'P 1'
_cell_length_a   7.24557920
_cell_length_b   7.24557920
_cell_length_c   8.24526021
_cell_angle_alpha   69.35306909
_cell_angle_beta   110.64693091
_cell_angle_gamma   118.29751471
_symmetry_Int_Tables_number   1
_chemical_formula_structural   KPAuSe3
_chemical_formula_sum   'K2 P2 Au2 Se6'
_cell_volume   347.50340065
_cell_formula_units_Z   2
loop_
 _symmetry_equiv_pos_site_id
 _symmetry_equiv_pos_as_xyz
  1  'x, y, z'
loop_
 _atom_site_type_symbol
 _atom_site_label
 _atom_site_symmetry_multiplicity
 _atom_site_fract_x
 _atom_site_fract_y
 _atom_site_fract_z
 _atom_site_occupancy
  K  K0  1  0.29814670  -0.29814670  0.74987943  1.0
  K  K1  1  0.70185330  -0.70185330  0.25012057  1.0
  P  P2  1  0.97502899  -0.97502899  0.85020175  1.0
  P  P3  1  0.02497101  -0.02497101  0.14979825  1.0
  Au  Au4  1  0.74968239  -0.25031761  0.50000000  1.0
  Au  Au5  1  1.25031761  0.25031761  0.50000000  1.0
  Se  Se6  1  1.32017424  0.17803069  0.82238554  1.0
  Se  Se7  1  0.82196931  -0.32017424  0.82238554  1.0
  Se  Se8  1  1.17803069  0.32017424  0.17761446  1.0
  Se  Se9  1  0.67982576  -0.17803069  0.17761446  1.0
  Se  Se10  1  0.78546021  -0.78546021  0.70655781  1.0
  Se  Se11  1  0.21453979  -0.21453979  0.29344219  1.0
