# generated using pymatgen
data_K5Ti3F14
_symmetry_space_group_name_H-M   'P 1'
_cell_length_a   7.98030517
_cell_length_b   7.98030517
_cell_length_c   11.78815104
_cell_angle_alpha   90.00000000
_cell_angle_beta   90.00000000
_cell_angle_gamma   90.00000000
_symmetry_Int_Tables_number   1
_chemical_formula_structural   K5Ti3F14
_chemical_formula_sum   'K10 Ti6 F28'
_cell_volume   750.73159003
_cell_formula_units_Z   2
loop_
 _symmetry_equiv_pos_site_id
 _symmetry_equiv_pos_as_xyz
  1  'x, y, z'
loop_
 _atom_site_type_symbol
 _atom_site_label
 _atom_site_symmetry_multiplicity
 _atom_site_fract_x
 _atom_site_fract_y
 _atom_site_fract_z
 _atom_site_occupancy
  K  K0  1  0.26152488  0.23847512  0.25000000  1.0
  K  K1  1  0.26152488  0.23847512  0.75000000  1.0
  K  K2  1  0.76152488  0.26152488  0.75000000  1.0
  K  K3  1  0.76152488  0.26152488  0.25000000  1.0
  K  K4  1  0.73847512  0.76152488  0.25000000  1.0
  K  K5  1  0.73847512  0.76152488  0.75000000  1.0
  K  K6  1  0.23847512  0.73847512  0.75000000  1.0
  K  K7  1  0.23847512  0.73847512  0.25000000  1.0
  K  K8  1  0.50000000  0.50000000  0.00000000  1.0
  K  K9  1  0.00000000  0.00000000  0.50000000  1.0
  Ti  Ti10  1  0.50000000  0.00000000  0.50000000  1.0
  Ti  Ti11  1  0.00000000  0.50000000  0.00000000  1.0
  Ti  Ti12  1  0.00000000  0.50000000  0.50000000  1.0
  Ti  Ti13  1  0.50000000  0.00000000  0.00000000  1.0
  Ti  Ti14  1  0.50000000  0.50000000  0.50000000  1.0
  Ti  Ti15  1  0.00000000  0.00000000  0.00000000  1.0
  F  F16  1  0.48523604  0.82018584  0.11412212  1.0
  F  F17  1  0.48523604  0.82018584  0.88587788  1.0
  F  F18  1  0.98523604  0.67981416  0.61412212  1.0
  F  F19  1  0.98523604  0.67981416  0.38587788  1.0
  F  F20  1  0.17981416  0.48523604  0.11412212  1.0
  F  F21  1  0.17981416  0.48523604  0.88587788  1.0
  F  F22  1  0.67981416  0.01476396  0.61412212  1.0
  F  F23  1  0.67981416  0.01476396  0.38587788  1.0
  F  F24  1  0.51476396  0.17981416  0.11412212  1.0
  F  F25  1  0.51476396  0.17981416  0.88587788  1.0
  F  F26  1  0.01476396  0.32018584  0.61412212  1.0
  F  F27  1  0.01476396  0.32018584  0.38587788  1.0
  F  F28  1  0.82018584  0.51476396  0.11412212  1.0
  F  F29  1  0.82018584  0.51476396  0.88587788  1.0
  F  F30  1  0.32018584  0.98523604  0.61412212  1.0
  F  F31  1  0.32018584  0.98523604  0.38587788  1.0
  F  F32  1  0.25027427  0.52338724  0.50000000  1.0
  F  F33  1  0.75027427  0.97661276  0.00000000  1.0
  F  F34  1  0.47661276  0.25027427  0.50000000  1.0
  F  F35  1  0.97661276  0.24972573  0.00000000  1.0
  F  F36  1  0.74972573  0.47661276  0.50000000  1.0
  F  F37  1  0.24972573  0.02338724  0.00000000  1.0
  F  F38  1  0.52338724  0.74972573  0.50000000  1.0
  F  F39  1  0.02338724  0.75027427  0.00000000  1.0
  F  F40  1  0.50000000  0.50000000  0.33233113  1.0
  F  F41  1  0.50000000  0.50000000  0.66766887  1.0
  F  F42  1  0.00000000  0.00000000  0.83233113  1.0
  F  F43  1  0.00000000  0.00000000  0.16766887  1.0
