# generated using pymatgen
data_Sr2YTaO6
_symmetry_space_group_name_H-M   'P 1'
_cell_length_a   5.83862381
_cell_length_b   5.92604233
_cell_length_c   10.12998268
_cell_angle_alpha   90.00000000
_cell_angle_beta   124.99285327
_cell_angle_gamma   90.00000000
_symmetry_Int_Tables_number   1
_chemical_formula_structural   Sr2YTaO6
_chemical_formula_sum   'Sr4 Y2 Ta2 O12'
_cell_volume   287.13517040
_cell_formula_units_Z   2
loop_
 _symmetry_equiv_pos_site_id
 _symmetry_equiv_pos_as_xyz
  1  'x, y, z'
loop_
 _atom_site_type_symbol
 _atom_site_label
 _atom_site_symmetry_multiplicity
 _atom_site_fract_x
 _atom_site_fract_y
 _atom_site_fract_z
 _atom_site_occupancy
  Sr  Sr0  1  0.24185348  0.46324538  0.25053880  1.0
  Sr  Sr1  1  0.24185348  0.03675462  0.75053880  1.0
  Sr  Sr2  1  0.75814652  0.96324538  0.24946120  1.0
  Sr  Sr3  1  0.75814652  0.53675462  0.74946120  1.0
  Y  Y4  1  0.50000000  0.00000000  0.50000000  1.0
  Y  Y5  1  0.50000000  0.50000000  -0.00000000  1.0
  Ta  Ta6  1  0.00000000  0.00000000  0.00000000  1.0
  Ta  Ta7  1  0.00000000  0.50000000  0.50000000  1.0
  O  O8  1  0.85092242  0.72573891  0.04570986  1.0
  O  O9  1  0.85092242  0.77426109  0.54570986  1.0
  O  O10  1  0.14907758  0.22573891  0.45429014  1.0
  O  O11  1  0.14907758  0.27426109  0.95429014  1.0
  O  O12  1  0.31663984  0.02496720  0.23471849  1.0
  O  O13  1  0.31663984  0.47503280  0.73471849  1.0
  O  O14  1  0.68336016  0.52496720  0.26528151  1.0
  O  O15  1  0.68336016  0.97503280  0.76528151  1.0
  O  O16  1  0.76742443  0.19743982  0.04135628  1.0
  O  O17  1  0.76742443  0.30256018  0.54135628  1.0
  O  O18  1  0.23257557  0.69743982  0.45864372  1.0
  O  O19  1  0.23257557  0.80256018  0.95864372  1.0
