# generated using pymatgen
data_KSrPO4
_symmetry_space_group_name_H-M   'P 1'
_cell_length_a   7.43441710
_cell_length_b   5.62834320
_cell_length_c   9.75418552
_cell_angle_alpha   90.00000000
_cell_angle_beta   90.00000000
_cell_angle_gamma   90.00000000
_symmetry_Int_Tables_number   1
_chemical_formula_structural   KSrPO4
_chemical_formula_sum   'K4 Sr4 P4 O16'
_cell_volume   408.14878293
_cell_formula_units_Z   4
loop_
 _symmetry_equiv_pos_site_id
 _symmetry_equiv_pos_as_xyz
  1  'x, y, z'
loop_
 _atom_site_type_symbol
 _atom_site_label
 _atom_site_symmetry_multiplicity
 _atom_site_fract_x
 _atom_site_fract_y
 _atom_site_fract_z
 _atom_site_occupancy
  K  K0  1  0.84127595  0.75000000  0.41781996  1.0
  K  K1  1  0.34127595  0.75000000  0.08218004  1.0
  K  K2  1  0.15872405  0.25000000  0.58218004  1.0
  K  K3  1  0.65872405  0.25000000  0.91781996  1.0
  Sr  Sr4  1  0.49915020  0.75000000  0.69610605  1.0
  Sr  Sr5  1  -0.00084980  0.75000000  0.80389395  1.0
  Sr  Sr6  1  0.50084980  0.25000000  0.30389395  1.0
  Sr  Sr7  1  1.00084980  0.25000000  0.19610605  1.0
  P  P8  1  0.77407470  0.75000000  0.08387793  1.0
  P  P9  1  0.27407470  0.75000000  0.41612207  1.0
  P  P10  1  0.22592530  0.25000000  0.91612207  1.0
  P  P11  1  0.72592530  0.25000000  0.58387793  1.0
  O  O12  1  0.71207867  0.97829031  0.16245152  1.0
  O  O13  1  0.71207867  0.52170969  0.16245152  1.0
  O  O14  1  0.21207867  0.97829031  0.33754848  1.0
  O  O15  1  0.21207867  0.52170969  0.33754848  1.0
  O  O16  1  0.28792133  0.47829031  0.83754848  1.0
  O  O17  1  0.28792133  0.02170969  0.83754848  1.0
  O  O18  1  0.78792133  0.47829031  0.66245152  1.0
  O  O19  1  0.78792133  0.02170969  0.66245152  1.0
  O  O20  1  0.98299440  0.75000000  0.07282203  1.0
  O  O21  1  0.48299440  0.75000000  0.42717797  1.0
  O  O22  1  0.01700560  0.25000000  0.92717797  1.0
  O  O23  1  0.51700560  0.25000000  0.57282203  1.0
  O  O24  1  0.19145471  0.75000000  0.56439336  1.0
  O  O25  1  0.69145471  0.75000000  0.93560664  1.0
  O  O26  1  0.80854529  0.25000000  0.43560664  1.0
  O  O27  1  0.30854529  0.25000000  0.06439336  1.0
