# generated using pymatgen
data_PdSeO3
_symmetry_space_group_name_H-M   'P 1'
_cell_length_a   5.10751663
_cell_length_b   5.10751663
_cell_length_c   7.36908046
_cell_angle_alpha   69.91477974
_cell_angle_beta   110.08522026
_cell_angle_gamma   93.07303892
_symmetry_Int_Tables_number   1
_chemical_formula_structural   PdSeO3
_chemical_formula_sum   'Pd2 Se2 O6'
_cell_volume   169.11231943
_cell_formula_units_Z   2
loop_
 _symmetry_equiv_pos_site_id
 _symmetry_equiv_pos_as_xyz
  1  'x, y, z'
loop_
 _atom_site_type_symbol
 _atom_site_label
 _atom_site_symmetry_multiplicity
 _atom_site_fract_x
 _atom_site_fract_y
 _atom_site_fract_z
 _atom_site_occupancy
  Pd  Pd0  1  1.50000000  0.00000000  -0.00000000  1.0
  Pd  Pd1  1  1.00000000  -0.50000000  -0.00000000  1.0
  Se  Se2  1  0.65567617  -0.65567617  0.33269460  1.0
  Se  Se3  1  0.34432383  -0.34432383  0.66730540  1.0
  O  O4  1  0.45116421  -0.05500594  0.73066263  1.0
  O  O5  1  1.05500594  0.54883579  0.73066263  1.0
  O  O6  1  0.94499406  -0.54883579  0.26933737  1.0
  O  O7  1  1.54883579  0.05500594  0.26933737  1.0
  O  O8  1  0.61179646  -0.61179646  0.86960323  1.0
  O  O9  1  0.38820354  -0.38820354  0.13039677  1.0
