# generated using pymatgen
data_Mg3Nb6O11
_symmetry_space_group_name_H-M   'P 1'
_cell_length_a   6.08148157
_cell_length_b   6.08148157
_cell_length_c   7.52095765
_cell_angle_alpha   90.00000000
_cell_angle_beta   90.00000000
_cell_angle_gamma   120.00000000
_symmetry_Int_Tables_number   1
_chemical_formula_structural   Mg3Nb6O11
_chemical_formula_sum   'Mg3 Nb6 O11'
_cell_volume   240.89210426
_cell_formula_units_Z   1
loop_
 _symmetry_equiv_pos_site_id
 _symmetry_equiv_pos_as_xyz
  1  'x, y, z'
loop_
 _atom_site_type_symbol
 _atom_site_label
 _atom_site_symmetry_multiplicity
 _atom_site_fract_x
 _atom_site_fract_y
 _atom_site_fract_z
 _atom_site_occupancy
  Mg  Mg0  1  0.33333333  0.66666667  0.07707471  1.0
  Mg  Mg1  1  0.66666667  0.33333333  0.92292529  1.0
  Mg  Mg2  1  0.00000000  0.00000000  0.00000000  1.0
  Nb  Nb3  1  0.30919750  0.15459875  0.34734523  1.0
  Nb  Nb4  1  0.15459875  0.30919750  0.65265477  1.0
  Nb  Nb5  1  0.15459875  0.84540125  0.65265477  1.0
  Nb  Nb6  1  0.84540125  0.15459875  0.34734523  1.0
  Nb  Nb7  1  0.84540125  0.69080250  0.34734523  1.0
  Nb  Nb8  1  0.69080250  0.84540125  0.65265477  1.0
  O  O9  1  0.33333333  0.66666667  0.81293036  1.0
  O  O10  1  0.66666667  0.33333333  0.18706964  1.0
  O  O11  1  0.68835033  0.84417516  0.17439552  1.0
  O  O12  1  0.84417516  0.68835033  0.82560448  1.0
  O  O13  1  0.84417516  0.15582484  0.82560448  1.0
  O  O14  1  0.15582484  0.84417516  0.17439552  1.0
  O  O15  1  0.15582484  0.31164967  0.17439552  1.0
  O  O16  1  0.31164967  0.15582484  0.82560448  1.0
  O  O17  1  0.50000000  0.50000000  0.50000000  1.0
  O  O18  1  0.50000000  0.00000000  0.50000000  1.0
  O  O19  1  -0.00000000  0.50000000  0.50000000  1.0
