# generated using pymatgen
data_MgH2Cl2O
_symmetry_space_group_name_H-M   'P 1'
_cell_length_a   8.94626573
_cell_length_b   3.69022608
_cell_length_c   11.60190066
_cell_angle_alpha   90.00000000
_cell_angle_beta   90.00000000
_cell_angle_gamma   90.00000000
_symmetry_Int_Tables_number   1
_chemical_formula_structural   MgH2Cl2O
_chemical_formula_sum   'Mg4 H8 Cl8 O4'
_cell_volume   383.02216767
_cell_formula_units_Z   4
loop_
 _symmetry_equiv_pos_site_id
 _symmetry_equiv_pos_as_xyz
  1  'x, y, z'
loop_
 _atom_site_type_symbol
 _atom_site_label
 _atom_site_symmetry_multiplicity
 _atom_site_fract_x
 _atom_site_fract_y
 _atom_site_fract_z
 _atom_site_occupancy
  Mg  Mg0  1  0.68404218  0.75000000  0.01534970  1.0
  Mg  Mg1  1  0.18404218  0.75000000  0.48465030  1.0
  Mg  Mg2  1  0.31595782  0.25000000  0.98465030  1.0
  Mg  Mg3  1  0.81595782  0.25000000  0.51534970  1.0
  H  H4  1  0.94869403  0.75000000  0.13499878  1.0
  H  H5  1  0.44869403  0.75000000  0.36500122  1.0
  H  H6  1  0.05130597  0.25000000  0.86500122  1.0
  H  H7  1  0.55130597  0.25000000  0.63499878  1.0
  H  H8  1  0.81406977  0.75000000  0.22491104  1.0
  H  H9  1  0.31406977  0.75000000  0.27508896  1.0
  H  H10  1  0.18593023  0.25000000  0.77508896  1.0
  H  H11  1  0.68593023  0.25000000  0.72491104  1.0
  Cl  Cl12  1  0.96064417  0.75000000  0.62052301  1.0
  Cl  Cl13  1  0.46064417  0.75000000  0.87947699  1.0
  Cl  Cl14  1  0.03935583  0.25000000  0.37947699  1.0
  Cl  Cl15  1  0.53935583  0.25000000  0.12052301  1.0
  Cl  Cl16  1  0.69523912  0.75000000  0.40178692  1.0
  Cl  Cl17  1  0.19523912  0.75000000  0.09821308  1.0
  Cl  Cl18  1  0.30476088  0.25000000  0.59821308  1.0
  Cl  Cl19  1  0.80476088  0.25000000  0.90178692  1.0
  O  O20  1  0.83933816  0.75000000  0.14257440  1.0
  O  O21  1  0.33933816  0.75000000  0.35742560  1.0
  O  O22  1  0.16066184  0.25000000  0.85742560  1.0
  O  O23  1  0.66066184  0.25000000  0.64257440  1.0
