# generated using pymatgen
data_BaCO3
_symmetry_space_group_name_H-M   'P 1'
_cell_length_a   4.41841703
_cell_length_b   4.41841703
_cell_length_c   4.41841703
_cell_angle_alpha   74.99382798
_cell_angle_beta   74.99382798
_cell_angle_gamma   74.99382798
_symmetry_Int_Tables_number   1
_chemical_formula_structural   BaCO3
_chemical_formula_sum   'Ba1 C1 O3'
_cell_volume   78.75484345
_cell_formula_units_Z   1
loop_
 _symmetry_equiv_pos_site_id
 _symmetry_equiv_pos_as_xyz
  1  'x, y, z'
loop_
 _atom_site_type_symbol
 _atom_site_label
 _atom_site_symmetry_multiplicity
 _atom_site_fract_x
 _atom_site_fract_y
 _atom_site_fract_z
 _atom_site_occupancy
  Ba  Ba0  1  0.02139954  0.02139954  0.02139954  1.0
  C  C1  1  0.46926738  0.46926738  -0.53073262  1.0
  O  O2  1  0.18777995  0.60602657  -0.39397343  1.0
  O  O3  1  0.60602657  0.18777995  -0.39397343  1.0
  O  O4  1  0.60602657  0.60602657  -0.81222005  1.0
