# generated using pymatgen
data_ZnH6(SeO4)2
_symmetry_space_group_name_H-M   'P 1'
_cell_length_a   7.19240717
_cell_length_b   7.12621480
_cell_length_c   8.53722231
_cell_angle_alpha   90.00000000
_cell_angle_beta   116.07566850
_cell_angle_gamma   90.00000000
_symmetry_Int_Tables_number   1
_chemical_formula_structural   ZnH6(SeO4)2
_chemical_formula_sum   'Zn2 H12 Se4 O16'
_cell_volume   393.03365483
_cell_formula_units_Z   2
loop_
 _symmetry_equiv_pos_site_id
 _symmetry_equiv_pos_as_xyz
  1  'x, y, z'
loop_
 _atom_site_type_symbol
 _atom_site_label
 _atom_site_symmetry_multiplicity
 _atom_site_fract_x
 _atom_site_fract_y
 _atom_site_fract_z
 _atom_site_occupancy
  Zn  Zn0  1  0.00000000  0.50000000  0.50000000  1.0
  Zn  Zn1  1  0.00000000  0.00000000  0.00000000  1.0
  H  H2  1  0.89193188  0.71851583  0.12304339  1.0
  H  H3  1  0.89193188  0.78148417  0.62304339  1.0
  H  H4  1  0.10806812  0.21851583  0.37695661  1.0
  H  H5  1  0.10806812  0.28148417  0.87695661  1.0
  H  H6  1  0.78992577  0.82610616  0.42044197  1.0
  H  H7  1  0.78992577  0.67389384  0.92044197  1.0
  H  H8  1  0.21007423  0.32610616  0.07955803  1.0
  H  H9  1  0.21007423  0.17389384  0.57955803  1.0
  H  H10  1  0.50495059  -0.00166878  0.24951185  1.0
  H  H11  1  0.50495059  0.50166878  0.74951185  1.0
  H  H12  1  0.49504941  0.49833122  0.25048815  1.0
  H  H13  1  0.49504941  1.00166878  0.75048815  1.0
  Se  Se14  1  0.68798593  0.20940590  0.14896814  1.0
  Se  Se15  1  0.68798593  0.29059410  0.64896814  1.0
  Se  Se16  1  0.31201407  0.70940590  0.35103186  1.0
  Se  Se17  1  0.31201407  0.79059410  0.85103186  1.0
  O  O18  1  0.93149989  0.15136294  0.18362005  1.0
  O  O19  1  0.93149989  0.34863706  0.68362005  1.0
  O  O20  1  0.06850011  0.65136294  0.31637995  1.0
  O  O21  1  0.06850011  0.84863706  0.81637995  1.0
  O  O22  1  0.81180327  0.72359606  0.50472587  1.0
  O  O23  1  0.81180327  0.77640394  1.00472587  1.0
  O  O24  1  0.18819673  0.22359606  -0.00472587  1.0
  O  O25  1  0.18819673  0.27640394  0.49527413  1.0
  O  O26  1  0.72308200  0.40052377  0.27849248  1.0
  O  O27  1  0.72308200  0.09947623  0.77849248  1.0
  O  O28  1  0.27691800  0.90052377  0.22150752  1.0
  O  O29  1  0.27691800  0.59947623  0.72150752  1.0
  O  O30  1  0.65590612  0.02772971  0.28647394  1.0
  O  O31  1  0.65590612  0.47227029  0.78647394  1.0
  O  O32  1  0.34409388  0.52772971  0.21352606  1.0
  O  O33  1  0.34409388  0.97227029  0.71352606  1.0
