# generated using pymatgen
data_RuPbO12
_symmetry_space_group_name_H-M   'P 1'
_cell_length_a   7.83227634
_cell_length_b   7.83227634
_cell_length_c   7.83227634
_cell_angle_alpha   60.00000000
_cell_angle_beta   60.00000000
_cell_angle_gamma   60.00000000
_symmetry_Int_Tables_number   1
_chemical_formula_structural   RuPbO12
_chemical_formula_sum   'Ru2 Pb2 O24'
_cell_volume   339.74181976
_cell_formula_units_Z   2
loop_
 _symmetry_equiv_pos_site_id
 _symmetry_equiv_pos_as_xyz
  1  'x, y, z'
loop_
 _atom_site_type_symbol
 _atom_site_label
 _atom_site_symmetry_multiplicity
 _atom_site_fract_x
 _atom_site_fract_y
 _atom_site_fract_z
 _atom_site_occupancy
  Ru  Ru0  1  0.50000000  0.50000000  -0.50000000  1.0
  Ru  Ru1  1  0.75000000  -0.25000000  0.75000000  1.0
  Pb  Pb2  1  0.00000000  1.00000000  -0.00000000  1.0
  Pb  Pb3  1  0.25000000  0.25000000  0.25000000  1.0
  O  O4  1  0.75154236  -0.57033213  1.06724742  1.0
  O  O5  1  -0.24845764  1.06724742  0.42966787  1.0
  O  O6  1  -0.17966787  0.49845764  0.49845764  1.0
  O  O7  1  0.18275258  0.49845764  0.49845764  1.0
  O  O8  1  -0.57033213  0.75154236  1.06724742  1.0
  O  O9  1  0.75154236  -0.24845764  1.06724742  1.0
  O  O10  1  0.75154236  0.06724742  0.75154236  1.0
  O  O11  1  -0.57033213  1.06724742  0.75154236  1.0
  O  O12  1  0.49845764  -0.17966787  0.49845764  1.0
  O  O13  1  0.49845764  0.49845764  -0.17966787  1.0
  O  O14  1  0.18275258  0.49845764  -0.17966787  1.0
  O  O15  1  0.18275258  -0.17966787  0.49845764  1.0
  O  O16  1  1.06724742  -0.24845764  0.75154236  1.0
  O  O17  1  -0.57033213  0.75154236  0.75154236  1.0
  O  O18  1  0.49845764  0.18275258  -0.17966787  1.0
  O  O19  1  0.49845764  -0.17966787  0.18275258  1.0
  O  O20  1  0.06724742  0.75154236  0.42966787  1.0
  O  O21  1  1.06724742  -0.57033213  0.75154236  1.0
  O  O22  1  0.75154236  -0.57033213  0.75154236  1.0
  O  O23  1  -0.24845764  0.75154236  0.42966787  1.0
  O  O24  1  0.49845764  0.18275258  0.49845764  1.0
  O  O25  1  -0.17966787  0.18275258  0.49845764  1.0
  O  O26  1  -0.17966787  0.49845764  0.18275258  1.0
  O  O27  1  0.49845764  0.49845764  0.18275258  1.0
