# generated using pymatgen
data_NaYTiO4
_symmetry_space_group_name_H-M   'P 1'
_cell_length_a   12.45083278
_cell_length_b   5.42471176
_cell_length_c   5.29463573
_cell_angle_alpha   90.00000000
_cell_angle_beta   90.00000000
_cell_angle_gamma   90.00000000
_symmetry_Int_Tables_number   1
_chemical_formula_structural   NaYTiO4
_chemical_formula_sum   'Na4 Y4 Ti4 O16'
_cell_volume   357.61123401
_cell_formula_units_Z   4
loop_
 _symmetry_equiv_pos_site_id
 _symmetry_equiv_pos_as_xyz
  1  'x, y, z'
loop_
 _atom_site_type_symbol
 _atom_site_label
 _atom_site_symmetry_multiplicity
 _atom_site_fract_x
 _atom_site_fract_y
 _atom_site_fract_z
 _atom_site_occupancy
  Na  Na0  1  0.91315159  0.99688218  0.75000000  1.0
  Na  Na1  1  0.91315159  0.50311782  0.25000000  1.0
  Na  Na2  1  0.08684841  0.49688218  0.75000000  1.0
  Na  Na3  1  0.08684841  0.00311782  0.25000000  1.0
  Y  Y4  1  0.39432232  0.47428807  0.75000000  1.0
  Y  Y5  1  0.39432232  0.02571193  0.25000000  1.0
  Y  Y6  1  0.60567768  0.97428807  0.75000000  1.0
  Y  Y7  1  0.60567768  0.52571193  0.25000000  1.0
  Ti  Ti8  1  0.76174804  0.49135447  0.75000000  1.0
  Ti  Ti9  1  0.76174804  0.00864553  0.25000000  1.0
  Ti  Ti10  1  0.23825196  0.99135447  0.75000000  1.0
  Ti  Ti11  1  0.23825196  0.50864553  0.25000000  1.0
  O  O12  1  0.90134876  0.45226240  0.75000000  1.0
  O  O13  1  0.90134876  0.04773760  0.25000000  1.0
  O  O14  1  0.09865124  0.95226240  0.75000000  1.0
  O  O15  1  0.09865124  0.54773760  0.25000000  1.0
  O  O16  1  0.43686619  0.07389283  0.75000000  1.0
  O  O17  1  0.43686619  0.42610717  0.25000000  1.0
  O  O18  1  0.56313381  0.57389283  0.75000000  1.0
  O  O19  1  0.56313381  0.92610717  0.25000000  1.0
  O  O20  1  0.70962405  0.25000000  0.00000000  1.0
  O  O21  1  0.70962405  0.25000000  0.50000000  1.0
  O  O22  1  0.29037595  0.75000000  0.00000000  1.0
  O  O23  1  0.29037595  0.75000000  0.50000000  1.0
  O  O24  1  0.25734801  0.25000000  0.00000000  1.0
  O  O25  1  0.25734801  0.25000000  0.50000000  1.0
  O  O26  1  0.74265199  0.75000000  0.00000000  1.0
  O  O27  1  0.74265199  0.75000000  0.50000000  1.0
