# generated using pymatgen
data_Sr2Sb2O7
_symmetry_space_group_name_H-M   'P 1'
_cell_length_a   7.57150937
_cell_length_b   7.57150937
_cell_length_c   7.57150937
_cell_angle_alpha   91.79339286
_cell_angle_beta   119.88679486
_cell_angle_gamma   118.06134043
_symmetry_Int_Tables_number   1
_chemical_formula_structural   Sr2Sb2O7
_chemical_formula_sum   'Sr4 Sb4 O14'
_cell_volume   311.42431526
_cell_formula_units_Z   2
loop_
 _symmetry_equiv_pos_site_id
 _symmetry_equiv_pos_as_xyz
  1  'x, y, z'
loop_
 _atom_site_type_symbol
 _atom_site_label
 _atom_site_symmetry_multiplicity
 _atom_site_fract_x
 _atom_site_fract_y
 _atom_site_fract_z
 _atom_site_occupancy
  Sr  Sr0  1  0.50000000  0.50000000  1.00000000  1.0
  Sr  Sr1  1  -0.00000000  0.50000000  0.50000000  1.0
  Sr  Sr2  1  1.00000000  1.00000000  0.50000000  1.0
  Sr  Sr3  1  1.00000000  1.50000000  1.00000000  1.0
  Sb  Sb4  1  1.00000000  1.00000000  1.00000000  1.0
  Sb  Sb5  1  0.50000000  0.00000000  0.50000000  1.0
  Sb  Sb6  1  0.50000000  0.50000000  0.50000000  1.0
  Sb  Sb7  1  1.50000000  1.00000000  1.00000000  1.0
  O  O8  1  0.77261401  0.94845796  1.08656164  1.0
  O  O9  1  0.63810369  0.31394764  0.58656164  1.0
  O  O10  1  1.63810369  1.05154204  1.32415605  1.0
  O  O11  1  0.77261401  0.68605236  0.82415605  1.0
  O  O12  1  0.36189631  0.94845796  0.67584395  1.0
  O  O13  1  1.22738599  1.31394764  1.17584395  1.0
  O  O14  1  1.22738599  1.05154204  0.91343836  1.0
  O  O15  1  1.36189631  1.68605236  1.41343836  1.0
  O  O16  1  0.28064639  0.68885383  0.90820744  1.0
  O  O17  1  1.71935361  1.62756105  1.40820744  1.0
  O  O18  1  1.71935361  1.31114617  1.09179256  1.0
  O  O19  1  0.28064639  0.37243895  0.59179256  1.0
  O  O20  1  1.15134192  0.90134192  0.25000000  1.0
  O  O21  1  0.84865808  0.09865808  0.75000000  1.0
