# generated using pymatgen
data_NaAgO2
_symmetry_space_group_name_H-M   'P 1'
_cell_length_a   3.65986143
_cell_length_b   3.65986143
_cell_length_c   6.31584723
_cell_angle_alpha   63.36841588
_cell_angle_beta   116.63158412
_cell_angle_gamma   131.22919222
_symmetry_Int_Tables_number   1
_chemical_formula_structural   NaAgO2
_chemical_formula_sum   'Na1 Ag1 O2'
_cell_volume   55.38551929
_cell_formula_units_Z   1
loop_
 _symmetry_equiv_pos_site_id
 _symmetry_equiv_pos_as_xyz
  1  'x, y, z'
loop_
 _atom_site_type_symbol
 _atom_site_label
 _atom_site_symmetry_multiplicity
 _atom_site_fract_x
 _atom_site_fract_y
 _atom_site_fract_z
 _atom_site_occupancy
  Na  Na0  1  -0.00000000  0.00000000  0.50000000  1.0
  Ag  Ag1  1  0.00000000  0.00000000  0.00000000  1.0
  O  O2  1  1.41738224  -0.41738224  0.75538206  1.0
  O  O3  1  0.58261776  0.41738224  0.24461794  1.0
