# generated using pymatgen
data_Zr13Os4C
_symmetry_space_group_name_H-M   'P 1'
_cell_length_a   11.75048005
_cell_length_b   11.75048005
_cell_length_c   11.75048005
_cell_angle_alpha   60.00000000
_cell_angle_beta   60.00000000
_cell_angle_gamma   60.00000000
_symmetry_Int_Tables_number   1
_chemical_formula_structural   Zr13Os4C
_chemical_formula_sum   'Zr26 Os8 C2'
_cell_volume   1147.23352742
_cell_formula_units_Z   2
loop_
 _symmetry_equiv_pos_site_id
 _symmetry_equiv_pos_as_xyz
  1  'x, y, z'
loop_
 _atom_site_type_symbol
 _atom_site_label
 _atom_site_symmetry_multiplicity
 _atom_site_fract_x
 _atom_site_fract_y
 _atom_site_fract_z
 _atom_site_occupancy
  Zr  Zr0  1  0.93116462  -0.54698734  0.68465809  1.0
  Zr  Zr1  1  -0.06883538  0.68465809  0.45301266  1.0
  Zr  Zr2  1  -0.20301266  0.31883538  0.31883538  1.0
  Zr  Zr3  1  0.56534191  0.31883538  0.31883538  1.0
  Zr  Zr4  1  -0.54698734  0.93116462  0.68465809  1.0
  Zr  Zr5  1  0.93116462  -0.06883538  0.68465809  1.0
  Zr  Zr6  1  0.93116462  -0.31534191  0.93116462  1.0
  Zr  Zr7  1  -0.54698734  0.68465809  0.93116462  1.0
  Zr  Zr8  1  0.31883538  -0.20301266  0.31883538  1.0
  Zr  Zr9  1  0.31883538  0.31883538  -0.20301266  1.0
  Zr  Zr10  1  0.56534191  0.31883538  -0.20301266  1.0
  Zr  Zr11  1  0.56534191  -0.20301266  0.31883538  1.0
  Zr  Zr12  1  0.68465809  -0.06883538  0.93116462  1.0
  Zr  Zr13  1  -0.54698734  0.93116462  0.93116462  1.0
  Zr  Zr14  1  0.31883538  0.56534191  -0.20301266  1.0
  Zr  Zr15  1  0.31883538  -0.20301266  0.56534191  1.0
  Zr  Zr16  1  -0.31534191  0.93116462  0.45301266  1.0
  Zr  Zr17  1  0.68465809  -0.54698734  0.93116462  1.0
  Zr  Zr18  1  0.93116462  -0.54698734  0.93116462  1.0
  Zr  Zr19  1  -0.06883538  0.93116462  0.45301266  1.0
  Zr  Zr20  1  0.31883538  0.56534191  0.31883538  1.0
  Zr  Zr21  1  -0.20301266  0.56534191  0.31883538  1.0
  Zr  Zr22  1  -0.20301266  0.31883538  0.56534191  1.0
  Zr  Zr23  1  0.31883538  0.31883538  0.56534191  1.0
  Zr  Zr24  1  0.50000000  0.50000000  -0.50000000  1.0
  Zr  Zr25  1  0.75000000  -0.25000000  0.75000000  1.0
  Os  Os26  1  0.66476379  -0.33523621  1.00570864  1.0
  Os  Os27  1  0.66476379  0.00570864  0.66476379  1.0
  Os  Os28  1  0.58523621  -0.41476379  0.58523621  1.0
  Os  Os29  1  1.24429136  -0.41476379  0.58523621  1.0
  Os  Os30  1  1.00570864  -0.33523621  0.66476379  1.0
  Os  Os31  1  0.66476379  -0.33523621  0.66476379  1.0
  Os  Os32  1  0.58523621  0.24429136  0.58523621  1.0
  Os  Os33  1  0.58523621  -0.41476379  1.24429136  1.0
  C  C34  1  -0.00000000  1.00000000  0.00000000  1.0
  C  C35  1  0.25000000  0.25000000  0.25000000  1.0
