# generated using pymatgen
data_Ta5GaSn3
_symmetry_space_group_name_H-M   'P 1'
_cell_length_a   8.35479007
_cell_length_b   8.35479007
_cell_length_c   5.57725250
_cell_angle_alpha   90.00000000
_cell_angle_beta   90.00000000
_cell_angle_gamma   120.00000000
_symmetry_Int_Tables_number   1
_chemical_formula_structural   Ta5GaSn3
_chemical_formula_sum   'Ta10 Ga2 Sn6'
_cell_volume   337.14911382
_cell_formula_units_Z   2
loop_
 _symmetry_equiv_pos_site_id
 _symmetry_equiv_pos_as_xyz
  1  'x, y, z'
loop_
 _atom_site_type_symbol
 _atom_site_label
 _atom_site_symmetry_multiplicity
 _atom_site_fract_x
 _atom_site_fract_y
 _atom_site_fract_z
 _atom_site_occupancy
  Ta  Ta0  1  0.72862698  0.72862698  0.25000000  1.0
  Ta  Ta1  1  0.72862698  0.00000000  0.75000000  1.0
  Ta  Ta2  1  0.00000000  0.72862698  0.75000000  1.0
  Ta  Ta3  1  -0.00000000  0.27137302  0.25000000  1.0
  Ta  Ta4  1  0.27137302  0.27137302  0.75000000  1.0
  Ta  Ta5  1  0.27137302  0.00000000  0.25000000  1.0
  Ta  Ta6  1  0.33333333  0.66666667  0.50000000  1.0
  Ta  Ta7  1  0.33333333  0.66666667  0.00000000  1.0
  Ta  Ta8  1  0.66666667  0.33333333  0.50000000  1.0
  Ta  Ta9  1  0.66666667  0.33333333  0.00000000  1.0
  Ga  Ga10  1  0.00000000  0.00000000  0.50000000  1.0
  Ga  Ga11  1  0.00000000  0.00000000  0.00000000  1.0
  Sn  Sn12  1  0.38956498  0.38956498  0.25000000  1.0
  Sn  Sn13  1  0.38956498  0.00000000  0.75000000  1.0
  Sn  Sn14  1  0.00000000  0.38956498  0.75000000  1.0
  Sn  Sn15  1  0.00000000  0.61043502  0.25000000  1.0
  Sn  Sn16  1  0.61043502  0.61043502  0.75000000  1.0
  Sn  Sn17  1  0.61043502  0.00000000  0.25000000  1.0
