# generated using pymatgen
data_AuBr
_symmetry_space_group_name_H-M   'P 1'
_cell_length_a   6.97340177
_cell_length_b   6.97340177
_cell_length_c   6.97340177
_cell_angle_alpha   116.26003818
_cell_angle_beta   116.26003818
_cell_angle_gamma   96.60987570
_symmetry_Int_Tables_number   1
_chemical_formula_structural   AuBr
_chemical_formula_sum   'Au4 Br4'
_cell_volume   251.52501573
_cell_formula_units_Z   4
loop_
 _symmetry_equiv_pos_site_id
 _symmetry_equiv_pos_as_xyz
  1  'x, y, z'
loop_
 _atom_site_type_symbol
 _atom_site_label
 _atom_site_symmetry_multiplicity
 _atom_site_fract_x
 _atom_site_fract_y
 _atom_site_fract_z
 _atom_site_occupancy
  Au  Au0  1  0.37500000  1.12500000  0.75000000  1.0
  Au  Au1  1  0.87500000  0.62500000  0.25000000  1.0
  Au  Au2  1  1.37500000  0.62500000  0.75000000  1.0
  Au  Au3  1  0.37500000  0.62500000  0.25000000  1.0
  Br  Br4  1  0.20249516  0.20249516  0.00000000  1.0
  Br  Br5  1  0.95249516  0.45249516  0.50000000  1.0
  Br  Br6  1  0.54750484  1.04750484  0.50000000  1.0
  Br  Br7  1  0.79750484  0.79750484  1.00000000  1.0
