# generated using pymatgen
data_KLiWO4
_symmetry_space_group_name_H-M   'P 1'
_cell_length_a   5.98075376
_cell_length_b   5.98075376
_cell_length_c   10.02588642
_cell_angle_alpha   90.00000000
_cell_angle_beta   90.00000000
_cell_angle_gamma   120.00000000
_symmetry_Int_Tables_number   1
_chemical_formula_structural   KLiWO4
_chemical_formula_sum   'K2 Li2 W2 O8'
_cell_volume   310.57411485
_cell_formula_units_Z   2
loop_
 _symmetry_equiv_pos_site_id
 _symmetry_equiv_pos_as_xyz
  1  'x, y, z'
loop_
 _atom_site_type_symbol
 _atom_site_label
 _atom_site_symmetry_multiplicity
 _atom_site_fract_x
 _atom_site_fract_y
 _atom_site_fract_z
 _atom_site_occupancy
  K  K0  1  0.00000000  0.00000000  -0.13949770  1.0
  K  K1  1  -0.00000000  0.00000000  0.36050230  1.0
  Li  Li2  1  0.33333333  0.66666667  0.83675853  1.0
  Li  Li3  1  0.66666667  0.33333333  0.33675853  1.0
  W  W4  1  0.33333333  0.66666667  0.20825900  1.0
  W  W5  1  0.66666667  0.33333333  0.70825900  1.0
  O  O6  1  0.00954918  0.50477459  0.27166663  1.0
  O  O7  1  0.50477459  0.00954918  0.77166663  1.0
  O  O8  1  0.50477459  0.49522541  0.77166663  1.0
  O  O9  1  0.49522541  0.50477459  0.27166663  1.0
  O  O10  1  0.49522541  -0.00954918  0.27166663  1.0
  O  O11  1  -0.00954918  0.49522541  0.77166663  1.0
  O  O12  1  0.33333333  0.66666667  0.02948029  1.0
  O  O13  1  0.66666667  0.33333333  0.52948029  1.0
