# generated using pymatgen
data_ZnCu2(BO3)2
_symmetry_space_group_name_H-M   'P 1'
_cell_length_a   3.45584902
_cell_length_b   15.03310022
_cell_length_c   9.58573162
_cell_angle_alpha   90.00000000
_cell_angle_beta   100.43817526
_cell_angle_gamma   90.00000000
_symmetry_Int_Tables_number   1
_chemical_formula_structural   ZnCu2(BO3)2
_chemical_formula_sum   'Zn4 Cu8 B8 O24'
_cell_volume   489.75772396
_cell_formula_units_Z   4
loop_
 _symmetry_equiv_pos_site_id
 _symmetry_equiv_pos_as_xyz
  1  'x, y, z'
loop_
 _atom_site_type_symbol
 _atom_site_label
 _atom_site_symmetry_multiplicity
 _atom_site_fract_x
 _atom_site_fract_y
 _atom_site_fract_z
 _atom_site_occupancy
  Zn  Zn0  1  0.22491366  0.14068135  0.14063831  1.0
  Zn  Zn1  1  0.22491366  0.35931865  0.64063831  1.0
  Zn  Zn2  1  0.77508634  0.64068135  0.35936169  1.0
  Zn  Zn3  1  0.77508634  0.85931865  0.85936169  1.0
  O  O4  1  0.91765533  0.38536019  0.44453262  1.0
  O  O5  1  0.91765533  0.11463981  0.94453262  1.0
  O  O6  1  0.08234467  0.88536019  0.05546738  1.0
  O  O7  1  0.08234467  0.61463981  0.55546738  1.0
  O  O8  1  0.77945692  0.76882759  0.46217131  1.0
  O  O9  1  0.77945692  0.73117241  0.96217131  1.0
  O  O10  1  0.22054308  0.26882759  0.03782869  1.0
  O  O11  1  0.22054308  0.23117241  0.53782869  1.0
  O  O12  1  0.53352801  0.35210995  0.23294971  1.0
  O  O13  1  0.53352801  0.14789005  0.73294971  1.0
  O  O14  1  0.46647199  0.85210995  0.26705029  1.0
  O  O15  1  0.46647199  0.64789005  0.76705029  1.0
  O  O16  1  0.38772674  0.00845093  0.20374202  1.0
  O  O17  1  0.38772674  0.49154907  0.70374202  1.0
  O  O18  1  0.61227326  0.50845093  0.29625798  1.0
  O  O19  1  0.61227326  0.99154907  0.79625798  1.0
  O  O20  1  0.78565026  0.15587549  0.25796000  1.0
  O  O21  1  0.78565026  0.34412451  0.75796000  1.0
  O  O22  1  0.21434974  0.65587549  0.24204000  1.0
  O  O23  1  0.21434974  0.84412451  0.74204000  1.0
  O  O24  1  0.83448441  0.92983759  0.46430488  1.0
  O  O25  1  0.83448441  0.57016241  0.96430488  1.0
  O  O26  1  0.16551559  0.42983759  0.03569512  1.0
  O  O27  1  0.16551559  0.07016241  0.53569512  1.0
  Cu  Cu28  1  0.79117698  0.04510501  0.36050447  1.0
  Cu  Cu29  1  0.79117698  0.45489499  0.86050447  1.0
  Cu  Cu30  1  0.20882302  0.54510501  0.13949553  1.0
  Cu  Cu31  1  0.20882302  0.95489499  0.63949553  1.0
  Cu  Cu32  1  0.86006707  0.26196653  0.36680863  1.0
  Cu  Cu33  1  0.86006707  0.23803347  0.86680863  1.0
  Cu  Cu34  1  0.13993293  0.76196653  0.13319137  1.0
  Cu  Cu35  1  0.13993293  0.73803347  0.63319137  1.0
  B  B36  1  0.70215338  0.85027379  0.40392423  1.0
  B  B37  1  0.70215338  0.64972621  0.90392423  1.0
  B  B38  1  0.29784662  0.35027379  0.09607577  1.0
  B  B39  1  0.29784662  0.14972621  0.59607577  1.0
  B  B40  1  0.68739236  0.42255720  0.32948557  1.0
  B  B41  1  0.68739236  0.07744280  0.82948557  1.0
  B  B42  1  0.31260764  0.92255720  0.17051443  1.0
  B  B43  1  0.31260764  0.57744280  0.67051443  1.0
