# generated using pymatgen
data_Ti3CoS6
_symmetry_space_group_name_H-M   'P 1'
_cell_length_a   5.76262642
_cell_length_b   5.76262642
_cell_length_c   11.44080623
_cell_angle_alpha   90.00000000
_cell_angle_beta   90.00000000
_cell_angle_gamma   120.00000000
_symmetry_Int_Tables_number   1
_chemical_formula_structural   Ti3CoS6
_chemical_formula_sum   'Ti6 Co2 S12'
_cell_volume   329.02446644
_cell_formula_units_Z   2
loop_
 _symmetry_equiv_pos_site_id
 _symmetry_equiv_pos_as_xyz
  1  'x, y, z'
loop_
 _atom_site_type_symbol
 _atom_site_label
 _atom_site_symmetry_multiplicity
 _atom_site_fract_x
 _atom_site_fract_y
 _atom_site_fract_z
 _atom_site_occupancy
  Ti  Ti0  1  0.33333333  0.66666667  0.50564477  1.0
  Ti  Ti1  1  0.33333333  0.66666667  0.99435523  1.0
  Ti  Ti2  1  0.66666667  0.33333333  0.49435523  1.0
  Ti  Ti3  1  0.66666667  0.33333333  0.00564477  1.0
  Ti  Ti4  1  0.00000000  0.00000000  0.00000000  1.0
  Ti  Ti5  1  0.00000000  0.00000000  0.50000000  1.0
  Co  Co6  1  0.33333333  0.66666667  0.25000000  1.0
  Co  Co7  1  0.66666667  0.33333333  0.75000000  1.0
  S  S8  1  0.65851489  0.66998675  0.13170704  1.0
  S  S9  1  0.65851489  -0.01147186  0.36829296  1.0
  S  S10  1  0.66998675  0.65851489  0.86829296  1.0
  S  S11  1  0.66998675  1.01147186  0.63170704  1.0
  S  S12  1  1.01147186  0.66998675  0.36829296  1.0
  S  S13  1  1.01147186  0.34148511  0.13170704  1.0
  S  S14  1  0.33001325  0.34148511  0.36829296  1.0
  S  S15  1  0.33001325  -0.01147186  0.13170704  1.0
  S  S16  1  0.34148511  1.01147186  0.86829296  1.0
  S  S17  1  0.34148511  0.33001325  0.63170704  1.0
  S  S18  1  -0.01147186  0.65851489  0.63170704  1.0
  S  S19  1  -0.01147186  0.33001325  0.86829296  1.0
