# generated using pymatgen
data_V8O
_symmetry_space_group_name_H-M   'P 1'
_cell_length_a   8.72281392
_cell_length_b   8.72281392
_cell_length_c   2.97583509
_cell_angle_alpha   90.00000000
_cell_angle_beta   90.00000000
_cell_angle_gamma   90.00000000
_symmetry_Int_Tables_number   1
_chemical_formula_structural   V8O
_chemical_formula_sum   'V16 O2'
_cell_volume   226.42380101
_cell_formula_units_Z   2
loop_
 _symmetry_equiv_pos_site_id
 _symmetry_equiv_pos_as_xyz
  1  'x, y, z'
loop_
 _atom_site_type_symbol
 _atom_site_label
 _atom_site_symmetry_multiplicity
 _atom_site_fract_x
 _atom_site_fract_y
 _atom_site_fract_z
 _atom_site_occupancy
  V  V0  1  0.38256356  0.12853138  0.50000000  1.0
  V  V1  1  0.88256356  0.37146862  0.00000000  1.0
  V  V2  1  0.87146862  0.61743644  0.50000000  1.0
  V  V3  1  0.37146862  0.88256356  0.00000000  1.0
  V  V4  1  0.61743644  0.87146862  0.50000000  1.0
  V  V5  1  0.11743644  0.62853138  0.00000000  1.0
  V  V6  1  0.12853138  0.38256356  0.50000000  1.0
  V  V7  1  0.62853138  0.11743644  0.00000000  1.0
  V  V8  1  0.34417380  0.65582620  0.50000000  1.0
  V  V9  1  0.84417380  0.84417380  0.00000000  1.0
  V  V10  1  0.65582620  0.34417380  0.50000000  1.0
  V  V11  1  0.15582620  0.15582620  0.00000000  1.0
  V  V12  1  0.11893406  0.88106594  0.50000000  1.0
  V  V13  1  0.61893406  0.61893406  0.00000000  1.0
  V  V14  1  0.88106594  0.11893406  0.50000000  1.0
  V  V15  1  0.38106594  0.38106594  0.00000000  1.0
  O  O16  1  0.50000000  0.50000000  0.50000000  1.0
  O  O17  1  0.00000000  0.00000000  0.00000000  1.0
