# generated using pymatgen
data_AgAuCl4
_symmetry_space_group_name_H-M   'P 1'
_cell_length_a   8.06746076
_cell_length_b   8.06746076
_cell_length_c   13.19360755
_cell_angle_alpha   53.02864951
_cell_angle_beta   126.97135049
_cell_angle_gamma   148.01116638
_symmetry_Int_Tables_number   1
_chemical_formula_structural   AgAuCl4
_chemical_formula_sum   'Ag2 Au2 Cl8'
_cell_volume   354.87117445
_cell_formula_units_Z   2
loop_
 _symmetry_equiv_pos_site_id
 _symmetry_equiv_pos_as_xyz
  1  'x, y, z'
loop_
 _atom_site_type_symbol
 _atom_site_label
 _atom_site_symmetry_multiplicity
 _atom_site_fract_x
 _atom_site_fract_y
 _atom_site_fract_z
 _atom_site_occupancy
  Ag  Ag0  1  0.48377990  0.48377990  0.25000000  1.0
  Ag  Ag1  1  0.51622010  0.51622010  0.75000000  1.0
  Au  Au2  1  0.00000000  -0.00000000  0.50000000  1.0
  Au  Au3  1  -0.00000000  -0.00000000  0.00000000  1.0
  Cl  Cl4  1  1.81019139  0.03187151  0.05970244  1.0
  Cl  Cl5  1  0.96812849  -0.81019139  0.55970244  1.0
  Cl  Cl6  1  1.03187151  0.81019139  0.44029756  1.0
  Cl  Cl7  1  0.18980861  -0.03187151  0.94029756  1.0
  Cl  Cl8  1  0.42469377  0.19352877  0.17944359  1.0
  Cl  Cl9  1  0.80647123  -0.42469377  0.67944359  1.0
  Cl  Cl10  1  1.19352877  0.42469377  0.32055641  1.0
  Cl  Cl11  1  1.57530623  -0.19352877  0.82055641  1.0
