# generated using pymatgen
data_MnH4(C2O3)2
_symmetry_space_group_name_H-M   'P 1'
_cell_length_a   7.70767120
_cell_length_b   7.70767120
_cell_length_c   8.04611441
_cell_angle_alpha   59.86278681
_cell_angle_beta   120.13721319
_cell_angle_gamma   121.73858168
_symmetry_Int_Tables_number   1
_chemical_formula_structural   MnH4(C2O3)2
_chemical_formula_sum   'Mn2 H8 C8 O12'
_cell_volume   332.66231819
_cell_formula_units_Z   2
loop_
 _symmetry_equiv_pos_site_id
 _symmetry_equiv_pos_as_xyz
  1  'x, y, z'
loop_
 _atom_site_type_symbol
 _atom_site_label
 _atom_site_symmetry_multiplicity
 _atom_site_fract_x
 _atom_site_fract_y
 _atom_site_fract_z
 _atom_site_occupancy
  Mn  Mn0  1  0.50000000  0.00000000  -0.00000000  1.0
  Mn  Mn1  1  1.00000000  0.50000000  0.50000000  1.0
  H  H2  1  0.66387850  -0.28857236  0.05104494  1.0
  H  H3  1  1.28857236  0.33612150  0.55104494  1.0
  H  H4  1  0.71142764  0.66387850  0.44895506  1.0
  H  H5  1  0.33612150  0.28857236  0.94895506  1.0
  H  H6  1  0.55715470  0.27870085  0.13463077  1.0
  H  H7  1  0.72129915  0.44284530  0.63463077  1.0
  H  H8  1  1.27870085  0.55715470  0.36536923  1.0
  H  H9  1  0.44284530  -0.27870085  0.86536923  1.0
  C  C10  1  0.74573140  0.02426073  0.44690513  1.0
  C  C11  1  0.97573927  0.25426860  0.94690513  1.0
  C  C12  1  1.02426073  0.74573140  0.05309487  1.0
  C  C13  1  0.25426860  -0.02426073  0.55309487  1.0
  C  C14  1  0.16392360  0.08024991  0.33957259  1.0
  C  C15  1  0.91975009  0.83607640  0.83957259  1.0
  C  C16  1  1.08024991  0.16392360  0.16042741  1.0
  C  C17  1  0.83607640  -0.08024991  0.66042741  1.0
  O  O18  1  0.53036838  -0.26293013  0.00149732  1.0
  O  O19  1  1.26293013  0.46963162  0.50149732  1.0
  O  O20  1  0.73706987  0.53036838  0.49850268  1.0
  O  O21  1  0.46963162  0.26293013  0.99850268  1.0
  O  O22  1  0.66704991  -0.08264195  0.32893197  1.0
  O  O23  1  1.08264195  0.33295009  0.82893197  1.0
  O  O24  1  0.91735805  0.66704991  0.17106803  1.0
  O  O25  1  0.33295009  0.08264195  0.67106803  1.0
  O  O26  1  0.75162431  0.21234051  0.39248061  1.0
  O  O27  1  0.78765949  0.24837569  0.89248061  1.0
  O  O28  1  1.21234051  0.75162431  0.10751939  1.0
  O  O29  1  0.24837569  -0.21234051  0.60751939  1.0
