# generated using pymatgen
data_Mn2Al3
_symmetry_space_group_name_H-M   'P 1'
_cell_length_a   6.39003512
_cell_length_b   6.39003512
_cell_length_c   6.39003512
_cell_angle_alpha   90.00000000
_cell_angle_beta   90.00000000
_cell_angle_gamma   90.00000000
_symmetry_Int_Tables_number   1
_chemical_formula_structural   Mn2Al3
_chemical_formula_sum   'Mn8 Al12'
_cell_volume   260.92142095
_cell_formula_units_Z   4
loop_
 _symmetry_equiv_pos_site_id
 _symmetry_equiv_pos_as_xyz
  1  'x, y, z'
loop_
 _atom_site_type_symbol
 _atom_site_label
 _atom_site_symmetry_multiplicity
 _atom_site_fract_x
 _atom_site_fract_y
 _atom_site_fract_z
 _atom_site_occupancy
  Mn  Mn0  1  0.17906384  0.82093616  0.32093616  1.0
  Mn  Mn1  1  0.32093616  0.17906384  0.82093616  1.0
  Mn  Mn2  1  0.82093616  0.32093616  0.17906384  1.0
  Mn  Mn3  1  0.67906384  0.67906384  0.67906384  1.0
  Mn  Mn4  1  0.57093616  0.42906384  0.92906384  1.0
  Mn  Mn5  1  0.42906384  0.92906384  0.57093616  1.0
  Mn  Mn6  1  0.92906384  0.57093616  0.42906384  1.0
  Mn  Mn7  1  0.07093616  0.07093616  0.07093616  1.0
  Al  Al8  1  0.79636033  0.95363967  0.37500000  1.0
  Al  Al9  1  0.70363967  0.04636033  0.87500000  1.0
  Al  Al10  1  0.20363967  0.45363967  0.12500000  1.0
  Al  Al11  1  0.29636033  0.54636033  0.62500000  1.0
  Al  Al12  1  0.95363967  0.37500000  0.79636033  1.0
  Al  Al13  1  0.04636033  0.87500000  0.70363967  1.0
  Al  Al14  1  0.45363967  0.12500000  0.20363967  1.0
  Al  Al15  1  0.54636033  0.62500000  0.29636033  1.0
  Al  Al16  1  0.37500000  0.79636033  0.95363967  1.0
  Al  Al17  1  0.87500000  0.70363967  0.04636033  1.0
  Al  Al18  1  0.12500000  0.20363967  0.45363967  1.0
  Al  Al19  1  0.62500000  0.29636033  0.54636033  1.0
