# generated using pymatgen
data_KAgF3
_symmetry_space_group_name_H-M   'P 1'
_cell_length_a   6.23474736
_cell_length_b   8.71312164
_cell_length_c   6.14130737
_cell_angle_alpha   90.00000000
_cell_angle_beta   90.00000000
_cell_angle_gamma   90.00000000
_symmetry_Int_Tables_number   1
_chemical_formula_structural   KAgF3
_chemical_formula_sum   'K4 Ag4 F12'
_cell_volume   333.62107027
_cell_formula_units_Z   4
loop_
 _symmetry_equiv_pos_site_id
 _symmetry_equiv_pos_as_xyz
  1  'x, y, z'
loop_
 _atom_site_type_symbol
 _atom_site_label
 _atom_site_symmetry_multiplicity
 _atom_site_fract_x
 _atom_site_fract_y
 _atom_site_fract_z
 _atom_site_occupancy
  K  K0  1  0.46933180  0.25000000  0.49478779  1.0
  K  K1  1  0.96933180  0.25000000  1.00521221  1.0
  K  K2  1  0.53066820  0.75000000  0.50521221  1.0
  K  K3  1  0.03066820  0.75000000  -0.00521221  1.0
  Ag  Ag4  1  0.00000000  0.00000000  0.50000000  1.0
  Ag  Ag5  1  0.50000000  0.50000000  0.00000000  1.0
  Ag  Ag6  1  0.00000000  0.50000000  0.50000000  1.0
  Ag  Ag7  1  0.50000000  0.00000000  0.00000000  1.0
  F  F8  1  0.79065874  0.97271687  0.77819615  1.0
  F  F9  1  0.29065874  0.52728313  0.72180385  1.0
  F  F10  1  0.20934126  0.47271687  0.22180385  1.0
  F  F11  1  0.70934126  0.02728313  0.27819615  1.0
  F  F12  1  0.20934126  0.02728313  0.22180385  1.0
  F  F13  1  0.70934126  0.47271687  0.27819615  1.0
  F  F14  1  0.79065874  0.52728313  0.77819615  1.0
  F  F15  1  0.29065874  0.97271687  0.72180385  1.0
  F  F16  1  1.01214706  0.25000000  0.55200513  1.0
  F  F17  1  0.51214706  0.25000000  0.94799487  1.0
  F  F18  1  -0.01214706  0.75000000  0.44799487  1.0
  F  F19  1  0.48785294  0.75000000  0.05200513  1.0
