# generated using pymatgen
data_Al2CdSe4
_symmetry_space_group_name_H-M   'P 1'
_cell_length_a   6.84207238
_cell_length_b   6.84207238
_cell_length_c   6.84207238
_cell_angle_alpha   129.25475048
_cell_angle_beta   129.25475048
_cell_angle_gamma   74.60101343
_symmetry_Int_Tables_number   1
_chemical_formula_structural   Al2CdSe4
_chemical_formula_sum   'Al2 Cd1 Se4'
_cell_volume   187.13476432
_cell_formula_units_Z   1
loop_
 _symmetry_equiv_pos_site_id
 _symmetry_equiv_pos_as_xyz
  1  'x, y, z'
loop_
 _atom_site_type_symbol
 _atom_site_label
 _atom_site_symmetry_multiplicity
 _atom_site_fract_x
 _atom_site_fract_y
 _atom_site_fract_z
 _atom_site_occupancy
  Al  Al0  1  0.25000000  0.75000000  0.50000000  1.0
  Al  Al1  1  0.00000000  0.00000000  0.00000000  1.0
  Cd  Cd2  1  0.50000000  0.50000000  1.00000000  1.0
  Se  Se3  1  0.36897917  0.90740920  1.00237162  1.0
  Se  Se4  1  1.09259080  1.09496243  1.46156997  1.0
  Se  Se5  1  0.90503757  0.36660754  0.99762838  1.0
  Se  Se6  1  0.63339246  0.63102083  0.53843003  1.0
