# generated using pymatgen
data_Fe3O4
_symmetry_space_group_name_H-M   'P 1'
_cell_length_a   5.01290376
_cell_length_b   5.01290376
_cell_length_c   9.88805200
_cell_angle_alpha   90.00000000
_cell_angle_beta   90.00000000
_cell_angle_gamma   147.07430969
_symmetry_Int_Tables_number   1
_chemical_formula_structural   Fe3O4
_chemical_formula_sum   'Fe6 O8'
_cell_volume   135.06090855
_cell_formula_units_Z   2
loop_
 _symmetry_equiv_pos_site_id
 _symmetry_equiv_pos_as_xyz
  1  'x, y, z'
loop_
 _atom_site_type_symbol
 _atom_site_label
 _atom_site_symmetry_multiplicity
 _atom_site_fract_x
 _atom_site_fract_y
 _atom_site_fract_z
 _atom_site_occupancy
  Fe  Fe0  1  0.37263250  0.62736750  0.92536306  1.0
  Fe  Fe1  1  0.37263250  0.62736750  0.57463694  1.0
  Fe  Fe2  1  -0.37263250  0.37263250  0.42536306  1.0
  Fe  Fe3  1  -0.37263250  0.37263250  0.07463694  1.0
  Fe  Fe4  1  0.13122067  0.86877933  0.75000000  1.0
  Fe  Fe5  1  -0.13122067  0.13122067  0.25000000  1.0
  O  O6  1  0.27585662  0.72414338  0.38529257  1.0
  O  O7  1  0.27585662  0.72414338  0.11470743  1.0
  O  O8  1  -0.27585662  0.27585662  0.88529257  1.0
  O  O9  1  -0.27585662  0.27585662  0.61470743  1.0
  O  O10  1  0.47149925  0.52850075  0.75000000  1.0
  O  O11  1  -0.47149925  0.47149925  0.25000000  1.0
  O  O12  1  0.00000000  0.00000000  0.00000000  1.0
  O  O13  1  0.00000000  0.00000000  0.50000000  1.0
