# generated using pymatgen
data_Y2CBr2
_symmetry_space_group_name_H-M   'P 1'
_cell_length_a   10.80284968
_cell_length_b   10.80284968
_cell_length_c   10.80284968
_cell_angle_alpha   20.06207419
_cell_angle_beta   20.06207419
_cell_angle_gamma   20.06207419
_symmetry_Int_Tables_number   1
_chemical_formula_structural   Y2CBr2
_chemical_formula_sum   'Y2 C1 Br2'
_cell_volume   129.79069668
_cell_formula_units_Z   1
loop_
 _symmetry_equiv_pos_site_id
 _symmetry_equiv_pos_as_xyz
  1  'x, y, z'
loop_
 _atom_site_type_symbol
 _atom_site_label
 _atom_site_symmetry_multiplicity
 _atom_site_fract_x
 _atom_site_fract_y
 _atom_site_fract_z
 _atom_site_occupancy
  Y  Y0  1  1.62453912  0.62453912  0.62453912  1.0
  Y  Y1  1  1.37546088  0.37546088  0.37546088  1.0
  C  C2  1  0.00000000  0.00000000  0.00000000  1.0
  Br  Br3  1  0.76964654  0.76964654  0.76964654  1.0
  Br  Br4  1  1.23035346  1.23035346  0.23035346  1.0
