# generated using pymatgen
data_Ge3(Te3As)2
_symmetry_space_group_name_H-M   'P 1'
_cell_length_a   20.47996545
_cell_length_b   20.47996545
_cell_length_c   20.47996545
_cell_angle_alpha   11.71032636
_cell_angle_beta   11.71032636
_cell_angle_gamma   11.71032636
_symmetry_Int_Tables_number   1
_chemical_formula_structural   Ge3(Te3As)2
_chemical_formula_sum   'Ge3 Te6 As2'
_cell_volume   307.51371653
_cell_formula_units_Z   1
loop_
 _symmetry_equiv_pos_site_id
 _symmetry_equiv_pos_as_xyz
  1  'x, y, z'
loop_
 _atom_site_type_symbol
 _atom_site_label
 _atom_site_symmetry_multiplicity
 _atom_site_fract_x
 _atom_site_fract_y
 _atom_site_fract_z
 _atom_site_occupancy
  Ge  Ge0  1  0.72478649  0.72478649  0.72478649  1.0
  Ge  Ge1  1  1.27521351  1.27521351  0.27521351  1.0
  Ge  Ge2  1  0.00000000  0.00000000  0.00000000  1.0
  Te  Te3  1  0.91355932  0.91355932  0.91355932  1.0
  Te  Te4  1  1.08644068  1.08644068  0.08644068  1.0
  Te  Te5  1  0.80876907  0.80876907  0.80876907  1.0
  Te  Te6  1  1.19123093  1.19123093  0.19123093  1.0
  Te  Te7  1  1.63781338  0.63781338  0.63781338  1.0
  Te  Te8  1  1.36218662  0.36218662  0.36218662  1.0
  As  As9  1  1.54984428  0.54984428  0.54984428  1.0
  As  As10  1  1.45015572  0.45015572  0.45015572  1.0
