# generated using pymatgen
data_CeAsO5F
_symmetry_space_group_name_H-M   'P 1'
_cell_length_a   5.42745579
_cell_length_b   7.56398283
_cell_length_c   12.82520933
_cell_angle_alpha   90.00000000
_cell_angle_beta   110.55649882
_cell_angle_gamma   90.00000000
_symmetry_Int_Tables_number   1
_chemical_formula_structural   CeAsO5F
_chemical_formula_sum   'Ce4 As4 O20 F4'
_cell_volume   492.99050924
_cell_formula_units_Z   4
loop_
 _symmetry_equiv_pos_site_id
 _symmetry_equiv_pos_as_xyz
  1  'x, y, z'
loop_
 _atom_site_type_symbol
 _atom_site_label
 _atom_site_symmetry_multiplicity
 _atom_site_fract_x
 _atom_site_fract_y
 _atom_site_fract_z
 _atom_site_occupancy
  O  O0  1  0.76317708  0.41476729  0.37766477  1.0
  O  O1  1  0.76317708  0.08523271  0.87766477  1.0
  O  O2  1  0.23682292  0.91476729  0.12233523  1.0
  O  O3  1  0.23682292  0.58523271  0.62233523  1.0
  O  O4  1  0.72250112  0.10313477  0.18683688  1.0
  O  O5  1  0.72250112  0.39686523  0.68683688  1.0
  O  O6  1  0.27749888  0.60313477  0.31316312  1.0
  O  O7  1  0.27749888  0.89686523  0.81316312  1.0
  O  O8  1  0.32606698  0.32187906  0.48010632  1.0
  O  O9  1  0.32606698  0.17812094  0.98010632  1.0
  O  O10  1  0.67393302  0.82187906  0.01989368  1.0
  O  O11  1  0.67393302  0.67812094  0.51989368  1.0
  O  O12  1  0.25806030  0.27539044  0.18237340  1.0
  O  O13  1  0.25806030  0.22460956  0.68237340  1.0
  O  O14  1  0.74193970  0.77539044  0.31762660  1.0
  O  O15  1  0.74193970  0.72460956  0.81762660  1.0
  O  O16  1  0.91520723  0.05382931  0.47681510  1.0
  O  O17  1  0.91520723  0.44617069  0.97681510  1.0
  O  O18  1  0.08479277  0.55382931  0.02318490  1.0
  O  O19  1  0.08479277  0.94617069  0.52318490  1.0
  Ce  Ce20  1  0.94728266  0.81299771  0.19703865  1.0
  Ce  Ce21  1  0.94728266  0.68700229  0.69703865  1.0
  Ce  Ce22  1  0.05271734  0.31299771  0.30296135  1.0
  Ce  Ce23  1  0.05271734  0.18700229  0.80296135  1.0
  As  As24  1  0.38243779  0.11725532  0.11658807  1.0
  As  As25  1  0.38243779  0.38274468  0.61658807  1.0
  As  As26  1  0.61756221  0.61725532  0.38341193  1.0
  As  As27  1  0.61756221  0.88274468  0.88341193  1.0
  F  F28  1  0.81634469  0.51786016  0.17612168  1.0
  F  F29  1  0.81634469  -0.01786016  0.67612168  1.0
  F  F30  1  0.18365531  1.01786016  0.32387832  1.0
  F  F31  1  0.18365531  0.48213984  0.82387832  1.0
