# generated using pymatgen
data_K2Os(Cl2O)2
_symmetry_space_group_name_H-M   'P 1'
_cell_length_a   6.74060563
_cell_length_b   6.74060563
_cell_length_c   6.74060563
_cell_angle_alpha   115.80639342
_cell_angle_beta   115.80639342
_cell_angle_gamma   97.43127486
_symmetry_Int_Tables_number   1
_chemical_formula_structural   K2Os(Cl2O)2
_chemical_formula_sum   'K2 Os1 Cl4 O2'
_cell_volume   228.20772579
_cell_formula_units_Z   1
loop_
 _symmetry_equiv_pos_site_id
 _symmetry_equiv_pos_as_xyz
  1  'x, y, z'
loop_
 _atom_site_type_symbol
 _atom_site_label
 _atom_site_symmetry_multiplicity
 _atom_site_fract_x
 _atom_site_fract_y
 _atom_site_fract_z
 _atom_site_occupancy
  K  K0  1  1.25000000  0.75000000  0.50000000  1.0
  K  K1  1  0.75000000  1.25000000  0.50000000  1.0
  Os  Os2  1  0.00000000  0.00000000  0.00000000  1.0
  Cl  Cl3  1  0.76168639  0.76168639  0.52337277  1.0
  Cl  Cl4  1  1.23831361  0.76168639  1.00000000  1.0
  Cl  Cl5  1  0.76168639  1.23831361  1.00000000  1.0
  Cl  Cl6  1  0.23831361  0.23831361  0.47662723  1.0
  O  O7  1  0.80351012  0.80351012  0.00000000  1.0
  O  O8  1  0.19648988  0.19648988  0.00000000  1.0
