# generated using pymatgen
data_NaVPO5
_symmetry_space_group_name_H-M   'P 1'
_cell_length_a   6.48412066
_cell_length_b   9.18358835
_cell_length_c   6.77971833
_cell_angle_alpha   90.00000000
_cell_angle_beta   129.15911861
_cell_angle_gamma   90.00000000
_symmetry_Int_Tables_number   1
_chemical_formula_structural   NaVPO5
_chemical_formula_sum   'Na2 V2 P2 O10'
_cell_volume   313.03888359
_cell_formula_units_Z   2
loop_
 _symmetry_equiv_pos_site_id
 _symmetry_equiv_pos_as_xyz
  1  'x, y, z'
loop_
 _atom_site_type_symbol
 _atom_site_label
 _atom_site_symmetry_multiplicity
 _atom_site_fract_x
 _atom_site_fract_y
 _atom_site_fract_z
 _atom_site_occupancy
  O  O0  1  0.87485067  0.62793633  0.80980782  1.0
  O  O1  1  0.12514933  0.12793633  0.19019218  1.0
  O  O2  1  0.13724413  0.85523556  0.07483554  1.0
  O  O3  1  0.86275587  0.35523556  0.92516446  1.0
  O  O4  1  0.53612397  0.77449645  0.86196799  1.0
  O  O5  1  0.46387603  0.27449645  0.13803201  1.0
  O  O6  1  0.97659040  0.90060474  1.30710102  1.0
  O  O7  1  0.02340960  0.40060474  -0.30710102  1.0
  O  O8  1  0.90413368  0.59996389  0.23660452  1.0
  O  O9  1  0.09586632  0.09996389  0.76339548  1.0
  Na  Na10  1  0.11930903  0.84178612  0.72007784  1.0
  Na  Na11  1  0.88069097  0.34178612  0.27992216  1.0
  P  P12  1  0.17627126  0.96519316  0.27238635  1.0
  P  P13  1  0.82372874  0.46519316  0.72761365  1.0
  V  V14  1  0.85049558  0.73278375  0.05109864  1.0
  V  V15  1  0.14950442  0.23278375  0.94890136  1.0
