# generated using pymatgen
data_BaNa2Ti2(Si2O7)2
_symmetry_space_group_name_H-M   'P 1'
_cell_length_a   9.69376792
_cell_length_b   9.69376792
_cell_length_c   9.69376792
_cell_angle_alpha   114.23376401
_cell_angle_beta   87.14737038
_cell_angle_gamma   129.74014453
_symmetry_Int_Tables_number   1
_chemical_formula_structural   BaNa2Ti2(Si2O7)2
_chemical_formula_sum   'Ba2 Na4 Ti4 Si8 O28'
_cell_volume   608.64608173
_cell_formula_units_Z   2
loop_
 _symmetry_equiv_pos_site_id
 _symmetry_equiv_pos_as_xyz
  1  'x, y, z'
loop_
 _atom_site_type_symbol
 _atom_site_label
 _atom_site_symmetry_multiplicity
 _atom_site_fract_x
 _atom_site_fract_y
 _atom_site_fract_z
 _atom_site_occupancy
  Ba  Ba0  1  0.71267819  1.21023528  1.00244291  1.0
  Ba  Ba1  1  1.20779237  0.71023528  0.99755709  1.0
  Na  Na2  1  1.10625209  1.20338012  0.40287197  1.0
  Na  Na3  1  1.80050816  1.70338012  1.59712803  1.0
  Na  Na4  1  -0.03751241  -0.03751241  -0.00000000  1.0
  Na  Na5  1  -0.03751241  0.46248759  0.50000000  1.0
  Ti  Ti6  1  1.65642360  0.93738465  1.21903895  1.0
  Ti  Ti7  1  0.71834570  1.43738465  0.78096105  1.0
  Ti  Ti8  1  0.22105293  0.93861263  0.78244030  1.0
  Ti  Ti9  1  1.15617232  0.43861263  1.21755970  1.0
  Si  Si10  1  1.52147469  1.19485395  1.38425432  1.0
  Si  Si11  1  0.81059963  0.69485395  1.17337925  1.0
  Si  Si12  1  0.52147469  0.63722038  0.82662075  1.0
  Si  Si13  1  0.81059963  1.13722038  0.61574568  1.0
  Si  Si14  1  1.41701845  1.30083179  1.17428780  1.0
  Si  Si15  1  1.12654398  0.80083179  1.38381334  1.0
  Si  Si16  1  0.41701845  0.74273064  0.61618666  1.0
  Si  Si17  1  1.12654398  1.24273064  0.82571220  1.0
  O  O18  1  1.11865243  0.80207660  1.55129926  1.0
  O  O19  1  0.25077734  0.30207660  0.18342417  1.0
  O  O20  1  1.11865243  1.06735317  1.81657583  1.0
  O  O21  1  0.25077734  0.56735317  0.44870074  1.0
  O  O22  1  0.58572900  0.84333532  0.98132466  1.0
  O  O23  1  0.86201065  1.34333532  0.75760632  1.0
  O  O24  1  1.58572900  1.10440433  1.24239368  1.0
  O  O25  1  0.86201065  0.60440433  1.01867534  1.0
  O  O26  1  0.35658788  0.83658457  0.75952008  1.0
  O  O27  1  1.07706449  1.33658457  0.97999669  1.0
  O  O28  1  1.35658788  1.09706780  1.02000331  1.0
  O  O29  1  1.07706449  0.59706780  1.24047992  1.0
  O  O30  1  1.61139477  1.50492262  1.17850497  1.0
  O  O31  1  1.32641765  1.00492262  1.39352785  1.0
  O  O32  1  0.61139477  0.93288980  0.60647215  1.0
  O  O33  1  1.32641765  1.43288980  0.82149503  1.0
  O  O34  1  1.47202336  1.30946940  1.33899679  1.0
  O  O35  1  0.97047261  0.80946940  1.33744604  1.0
  O  O36  1  0.47202336  0.63302657  0.66255396  1.0
  O  O37  1  0.97047261  1.13302657  0.66100321  1.0
  O  O38  1  1.68370109  1.36790015  1.55436686  1.0
  O  O39  1  0.81353330  0.86790015  0.18419906  1.0
  O  O40  1  1.68370109  1.62933424  1.81580094  1.0
  O  O41  1  0.81353330  1.12933424  0.44563314  1.0
  O  O42  1  1.93341299  1.23043669  1.20297629  1.0
  O  O43  1  1.02746040  1.73043669  0.79702371  1.0
  O  O44  1  0.51389644  1.23036170  0.78353473  1.0
  O  O45  1  1.44682697  0.73036170  1.21646527  1.0
