# generated using pymatgen
data_Lu3Ge13Os4
_symmetry_space_group_name_H-M   'P 1'
_cell_length_a   9.02640739
_cell_length_b   9.02640739
_cell_length_c   9.02640739
_cell_angle_alpha   90.00000000
_cell_angle_beta   90.00000000
_cell_angle_gamma   90.00000000
_symmetry_Int_Tables_number   1
_chemical_formula_structural   Lu3Ge13Os4
_chemical_formula_sum   'Lu6 Ge26 Os8'
_cell_volume   735.43584273
_cell_formula_units_Z   2
loop_
 _symmetry_equiv_pos_site_id
 _symmetry_equiv_pos_as_xyz
  1  'x, y, z'
loop_
 _atom_site_type_symbol
 _atom_site_label
 _atom_site_symmetry_multiplicity
 _atom_site_fract_x
 _atom_site_fract_y
 _atom_site_fract_z
 _atom_site_occupancy
  Lu  Lu0  1  0.25000000  0.00000000  0.50000000  1.0
  Lu  Lu1  1  0.75000000  0.00000000  0.50000000  1.0
  Lu  Lu2  1  0.50000000  0.25000000  0.00000000  1.0
  Lu  Lu3  1  0.50000000  0.75000000  0.00000000  1.0
  Lu  Lu4  1  0.00000000  0.50000000  0.75000000  1.0
  Lu  Lu5  1  0.00000000  0.50000000  0.25000000  1.0
  Ge  Ge6  1  0.50000000  0.20115666  0.35588304  1.0
  Ge  Ge7  1  0.50000000  0.20115666  0.64411696  1.0
  Ge  Ge8  1  0.50000000  0.79884334  0.35588304  1.0
  Ge  Ge9  1  0.50000000  0.79884334  0.64411696  1.0
  Ge  Ge10  1  0.00000000  0.85588304  0.70115666  1.0
  Ge  Ge11  1  0.00000000  0.85588304  0.29884334  1.0
  Ge  Ge12  1  0.00000000  0.14411696  0.70115666  1.0
  Ge  Ge13  1  0.00000000  0.14411696  0.29884334  1.0
  Ge  Ge14  1  0.35588304  0.50000000  0.20115666  1.0
  Ge  Ge15  1  0.35588304  0.50000000  0.79884334  1.0
  Ge  Ge16  1  0.85588304  0.70115666  0.00000000  1.0
  Ge  Ge17  1  0.85588304  0.29884334  0.00000000  1.0
  Ge  Ge18  1  0.20115666  0.35588304  0.50000000  1.0
  Ge  Ge19  1  0.20115666  0.64411696  0.50000000  1.0
  Ge  Ge20  1  0.70115666  0.00000000  0.85588304  1.0
  Ge  Ge21  1  0.70115666  0.00000000  0.14411696  1.0
  Ge  Ge22  1  0.64411696  0.50000000  0.20115666  1.0
  Ge  Ge23  1  0.64411696  0.50000000  0.79884334  1.0
  Ge  Ge24  1  0.14411696  0.70115666  0.00000000  1.0
  Ge  Ge25  1  0.14411696  0.29884334  0.00000000  1.0
  Ge  Ge26  1  0.79884334  0.35588304  0.50000000  1.0
  Ge  Ge27  1  0.79884334  0.64411696  0.50000000  1.0
  Ge  Ge28  1  0.29884334  0.00000000  0.85588304  1.0
  Ge  Ge29  1  0.29884334  0.00000000  0.14411696  1.0
  Ge  Ge30  1  0.50000000  0.50000000  0.50000000  1.0
  Ge  Ge31  1  0.00000000  0.00000000  0.00000000  1.0
  Os  Os32  1  0.25000000  0.25000000  0.25000000  1.0
  Os  Os33  1  0.25000000  0.25000000  0.75000000  1.0
  Os  Os34  1  0.25000000  0.75000000  0.25000000  1.0
  Os  Os35  1  0.25000000  0.75000000  0.75000000  1.0
  Os  Os36  1  0.75000000  0.75000000  0.75000000  1.0
  Os  Os37  1  0.75000000  0.75000000  0.25000000  1.0
  Os  Os38  1  0.75000000  0.25000000  0.75000000  1.0
  Os  Os39  1  0.75000000  0.25000000  0.25000000  1.0
