# generated using pymatgen
data_KC
_symmetry_space_group_name_H-M   'P 1'
_cell_length_a   12.00579572
_cell_length_b   12.00579572
_cell_length_c   12.00579572
_cell_angle_alpha   139.69931948
_cell_angle_beta   139.69931948
_cell_angle_gamma   58.31012481
_symmetry_Int_Tables_number   1
_chemical_formula_structural   KC
_chemical_formula_sum   'K16 C16'
_cell_volume   717.36183328
_cell_formula_units_Z   16
loop_
 _symmetry_equiv_pos_site_id
 _symmetry_equiv_pos_as_xyz
  1  'x, y, z'
loop_
 _atom_site_type_symbol
 _atom_site_label
 _atom_site_symmetry_multiplicity
 _atom_site_fract_x
 _atom_site_fract_y
 _atom_site_fract_z
 _atom_site_occupancy
  K  K0  1  0.19720495  0.94717695  0.74995486  1.0
  K  K1  1  0.55277791  0.80274991  1.24995486  1.0
  K  K2  1  0.69722209  0.44717695  0.74997200  1.0
  K  K3  1  0.05279505  0.30274991  0.24997200  1.0
  K  K4  1  1.05274991  0.30277791  0.74995486  1.0
  K  K5  1  0.19717695  -0.05279505  0.24995486  1.0
  K  K6  1  1.05282305  0.80277791  1.25002800  1.0
  K  K7  1  0.19725009  0.44720495  0.75002800  1.0
  K  K8  1  0.69720495  0.94725009  1.25002800  1.0
  K  K9  1  0.05277791  0.80282305  0.75002800  1.0
  K  K10  1  0.19722209  0.44725009  0.25004514  1.0
  K  K11  1  0.55279505  0.30282305  0.75004514  1.0
  K  K12  1  0.55274991  0.80279505  0.74997200  1.0
  K  K13  1  0.69717695  0.44722209  1.24997200  1.0
  K  K14  1  0.55282305  0.30279505  0.25004514  1.0
  K  K15  1  0.69725009  -0.05277791  0.75004514  1.0
  C  C16  1  0.90511664  1.15499418  1.74974152  1.0
  C  C17  1  0.34474733  1.09462488  1.24974152  1.0
  C  C18  1  0.90525267  0.65499418  1.24987755  1.0
  C  C19  1  0.34488336  0.59462488  0.74987755  1.0
  C  C20  1  1.34462488  1.09474733  1.74974152  1.0
  C  C21  1  1.40499418  0.65511664  1.24974152  1.0
  C  C22  1  0.84500582  0.59474733  0.75012245  1.0
  C  C23  1  0.90537512  1.15511664  1.25012245  1.0
  C  C24  1  0.40511664  0.65537512  0.75012245  1.0
  C  C25  1  0.84474733  0.59500582  1.25012245  1.0
  C  C26  1  0.40525267  0.15537512  0.25025848  1.0
  C  C27  1  0.84488336  0.09500582  0.75025848  1.0
  C  C28  1  0.84462488  1.09488336  1.24987755  1.0
  C  C29  1  0.90499418  0.65525267  0.74987755  1.0
  C  C30  1  0.34500582  0.59488336  0.25025848  1.0
  C  C31  1  0.40537512  1.15525267  0.75025848  1.0
