# generated using pymatgen
data_MnAl2P2(HO)18
_symmetry_space_group_name_H-M   'P 1'
_cell_length_a   5.27353946
_cell_length_b   10.71792603
_cell_length_c   7.00760913
_cell_angle_alpha   74.18469187
_cell_angle_beta   69.94081147
_cell_angle_gamma   72.89735437
_symmetry_Int_Tables_number   1
_chemical_formula_structural   MnAl2P2(HO)18
_chemical_formula_sum   'Mn1 Al2 P2 H18 O18'
_cell_volume   349.03964835
_cell_formula_units_Z   1
loop_
 _symmetry_equiv_pos_site_id
 _symmetry_equiv_pos_as_xyz
  1  'x, y, z'
loop_
 _atom_site_type_symbol
 _atom_site_label
 _atom_site_symmetry_multiplicity
 _atom_site_fract_x
 _atom_site_fract_y
 _atom_site_fract_z
 _atom_site_occupancy
  Mn  Mn0  1  0.00000000  0.00000000  0.00000000  1.0
  Al  Al1  1  0.00000000  -0.50000000  -0.00000000  1.0
  Al  Al2  1  -0.00000000  -0.50000000  0.50000000  1.0
  P  P3  1  0.34759039  -0.33627323  0.08205424  1.0
  P  P4  1  -0.34759039  -0.66372677  0.91794576  1.0
  H  H5  1  0.34398434  -0.51336658  0.67468336  1.0
  H  H6  1  -0.34398434  -0.48663342  0.32531664  1.0
  H  H7  1  0.28370425  -0.66873556  0.29623150  1.0
  H  H8  1  -0.28370425  -0.33126444  0.70376850  1.0
  H  H9  1  0.40612293  -0.71966688  0.48997330  1.0
  H  H10  1  -0.40612293  -0.28033312  0.51002670  1.0
  H  H11  1  0.22263493  -0.90341095  0.58014306  1.0
  H  H12  1  -0.22263493  -0.09658905  0.41985694  1.0
  H  H13  1  0.24232873  -0.05521522  0.59756988  1.0
  H  H14  1  -0.24232873  -0.94478478  0.40243012  1.0
  H  H15  1  0.09376735  -0.79087746  0.05942127  1.0
  H  H16  1  -0.09376735  -0.20912254  0.94057873  1.0
  H  H17  1  -0.59495547  -0.86855789  1.00679793  1.0
  H  H18  1  0.59495547  -0.13144211  -0.00679793  1.0
  H  H19  1  0.28031227  -0.18598991  0.34373440  1.0
  H  H20  1  -0.28031227  -0.81401009  0.65626560  1.0
  H  H21  1  0.17235286  -0.25999915  0.57191503  1.0
  H  H22  1  -0.17235286  -0.74000085  0.42808497  1.0
  O  O23  1  -0.84159752  -0.35057405  0.96374838  1.0
  O  O24  1  0.84159752  -0.64942595  0.03625162  1.0
  O  O25  1  0.29878844  -0.42586866  0.30174198  1.0
  O  O26  1  -0.29878844  -0.57413134  0.69825802  1.0
  O  O27  1  0.28532301  -0.18744145  0.09969129  1.0
  O  O28  1  -0.28532301  -0.81255855  0.90030871  1.0
  O  O29  1  0.34089945  -0.62257960  0.04214864  1.0
  O  O30  1  -0.34089945  -0.37742040  0.95785136  1.0
  O  O31  1  0.14101040  -0.49673145  0.71026080  1.0
  O  O32  1  -0.14101040  -0.50326855  0.28973920  1.0
  O  O33  1  0.22698194  -0.68004629  0.45199735  1.0
  O  O34  1  -0.22698194  -0.31995371  0.54800265  1.0
  O  O35  1  0.24416337  -0.98952684  0.67282384  1.0
  O  O36  1  -0.24416337  -0.01047316  0.32717616  1.0
  O  O37  1  0.21321600  -0.88230969  0.06826129  1.0
  O  O38  1  -0.21321600  -0.11769031  0.93173871  1.0
  O  O39  1  0.28669267  -0.19618064  0.48884167  1.0
  O  O40  1  -0.28669267  -0.80381936  0.51115833  1.0
