# generated using pymatgen
data_Ba6Hf5S16
_symmetry_space_group_name_H-M   'P 1'
_cell_length_a   28.08206659
_cell_length_b   28.08206592
_cell_length_c   5.00443208
_cell_angle_alpha   84.88796190
_cell_angle_beta   84.88794654
_cell_angle_gamma   10.22409156
_symmetry_Int_Tables_number   1
_chemical_formula_structural   Ba6Hf5S16
_chemical_formula_sum   'Ba6 Hf5 S16'
_cell_volume   697.69067906
_cell_formula_units_Z   1
loop_
 _symmetry_equiv_pos_site_id
 _symmetry_equiv_pos_as_xyz
  1  'x, y, z'
loop_
 _atom_site_type_symbol
 _atom_site_label
 _atom_site_symmetry_multiplicity
 _atom_site_fract_x
 _atom_site_fract_y
 _atom_site_fract_z
 _atom_site_occupancy
  Ba  Ba0  1  0.45567712  1.45567712  -0.45567712  1.0
  Ba  Ba1  1  0.54432288  0.54432288  -0.54432288  1.0
  Ba  Ba2  1  0.36759624  1.36759624  -0.36759624  1.0
  Ba  Ba3  1  0.63240376  0.63240376  -0.63240376  1.0
  Ba  Ba4  1  0.28217982  1.28217982  -0.28217982  1.0
  Ba  Ba5  1  0.71782018  0.71782018  -0.71782018  1.0
  Hf  Hf6  1  0.00000000  0.00000000  0.00000000  1.0
  Hf  Hf7  1  0.90961527  0.90961527  -0.90961527  1.0
  Hf  Hf8  1  0.09038473  1.09038473  -0.09038473  1.0
  Hf  Hf9  1  0.81849923  0.81849923  -0.81849923  1.0
  Hf  Hf10  1  0.18150077  1.18150077  -0.18150077  1.0
  S  S11  1  0.95501704  0.95501704  -0.95501704  1.0
  S  S12  1  0.04498296  1.04498296  -0.04498296  1.0
  S  S13  1  0.86498029  0.86498029  -0.86498029  1.0
  S  S14  1  0.13501971  1.13501971  -0.13501971  1.0
  S  S15  1  0.77393141  0.77393141  -0.77393141  1.0
  S  S16  1  0.22606859  1.22606859  -0.22606859  1.0
  S  S17  1  1.32099684  0.32099684  0.17900316  1.0
  S  S18  1  1.17900316  0.17900316  0.32099684  1.0
  S  S19  1  0.67900316  0.67900316  -0.17900316  1.0
  S  S20  1  0.82099684  0.82099684  -0.32099684  1.0
  S  S21  1  1.41033318  0.41033318  0.08966682  1.0
  S  S22  1  1.08966682  0.08966682  0.41033318  1.0
  S  S23  1  0.58966682  0.58966682  -0.08966682  1.0
  S  S24  1  0.91033318  0.91033318  -0.41033318  1.0
  S  S25  1  0.50000000  -0.50000000  1.00000000  1.0
  S  S26  1  -0.00000000  0.00000000  0.50000000  1.0
