# generated using pymatgen
data_LaSiPt3
_symmetry_space_group_name_H-M   'P 1'
_cell_length_a   4.15144542
_cell_length_b   4.15144542
_cell_length_c   5.50112388
_cell_angle_alpha   90.00000000
_cell_angle_beta   90.00000000
_cell_angle_gamma   90.00000000
_symmetry_Int_Tables_number   1
_chemical_formula_structural   LaSiPt3
_chemical_formula_sum   'La1 Si1 Pt3'
_cell_volume   94.80911441
_cell_formula_units_Z   1
loop_
 _symmetry_equiv_pos_site_id
 _symmetry_equiv_pos_as_xyz
  1  'x, y, z'
loop_
 _atom_site_type_symbol
 _atom_site_label
 _atom_site_symmetry_multiplicity
 _atom_site_fract_x
 _atom_site_fract_y
 _atom_site_fract_z
 _atom_site_occupancy
  La  La0  1  0.50000000  0.50000000  0.12289266  1.0
  Si  Si1  1  0.00000000  0.00000000  0.40201289  1.0
  Pt  Pt2  1  0.50000000  0.00000000  0.62535521  1.0
  Pt  Pt3  1  0.00000000  0.50000000  0.62535521  1.0
  Pt  Pt4  1  0.00000000  0.00000000  -0.02041596  1.0
