# generated using pymatgen
data_Sb3Ir
_symmetry_space_group_name_H-M   'P 1'
_cell_length_a   8.13582236
_cell_length_b   8.13582236
_cell_length_c   8.13582236
_cell_angle_alpha   109.47122063
_cell_angle_beta   109.47122063
_cell_angle_gamma   109.47122063
_symmetry_Int_Tables_number   1
_chemical_formula_structural   Sb3Ir
_chemical_formula_sum   'Sb12 Ir4'
_cell_volume   414.55530990
_cell_formula_units_Z   4
loop_
 _symmetry_equiv_pos_site_id
 _symmetry_equiv_pos_as_xyz
  1  'x, y, z'
loop_
 _atom_site_type_symbol
 _atom_site_label
 _atom_site_symmetry_multiplicity
 _atom_site_fract_x
 _atom_site_fract_y
 _atom_site_fract_z
 _atom_site_occupancy
  Sb  Sb0  1  0.84621652  1.34000053  1.18621706  1.0
  Sb  Sb1  1  0.84621652  0.65999947  0.50621599  1.0
  Sb  Sb2  1  0.15378348  0.34000053  0.49378401  1.0
  Sb  Sb3  1  0.15378348  0.65999947  0.81378294  1.0
  Sb  Sb4  1  0.50621599  0.84621652  0.65999947  1.0
  Sb  Sb5  1  1.18621706  0.84621652  1.34000053  1.0
  Sb  Sb6  1  0.65999947  0.81378294  0.15378348  1.0
  Sb  Sb7  1  0.65999947  0.50621599  0.84621652  1.0
  Sb  Sb8  1  0.81378294  0.15378348  0.65999947  1.0
  Sb  Sb9  1  0.49378401  0.15378348  0.34000053  1.0
  Sb  Sb10  1  0.34000053  0.49378401  0.15378348  1.0
  Sb  Sb11  1  1.34000053  1.18621706  0.84621652  1.0
  Ir  Ir12  1  0.50000000  1.00000000  1.00000000  1.0
  Ir  Ir13  1  0.50000000  0.50000000  0.50000000  1.0
  Ir  Ir14  1  1.00000000  1.00000000  0.50000000  1.0
  Ir  Ir15  1  1.00000000  0.50000000  1.00000000  1.0
