# generated using pymatgen
data_HgPO4
_symmetry_space_group_name_H-M   'P 1'
_cell_length_a   6.01980552
_cell_length_b   12.27346250
_cell_length_c   6.12771734
_cell_angle_alpha   90.00000000
_cell_angle_beta   125.25139041
_cell_angle_gamma   90.00000000
_symmetry_Int_Tables_number   1
_chemical_formula_structural   HgPO4
_chemical_formula_sum   'Hg4 P4 O16'
_cell_volume   369.71946142
_cell_formula_units_Z   4
loop_
 _symmetry_equiv_pos_site_id
 _symmetry_equiv_pos_as_xyz
  1  'x, y, z'
loop_
 _atom_site_type_symbol
 _atom_site_label
 _atom_site_symmetry_multiplicity
 _atom_site_fract_x
 _atom_site_fract_y
 _atom_site_fract_z
 _atom_site_occupancy
  Hg  Hg0  1  0.43173920  0.88289635  0.23824739  1.0
  Hg  Hg1  1  0.43173920  0.61710365  0.73824739  1.0
  Hg  Hg2  1  0.56826080  0.38289635  0.26175261  1.0
  Hg  Hg3  1  0.56826080  0.11710365  0.76175261  1.0
  P  P4  1  1.22072365  0.12866052  -0.02469455  1.0
  P  P5  1  1.22072365  0.37133948  0.47530545  1.0
  P  P6  1  -0.22072365  0.62866052  0.52469455  1.0
  P  P7  1  -0.22072365  0.87133948  1.02469455  1.0
  O  O8  1  0.94116068  0.31555592  0.35495085  1.0
  O  O9  1  0.94116068  0.18444408  0.85495085  1.0
  O  O10  1  0.05883932  0.81555592  0.14504915  1.0
  O  O11  1  0.05883932  0.68444408  0.64504915  1.0
  O  O12  1  0.29057699  0.05308622  0.21311319  1.0
  O  O13  1  0.29057699  0.44691378  0.71311319  1.0
  O  O14  1  0.70942301  0.55308622  0.28688681  1.0
  O  O15  1  0.70942301  0.94691378  0.78688681  1.0
  O  O16  1  1.43612845  0.21952639  0.05823632  1.0
  O  O17  1  1.43612845  0.28047361  0.55823632  1.0
  O  O18  1  -0.43612845  0.71952639  0.44176368  1.0
  O  O19  1  -0.43612845  0.78047361  0.94176368  1.0
  O  O20  1  1.23125713  0.43921590  0.26342389  1.0
  O  O21  1  1.23125713  0.06078410  0.76342389  1.0
  O  O22  1  -0.23125713  0.93921590  0.23657611  1.0
  O  O23  1  -0.23125713  0.56078410  0.73657611  1.0
