# generated using pymatgen
data_CsZr6CI14
_symmetry_space_group_name_H-M   'P 1'
_cell_length_a   11.16569143
_cell_length_b   11.16569143
_cell_length_c   13.16271480
_cell_angle_alpha   90.00000000
_cell_angle_beta   90.00000000
_cell_angle_gamma   88.05730575
_symmetry_Int_Tables_number   1
_chemical_formula_structural   CsZr6CI14
_chemical_formula_sum   'Cs2 Zr12 C2 I28'
_cell_volume   1640.08752324
_cell_formula_units_Z   2
loop_
 _symmetry_equiv_pos_site_id
 _symmetry_equiv_pos_as_xyz
  1  'x, y, z'
loop_
 _atom_site_type_symbol
 _atom_site_label
 _atom_site_symmetry_multiplicity
 _atom_site_fract_x
 _atom_site_fract_y
 _atom_site_fract_z
 _atom_site_occupancy
  Cs  Cs0  1  -0.00000000  1.00000000  0.50000000  1.0
  Cs  Cs1  1  -0.50000000  0.50000000  0.00000000  1.0
  Zr  Zr2  1  0.45352084  1.33933934  0.39302243  1.0
  Zr  Zr3  1  -0.04647916  0.83933934  0.10697757  1.0
  Zr  Zr4  1  0.33933934  1.45352084  0.60697757  1.0
  Zr  Zr5  1  -0.16066066  0.95352084  0.89302243  1.0
  Zr  Zr6  1  -0.33933934  0.54647916  0.39302243  1.0
  Zr  Zr7  1  0.16066066  1.04647916  0.10697757  1.0
  Zr  Zr8  1  -0.45352084  0.66066066  0.60697757  1.0
  Zr  Zr9  1  0.04647916  1.16066066  0.89302243  1.0
  Zr  Zr10  1  -0.12223566  1.12223566  0.09121377  1.0
  Zr  Zr11  1  0.37776434  0.62223566  0.40878623  1.0
  Zr  Zr12  1  0.12223566  0.87776434  0.90878623  1.0
  Zr  Zr13  1  -0.37776434  1.37776434  0.59121377  1.0
  C  C14  1  -0.50000000  0.50000000  0.50000000  1.0
  C  C15  1  -0.00000000  1.00000000  0.00000000  1.0
  I  I16  1  -0.21208457  0.96537862  0.24550773  1.0
  I  I17  1  0.28791543  1.46537862  0.25449227  1.0
  I  I18  1  -0.03462138  0.78791543  0.75449227  1.0
  I  I19  1  0.46537862  1.28791543  0.74550773  1.0
  I  I20  1  0.03462138  1.21208457  0.24550773  1.0
  I  I21  1  -0.46537862  0.71208457  0.25449227  1.0
  I  I22  1  0.21208457  1.03462138  0.75449227  1.0
  I  I23  1  -0.28791543  0.53462138  0.74550773  1.0
  I  I24  1  -0.39917142  1.15035495  0.49021215  1.0
  I  I25  1  0.10082858  0.65035495  0.00978785  1.0
  I  I26  1  0.15035495  0.60082858  0.50978785  1.0
  I  I27  1  -0.34964505  1.10082858  0.99021215  1.0
  I  I28  1  -0.15035495  1.39917142  0.49021215  1.0
  I  I29  1  0.34964505  0.89917142  0.00978785  1.0
  I  I30  1  0.39917142  0.84964505  0.50978785  1.0
  I  I31  1  -0.10082858  1.34964505  0.99021215  1.0
  I  I32  1  -0.35592892  1.35592892  0.24152108  1.0
  I  I33  1  0.14407108  0.85592892  0.25847892  1.0
  I  I34  1  0.35592892  0.64407108  0.75847892  1.0
  I  I35  1  -0.14407108  1.14407108  0.74152108  1.0
  I  I36  1  0.38771846  1.11228154  0.25000000  1.0
  I  I37  1  -0.11228154  0.61228154  0.25000000  1.0
  I  I38  1  0.11228154  1.38771846  0.75000000  1.0
  I  I39  1  -0.38771846  0.88771846  0.75000000  1.0
  I  I40  1  0.24989787  1.24989787  0.50000000  1.0
  I  I41  1  -0.25010213  0.74989787  0.00000000  1.0
  I  I42  1  -0.24989787  0.75010213  0.50000000  1.0
  I  I43  1  0.25010213  1.25010213  0.00000000  1.0
