# generated using pymatgen
data_Na2Mg5(PO4)4
_symmetry_space_group_name_H-M   'P 1'
_cell_length_a   5.23826712
_cell_length_b   8.25627322
_cell_length_c   8.02643194
_cell_angle_alpha   110.94649247
_cell_angle_beta   102.11065482
_cell_angle_gamma   90.09409931
_symmetry_Int_Tables_number   1
_chemical_formula_structural   Na2Mg5(PO4)4
_chemical_formula_sum   'Na2 Mg5 P4 O16'
_cell_volume   315.85765025
_cell_formula_units_Z   1
loop_
 _symmetry_equiv_pos_site_id
 _symmetry_equiv_pos_as_xyz
  1  'x, y, z'
loop_
 _atom_site_type_symbol
 _atom_site_label
 _atom_site_symmetry_multiplicity
 _atom_site_fract_x
 _atom_site_fract_y
 _atom_site_fract_z
 _atom_site_occupancy
  Na  Na0  1  -0.43464756  -0.70587621  -0.95683897  1.0
  Na  Na1  1  -0.56535244  -0.29412379  -0.04316103  1.0
  Mg  Mg2  1  -0.90438489  -0.22123665  -0.74621933  1.0
  Mg  Mg3  1  -0.09561511  -0.77876335  -0.25378067  1.0
  Mg  Mg4  1  -0.63831668  -0.67506280  -0.40835239  1.0
  Mg  Mg5  1  -0.36168332  -0.32493720  -0.59164761  1.0
  Mg  Mg6  1  0.00000000  0.00000000  0.00000000  1.0
  P  P7  1  -0.86921081  -0.56985392  -0.78509407  1.0
  P  P8  1  -0.13078919  -0.43014608  -0.21490593  1.0
  P  P9  1  -0.37989998  -0.97516552  -0.69874334  1.0
  P  P10  1  -0.62010002  -0.02483448  -0.30125666  1.0
  O  O11  1  -0.93428321  -0.73283254  -0.96893604  1.0
  O  O12  1  -0.06571679  -0.26716746  -0.03106396  1.0
  O  O13  1  -0.88593147  -0.53268458  -0.24750624  1.0
  O  O14  1  -0.11406853  -0.46731542  -0.75249376  1.0
  O  O15  1  -0.76134165  -0.86356873  -0.32672037  1.0
  O  O16  1  -0.23865835  -0.13643127  -0.67327963  1.0
  O  O17  1  -0.73893788  -0.62498010  -0.62862452  1.0
  O  O18  1  -0.26106212  -0.37501990  -0.37137548  1.0
  O  O19  1  -0.67843597  -0.03740238  -0.78640225  1.0
  O  O20  1  -0.32156403  -0.96259762  -0.21359775  1.0
  O  O21  1  -0.67167681  -0.43890819  -0.81016587  1.0
  O  O22  1  -0.32832319  -0.56109181  -0.18983413  1.0
  O  O23  1  -0.34620486  -0.82824393  -0.50775139  1.0
  O  O24  1  -0.65379514  -0.17175607  -0.49224861  1.0
  O  O25  1  -0.25547296  -0.91937670  -0.82931719  1.0
  O  O26  1  -0.74452704  -0.08062330  -0.17068281  1.0
