# generated using pymatgen
data_LuAl
_symmetry_space_group_name_H-M   'P 1'
_cell_length_a   5.74638635
_cell_length_b   11.16955405
_cell_length_c   5.51130937
_cell_angle_alpha   90.00000000
_cell_angle_beta   90.00000000
_cell_angle_gamma   90.00000000
_symmetry_Int_Tables_number   1
_chemical_formula_structural   LuAl
_chemical_formula_sum   'Lu8 Al8'
_cell_volume   353.74103839
_cell_formula_units_Z   8
loop_
 _symmetry_equiv_pos_site_id
 _symmetry_equiv_pos_as_xyz
  1  'x, y, z'
loop_
 _atom_site_type_symbol
 _atom_site_label
 _atom_site_symmetry_multiplicity
 _atom_site_fract_x
 _atom_site_fract_y
 _atom_site_fract_z
 _atom_site_occupancy
  Lu  Lu0  1  0.39454384  0.66974105  0.75000000  1.0
  Lu  Lu1  1  0.39454384  0.83025895  0.25000000  1.0
  Lu  Lu2  1  0.60545616  0.16974105  0.75000000  1.0
  Lu  Lu3  1  0.60545616  0.33025895  0.25000000  1.0
  Lu  Lu4  1  0.84131909  0.48195276  0.75000000  1.0
  Lu  Lu5  1  0.84131909  0.01804724  0.25000000  1.0
  Lu  Lu6  1  0.15868091  0.98195276  0.75000000  1.0
  Lu  Lu7  1  0.15868091  0.51804724  0.25000000  1.0
  Al  Al8  1  0.65577605  0.90422806  0.75000000  1.0
  Al  Al9  1  0.65577605  0.59577194  0.25000000  1.0
  Al  Al10  1  0.34422395  0.40422806  0.75000000  1.0
  Al  Al11  1  0.34422395  0.09577194  0.25000000  1.0
  Al  Al12  1  0.92967955  0.75000000  0.00000000  1.0
  Al  Al13  1  0.92967955  0.75000000  0.50000000  1.0
  Al  Al14  1  0.07032045  0.25000000  0.00000000  1.0
  Al  Al15  1  0.07032045  0.25000000  0.50000000  1.0
