# generated using pymatgen
data_InBi2S4Cl
_symmetry_space_group_name_H-M   'P 1'
_cell_length_a   6.71887752
_cell_length_b   6.71887752
_cell_length_c   9.65997751
_cell_angle_alpha   60.89235166
_cell_angle_beta   119.10764834
_cell_angle_gamma   146.06176506
_symmetry_Int_Tables_number   1
_chemical_formula_structural   InBi2S4Cl
_chemical_formula_sum   'In1 Bi2 S4 Cl1'
_cell_volume   209.62467157
_cell_formula_units_Z   1
loop_
 _symmetry_equiv_pos_site_id
 _symmetry_equiv_pos_as_xyz
  1  'x, y, z'
loop_
 _atom_site_type_symbol
 _atom_site_label
 _atom_site_symmetry_multiplicity
 _atom_site_fract_x
 _atom_site_fract_y
 _atom_site_fract_z
 _atom_site_occupancy
  In  In0  1  0.00000000  0.00000000  0.00000000  1.0
  Bi  Bi1  1  0.80495652  -0.80495652  0.24419235  1.0
  Bi  Bi2  1  0.19504348  -0.19504348  0.75580765  1.0
  S  S3  1  0.81931902  0.18068098  0.71015734  1.0
  S  S4  1  1.18068098  -0.18068098  0.28984266  1.0
  S  S5  1  0.61715287  0.38284713  0.93903977  1.0
  S  S6  1  1.38284713  -0.38284713  0.06096023  1.0
  Cl  Cl7  1  0.50000000  0.50000000  0.50000000  1.0
