# generated using pymatgen
data_Ba5Eu8Zn4O21
_symmetry_space_group_name_H-M   'P 1'
_cell_length_a   10.41460158
_cell_length_b   10.41460158
_cell_length_c   10.41460158
_cell_angle_alpha   94.49279378
_cell_angle_beta   94.49279378
_cell_angle_gamma   147.49372316
_symmetry_Int_Tables_number   1
_chemical_formula_structural   Ba5Eu8Zn4O21
_chemical_formula_sum   'Ba5 Eu8 Zn4 O21'
_cell_volume   582.78186488
_cell_formula_units_Z   1
loop_
 _symmetry_equiv_pos_site_id
 _symmetry_equiv_pos_as_xyz
  1  'x, y, z'
loop_
 _atom_site_type_symbol
 _atom_site_label
 _atom_site_symmetry_multiplicity
 _atom_site_fract_x
 _atom_site_fract_y
 _atom_site_fract_z
 _atom_site_occupancy
  Eu  Eu0  1  0.58910515  0.64210989  1.23121504  1.0
  Eu  Eu1  1  0.64210989  1.41089485  1.05300474  1.0
  Eu  Eu2  1  0.41089485  0.35789011  0.76878496  1.0
  Eu  Eu3  1  1.35789011  0.58910515  0.94699526  1.0
  Eu  Eu4  1  0.75076030  0.83426755  1.58502785  1.0
  Eu  Eu5  1  0.83426755  1.24923970  1.08350725  1.0
  Eu  Eu6  1  0.24923970  0.16573245  0.41497215  1.0
  Eu  Eu7  1  1.16573245  0.75076030  0.91649275  1.0
  O  O8  1  1.09811549  0.98418946  0.59280733  1.0
  O  O9  1  0.60861787  0.49469184  0.59280733  1.0
  O  O10  1  0.98418946  0.39138213  0.88607396  1.0
  O  O11  1  1.49469184  0.90188451  0.88607396  1.0
  O  O12  1  1.39138213  1.50530816  1.40719267  1.0
  O  O13  1  0.90188451  1.01581054  1.40719267  1.0
  O  O14  1  0.50530816  1.09811549  1.11392604  1.0
  O  O15  1  1.01581054  1.60861787  1.11392604  1.0
  O  O16  1  1.06680977  1.20112695  1.77526808  1.0
  O  O17  1  1.57414113  1.70845831  1.77526808  1.0
  O  O18  1  1.20112695  1.42585887  1.13431718  1.0
  O  O19  1  0.70845831  0.93319023  1.13431718  1.0
  O  O20  1  0.42585887  0.29154169  0.22473192  1.0
  O  O21  1  0.93319023  0.79887305  0.22473192  1.0
  O  O22  1  1.29154169  1.06680977  0.86568282  1.0
  O  O23  1  0.79887305  0.57414113  0.86568282  1.0
  O  O24  1  0.62433421  0.96915536  1.59348957  1.0
  O  O25  1  0.96915536  1.37566579  1.34482115  1.0
  O  O26  1  0.37566579  0.03084464  0.40651043  1.0
  O  O27  1  1.03084464  0.62433421  0.65517885  1.0
  O  O28  1  0.50000000  0.50000000  0.00000000  1.0
  Ba  Ba29  1  0.86226128  0.53063880  0.39290008  1.0
  Ba  Ba30  1  0.53063880  0.13773872  0.66837752  1.0
  Ba  Ba31  1  1.13773872  1.46936120  1.60709992  1.0
  Ba  Ba32  1  0.46936120  0.86226128  1.33162248  1.0
  Ba  Ba33  1  0.00000000  0.00000000  0.00000000  1.0
  Zn  Zn34  1  0.95747085  0.74568402  0.70315487  1.0
  Zn  Zn35  1  0.74568402  0.04252915  0.78821317  1.0
  Zn  Zn36  1  1.04252915  1.25431598  1.29684513  1.0
  Zn  Zn37  1  0.25431598  0.95747085  1.21178683  1.0
