# generated using pymatgen
data_Se
_symmetry_space_group_name_H-M   'P 1'
_cell_length_a   2.73817305
_cell_length_b   8.56180336
_cell_length_c   4.51931871
_cell_angle_alpha   90.00000000
_cell_angle_beta   90.00763371
_cell_angle_gamma   90.00000000
_symmetry_Int_Tables_number   1
_chemical_formula_structural   Se
_chemical_formula_sum   Se4
_cell_volume   105.94954751
_cell_formula_units_Z   4
loop_
 _symmetry_equiv_pos_site_id
 _symmetry_equiv_pos_as_xyz
  1  'x, y, z'
loop_
 _atom_site_type_symbol
 _atom_site_label
 _atom_site_symmetry_multiplicity
 _atom_site_fract_x
 _atom_site_fract_y
 _atom_site_fract_z
 _atom_site_occupancy
  Se  Se0  1  0.99975708  -0.00028399  0.90056264  1.0
  Se  Se1  1  0.00024292  0.49971601  0.09943736  1.0
  Se  Se2  1  1.00026266  0.23028399  0.59918942  1.0
  Se  Se3  1  -0.00026266  0.73028399  0.40081058  1.0
