# generated using pymatgen
data_Sb2O3
_symmetry_space_group_name_H-M   'P 1'
_cell_length_a   8.41921755
_cell_length_b   4.87243744
_cell_length_c   11.08463964
_cell_angle_alpha   90.00000000
_cell_angle_beta   121.18647799
_cell_angle_gamma   90.00000000
_symmetry_Int_Tables_number   1
_chemical_formula_structural   Sb2O3
_chemical_formula_sum   'Sb8 O12'
_cell_volume   389.00281026
_cell_formula_units_Z   4
loop_
 _symmetry_equiv_pos_site_id
 _symmetry_equiv_pos_as_xyz
  1  'x, y, z'
loop_
 _atom_site_type_symbol
 _atom_site_label
 _atom_site_symmetry_multiplicity
 _atom_site_fract_x
 _atom_site_fract_y
 _atom_site_fract_z
 _atom_site_occupancy
  Sb  Sb0  1  0.10350907  0.63144281  0.19909981  1.0
  Sb  Sb1  1  0.89649093  0.13144281  0.30090019  1.0
  Sb  Sb2  1  0.89649093  0.36855719  0.80090019  1.0
  Sb  Sb3  1  0.10350907  0.86855719  0.69909981  1.0
  Sb  Sb4  1  0.41670684  0.16550596  0.10739506  1.0
  Sb  Sb5  1  0.58329316  0.66550596  0.39260494  1.0
  Sb  Sb6  1  0.58329316  0.83449404  0.89260494  1.0
  Sb  Sb7  1  0.41670684  0.33449404  0.60739506  1.0
  O  O8  1  0.04956230  0.02508673  0.21460020  1.0
  O  O9  1  0.95043770  0.52508673  0.28539980  1.0
  O  O10  1  0.95043770  0.97491327  0.78539980  1.0
  O  O11  1  0.04956230  0.47491327  0.71460020  1.0
  O  O12  1  0.59880033  0.31198884  0.30998808  1.0
  O  O13  1  0.40119967  0.81198884  0.19001192  1.0
  O  O14  1  0.40119967  0.68801116  0.69001192  1.0
  O  O15  1  0.59880033  0.18801116  0.80998808  1.0
  O  O16  1  0.65615215  0.09661386  0.10962169  1.0
  O  O17  1  0.34384785  0.59661386  0.39037831  1.0
  O  O18  1  0.34384785  0.90338614  0.89037831  1.0
  O  O19  1  0.65615215  0.40338614  0.60962169  1.0
