# generated using pymatgen
data_YI3O11
_symmetry_space_group_name_H-M   'P 1'
_cell_length_a   7.42313956
_cell_length_b   9.36661481
_cell_length_c   7.80307362
_cell_angle_alpha   80.83651004
_cell_angle_beta   65.38675515
_cell_angle_gamma   82.82251603
_symmetry_Int_Tables_number   1
_chemical_formula_structural   YI3O11
_chemical_formula_sum   'Y2 I6 O22'
_cell_volume   485.91509059
_cell_formula_units_Z   2
loop_
 _symmetry_equiv_pos_site_id
 _symmetry_equiv_pos_as_xyz
  1  'x, y, z'
loop_
 _atom_site_type_symbol
 _atom_site_label
 _atom_site_symmetry_multiplicity
 _atom_site_fract_x
 _atom_site_fract_y
 _atom_site_fract_z
 _atom_site_occupancy
  I  I0  1  -0.89195313  -0.81077726  -0.34652487  1.0
  I  I1  1  -0.10804687  -0.18922274  -0.65347513  1.0
  I  I2  1  -0.76689433  -0.84682677  -0.89876363  1.0
  I  I3  1  -0.23310567  -0.15317323  -0.10123637  1.0
  I  I4  1  -0.69126374  -0.49408418  -0.75540327  1.0
  I  I5  1  -0.30873626  -0.50591582  -0.24459673  1.0
  O  O6  1  -1.00363571  -0.22340388  -0.91323674  1.0
  O  O7  1  0.00363571  -0.77659612  -0.08676326  1.0
  O  O8  1  -1.03455050  -0.86790629  -0.72581071  1.0
  O  O9  1  0.03455050  -0.13209371  -0.27418929  1.0
  O  O10  1  -0.73737363  -0.64538637  -0.45373008  1.0
  O  O11  1  -0.26262637  -0.35461363  -0.54626992  1.0
  O  O12  1  -0.71465916  -0.04485437  -0.93703040  1.0
  O  O13  1  -0.28534084  -0.95514563  -0.06296960  1.0
  O  O14  1  -0.65208718  -0.85501670  -0.71937262  1.0
  O  O15  1  -0.34791282  -0.14498330  -0.28062738  1.0
  O  O16  1  -0.57575789  -0.35445149  -0.98697244  1.0
  O  O17  1  -0.42424211  -0.64554851  -0.01302756  1.0
  O  O18  1  -0.35690401  -0.57126192  -0.79369243  1.0
  O  O19  1  -0.64309599  -0.42873808  -0.20630757  1.0
  O  O20  1  -0.43702296  -0.77014527  -0.50474361  1.0
  O  O21  1  -0.56297704  -0.22985473  -0.49525639  1.0
  O  O22  1  -0.85544353  -0.34847805  -0.61009839  1.0
  O  O23  1  -0.14455647  -0.65152195  -0.38990161  1.0
  O  O24  1  -0.86250554  -0.58562457  -0.81640599  1.0
  O  O25  1  -0.13749446  -0.41437543  -0.18359401  1.0
  O  O26  1  -0.67854921  -0.93575861  -0.32179321  1.0
  O  O27  1  -0.32145079  -0.06424139  -0.67820679  1.0
  Y  Y28  1  -0.30253043  -0.82836406  -0.82315436  1.0
  Y  Y29  1  -0.69746957  -0.17163594  -0.17684564  1.0
