# generated using pymatgen
data_MnAs2F12
_symmetry_space_group_name_H-M   'P 1'
_cell_length_a   9.62237740
_cell_length_b   9.62237740
_cell_length_c   9.62237740
_cell_angle_alpha   132.58471077
_cell_angle_beta   132.58471077
_cell_angle_gamma   69.30709279
_symmetry_Int_Tables_number   1
_chemical_formula_structural   MnAs2F12
_chemical_formula_sum   'Mn2 As4 F24'
_cell_volume   473.91656199
_cell_formula_units_Z   2
loop_
 _symmetry_equiv_pos_site_id
 _symmetry_equiv_pos_as_xyz
  1  'x, y, z'
loop_
 _atom_site_type_symbol
 _atom_site_label
 _atom_site_symmetry_multiplicity
 _atom_site_fract_x
 _atom_site_fract_y
 _atom_site_fract_z
 _atom_site_occupancy
  Mn  Mn0  1  0.75000000  0.25000000  0.50000000  1.0
  Mn  Mn1  1  1.00000000  1.00000000  1.00000000  1.0
  As  As2  1  0.96873831  0.46873831  0.50000000  1.0
  As  As3  1  0.78126169  0.78126169  1.00000000  1.0
  As  As4  1  1.21873831  1.21873831  1.00000000  1.0
  As  As5  1  0.53126169  1.03126169  0.50000000  1.0
  F  F6  1  1.03633356  1.35567678  1.62612766  1.0
  F  F7  1  1.02045087  0.89432322  1.18065678  1.0
  F  F8  1  1.16020591  0.97954913  0.87387234  1.0
  F  F9  1  0.64432322  1.27045087  0.68065678  1.0
  F  F10  1  0.71366644  0.83979409  0.81934322  1.0
  F  F11  1  0.72954913  0.41020591  0.37387234  1.0
  F  F12  1  1.58979409  0.96366644  1.31934322  1.0
  F  F13  1  1.10567678  1.28633356  1.12612766  1.0
  F  F14  1  1.20784913  1.51309527  1.63444849  1.0
  F  F15  1  0.87135323  0.73690473  0.19475387  1.0
  F  F16  1  0.32340064  1.12864677  0.86555151  1.0
  F  F17  1  0.48690473  1.12135323  0.69475387  1.0
  F  F18  1  1.54215087  1.67659936  1.80524613  1.0
  F  F19  1  0.87864677  0.57340064  0.36555151  1.0
  F  F20  1  1.42659936  0.79215087  1.30524613  1.0
  F  F21  1  1.26309527  0.45784913  1.13444849  1.0
  F  F22  1  1.29848129  1.07669926  1.30873417  1.0
  F  F23  1  0.98203491  1.17330074  0.72178203  1.0
  F  F24  1  0.73974712  1.01796509  1.19126583  1.0
  F  F25  1  0.92330074  1.23203491  1.22178203  1.0
  F  F26  1  1.45151871  1.26025288  1.27821797  1.0
  F  F27  1  0.76796509  0.98974712  0.69126583  1.0
  F  F28  1  1.01025288  0.70151871  0.77821797  1.0
  F  F29  1  0.82669926  0.54848129  0.80873417  1.0
