# generated using pymatgen
data_TlSbF6
_symmetry_space_group_name_H-M   'P 1'
_cell_length_a   5.34119468
_cell_length_b   5.34119468
_cell_length_c   5.34119468
_cell_angle_alpha   96.75840088
_cell_angle_beta   96.75840088
_cell_angle_gamma   96.75840088
_symmetry_Int_Tables_number   1
_chemical_formula_structural   TlSbF6
_chemical_formula_sum   'Tl1 Sb1 F6'
_cell_volume   148.92262124
_cell_formula_units_Z   1
loop_
 _symmetry_equiv_pos_site_id
 _symmetry_equiv_pos_as_xyz
  1  'x, y, z'
loop_
 _atom_site_type_symbol
 _atom_site_label
 _atom_site_symmetry_multiplicity
 _atom_site_fract_x
 _atom_site_fract_y
 _atom_site_fract_z
 _atom_site_occupancy
  Tl  Tl0  1  0.50000000  0.50000000  0.50000000  1.0
  Sb  Sb1  1  0.00000000  0.00000000  0.00000000  1.0
  F  F2  1  1.25346058  0.25346058  -0.08463941  1.0
  F  F3  1  1.25346058  -0.08463941  0.25346058  1.0
  F  F4  1  1.08463941  0.74653942  -0.25346058  1.0
  F  F5  1  0.74653942  1.08463941  -0.25346058  1.0
  F  F6  1  0.74653942  0.74653942  0.08463941  1.0
  F  F7  1  0.91536059  0.25346058  0.25346058  1.0
