# generated using pymatgen
data_Na2Si4NiO10
_symmetry_space_group_name_H-M   'P 1'
_cell_length_a   7.03095815
_cell_length_b   9.85453765
_cell_length_c   7.98006347
_cell_angle_alpha   66.95403952
_cell_angle_beta   61.76924261
_cell_angle_gamma   77.02254688
_symmetry_Int_Tables_number   1
_chemical_formula_structural   Na2Si4NiO10
_chemical_formula_sum   'Na4 Si8 Ni2 O20'
_cell_volume   447.73624896
_cell_formula_units_Z   2
loop_
 _symmetry_equiv_pos_site_id
 _symmetry_equiv_pos_as_xyz
  1  'x, y, z'
loop_
 _atom_site_type_symbol
 _atom_site_label
 _atom_site_symmetry_multiplicity
 _atom_site_fract_x
 _atom_site_fract_y
 _atom_site_fract_z
 _atom_site_occupancy
  O  O0  1  -0.24501435  -0.57830674  0.85986786  1.0
  O  O1  1  0.24501435  -0.42169326  0.14013214  1.0
  O  O2  1  0.04885844  -0.81497084  0.87192714  1.0
  O  O3  1  -0.04885844  -0.18502916  0.12807286  1.0
  O  O4  1  -0.26453927  -0.27578732  0.71288191  1.0
  O  O5  1  0.26453927  -0.72421268  0.28711809  1.0
  O  O6  1  0.18985270  -0.20558710  0.29981649  1.0
  O  O7  1  -0.18985270  -0.79441290  0.70018351  1.0
  O  O8  1  -0.31472363  -0.97908588  0.60583802  1.0
  O  O9  1  0.31472363  -0.02091412  0.39416198  1.0
  O  O10  1  -0.55041054  -0.72534439  0.64454778  1.0
  O  O11  1  0.55041054  -0.27465561  0.35545222  1.0
  O  O12  1  -0.17343031  -0.72706790  0.32567420  1.0
  O  O13  1  0.17343031  -0.27293210  0.67432580  1.0
  O  O14  1  0.29982095  -0.86675992  0.04389853  1.0
  O  O15  1  -0.29982095  -0.13324008  0.95610147  1.0
  O  O16  1  0.64319305  -0.85881285  0.10018952  1.0
  O  O17  1  -0.64319305  -0.14118715  0.89981048  1.0
  O  O18  1  -0.82976040  -0.58101239  0.89863087  1.0
  O  O19  1  0.82976040  -0.41898761  0.10136913  1.0
  Ni  Ni20  1  -0.05835927  -0.42172448  0.81228824  1.0
  Ni  Ni21  1  0.05835927  -0.57827552  0.18771176  1.0
  Na  Na22  1  -0.10688662  -0.97826576  0.26225031  1.0
  Na  Na23  1  0.10688662  -0.02173424  0.73774969  1.0
  Na  Na24  1  0.53423029  -0.57987367  0.22208579  1.0
  Na  Na25  1  -0.53423029  -0.42012633  0.77791421  1.0
  Si  Si26  1  -0.75859828  -0.73933528  0.86451791  1.0
  Si  Si27  1  0.75859828  -0.26066472  0.13548209  1.0
  Si  Si28  1  -0.30209088  -0.80106775  0.56403275  1.0
  Si  Si29  1  0.30209088  -0.19893225  0.43596725  1.0
  Si  Si30  1  0.37469867  -0.86070664  0.20870124  1.0
  Si  Si31  1  -0.37469867  -0.13929336  0.79129876  1.0
  Si  Si32  1  -0.19256830  -0.74806676  0.87823250  1.0
  Si  Si33  1  0.19256830  -0.25193324  0.12176750  1.0
