# generated using pymatgen
data_RbScS2
_symmetry_space_group_name_H-M   'P 1'
_cell_length_a   7.92380259
_cell_length_b   7.92380259
_cell_length_c   7.92380259
_cell_angle_alpha   28.27573505
_cell_angle_beta   28.27573505
_cell_angle_gamma   28.27573505
_symmetry_Int_Tables_number   1
_chemical_formula_structural   RbScS2
_chemical_formula_sum   'Rb1 Sc1 S2'
_cell_volume   98.64668223
_cell_formula_units_Z   1
loop_
 _symmetry_equiv_pos_site_id
 _symmetry_equiv_pos_as_xyz
  1  'x, y, z'
loop_
 _atom_site_type_symbol
 _atom_site_label
 _atom_site_symmetry_multiplicity
 _atom_site_fract_x
 _atom_site_fract_y
 _atom_site_fract_z
 _atom_site_occupancy
  Rb  Rb0  1  0.00000000  0.00000000  0.00000000  1.0
  Sc  Sc1  1  1.50000000  0.50000000  0.50000000  1.0
  S  S2  1  0.77233909  0.77233909  0.77233909  1.0
  S  S3  1  1.22766091  1.22766091  0.22766091  1.0
