# generated using pymatgen
data_K2LiInAs2
_symmetry_space_group_name_H-M   'P 1'
_cell_length_a   10.23005595
_cell_length_b   10.23005595
_cell_length_c   6.44215460
_cell_angle_alpha   90.00000000
_cell_angle_beta   90.00000000
_cell_angle_gamma   101.09069180
_symmetry_Int_Tables_number   1
_chemical_formula_structural   K2LiInAs2
_chemical_formula_sum   'K8 Li4 In4 As8'
_cell_volume   661.60617340
_cell_formula_units_Z   4
loop_
 _symmetry_equiv_pos_site_id
 _symmetry_equiv_pos_as_xyz
  1  'x, y, z'
loop_
 _atom_site_type_symbol
 _atom_site_label
 _atom_site_symmetry_multiplicity
 _atom_site_fract_x
 _atom_site_fract_y
 _atom_site_fract_z
 _atom_site_occupancy
  K  K0  1  -0.32751062  1.32751062  0.27328745  1.0
  K  K1  1  0.17248938  0.82751062  0.22671255  1.0
  K  K2  1  0.32751062  0.67248938  0.72671255  1.0
  K  K3  1  -0.17248938  1.17248938  0.77328745  1.0
  K  K4  1  -0.42558560  0.92558560  0.25000000  1.0
  K  K5  1  0.07441440  1.42558560  0.25000000  1.0
  K  K6  1  -0.07441440  0.57441440  0.75000000  1.0
  K  K7  1  0.42558560  1.07441440  0.75000000  1.0
  Li  Li8  1  0.38026757  1.38026757  0.50000000  1.0
  Li  Li9  1  -0.11973243  0.88026757  0.00000000  1.0
  Li  Li10  1  -0.38026757  0.61973243  0.50000000  1.0
  Li  Li11  1  0.11973243  1.11973243  0.00000000  1.0
  In  In12  1  0.13171555  1.13171555  0.50000000  1.0
  In  In13  1  -0.36828445  0.63171555  0.00000000  1.0
  In  In14  1  -0.13171555  0.86828445  0.50000000  1.0
  In  In15  1  0.36828445  1.36828445  0.00000000  1.0
  As  As16  1  -0.09767849  1.09767849  0.26797700  1.0
  As  As17  1  0.40232151  0.59767849  0.23202300  1.0
  As  As18  1  0.09767849  0.90232151  0.73202300  1.0
  As  As19  1  -0.40232151  1.40232151  0.76797700  1.0
  As  As20  1  0.35089839  1.14910161  0.25000000  1.0
  As  As21  1  -0.14910161  0.64910161  0.25000000  1.0
  As  As22  1  0.14910161  1.35089839  0.75000000  1.0
  As  As23  1  -0.35089839  0.85089839  0.75000000  1.0
