# generated using pymatgen
data_Co(SbO3)2
_symmetry_space_group_name_H-M   'P 1'
_cell_length_a   4.72649816
_cell_length_b   4.72649816
_cell_length_c   9.48361957
_cell_angle_alpha   90.00000000
_cell_angle_beta   90.00000000
_cell_angle_gamma   90.00000000
_symmetry_Int_Tables_number   1
_chemical_formula_structural   Co(SbO3)2
_chemical_formula_sum   'Co2 Sb4 O12'
_cell_volume   211.86202131
_cell_formula_units_Z   2
loop_
 _symmetry_equiv_pos_site_id
 _symmetry_equiv_pos_as_xyz
  1  'x, y, z'
loop_
 _atom_site_type_symbol
 _atom_site_label
 _atom_site_symmetry_multiplicity
 _atom_site_fract_x
 _atom_site_fract_y
 _atom_site_fract_z
 _atom_site_occupancy
  Co  Co0  1  0.50000000  0.50000000  0.50000000  1.0
  Co  Co1  1  0.00000000  0.00000000  0.00000000  1.0
  Sb  Sb2  1  0.50000000  0.50000000  0.16761004  1.0
  Sb  Sb3  1  0.50000000  0.50000000  0.83238996  1.0
  Sb  Sb4  1  0.00000000  0.00000000  0.66761004  1.0
  Sb  Sb5  1  0.00000000  0.00000000  0.33238996  1.0
  O  O6  1  0.19512486  0.80487514  0.16884833  1.0
  O  O7  1  0.19512486  0.80487514  0.83115167  1.0
  O  O8  1  0.69512486  0.69512486  0.66884833  1.0
  O  O9  1  0.69512486  0.69512486  0.33115167  1.0
  O  O10  1  0.80487514  0.19512486  0.16884833  1.0
  O  O11  1  0.80487514  0.19512486  0.83115167  1.0
  O  O12  1  0.30487514  0.30487514  0.66884833  1.0
  O  O13  1  0.30487514  0.30487514  0.33115167  1.0
  O  O14  1  0.19421881  0.80578119  0.50000000  1.0
  O  O15  1  0.69421881  0.69421881  -0.00000000  1.0
  O  O16  1  0.80578119  0.19421881  0.50000000  1.0
  O  O17  1  0.30578119  0.30578119  0.00000000  1.0
