# generated using pymatgen
data_Ag2PdO2
_symmetry_space_group_name_H-M   'P 1'
_cell_length_a   5.79829670
_cell_length_b   5.79829670
_cell_length_c   5.79829670
_cell_angle_alpha   149.59216127
_cell_angle_beta   133.49867966
_cell_angle_gamma   56.57930213
_symmetry_Int_Tables_number   1
_chemical_formula_structural   Ag2PdO2
_chemical_formula_sum   'Ag2 Pd1 O2'
_cell_volume   71.08415951
_cell_formula_units_Z   1
loop_
 _symmetry_equiv_pos_site_id
 _symmetry_equiv_pos_as_xyz
  1  'x, y, z'
loop_
 _atom_site_type_symbol
 _atom_site_label
 _atom_site_symmetry_multiplicity
 _atom_site_fract_x
 _atom_site_fract_y
 _atom_site_fract_z
 _atom_site_occupancy
  Ag  Ag0  1  0.64023021  0.64023021  1.00000000  1.0
  Ag  Ag1  1  0.35976979  0.35976979  0.00000000  1.0
  Pd  Pd2  1  0.00000000  0.00000000  0.00000000  1.0
  O  O3  1  0.86365345  0.36365345  0.50000000  1.0
  O  O4  1  0.13634655  0.63634655  0.50000000  1.0
