# generated using pymatgen
data_CoPO4
_symmetry_space_group_name_H-M   'P 1'
_cell_length_a   9.72194673
_cell_length_b   6.02339304
_cell_length_c   4.90200349
_cell_angle_alpha   90.00000000
_cell_angle_beta   90.00000000
_cell_angle_gamma   90.00000000
_symmetry_Int_Tables_number   1
_chemical_formula_structural   CoPO4
_chemical_formula_sum   'Co4 P4 O16'
_cell_volume   287.05694302
_cell_formula_units_Z   4
loop_
 _symmetry_equiv_pos_site_id
 _symmetry_equiv_pos_as_xyz
  1  'x, y, z'
loop_
 _atom_site_type_symbol
 _atom_site_label
 _atom_site_symmetry_multiplicity
 _atom_site_fract_x
 _atom_site_fract_y
 _atom_site_fract_z
 _atom_site_occupancy
  Co  Co0  1  0.73256426  0.25000000  0.53528615  1.0
  Co  Co1  1  0.23256426  0.25000000  0.96471385  1.0
  Co  Co2  1  0.26743574  0.75000000  0.46471385  1.0
  Co  Co3  1  0.76743574  0.75000000  0.03528615  1.0
  P  P4  1  0.90337724  0.25000000  0.09827943  1.0
  P  P5  1  0.40337724  0.25000000  0.40172057  1.0
  P  P6  1  0.09662276  0.75000000  0.90172057  1.0
  P  P7  1  0.59662276  0.75000000  0.59827943  1.0
  O  O8  1  0.83400459  0.45186481  0.24717337  1.0
  O  O9  1  0.83400459  0.04813519  0.24717337  1.0
  O  O10  1  0.33400459  0.45186481  0.25282663  1.0
  O  O11  1  0.33400459  0.04813519  0.25282663  1.0
  O  O12  1  0.16599541  0.95186481  0.75282663  1.0
  O  O13  1  0.16599541  0.54813519  0.75282663  1.0
  O  O14  1  0.66599541  0.95186481  0.74717337  1.0
  O  O15  1  0.66599541  0.54813519  0.74717337  1.0
  O  O16  1  0.87523212  0.25000000  0.78804751  1.0
  O  O17  1  0.37523212  0.25000000  0.71195249  1.0
  O  O18  1  0.12476788  0.75000000  0.21195249  1.0
  O  O19  1  0.62476788  0.75000000  0.28804751  1.0
  O  O20  1  0.56086884  0.25000000  0.35664528  1.0
  O  O21  1  0.06086884  0.25000000  0.14335472  1.0
  O  O22  1  0.43913116  0.75000000  0.64335472  1.0
  O  O23  1  0.93913116  0.75000000  0.85664528  1.0
