# generated using pymatgen
data_In3Pd5
_symmetry_space_group_name_H-M   'P 1'
_cell_length_a   5.72283081
_cell_length_b   11.28319658
_cell_length_c   4.27463496
_cell_angle_alpha   90.00000000
_cell_angle_beta   90.00000000
_cell_angle_gamma   90.00000000
_symmetry_Int_Tables_number   1
_chemical_formula_structural   In3Pd5
_chemical_formula_sum   'In6 Pd10'
_cell_volume   276.02098071
_cell_formula_units_Z   2
loop_
 _symmetry_equiv_pos_site_id
 _symmetry_equiv_pos_as_xyz
  1  'x, y, z'
loop_
 _atom_site_type_symbol
 _atom_site_label
 _atom_site_symmetry_multiplicity
 _atom_site_fract_x
 _atom_site_fract_y
 _atom_site_fract_z
 _atom_site_occupancy
  In  In0  1  0.50000000  0.50000000  0.00000000  1.0
  In  In1  1  0.00000000  0.00000000  0.00000000  1.0
  In  In2  1  0.67913248  0.14269166  0.50000000  1.0
  In  In3  1  0.32086752  0.85730834  0.50000000  1.0
  In  In4  1  0.17913248  0.35730834  0.50000000  1.0
  In  In5  1  0.82086752  0.64269166  0.50000000  1.0
  Pd  Pd6  1  0.50000000  0.00000000  0.00000000  1.0
  Pd  Pd7  1  0.00000000  0.50000000  0.00000000  1.0
  Pd  Pd8  1  0.43382263  0.25566358  0.00000000  1.0
  Pd  Pd9  1  0.56617737  0.74433642  0.00000000  1.0
  Pd  Pd10  1  -0.06617737  0.24433642  0.00000000  1.0
  Pd  Pd11  1  1.06617737  0.75566358  0.00000000  1.0
  Pd  Pd12  1  0.69976444  0.39016271  0.50000000  1.0
  Pd  Pd13  1  0.30023556  0.60983729  0.50000000  1.0
  Pd  Pd14  1  0.19976444  0.10983729  0.50000000  1.0
  Pd  Pd15  1  0.80023556  0.89016271  0.50000000  1.0
