# generated using pymatgen
data_Mg3Mn3(BO5)2
_symmetry_space_group_name_H-M   'P 1'
_cell_length_a   5.48155964
_cell_length_b   6.04008660
_cell_length_c   10.88531333
_cell_angle_alpha   90.00000000
_cell_angle_beta   96.26126038
_cell_angle_gamma   90.00000000
_symmetry_Int_Tables_number   1
_chemical_formula_structural   Mg3Mn3(BO5)2
_chemical_formula_sum   'Mg6 Mn6 B4 O20'
_cell_volume   358.25304185
_cell_formula_units_Z   2
loop_
 _symmetry_equiv_pos_site_id
 _symmetry_equiv_pos_as_xyz
  1  'x, y, z'
loop_
 _atom_site_type_symbol
 _atom_site_label
 _atom_site_symmetry_multiplicity
 _atom_site_fract_x
 _atom_site_fract_y
 _atom_site_fract_z
 _atom_site_occupancy
  Mn  Mn0  1  0.79722403  0.75000000  0.22775281  1.0
  Mn  Mn1  1  0.20277597  0.25000000  0.77224719  1.0
  Mn  Mn2  1  0.00000000  0.00000000  0.50000000  1.0
  Mn  Mn3  1  0.00000000  0.50000000  0.50000000  1.0
  Mn  Mn4  1  0.50000000  0.00000000  -0.00000000  1.0
  Mn  Mn5  1  0.50000000  0.50000000  -0.00000000  1.0
  O  O6  1  -0.07094763  -0.00550741  0.80229344  1.0
  O  O7  1  -0.07094763  0.50550741  0.80229344  1.0
  O  O8  1  0.07094763  0.49449259  0.19770656  1.0
  O  O9  1  0.07094763  0.00550741  0.19770656  1.0
  O  O10  1  0.67062842  -0.00099953  0.60845143  1.0
  O  O11  1  0.67062842  0.50099953  0.60845143  1.0
  O  O12  1  0.32937158  0.49900047  0.39154857  1.0
  O  O13  1  0.32937158  0.00099953  0.39154857  1.0
  O  O14  1  0.48543106  -0.00461027  0.79694944  1.0
  O  O15  1  0.48543106  0.50461027  0.79694944  1.0
  O  O16  1  0.51456894  0.49538973  0.20305056  1.0
  O  O17  1  0.51456894  0.00461027  0.20305056  1.0
  O  O18  1  0.82461149  0.75000000  0.40823622  1.0
  O  O19  1  0.17538851  0.25000000  0.59176378  1.0
  O  O20  1  0.25413292  0.75000000  0.97199072  1.0
  O  O21  1  0.74586708  0.25000000  0.02800928  1.0
  O  O22  1  0.16918371  0.75000000  0.58708910  1.0
  O  O23  1  0.83081629  0.25000000  0.41291090  1.0
  O  O24  1  0.75292891  0.75000000  0.03560751  1.0
  O  O25  1  0.24707109  0.25000000  0.96439249  1.0
  Mg  Mg26  1  0.00000000  0.00000000  0.00000000  1.0
  Mg  Mg27  1  0.00000000  0.50000000  0.00000000  1.0
  Mg  Mg28  1  0.49605714  0.75000000  0.50027597  1.0
  Mg  Mg29  1  0.50394286  0.25000000  0.49972403  1.0
  Mg  Mg30  1  0.20297142  0.75000000  0.77423978  1.0
  Mg  Mg31  1  0.79702858  0.25000000  0.22576022  1.0
  B  B32  1  0.69655912  -0.00339609  0.73588902  1.0
  B  B33  1  0.69655912  0.50339609  0.73588902  1.0
  B  B34  1  0.30344088  0.49660391  0.26411098  1.0
  B  B35  1  0.30344088  0.00339609  0.26411098  1.0
