# generated using pymatgen
data_LiSbO2
_symmetry_space_group_name_H-M   'P 1'
_cell_length_a   4.98291063
_cell_length_b   18.63518890
_cell_length_c   5.67675197
_cell_angle_alpha   90.00000000
_cell_angle_beta   90.02087764
_cell_angle_gamma   90.00000000
_symmetry_Int_Tables_number   1
_chemical_formula_structural   LiSbO2
_chemical_formula_sum   'Li8 Sb8 O16'
_cell_volume   527.12885139
_cell_formula_units_Z   8
loop_
 _symmetry_equiv_pos_site_id
 _symmetry_equiv_pos_as_xyz
  1  'x, y, z'
loop_
 _atom_site_type_symbol
 _atom_site_label
 _atom_site_symmetry_multiplicity
 _atom_site_fract_x
 _atom_site_fract_y
 _atom_site_fract_z
 _atom_site_occupancy
  Li  Li0  1  0.73638944  0.21465733  0.12881352  1.0
  Li  Li1  1  0.73638944  0.28534267  0.62881352  1.0
  Li  Li2  1  0.26361056  0.71465733  0.37118648  1.0
  Li  Li3  1  0.26361056  0.78534267  0.87118648  1.0
  Li  Li4  1  0.23622472  0.21455217  0.45815336  1.0
  Li  Li5  1  0.23622472  0.28544783  0.95815336  1.0
  Li  Li6  1  0.76377528  0.71455217  0.04184664  1.0
  Li  Li7  1  0.76377528  0.78544783  0.54184664  1.0
  Sb  Sb8  1  0.76244204  0.39482792  0.08148441  1.0
  Sb  Sb9  1  0.76244204  0.10517208  0.58148441  1.0
  Sb  Sb10  1  0.23755796  0.89482792  0.41851559  1.0
  Sb  Sb11  1  0.23755796  0.60517208  0.91851559  1.0
  Sb  Sb12  1  0.73726189  0.89467733  0.99507717  1.0
  Sb  Sb13  1  0.73726189  0.60532267  0.49507717  1.0
  Sb  Sb14  1  0.26273811  0.39467733  0.50492283  1.0
  Sb  Sb15  1  0.26273811  0.10532267  0.00492283  1.0
  O  O16  1  0.86962276  0.37637146  0.42336736  1.0
  O  O17  1  0.86962276  0.12362854  0.92336736  1.0
  O  O18  1  0.13037724  0.87637146  0.07663264  1.0
  O  O19  1  0.13037724  0.62362854  0.57663264  1.0
  O  O20  1  0.84141202  0.19893035  0.46037327  1.0
  O  O21  1  0.84141202  0.30106965  0.96037327  1.0
  O  O22  1  0.15858798  0.69893035  0.03962673  1.0
  O  O23  1  0.15858798  0.80106965  0.53962673  1.0
  O  O24  1  0.36943669  0.37631621  0.16340315  1.0
  O  O25  1  0.36943669  0.12368379  0.66340315  1.0
  O  O26  1  0.63056331  0.87631621  0.33659685  1.0
  O  O27  1  0.63056331  0.62368379  0.83659685  1.0
  O  O28  1  0.34145457  0.19899218  0.12659642  1.0
  O  O29  1  0.34145457  0.30100782  0.62659642  1.0
  O  O30  1  0.65854543  0.69899218  0.37340358  1.0
  O  O31  1  0.65854543  0.80100782  0.87340358  1.0
