# generated using pymatgen
data_Cs2KRh(CN)6
_symmetry_space_group_name_H-M   'P 1'
_cell_length_a   7.86724132
_cell_length_b   8.28889587
_cell_length_c   13.76202045
_cell_angle_alpha   90.00000000
_cell_angle_beta   124.44673657
_cell_angle_gamma   90.00000000
_symmetry_Int_Tables_number   1
_chemical_formula_structural   Cs2KRh(CN)6
_chemical_formula_sum   'Cs4 K2 Rh2 C12 N12'
_cell_volume   740.06909643
_cell_formula_units_Z   2
loop_
 _symmetry_equiv_pos_site_id
 _symmetry_equiv_pos_as_xyz
  1  'x, y, z'
loop_
 _atom_site_type_symbol
 _atom_site_label
 _atom_site_symmetry_multiplicity
 _atom_site_fract_x
 _atom_site_fract_y
 _atom_site_fract_z
 _atom_site_occupancy
  Cs  Cs0  1  0.27265534  0.06608896  0.75159332  1.0
  Cs  Cs1  1  0.27265534  0.43391104  0.25159332  1.0
  Cs  Cs2  1  0.72734466  0.93391104  0.24840668  1.0
  Cs  Cs3  1  0.72734466  0.56608896  0.74840668  1.0
  K  K4  1  0.50000000  0.00000000  0.50000000  1.0
  K  K5  1  0.50000000  0.50000000  0.00000000  1.0
  Rh  Rh6  1  0.00000000  0.00000000  0.00000000  1.0
  Rh  Rh7  1  0.00000000  0.50000000  0.50000000  1.0
  C  C8  1  0.90980967  0.97364350  0.83196854  1.0
  C  C9  1  0.90980967  0.52635650  0.33196854  1.0
  C  C10  1  0.09019033  0.02635650  0.16803146  1.0
  C  C11  1  0.09019033  0.47364350  0.66803146  1.0
  C  C12  1  0.24325170  0.13179947  0.03477328  1.0
  C  C13  1  0.24325170  0.36820053  0.53477328  1.0
  C  C14  1  0.75674830  0.86820053  0.96522672  1.0
  C  C15  1  0.75674830  0.63179947  0.46522672  1.0
  C  C16  1  0.82732020  0.20119665  0.95498130  1.0
  C  C17  1  0.82732020  0.29880335  0.45498130  1.0
  C  C18  1  0.17267980  0.79880335  0.04501870  1.0
  C  C19  1  0.17267980  0.70119665  0.54501870  1.0
  N  N20  1  0.85772560  0.95552551  0.73427169  1.0
  N  N21  1  0.85772560  0.54447449  0.23427169  1.0
  N  N22  1  0.14227440  0.04447449  0.26572831  1.0
  N  N23  1  0.14227440  0.45552551  0.76572831  1.0
  N  N24  1  0.38776411  0.20670269  0.05734776  1.0
  N  N25  1  0.38776411  0.29329731  0.55734776  1.0
  N  N26  1  0.61223589  0.79329731  0.94265224  1.0
  N  N27  1  0.61223589  0.70670269  0.44265224  1.0
  N  N28  1  0.72446052  0.31707013  0.92800976  1.0
  N  N29  1  0.72446052  0.18292987  0.42800976  1.0
  N  N30  1  0.27553948  0.68292987  0.07199024  1.0
  N  N31  1  0.27553948  0.81707013  0.57199024  1.0
