# generated using pymatgen
data_GaSe
_symmetry_space_group_name_H-M   'P 1'
_cell_length_a   3.81381015
_cell_length_b   3.81381015
_cell_length_c   35.15902510
_cell_angle_alpha   90.00000000
_cell_angle_beta   90.00000000
_cell_angle_gamma   120.00000000
_symmetry_Int_Tables_number   1
_chemical_formula_structural   GaSe
_chemical_formula_sum   'Ga8 Se8'
_cell_volume   442.87951899
_cell_formula_units_Z   8
loop_
 _symmetry_equiv_pos_site_id
 _symmetry_equiv_pos_as_xyz
  1  'x, y, z'
loop_
 _atom_site_type_symbol
 _atom_site_label
 _atom_site_symmetry_multiplicity
 _atom_site_fract_x
 _atom_site_fract_y
 _atom_site_fract_z
 _atom_site_occupancy
  Ga  Ga0  1  0.33333333  0.66666667  0.03776055  1.0
  Ga  Ga1  1  0.66666667  0.33333333  0.53776055  1.0
  Ga  Ga2  1  0.33333333  0.66666667  0.10792412  1.0
  Ga  Ga3  1  0.66666667  0.33333333  0.60792412  1.0
  Ga  Ga4  1  -0.00000000  0.00000000  0.28774600  1.0
  Ga  Ga5  1  -0.00000000  -0.00000000  0.78774600  1.0
  Ga  Ga6  1  0.00000000  0.00000000  0.35791533  1.0
  Ga  Ga7  1  -0.00000000  -0.00000000  0.85791533  1.0
  Se  Se8  1  0.33333333  0.66666667  0.25437660  1.0
  Se  Se9  1  0.66666667  0.33333333  0.75437660  1.0
  Se  Se10  1  0.33333333  0.66666667  0.39128643  1.0
  Se  Se11  1  0.66666667  0.33333333  0.89128643  1.0
  Se  Se12  1  0.00000000  0.00000000  0.00439680  1.0
  Se  Se13  1  0.00000000  -0.00000000  0.50439680  1.0
  Se  Se14  1  -0.00000000  -0.00000000  0.14129417  1.0
  Se  Se15  1  -0.00000000  0.00000000  0.64129417  1.0
