# generated using pymatgen
data_Lu2CdPd2
_symmetry_space_group_name_H-M   'P 1'
_cell_length_a   7.67382811
_cell_length_b   7.67382811
_cell_length_c   3.62384266
_cell_angle_alpha   90.00000000
_cell_angle_beta   90.00000000
_cell_angle_gamma   90.00000000
_symmetry_Int_Tables_number   1
_chemical_formula_structural   Lu2CdPd2
_chemical_formula_sum   'Lu4 Cd2 Pd4'
_cell_volume   213.39953411
_cell_formula_units_Z   2
loop_
 _symmetry_equiv_pos_site_id
 _symmetry_equiv_pos_as_xyz
  1  'x, y, z'
loop_
 _atom_site_type_symbol
 _atom_site_label
 _atom_site_symmetry_multiplicity
 _atom_site_fract_x
 _atom_site_fract_y
 _atom_site_fract_z
 _atom_site_occupancy
  Lu  Lu0  1  0.33108419  0.16891581  0.50000000  1.0
  Lu  Lu1  1  0.83108419  0.33108419  0.50000000  1.0
  Lu  Lu2  1  0.66891581  0.83108419  0.50000000  1.0
  Lu  Lu3  1  0.16891581  0.66891581  0.50000000  1.0
  Cd  Cd4  1  0.50000000  0.50000000  0.00000000  1.0
  Cd  Cd5  1  0.00000000  0.00000000  0.00000000  1.0
  Pd  Pd6  1  0.86964216  0.63035784  0.00000000  1.0
  Pd  Pd7  1  0.36964216  0.86964216  0.00000000  1.0
  Pd  Pd8  1  0.13035784  0.36964216  0.00000000  1.0
  Pd  Pd9  1  0.63035784  0.13035784  0.00000000  1.0
