# generated using pymatgen
data_Sc2Ni7
_symmetry_space_group_name_H-M   'P 1'
_cell_length_a   4.79054947
_cell_length_b   4.79054947
_cell_length_c   23.78968357
_cell_angle_alpha   90.00000000
_cell_angle_beta   90.00000000
_cell_angle_gamma   120.00000000
_symmetry_Int_Tables_number   1
_chemical_formula_structural   Sc2Ni7
_chemical_formula_sum   'Sc8 Ni28'
_cell_volume   472.81359537
_cell_formula_units_Z   4
loop_
 _symmetry_equiv_pos_site_id
 _symmetry_equiv_pos_as_xyz
  1  'x, y, z'
loop_
 _atom_site_type_symbol
 _atom_site_label
 _atom_site_symmetry_multiplicity
 _atom_site_fract_x
 _atom_site_fract_y
 _atom_site_fract_z
 _atom_site_occupancy
  Sc  Sc0  1  0.33333333  0.66666667  0.97132920  1.0
  Sc  Sc1  1  0.33333333  0.66666667  0.52867080  1.0
  Sc  Sc2  1  0.66666667  0.33333333  0.47132920  1.0
  Sc  Sc3  1  0.66666667  0.33333333  0.02867080  1.0
  Sc  Sc4  1  0.33333333  0.66666667  0.82528885  1.0
  Sc  Sc5  1  0.33333333  0.66666667  0.67471115  1.0
  Sc  Sc6  1  0.66666667  0.33333333  0.32528885  1.0
  Sc  Sc7  1  0.66666667  0.33333333  0.17471115  1.0
  Ni  Ni8  1  0.00000000  0.00000000  0.33386033  1.0
  Ni  Ni9  1  -0.00000000  -0.00000000  0.16613967  1.0
  Ni  Ni10  1  -0.00000000  0.00000000  0.83386033  1.0
  Ni  Ni11  1  0.00000000  0.00000000  0.66613967  1.0
  Ni  Ni12  1  0.16798988  0.83201012  0.41709095  1.0
  Ni  Ni13  1  0.16798988  0.83201012  0.08290905  1.0
  Ni  Ni14  1  0.16798988  0.33597976  0.41709095  1.0
  Ni  Ni15  1  0.16798988  0.33597976  0.08290905  1.0
  Ni  Ni16  1  0.83201012  0.16798988  0.91709095  1.0
  Ni  Ni17  1  0.83201012  0.16798988  0.58290905  1.0
  Ni  Ni18  1  0.83201012  0.66402024  0.91709095  1.0
  Ni  Ni19  1  0.83201012  0.66402024  0.58290905  1.0
  Ni  Ni20  1  0.66402024  0.83201012  0.41709095  1.0
  Ni  Ni21  1  0.66402024  0.83201012  0.08290905  1.0
  Ni  Ni22  1  0.33597976  0.16798988  0.91709095  1.0
  Ni  Ni23  1  0.33597976  0.16798988  0.58290905  1.0
  Ni  Ni24  1  0.16656128  0.83343872  0.25000000  1.0
  Ni  Ni25  1  0.16656128  0.33312255  0.25000000  1.0
  Ni  Ni26  1  0.83343872  0.16656128  0.75000000  1.0
  Ni  Ni27  1  0.83343872  0.66687745  0.75000000  1.0
  Ni  Ni28  1  0.66687745  0.83343872  0.25000000  1.0
  Ni  Ni29  1  0.33312255  0.16656128  0.75000000  1.0
  Ni  Ni30  1  0.33333333  0.66666667  0.33367371  1.0
  Ni  Ni31  1  0.33333333  0.66666667  0.16632629  1.0
  Ni  Ni32  1  0.66666667  0.33333333  0.83367371  1.0
  Ni  Ni33  1  0.66666667  0.33333333  0.66632629  1.0
  Ni  Ni34  1  -0.00000000  -0.00000000  0.50000000  1.0
  Ni  Ni35  1  -0.00000000  -0.00000000  -0.00000000  1.0
