# generated using pymatgen
data_Sb2Ru
_symmetry_space_group_name_H-M   'P 1'
_cell_length_a   6.02706232
_cell_length_b   6.74673264
_cell_length_c   3.22518434
_cell_angle_alpha   90.00000000
_cell_angle_beta   90.00000000
_cell_angle_gamma   90.00000000
_symmetry_Int_Tables_number   1
_chemical_formula_structural   Sb2Ru
_chemical_formula_sum   'Sb4 Ru2'
_cell_volume   131.14560000
_cell_formula_units_Z   2
loop_
 _symmetry_equiv_pos_site_id
 _symmetry_equiv_pos_as_xyz
  1  'x, y, z'
loop_
 _atom_site_type_symbol
 _atom_site_label
 _atom_site_symmetry_multiplicity
 _atom_site_fract_x
 _atom_site_fract_y
 _atom_site_fract_z
 _atom_site_occupancy
  Sb  Sb0  1  0.31744263  0.85769832  0.50000000  1.0
  Sb  Sb1  1  0.81744263  0.64230168  0.00000000  1.0
  Sb  Sb2  1  0.68255737  0.14230168  0.50000000  1.0
  Sb  Sb3  1  0.18255737  0.35769832  0.00000000  1.0
  Ru  Ru4  1  0.50000000  0.50000000  0.50000000  1.0
  Ru  Ru5  1  0.00000000  0.00000000  0.00000000  1.0
