# generated using pymatgen
data_MgNb2O6
_symmetry_space_group_name_H-M   'P 1'
_cell_length_a   14.32622555
_cell_length_b   5.78334257
_cell_length_c   5.06809445
_cell_angle_alpha   90.00000000
_cell_angle_beta   90.00000000
_cell_angle_gamma   90.00000000
_symmetry_Int_Tables_number   1
_chemical_formula_structural   MgNb2O6
_chemical_formula_sum   'Mg4 Nb8 O24'
_cell_volume   419.90921174
_cell_formula_units_Z   4
loop_
 _symmetry_equiv_pos_site_id
 _symmetry_equiv_pos_as_xyz
  1  'x, y, z'
loop_
 _atom_site_type_symbol
 _atom_site_label
 _atom_site_symmetry_multiplicity
 _atom_site_fract_x
 _atom_site_fract_y
 _atom_site_fract_z
 _atom_site_occupancy
  Mg  Mg0  1  0.00000000  0.66534677  0.75000000  1.0
  Mg  Mg1  1  0.00000000  0.33465323  0.25000000  1.0
  Mg  Mg2  1  0.50000000  0.16534677  0.75000000  1.0
  Mg  Mg3  1  0.50000000  0.83465323  0.25000000  1.0
  Nb  Nb4  1  0.66002545  0.68270960  0.74576444  1.0
  Nb  Nb5  1  0.66002545  0.31729040  0.24576444  1.0
  Nb  Nb6  1  0.16002545  0.18270960  0.75423556  1.0
  Nb  Nb7  1  0.16002545  0.81729040  0.25423556  1.0
  Nb  Nb8  1  0.33997455  0.68270960  0.75423556  1.0
  Nb  Nb9  1  0.33997455  0.31729040  0.25423556  1.0
  Nb  Nb10  1  0.83997455  0.18270960  0.74576444  1.0
  Nb  Nb11  1  0.83997455  0.81729040  0.24576444  1.0
  O  O12  1  0.90363980  0.89430062  0.56959556  1.0
  O  O13  1  0.90363980  0.10569938  0.06959556  1.0
  O  O14  1  0.40363980  0.39430062  0.93040444  1.0
  O  O15  1  0.40363980  0.60569938  0.43040444  1.0
  O  O16  1  0.09636020  0.89430062  0.93040444  1.0
  O  O17  1  0.09636020  0.10569938  0.43040444  1.0
  O  O18  1  0.59636020  0.39430062  0.56959556  1.0
  O  O19  1  0.59636020  0.60569938  0.06959556  1.0
  O  O20  1  0.75549993  0.87286771  0.91741769  1.0
  O  O21  1  0.75549993  0.12713229  0.41741769  1.0
  O  O22  1  0.25549993  0.37286771  0.58258231  1.0
  O  O23  1  0.25549993  0.62713229  0.08258231  1.0
  O  O24  1  0.24450007  0.87286771  0.58258231  1.0
  O  O25  1  0.24450007  0.12713229  0.08258231  1.0
  O  O26  1  0.74450007  0.37286771  0.91741769  1.0
  O  O27  1  0.74450007  0.62713229  0.41741769  1.0
  O  O28  1  0.57920472  0.88250356  0.59117556  1.0
  O  O29  1  0.57920472  0.11749644  0.09117556  1.0
  O  O30  1  0.07920472  0.38250356  0.90882444  1.0
  O  O31  1  0.07920472  0.61749644  0.40882444  1.0
  O  O32  1  0.42079528  0.88250356  0.90882444  1.0
  O  O33  1  0.42079528  0.11749644  0.40882444  1.0
  O  O34  1  0.92079528  0.38250356  0.59117556  1.0
  O  O35  1  0.92079528  0.61749644  0.09117556  1.0
