# generated using pymatgen
data_KCuPH2O5
_symmetry_space_group_name_H-M   'P 1'
_cell_length_a   10.64684083
_cell_length_b   6.97345847
_cell_length_c   6.83888129
_cell_angle_alpha   90.00000000
_cell_angle_beta   94.49545727
_cell_angle_gamma   90.00000000
_symmetry_Int_Tables_number   1
_chemical_formula_structural   KCuPH2O5
_chemical_formula_sum   'K4 Cu4 P4 H8 O20'
_cell_volume   506.19272825
_cell_formula_units_Z   4
loop_
 _symmetry_equiv_pos_site_id
 _symmetry_equiv_pos_as_xyz
  1  'x, y, z'
loop_
 _atom_site_type_symbol
 _atom_site_label
 _atom_site_symmetry_multiplicity
 _atom_site_fract_x
 _atom_site_fract_y
 _atom_site_fract_z
 _atom_site_occupancy
  K  K0  1  0.68333560  0.07273610  0.44087409  1.0
  K  K1  1  0.68333560  0.42726390  0.94087409  1.0
  K  K2  1  0.31666440  0.57273610  0.05912591  1.0
  K  K3  1  0.31666440  0.92726390  0.55912591  1.0
  Cu  Cu4  1  0.99259541  0.28872473  0.22459318  1.0
  Cu  Cu5  1  0.99259541  0.21127527  0.72459318  1.0
  Cu  Cu6  1  0.00740459  0.78872473  0.27540682  1.0
  Cu  Cu7  1  0.00740459  0.71127527  0.77540682  1.0
  P  P8  1  0.82452378  0.97176126  -0.01243278  1.0
  P  P9  1  0.82452378  0.52823874  0.48756722  1.0
  P  P10  1  0.17547622  0.47176126  0.51243278  1.0
  P  P11  1  0.17547622  0.02823874  1.01243278  1.0
  H  H12  1  0.40351324  0.11969312  0.17992156  1.0
  H  H13  1  0.40351324  0.38030688  0.67992156  1.0
  H  H14  1  0.59648676  0.61969312  0.32007844  1.0
  H  H15  1  0.59648676  0.88030688  0.82007844  1.0
  H  H16  1  0.39412404  0.27529870  0.34765428  1.0
  H  H17  1  0.39412404  0.22470130  0.84765428  1.0
  H  H18  1  0.60587596  0.77529870  0.15234572  1.0
  H  H19  1  0.60587596  0.72470130  0.65234572  1.0
  O  O20  1  0.92037436  0.02757965  0.17370073  1.0
  O  O21  1  0.92037436  0.47242035  0.67370073  1.0
  O  O22  1  0.07962564  0.52757965  0.32629927  1.0
  O  O23  1  0.07962564  0.97242035  0.82629927  1.0
  O  O24  1  0.86487521  0.73298040  0.42340175  1.0
  O  O25  1  0.86487521  0.76701960  0.92340175  1.0
  O  O26  1  0.13512479  0.23298040  0.07659825  1.0
  O  O27  1  0.13512479  0.26701960  0.57659825  1.0
  O  O28  1  0.83649203  0.37163841  0.32603740  1.0
  O  O29  1  0.83649203  0.12836159  0.82603740  1.0
  O  O30  1  0.16350797  0.87163841  0.17396260  1.0
  O  O31  1  0.16350797  0.62836159  0.67396260  1.0
  O  O32  1  0.44413265  0.16503881  0.30639724  1.0
  O  O33  1  0.44413265  0.33496119  0.80639724  1.0
  O  O34  1  0.55586735  0.66503881  0.19360276  1.0
  O  O35  1  0.55586735  0.83496119  0.69360276  1.0
  O  O36  1  0.31179112  0.46941318  0.45605469  1.0
  O  O37  1  0.31179112  0.03058682  0.95605469  1.0
  O  O38  1  0.68820888  0.96941318  0.04394531  1.0
  O  O39  1  0.68820888  0.53058682  0.54394531  1.0
