# generated using pymatgen
data_CoBiC6(N3O2)2
_symmetry_space_group_name_H-M   'P 1'
_cell_length_a   7.55227892
_cell_length_b   7.55227892
_cell_length_c   13.29681843
_cell_angle_alpha   90.00000000
_cell_angle_beta   90.00000000
_cell_angle_gamma   119.97020921
_symmetry_Int_Tables_number   1
_chemical_formula_structural   CoBiC6(N3O2)2
_chemical_formula_sum   'Co2 Bi2 C12 N12 O8'
_cell_volume   656.99899595
_cell_formula_units_Z   2
loop_
 _symmetry_equiv_pos_site_id
 _symmetry_equiv_pos_as_xyz
  1  'x, y, z'
loop_
 _atom_site_type_symbol
 _atom_site_label
 _atom_site_symmetry_multiplicity
 _atom_site_fract_x
 _atom_site_fract_y
 _atom_site_fract_z
 _atom_site_occupancy
  Co  Co0  1  0.00000000  0.00000000  0.00000000  1.0
  Co  Co1  1  0.00000000  0.00000000  0.50000000  1.0
  Bi  Bi2  1  -0.33460512  0.33460512  0.75000000  1.0
  Bi  Bi3  1  -0.66539488  0.66539488  0.25000000  1.0
  C  C4  1  -0.11703387  0.76766359  0.91815055  1.0
  C  C5  1  -0.11703387  0.76766359  0.58184945  1.0
  C  C6  1  -0.23233641  0.88296613  0.41815055  1.0
  C  C7  1  -0.23233641  0.88296613  0.08184945  1.0
  C  C8  1  0.23233641  1.11703387  0.91815055  1.0
  C  C9  1  0.23233641  1.11703387  0.58184945  1.0
  C  C10  1  0.11703387  1.23233641  0.41815055  1.0
  C  C11  1  0.11703387  1.23233641  0.08184945  1.0
  C  C12  1  -0.11722712  0.11722712  0.91951804  1.0
  C  C13  1  -0.11722712  0.11722712  0.58048196  1.0
  C  C14  1  -0.88277288  0.88277288  0.41951804  1.0
  C  C15  1  -0.88277288  0.88277288  0.08048196  1.0
  N  N16  1  -0.19051248  0.62271760  0.86697181  1.0
  N  N17  1  -0.19051248  0.62271760  0.63302819  1.0
  N  N18  1  -0.37728240  0.80948752  0.36697181  1.0
  N  N19  1  -0.37728240  0.80948752  0.13302819  1.0
  N  N20  1  0.37728240  1.19051248  0.86697181  1.0
  N  N21  1  0.37728240  1.19051248  0.63302819  1.0
  N  N22  1  0.19051248  1.37728240  0.36697181  1.0
  N  N23  1  0.19051248  1.37728240  0.13302819  1.0
  N  N24  1  -0.19027707  0.19027707  0.86899993  1.0
  N  N25  1  -0.19027707  0.19027707  0.63100007  1.0
  N  N26  1  -0.80972293  0.80972293  0.36899993  1.0
  N  N27  1  -0.80972293  0.80972293  0.13100007  1.0
  O  O28  1  0.19839750  1.53290234  0.75000000  1.0
  O  O29  1  0.53290234  1.19839750  0.25000000  1.0
  O  O30  1  -0.53290234  0.80160250  0.75000000  1.0
  O  O31  1  -0.19839750  0.46709766  0.25000000  1.0
  O  O32  1  -0.63962611  0.63962611  0.82630155  1.0
  O  O33  1  -0.63962611  0.63962611  0.67369845  1.0
  O  O34  1  -0.36037389  0.36037389  0.32630155  1.0
  O  O35  1  -0.36037389  0.36037389  0.17369845  1.0
