# generated using pymatgen
data_ReC5BrO5
_symmetry_space_group_name_H-M   'P 1'
_cell_length_a   12.71238758
_cell_length_b   12.47305040
_cell_length_c   6.54829671
_cell_angle_alpha   90.00000000
_cell_angle_beta   90.00000000
_cell_angle_gamma   90.00000000
_symmetry_Int_Tables_number   1
_chemical_formula_structural   ReC5BrO5
_chemical_formula_sum   'Re4 C20 Br4 O20'
_cell_volume   1038.31266743
_cell_formula_units_Z   4
loop_
 _symmetry_equiv_pos_site_id
 _symmetry_equiv_pos_as_xyz
  1  'x, y, z'
loop_
 _atom_site_type_symbol
 _atom_site_label
 _atom_site_symmetry_multiplicity
 _atom_site_fract_x
 _atom_site_fract_y
 _atom_site_fract_z
 _atom_site_occupancy
  Re  Re0  1  0.37269034  0.25000000  0.55370227  1.0
  Re  Re1  1  0.87269034  0.25000000  0.94629773  1.0
  Re  Re2  1  0.62730966  0.75000000  0.44629773  1.0
  Re  Re3  1  0.12730966  0.75000000  0.05370227  1.0
  C  C4  1  0.95766236  0.36480404  0.80809842  1.0
  C  C5  1  0.95766236  0.13519596  0.80809842  1.0
  C  C6  1  0.45766236  0.36480404  0.69190158  1.0
  C  C7  1  0.45766236  0.13519596  0.69190158  1.0
  C  C8  1  0.04233764  0.86480404  0.19190158  1.0
  C  C9  1  0.04233764  0.63519596  0.19190158  1.0
  C  C10  1  0.54233764  0.86480404  0.30809842  1.0
  C  C11  1  0.54233764  0.63519596  0.30809842  1.0
  C  C12  1  0.77974043  0.36380892  0.06815779  1.0
  C  C13  1  0.77974043  0.13619108  0.06815779  1.0
  C  C14  1  0.27974043  0.36380892  0.43184221  1.0
  C  C15  1  0.27974043  0.13619108  0.43184221  1.0
  C  C16  1  0.22025957  0.86380892  0.93184221  1.0
  C  C17  1  0.22025957  0.63619108  0.93184221  1.0
  C  C18  1  0.72025957  0.86380892  0.56815779  1.0
  C  C19  1  0.72025957  0.63619108  0.56815779  1.0
  C  C20  1  0.96491785  0.25000000  0.18095745  1.0
  C  C21  1  0.46491785  0.25000000  0.31904255  1.0
  C  C22  1  0.03508215  0.75000000  0.81904255  1.0
  C  C23  1  0.53508215  0.75000000  0.68095745  1.0
  Br  Br24  1  0.74638162  0.25000000  0.62424982  1.0
  Br  Br25  1  0.24638162  0.25000000  0.87575018  1.0
  Br  Br26  1  0.25361838  0.75000000  0.37575018  1.0
  Br  Br27  1  0.75361838  0.75000000  0.12424982  1.0
  O  O28  1  0.99528282  0.93206031  0.26942420  1.0
  O  O29  1  0.99528282  0.56793969  0.26942420  1.0
  O  O30  1  0.49528282  0.93206031  0.23057580  1.0
  O  O31  1  0.49528282  0.56793969  0.23057580  1.0
  O  O32  1  0.00471718  0.43206031  0.73057580  1.0
  O  O33  1  0.00471718  0.06793969  0.73057580  1.0
  O  O34  1  0.50471718  0.43206031  0.76942420  1.0
  O  O35  1  0.50471718  0.06793969  0.76942420  1.0
  O  O36  1  0.72628529  0.42909171  0.13513419  1.0
  O  O37  1  0.72628529  0.07090829  0.13513419  1.0
  O  O38  1  0.22628529  0.42909171  0.36486581  1.0
  O  O39  1  0.22628529  0.07090829  0.36486581  1.0
  O  O40  1  0.27371471  0.92909171  0.86486581  1.0
  O  O41  1  0.27371471  0.57090829  0.86486581  1.0
  O  O42  1  0.77371471  0.92909171  0.63513419  1.0
  O  O43  1  0.77371471  0.57090829  0.63513419  1.0
  O  O44  1  0.52093661  0.25000000  0.17913346  1.0
  O  O45  1  0.02093661  0.25000000  0.32086654  1.0
  O  O46  1  0.47906339  0.75000000  0.82086654  1.0
  O  O47  1  0.97906339  0.75000000  0.67913346  1.0
