# generated using pymatgen
data_SrCdAu
_symmetry_space_group_name_H-M   'P 1'
_cell_length_a   7.77956519
_cell_length_b   4.59406106
_cell_length_c   9.00549675
_cell_angle_alpha   90.00000000
_cell_angle_beta   90.00000000
_cell_angle_gamma   90.00000000
_symmetry_Int_Tables_number   1
_chemical_formula_structural   SrCdAu
_chemical_formula_sum   'Sr4 Cd4 Au4'
_cell_volume   321.85463071
_cell_formula_units_Z   4
loop_
 _symmetry_equiv_pos_site_id
 _symmetry_equiv_pos_as_xyz
  1  'x, y, z'
loop_
 _atom_site_type_symbol
 _atom_site_label
 _atom_site_symmetry_multiplicity
 _atom_site_fract_x
 _atom_site_fract_y
 _atom_site_fract_z
 _atom_site_occupancy
  Sr  Sr0  1  0.96439148  0.75000000  0.68452538  1.0
  Sr  Sr1  1  0.46439148  0.75000000  0.81547462  1.0
  Sr  Sr2  1  0.03560852  0.25000000  0.31547462  1.0
  Sr  Sr3  1  0.53560852  0.25000000  0.18452538  1.0
  Cd  Cd4  1  0.85377057  0.75000000  0.06227624  1.0
  Cd  Cd5  1  0.35377057  0.75000000  0.43772376  1.0
  Cd  Cd6  1  0.14622943  0.25000000  0.93772376  1.0
  Cd  Cd7  1  0.64622943  0.25000000  0.56227624  1.0
  Au  Au8  1  0.73754779  0.75000000  0.37655367  1.0
  Au  Au9  1  0.23754779  0.75000000  0.12344633  1.0
  Au  Au10  1  0.26245221  0.25000000  0.62344633  1.0
  Au  Au11  1  0.76245221  0.25000000  0.87655367  1.0
