# generated using pymatgen
data_Na4Al3Si3IO12
_symmetry_space_group_name_H-M   'P 1'
_cell_length_a   9.11332732
_cell_length_b   9.11332732
_cell_length_c   9.11332732
_cell_angle_alpha   90.00000000
_cell_angle_beta   90.00000000
_cell_angle_gamma   90.00000000
_symmetry_Int_Tables_number   1
_chemical_formula_structural   Na4Al3Si3IO12
_chemical_formula_sum   'Na8 Al6 Si6 I2 O24'
_cell_volume   756.88675628
_cell_formula_units_Z   2
loop_
 _symmetry_equiv_pos_site_id
 _symmetry_equiv_pos_as_xyz
  1  'x, y, z'
loop_
 _atom_site_type_symbol
 _atom_site_label
 _atom_site_symmetry_multiplicity
 _atom_site_fract_x
 _atom_site_fract_y
 _atom_site_fract_z
 _atom_site_occupancy
  Na  Na0  1  0.30247705  0.30247705  0.69752295  1.0
  Na  Na1  1  0.30247705  0.69752295  0.30247705  1.0
  Na  Na2  1  0.80247705  0.80247705  0.19752295  1.0
  Na  Na3  1  0.80247705  0.19752295  0.80247705  1.0
  Na  Na4  1  0.69752295  0.30247705  0.30247705  1.0
  Na  Na5  1  0.69752295  0.69752295  0.69752295  1.0
  Na  Na6  1  0.19752295  0.80247705  0.80247705  1.0
  Na  Na7  1  0.19752295  0.19752295  0.19752295  1.0
  Al  Al8  1  0.25000000  -0.00000000  0.50000000  1.0
  Al  Al9  1  0.75000000  -0.00000000  0.50000000  1.0
  Al  Al10  1  0.50000000  0.25000000  0.00000000  1.0
  Al  Al11  1  0.50000000  0.75000000  0.00000000  1.0
  Al  Al12  1  0.00000000  0.50000000  0.25000000  1.0
  Al  Al13  1  0.00000000  0.50000000  0.75000000  1.0
  Si  Si14  1  0.25000000  0.50000000  -0.00000000  1.0
  Si  Si15  1  0.75000000  0.50000000  -0.00000000  1.0
  Si  Si16  1  -0.00000000  0.25000000  0.50000000  1.0
  Si  Si17  1  -0.00000000  0.75000000  0.50000000  1.0
  Si  Si18  1  0.50000000  0.00000000  0.25000000  1.0
  Si  Si19  1  0.50000000  0.00000000  0.75000000  1.0
  I  I20  1  0.50000000  0.50000000  0.50000000  1.0
  I  I21  1  0.00000000  0.00000000  0.00000000  1.0
  O  O22  1  0.35815232  0.05136213  0.65179194  1.0
  O  O23  1  0.35815232  0.94863787  0.34820806  1.0
  O  O24  1  0.85815232  0.84820806  0.44863787  1.0
  O  O25  1  0.85815232  0.15179194  0.55136213  1.0
  O  O26  1  0.34820806  0.35815232  0.94863787  1.0
  O  O27  1  0.34820806  0.64184768  0.05136213  1.0
  O  O28  1  0.84820806  0.55136213  0.14184768  1.0
  O  O29  1  0.84820806  0.44863787  0.85815232  1.0
  O  O30  1  0.05136213  0.34820806  0.64184768  1.0
  O  O31  1  0.05136213  0.65179194  0.35815232  1.0
  O  O32  1  0.55136213  0.85815232  0.15179194  1.0
  O  O33  1  0.55136213  0.14184768  0.84820806  1.0
  O  O34  1  0.64184768  0.05136213  0.34820806  1.0
  O  O35  1  0.64184768  0.94863787  0.65179194  1.0
  O  O36  1  0.14184768  0.84820806  0.55136213  1.0
  O  O37  1  0.14184768  0.15179194  0.44863787  1.0
  O  O38  1  0.65179194  0.35815232  0.05136213  1.0
  O  O39  1  0.65179194  0.64184768  0.94863787  1.0
  O  O40  1  0.15179194  0.55136213  0.85815232  1.0
  O  O41  1  0.15179194  0.44863787  0.14184768  1.0
  O  O42  1  0.94863787  0.34820806  0.35815232  1.0
  O  O43  1  0.94863787  0.65179194  0.64184768  1.0
  O  O44  1  0.44863787  0.85815232  0.84820806  1.0
  O  O45  1  0.44863787  0.14184768  0.15179194  1.0
