# generated using pymatgen
data_TmCl3
_symmetry_space_group_name_H-M   'P 1'
_cell_length_a   7.26439918
_cell_length_b   7.26439918
_cell_length_c   7.26439918
_cell_angle_alpha   54.23629487
_cell_angle_beta   54.23629487
_cell_angle_gamma   54.23629487
_symmetry_Int_Tables_number   1
_chemical_formula_structural   TmCl3
_chemical_formula_sum   'Tm2 Cl6'
_cell_volume   234.61048126
_cell_formula_units_Z   2
loop_
 _symmetry_equiv_pos_site_id
 _symmetry_equiv_pos_as_xyz
  1  'x, y, z'
loop_
 _atom_site_type_symbol
 _atom_site_label
 _atom_site_symmetry_multiplicity
 _atom_site_fract_x
 _atom_site_fract_y
 _atom_site_fract_z
 _atom_site_occupancy
  Tm  Tm0  1  1.00000000  0.00000000  -0.00000000  1.0
  Tm  Tm1  1  0.50000000  0.50000000  0.50000000  1.0
  Cl  Cl2  1  1.39713850  -0.25000000  0.10286150  1.0
  Cl  Cl3  1  0.89713850  -0.39713850  0.25000000  1.0
  Cl  Cl4  1  0.25000000  0.89713850  -0.39713850  1.0
  Cl  Cl5  1  0.75000000  0.10286150  0.39713850  1.0
  Cl  Cl6  1  0.60286150  0.25000000  -0.10286150  1.0
  Cl  Cl7  1  1.10286150  0.39713850  -0.25000000  1.0
