# generated using pymatgen
data_Zr3C
_symmetry_space_group_name_H-M   'P 1'
_cell_length_a   5.77725123
_cell_length_b   5.77725123
_cell_length_c   5.77725123
_cell_angle_alpha   146.44994816
_cell_angle_beta   133.31472798
_cell_angle_gamma   58.70739975
_symmetry_Int_Tables_number   1
_chemical_formula_structural   Zr3C
_chemical_formula_sum   'Zr3 C1'
_cell_volume   76.87945411
_cell_formula_units_Z   1
loop_
 _symmetry_equiv_pos_site_id
 _symmetry_equiv_pos_as_xyz
  1  'x, y, z'
loop_
 _atom_site_type_symbol
 _atom_site_label
 _atom_site_symmetry_multiplicity
 _atom_site_fract_x
 _atom_site_fract_y
 _atom_site_fract_z
 _atom_site_occupancy
  Zr  Zr0  1  0.00000000  0.50000000  0.50000000  1.0
  Zr  Zr1  1  0.65511348  0.15511348  0.50000000  1.0
  Zr  Zr2  1  1.34488652  0.84488652  0.50000000  1.0
  C  C3  1  0.50000000  0.50000000  1.00000000  1.0
