# generated using pymatgen
data_Na2PrGeO5
_symmetry_space_group_name_H-M   'P 1'
_cell_length_a   9.60528199
_cell_length_b   7.38182293
_cell_length_c   6.83514249
_cell_angle_alpha   90.00000000
_cell_angle_beta   90.00000000
_cell_angle_gamma   90.00000000
_symmetry_Int_Tables_number   1
_chemical_formula_structural   Na2PrGeO5
_chemical_formula_sum   'Na8 Pr4 Ge4 O20'
_cell_volume   484.64229858
_cell_formula_units_Z   4
loop_
 _symmetry_equiv_pos_site_id
 _symmetry_equiv_pos_as_xyz
  1  'x, y, z'
loop_
 _atom_site_type_symbol
 _atom_site_label
 _atom_site_symmetry_multiplicity
 _atom_site_fract_x
 _atom_site_fract_y
 _atom_site_fract_z
 _atom_site_occupancy
  O  O0  1  0.94330770  0.93799438  0.32349841  1.0
  O  O1  1  0.94330770  0.56200562  0.32349841  1.0
  O  O2  1  0.44330770  0.93799438  0.17650159  1.0
  O  O3  1  0.44330770  0.56200562  0.17650159  1.0
  O  O4  1  0.05669230  0.43799438  0.67650159  1.0
  O  O5  1  0.05669230  0.06200562  0.67650159  1.0
  O  O6  1  0.55669230  0.43799438  0.82349841  1.0
  O  O7  1  0.55669230  0.06200562  0.82349841  1.0
  O  O8  1  0.96644485  0.25000000  0.02764510  1.0
  O  O9  1  0.46644485  0.25000000  0.47235490  1.0
  O  O10  1  0.03355515  0.75000000  0.97235490  1.0
  O  O11  1  0.53355515  0.75000000  0.52764510  1.0
  O  O12  1  0.76599837  0.25000000  0.59529624  1.0
  O  O13  1  0.26599837  0.25000000  0.90470376  1.0
  O  O14  1  0.23400163  0.75000000  0.40470376  1.0
  O  O15  1  0.73400163  0.75000000  0.09529624  1.0
  O  O16  1  0.67997332  0.25000000  0.17662998  1.0
  O  O17  1  0.17997332  0.25000000  0.32337002  1.0
  O  O18  1  0.32002668  0.75000000  0.82337002  1.0
  O  O19  1  0.82002668  0.75000000  0.67662998  1.0
  Pr  Pr20  1  0.97795587  0.25000000  0.37619973  1.0
  Pr  Pr21  1  0.47795587  0.25000000  0.12380027  1.0
  Pr  Pr22  1  0.02204413  0.75000000  0.62380027  1.0
  Pr  Pr23  1  0.52204413  0.75000000  0.87619973  1.0
  Na  Na24  1  0.69310722  0.96461904  0.38562197  1.0
  Na  Na25  1  0.69310722  0.53538096  0.38562197  1.0
  Na  Na26  1  0.19310722  0.96461904  0.11437803  1.0
  Na  Na27  1  0.19310722  0.53538096  0.11437803  1.0
  Na  Na28  1  0.30689278  0.46461904  0.61437803  1.0
  Na  Na29  1  0.30689278  0.03538096  0.61437803  1.0
  Na  Na30  1  0.80689278  0.46461904  0.88562197  1.0
  Na  Na31  1  0.80689278  0.03538096  0.88562197  1.0
  Ge  Ge32  1  0.58817906  0.25000000  0.66420971  1.0
  Ge  Ge33  1  0.08817906  0.25000000  0.83579029  1.0
  Ge  Ge34  1  0.41182094  0.75000000  0.33579029  1.0
  Ge  Ge35  1  0.91182094  0.75000000  0.16420971  1.0
