# generated using pymatgen
data_Sc2Cr3Si4
_symmetry_space_group_name_H-M   'P 1'
_cell_length_a   6.51537836
_cell_length_b   6.51537836
_cell_length_c   12.05978664
_cell_angle_alpha   90.00000000
_cell_angle_beta   90.00000000
_cell_angle_gamma   90.00000000
_symmetry_Int_Tables_number   1
_chemical_formula_structural   Sc2Cr3Si4
_chemical_formula_sum   'Sc8 Cr12 Si16'
_cell_volume   511.93981429
_cell_formula_units_Z   4
loop_
 _symmetry_equiv_pos_site_id
 _symmetry_equiv_pos_as_xyz
  1  'x, y, z'
loop_
 _atom_site_type_symbol
 _atom_site_label
 _atom_site_symmetry_multiplicity
 _atom_site_fract_x
 _atom_site_fract_y
 _atom_site_fract_z
 _atom_site_occupancy
  Si  Si0  1  0.12329860  0.80214773  0.93320824  1.0
  Si  Si1  1  0.62329860  0.69785227  0.81679176  1.0
  Si  Si2  1  0.19785227  0.87670140  0.56679176  1.0
  Si  Si3  1  0.69785227  0.62329860  0.18320824  1.0
  Si  Si4  1  0.87670140  0.19785227  0.43320824  1.0
  Si  Si5  1  0.37670140  0.30214773  0.31679176  1.0
  Si  Si6  1  0.80214773  0.12329860  0.06679176  1.0
  Si  Si7  1  0.30214773  0.37670140  0.68320824  1.0
  Si  Si8  1  0.21250129  0.53323854  0.06565294  1.0
  Si  Si9  1  0.71250129  0.96676146  0.68434706  1.0
  Si  Si10  1  0.46676146  0.78749871  0.43434706  1.0
  Si  Si11  1  0.96676146  0.71250129  0.31565294  1.0
  Si  Si12  1  0.78749871  0.46676146  0.56565294  1.0
  Si  Si13  1  0.28749871  0.03323854  0.18434706  1.0
  Si  Si14  1  0.53323854  0.21250129  0.93434706  1.0
  Si  Si15  1  0.03323854  0.28749871  0.81565294  1.0
  Cr  Cr16  1  0.33273695  0.66726305  0.25000000  1.0
  Cr  Cr17  1  0.83273695  0.83273695  0.50000000  1.0
  Cr  Cr18  1  0.66726305  0.33273695  0.75000000  1.0
  Cr  Cr19  1  0.16726305  0.16726305  0.00000000  1.0
  Cr  Cr20  1  0.33286442  0.50294991  0.87378572  1.0
  Cr  Cr21  1  0.83286442  0.99705009  0.87621428  1.0
  Cr  Cr22  1  0.49705009  0.66713558  0.62621428  1.0
  Cr  Cr23  1  0.99705009  0.83286442  0.12378572  1.0
  Cr  Cr24  1  0.66713558  0.49705009  0.37378572  1.0
  Cr  Cr25  1  0.16713558  0.00294991  0.37621428  1.0
  Cr  Cr26  1  0.50294991  0.33286442  0.12621428  1.0
  Cr  Cr27  1  0.00294991  0.16713558  0.62378572  1.0
  Sc  Sc28  1  0.49814957  0.83732702  0.02891360  1.0
  Sc  Sc29  1  0.99814957  0.66267298  0.72108640  1.0
  Sc  Sc30  1  0.16267298  0.50185043  0.47108640  1.0
  Sc  Sc31  1  0.66267298  0.99814957  0.27891360  1.0
  Sc  Sc32  1  0.50185043  0.16267298  0.52891360  1.0
  Sc  Sc33  1  0.00185043  0.33732702  0.22108640  1.0
  Sc  Sc34  1  0.83732702  0.49814957  0.97108640  1.0
  Sc  Sc35  1  0.33732702  0.00185043  0.77891360  1.0
