# generated using pymatgen
data_VO2
_symmetry_space_group_name_H-M   'P 1'
_cell_length_a   6.27413325
_cell_length_b   6.27413325
_cell_length_c   6.27413325
_cell_angle_alpha   95.22703092
_cell_angle_beta   95.22703092
_cell_angle_gamma   144.86468858
_symmetry_Int_Tables_number   1
_chemical_formula_structural   VO2
_chemical_formula_sum   'V4 O8'
_cell_volume   135.50991986
_cell_formula_units_Z   4
loop_
 _symmetry_equiv_pos_site_id
 _symmetry_equiv_pos_as_xyz
  1  'x, y, z'
loop_
 _atom_site_type_symbol
 _atom_site_label
 _atom_site_symmetry_multiplicity
 _atom_site_fract_x
 _atom_site_fract_y
 _atom_site_fract_z
 _atom_site_occupancy
  V  V0  1  0.99999837  0.70557023  0.70556860  1.0
  V  V1  1  0.70557023  0.00000163  0.70557186  1.0
  V  V2  1  1.00000163  1.29442977  1.29443140  1.0
  V  V3  1  0.29442977  0.99999837  1.29442814  1.0
  O  O4  1  0.84664083  1.49999551  1.34663635  1.0
  O  O5  1  0.49999551  0.15335917  0.65335468  1.0
  O  O6  1  1.15335917  0.50000449  0.65336365  1.0
  O  O7  1  0.50000449  0.84664083  1.34664532  1.0
  O  O8  1  0.84353574  0.84355072  0.68708646  1.0
  O  O9  1  0.84355072  0.15646426  1.00001497  1.0
  O  O10  1  1.15646426  1.15644928  1.31291354  1.0
  O  O11  1  0.15644928  0.84353574  0.99998503  1.0
