# generated using pymatgen
data_Zr6P13Ru20
_symmetry_space_group_name_H-M   'P 1'
_cell_length_a   13.02604094
_cell_length_b   13.02604094
_cell_length_c   3.88859259
_cell_angle_alpha   90.00000000
_cell_angle_beta   90.00000000
_cell_angle_gamma   120.00000000
_symmetry_Int_Tables_number   1
_chemical_formula_structural   Zr6P13Ru20
_chemical_formula_sum   'Zr6 P13 Ru20'
_cell_volume   571.41015393
_cell_formula_units_Z   1
loop_
 _symmetry_equiv_pos_site_id
 _symmetry_equiv_pos_as_xyz
  1  'x, y, z'
loop_
 _atom_site_type_symbol
 _atom_site_label
 _atom_site_symmetry_multiplicity
 _atom_site_fract_x
 _atom_site_fract_y
 _atom_site_fract_z
 _atom_site_occupancy
  Zr  Zr0  1  0.81035464  0.53261495  0.00000000  1.0
  Zr  Zr1  1  0.72226031  0.18964536  0.00000000  1.0
  Zr  Zr2  1  0.46738505  0.27773969  0.00000000  1.0
  Zr  Zr3  1  0.28340862  0.81376349  0.50000000  1.0
  Zr  Zr4  1  0.53035487  0.71659138  0.50000000  1.0
  Zr  Zr5  1  0.18623651  0.46964513  0.50000000  1.0
  P  P6  1  0.24850294  0.95637227  0.00000000  1.0
  P  P7  1  0.70786933  0.75149706  0.00000000  1.0
  P  P8  1  0.04362773  0.29213067  0.00000000  1.0
  P  P9  1  0.00000000  0.00000000  0.00000000  1.0
  P  P10  1  0.48104309  0.86095228  0.00000000  1.0
  P  P11  1  0.37990919  0.51895691  0.00000000  1.0
  P  P12  1  0.13904772  0.62009081  0.00000000  1.0
  P  P13  1  0.60444382  0.46956969  0.50000000  1.0
  P  P14  1  0.86512586  0.39555618  0.50000000  1.0
  P  P15  1  0.53043031  0.13487414  0.50000000  1.0
  P  P16  1  0.95069769  0.72193661  0.50000000  1.0
  P  P17  1  0.77123892  0.04930231  0.50000000  1.0
  P  P18  1  0.27806339  0.22876108  0.50000000  1.0
  Ru  Ru19  1  0.33333333  0.66666667  0.00000000  1.0
  Ru  Ru20  1  0.66666667  0.33333333  0.50000000  1.0
  Ru  Ru21  1  0.57525344  0.55027715  0.00000000  1.0
  Ru  Ru22  1  0.97502371  0.42474656  0.00000000  1.0
  Ru  Ru23  1  0.44972285  0.02497629  0.00000000  1.0
  Ru  Ru24  1  0.09190349  0.77074514  0.00000000  1.0
  Ru  Ru25  1  0.67884165  0.90809651  0.00000000  1.0
  Ru  Ru26  1  0.22925486  0.32115835  0.00000000  1.0
  Ru  Ru27  1  0.90452736  0.80263613  0.00000000  1.0
  Ru  Ru28  1  0.89810876  0.09547264  0.00000000  1.0
  Ru  Ru29  1  0.19736387  0.10189124  0.00000000  1.0
  Ru  Ru30  1  0.74895229  0.67031253  0.50000000  1.0
  Ru  Ru31  1  0.92136024  0.25104771  0.50000000  1.0
  Ru  Ru32  1  0.32968747  0.07863976  0.50000000  1.0
  Ru  Ru33  1  0.08002592  0.92716713  0.50000000  1.0
  Ru  Ru34  1  0.84714121  0.91997408  0.50000000  1.0
  Ru  Ru35  1  0.07283287  0.15285879  0.50000000  1.0
  Ru  Ru36  1  0.56956592  0.97303195  0.50000000  1.0
  Ru  Ru37  1  0.40346602  0.43043408  0.50000000  1.0
  Ru  Ru38  1  0.02696805  0.59653398  0.50000000  1.0
