# generated using pymatgen
data_Rb3(FeS2)2
_symmetry_space_group_name_H-M   'P 1'
_cell_length_a   7.45666828
_cell_length_b   10.87535294
_cell_length_c   12.22802844
_cell_angle_alpha   90.00000000
_cell_angle_beta   90.00000000
_cell_angle_gamma   90.00000000
_symmetry_Int_Tables_number   1
_chemical_formula_structural   Rb3(FeS2)2
_chemical_formula_sum   'Rb12 Fe8 S16'
_cell_volume   991.61850730
_cell_formula_units_Z   4
loop_
 _symmetry_equiv_pos_site_id
 _symmetry_equiv_pos_as_xyz
  1  'x, y, z'
loop_
 _atom_site_type_symbol
 _atom_site_label
 _atom_site_symmetry_multiplicity
 _atom_site_fract_x
 _atom_site_fract_y
 _atom_site_fract_z
 _atom_site_occupancy
  Rb  Rb0  1  0.42862203  0.92785029  0.63833814  1.0
  Rb  Rb1  1  0.42862203  0.57214971  0.63833814  1.0
  Rb  Rb2  1  0.92862203  0.92785029  0.86166186  1.0
  Rb  Rb3  1  0.92862203  0.57214971  0.86166186  1.0
  Rb  Rb4  1  0.57137797  0.42785029  0.36166186  1.0
  Rb  Rb5  1  0.57137797  0.07214971  0.36166186  1.0
  Rb  Rb6  1  0.07137797  0.42785029  0.13833814  1.0
  Rb  Rb7  1  0.07137797  0.07214971  0.13833814  1.0
  Rb  Rb8  1  0.40302351  0.75000000  0.27076449  1.0
  Rb  Rb9  1  0.90302351  0.75000000  0.22923551  1.0
  Rb  Rb10  1  0.59697649  0.25000000  0.72923551  1.0
  Rb  Rb11  1  0.09697649  0.25000000  0.77076449  1.0
  Fe  Fe12  1  0.44826638  0.86985026  0.97351525  1.0
  Fe  Fe13  1  0.44826638  0.63014974  0.97351525  1.0
  Fe  Fe14  1  0.94826638  0.86985026  0.52648475  1.0
  Fe  Fe15  1  0.94826638  0.63014974  0.52648475  1.0
  Fe  Fe16  1  0.55173362  0.36985026  0.02648475  1.0
  Fe  Fe17  1  0.55173362  0.13014974  0.02648475  1.0
  Fe  Fe18  1  0.05173362  0.36985026  0.47351525  1.0
  Fe  Fe19  1  0.05173362  0.13014974  0.47351525  1.0
  S  S20  1  0.07629130  0.75000000  0.65481221  1.0
  S  S21  1  0.57629130  0.75000000  0.84518779  1.0
  S  S22  1  0.92370870  0.25000000  0.34518779  1.0
  S  S23  1  0.42370870  0.25000000  0.15481221  1.0
  S  S24  1  0.36140360  0.45055066  0.89539446  1.0
  S  S25  1  0.36140360  0.04944934  0.89539446  1.0
  S  S26  1  0.86140360  0.45055066  0.60460554  1.0
  S  S27  1  0.86140360  0.04944934  0.60460554  1.0
  S  S28  1  0.63859640  0.95055066  0.10460554  1.0
  S  S29  1  0.63859640  0.54944934  0.10460554  1.0
  S  S30  1  0.13859640  0.95055066  0.39539446  1.0
  S  S31  1  0.13859640  0.54944934  0.39539446  1.0
  S  S32  1  0.21216233  0.75000000  0.03254846  1.0
  S  S33  1  0.71216233  0.75000000  0.46745154  1.0
  S  S34  1  0.78783767  0.25000000  0.96745154  1.0
  S  S35  1  0.28783767  0.25000000  0.53254846  1.0
