# generated using pymatgen
data_Sr3ZnRhO6
_symmetry_space_group_name_H-M   'P 1'
_cell_length_a   6.72628512
_cell_length_b   6.72628512
_cell_length_c   6.72628512
_cell_angle_alpha   91.92927524
_cell_angle_beta   91.92927524
_cell_angle_gamma   91.92927524
_symmetry_Int_Tables_number   1
_chemical_formula_structural   Sr3ZnRhO6
_chemical_formula_sum   'Sr6 Zn2 Rh2 O12'
_cell_volume   303.78728609
_cell_formula_units_Z   2
loop_
 _symmetry_equiv_pos_site_id
 _symmetry_equiv_pos_as_xyz
  1  'x, y, z'
loop_
 _atom_site_type_symbol
 _atom_site_label
 _atom_site_symmetry_multiplicity
 _atom_site_fract_x
 _atom_site_fract_y
 _atom_site_fract_z
 _atom_site_occupancy
  Sr  Sr0  1  0.88616022  1.25000000  -0.38616022  1.0
  Sr  Sr1  1  1.38616022  0.11383978  -0.25000000  1.0
  Sr  Sr2  1  0.75000000  0.38616022  0.11383978  1.0
  Sr  Sr3  1  1.25000000  0.61383978  -0.11383978  1.0
  Sr  Sr4  1  1.11383978  -0.25000000  0.38616022  1.0
  Sr  Sr5  1  0.61383978  0.88616022  0.25000000  1.0
  Zn  Zn6  1  0.25000000  0.25000000  0.25000000  1.0
  Zn  Zn7  1  0.75000000  0.75000000  0.75000000  1.0
  Rh  Rh8  1  0.50000000  0.50000000  0.50000000  1.0
  Rh  Rh9  1  0.00000000  0.00000000  0.00000000  1.0
  O  O10  1  1.21499329  0.40825303  -0.45901878  1.0
  O  O11  1  0.71499329  1.04098122  -0.09174697  1.0
  O  O12  1  0.95901878  0.09174697  0.28500671  1.0
  O  O13  1  1.45901878  -0.21499329  0.59174697  1.0
  O  O14  1  1.59174697  0.45901878  -0.21499329  1.0
  O  O15  1  1.09174697  0.28500671  -0.04098122  1.0
  O  O16  1  0.78500671  0.59174697  0.45901878  1.0
  O  O17  1  1.28500671  -0.04098122  0.09174697  1.0
  O  O18  1  0.54098122  1.21499329  -0.59174697  1.0
  O  O19  1  1.04098122  0.90825303  -0.28500671  1.0
  O  O20  1  0.90825303  0.71499329  0.04098122  1.0
  O  O21  1  0.40825303  0.54098122  0.21499329  1.0
