# generated using pymatgen
data_OsF6
_symmetry_space_group_name_H-M   'P 1'
_cell_length_a   10.14388032
_cell_length_b   9.25137594
_cell_length_c   5.38563557
_cell_angle_alpha   90.00000000
_cell_angle_beta   90.00000000
_cell_angle_gamma   90.00000000
_symmetry_Int_Tables_number   1
_chemical_formula_structural   OsF6
_chemical_formula_sum   'Os4 F24'
_cell_volume   505.41416442
_cell_formula_units_Z   4
loop_
 _symmetry_equiv_pos_site_id
 _symmetry_equiv_pos_as_xyz
  1  'x, y, z'
loop_
 _atom_site_type_symbol
 _atom_site_label
 _atom_site_symmetry_multiplicity
 _atom_site_fract_x
 _atom_site_fract_y
 _atom_site_fract_z
 _atom_site_occupancy
  Os  Os0  1  0.87139287  0.25000000  0.41561220  1.0
  Os  Os1  1  0.37139287  0.25000000  0.08438780  1.0
  Os  Os2  1  0.12860713  0.75000000  0.58438780  1.0
  Os  Os3  1  0.62860713  0.75000000  0.91561220  1.0
  F  F4  1  0.97767393  0.39210727  0.27500391  1.0
  F  F5  1  0.97767393  0.10789273  0.27500391  1.0
  F  F6  1  0.47767393  0.39210727  0.22499609  1.0
  F  F7  1  0.47767393  0.10789273  0.22499609  1.0
  F  F8  1  0.02232607  0.89210727  0.72499609  1.0
  F  F9  1  0.02232607  0.60789273  0.72499609  1.0
  F  F10  1  0.52232607  0.89210727  0.77500391  1.0
  F  F11  1  0.52232607  0.60789273  0.77500391  1.0
  F  F12  1  0.76518666  0.39219322  0.55579395  1.0
  F  F13  1  0.76518666  0.10780678  0.55579395  1.0
  F  F14  1  0.26518666  0.39219322  0.94420605  1.0
  F  F15  1  0.26518666  0.10780678  0.94420605  1.0
  F  F16  1  0.23481334  0.89219322  0.44420605  1.0
  F  F17  1  0.23481334  0.60780678  0.44420605  1.0
  F  F18  1  0.73481334  0.89219322  0.05579395  1.0
  F  F19  1  0.73481334  0.60780678  0.05579395  1.0
  F  F20  1  0.97693876  0.25000000  0.69832759  1.0
  F  F21  1  0.47693876  0.25000000  0.80167241  1.0
  F  F22  1  0.02306124  0.75000000  0.30167241  1.0
  F  F23  1  0.52306124  0.75000000  0.19832759  1.0
  F  F24  1  0.76582741  0.25000000  0.13259966  1.0
  F  F25  1  0.26582741  0.25000000  0.36740034  1.0
  F  F26  1  0.23417259  0.75000000  0.86740034  1.0
  F  F27  1  0.73417259  0.75000000  0.63259966  1.0
