# generated using pymatgen
data_ZnH3CNO3
_symmetry_space_group_name_H-M   'P 1'
_cell_length_a   9.60672831
_cell_length_b   7.56287283
_cell_length_c   5.49064943
_cell_angle_alpha   90.00000000
_cell_angle_beta   90.00000000
_cell_angle_gamma   90.00000000
_symmetry_Int_Tables_number   1
_chemical_formula_structural   ZnH3CNO3
_chemical_formula_sum   'Zn4 H12 C4 N4 O12'
_cell_volume   398.92019428
_cell_formula_units_Z   4
loop_
 _symmetry_equiv_pos_site_id
 _symmetry_equiv_pos_as_xyz
  1  'x, y, z'
loop_
 _atom_site_type_symbol
 _atom_site_label
 _atom_site_symmetry_multiplicity
 _atom_site_fract_x
 _atom_site_fract_y
 _atom_site_fract_z
 _atom_site_occupancy
  Zn  Zn0  1  0.35176160  0.32883671  0.25919252  1.0
  Zn  Zn1  1  0.64823840  0.67116329  0.75919252  1.0
  Zn  Zn2  1  0.14823840  0.82883671  0.75919252  1.0
  Zn  Zn3  1  0.85176160  0.17116329  0.25919252  1.0
  H  H4  1  0.10971354  0.54957415  0.04659368  1.0
  H  H5  1  0.89028646  0.45042585  0.54659368  1.0
  H  H6  1  0.39028646  0.04957415  0.54659368  1.0
  H  H7  1  0.60971354  0.95042585  0.04659368  1.0
  H  H8  1  0.96472521  0.64821457  0.95285209  1.0
  H  H9  1  0.03527479  0.35178543  0.45285209  1.0
  H  H10  1  0.53527479  0.14821457  0.45285209  1.0
  H  H11  1  0.46472521  0.85178543  0.95285209  1.0
  H  H12  1  1.05882134  0.73563407  0.17859212  1.0
  H  H13  1  -0.05882134  0.26436593  0.67859212  1.0
  H  H14  1  0.44117866  0.23563407  0.67859212  1.0
  H  H15  1  0.55882134  0.76436593  0.17859212  1.0
  C  C16  1  0.11818372  0.15435418  0.02095206  1.0
  C  C17  1  0.88181628  0.84564582  0.52095206  1.0
  C  C18  1  0.38181628  0.65435418  0.52095206  1.0
  C  C19  1  0.61818372  0.34564582  0.02095206  1.0
  N  N20  1  0.06412410  0.67018130  0.01447481  1.0
  N  N21  1  0.93587590  0.32981870  0.51447481  1.0
  N  N22  1  0.43587590  0.17018130  0.51447481  1.0
  N  N23  1  0.56412410  0.82981870  0.01447481  1.0
  O  O24  1  0.48573984  0.37616320  -0.00795979  1.0
  O  O25  1  0.51426016  0.62383680  0.49204021  1.0
  O  O26  1  0.01426016  0.87616320  0.49204021  1.0
  O  O27  1  0.98573984  0.12383680  -0.00795979  1.0
  O  O28  1  0.15806465  0.28964145  0.15001829  1.0
  O  O29  1  0.84193535  0.71035855  0.65001829  1.0
  O  O30  1  0.34193535  0.78964145  0.65001829  1.0
  O  O31  1  0.65806465  0.21035855  0.15001829  1.0
  O  O32  1  0.29077741  0.55458586  0.41888422  1.0
  O  O33  1  0.70922259  0.44541414  0.91888422  1.0
  O  O34  1  0.20922259  0.05458586  0.91888422  1.0
  O  O35  1  0.79077741  0.94541414  0.41888422  1.0
