# generated using pymatgen
data_RbCr3O8
_symmetry_space_group_name_H-M   'P 1'
_cell_length_a   16.21143185
_cell_length_b   5.47959417
_cell_length_c   8.52218692
_cell_angle_alpha   90.00000000
_cell_angle_beta   90.00000000
_cell_angle_gamma   90.00000000
_symmetry_Int_Tables_number   1
_chemical_formula_structural   RbCr3O8
_chemical_formula_sum   'Rb4 Cr12 O32'
_cell_volume   757.04348359
_cell_formula_units_Z   4
loop_
 _symmetry_equiv_pos_site_id
 _symmetry_equiv_pos_as_xyz
  1  'x, y, z'
loop_
 _atom_site_type_symbol
 _atom_site_label
 _atom_site_symmetry_multiplicity
 _atom_site_fract_x
 _atom_site_fract_y
 _atom_site_fract_z
 _atom_site_occupancy
  O  O0  1  0.46946586  0.99987271  0.67502243  1.0
  O  O1  1  0.46946586  0.50012729  0.67502243  1.0
  O  O2  1  0.96946586  0.99987271  0.82497757  1.0
  O  O3  1  0.96946586  0.50012729  0.82497757  1.0
  O  O4  1  0.53053414  0.49987271  0.32497757  1.0
  O  O5  1  0.53053414  0.00012729  0.32497757  1.0
  O  O6  1  0.03053414  0.49987271  0.17502243  1.0
  O  O7  1  0.03053414  0.00012729  0.17502243  1.0
  O  O8  1  0.11611076  0.50308616  0.65958882  1.0
  O  O9  1  0.11611076  -0.00308616  0.65958882  1.0
  O  O10  1  0.61611076  0.50308616  0.84041118  1.0
  O  O11  1  0.61611076  -0.00308616  0.84041118  1.0
  O  O12  1  0.88388924  1.00308616  0.34041118  1.0
  O  O13  1  0.88388924  0.49691384  0.34041118  1.0
  O  O14  1  0.38388924  1.00308616  0.15958882  1.0
  O  O15  1  0.38388924  0.49691384  0.15958882  1.0
  O  O16  1  0.48044065  0.75000000  0.95213835  1.0
  O  O17  1  0.98044065  0.75000000  0.54786165  1.0
  O  O18  1  0.51955935  0.25000000  0.04786165  1.0
  O  O19  1  0.01955935  0.25000000  0.45213835  1.0
  O  O20  1  0.31481725  0.75000000  0.92611392  1.0
  O  O21  1  0.81481725  0.75000000  0.57388608  1.0
  O  O22  1  0.68518275  0.25000000  0.07388608  1.0
  O  O23  1  0.18518275  0.25000000  0.42611392  1.0
  O  O24  1  0.17122584  0.75000000  0.21918884  1.0
  O  O25  1  0.67122584  0.75000000  0.28081116  1.0
  O  O26  1  0.82877416  0.25000000  0.78081116  1.0
  O  O27  1  0.32877416  0.25000000  0.71918884  1.0
  O  O28  1  0.10498688  0.75000000  0.93540873  1.0
  O  O29  1  0.60498688  0.75000000  0.56459127  1.0
  O  O30  1  0.89501312  0.25000000  0.06459127  1.0
  O  O31  1  0.39501312  0.25000000  0.43540873  1.0
  Rb  Rb32  1  0.26683379  0.75000000  0.51230925  1.0
  Rb  Rb33  1  0.76683379  0.75000000  0.98769075  1.0
  Rb  Rb34  1  0.73316621  0.25000000  0.48769075  1.0
  Rb  Rb35  1  0.23316621  0.25000000  0.01230925  1.0
  Cr  Cr36  1  0.39115350  0.75000000  0.04669338  1.0
  Cr  Cr37  1  0.89115350  0.75000000  0.45330662  1.0
  Cr  Cr38  1  0.60884650  0.25000000  0.95330662  1.0
  Cr  Cr39  1  0.10884650  0.25000000  0.54669338  1.0
  Cr  Cr40  1  0.08357437  0.75000000  0.12925206  1.0
  Cr  Cr41  1  0.58357437  0.75000000  0.37074794  1.0
  Cr  Cr42  1  0.91642563  0.25000000  0.87074794  1.0
  Cr  Cr43  1  0.41642563  0.25000000  0.62925206  1.0
  Cr  Cr44  1  0.04108318  0.75000000  0.74261646  1.0
  Cr  Cr45  1  0.54108318  0.75000000  0.75738354  1.0
  Cr  Cr46  1  0.95891682  0.25000000  0.25738354  1.0
  Cr  Cr47  1  0.45891682  0.25000000  0.24261646  1.0
