# generated using pymatgen
data_ZnPdF6
_symmetry_space_group_name_H-M   'P 1'
_cell_length_a   5.45709779
_cell_length_b   5.45709779
_cell_length_c   5.45709779
_cell_angle_alpha   55.99370582
_cell_angle_beta   55.99370582
_cell_angle_gamma   55.99370582
_symmetry_Int_Tables_number   1
_chemical_formula_structural   ZnPdF6
_chemical_formula_sum   'Zn1 Pd1 F6'
_cell_volume   104.24740467
_cell_formula_units_Z   1
loop_
 _symmetry_equiv_pos_site_id
 _symmetry_equiv_pos_as_xyz
  1  'x, y, z'
loop_
 _atom_site_type_symbol
 _atom_site_label
 _atom_site_symmetry_multiplicity
 _atom_site_fract_x
 _atom_site_fract_y
 _atom_site_fract_z
 _atom_site_occupancy
  Zn  Zn0  1  0.00000000  -0.00000000  -0.00000000  1.0
  Pd  Pd1  1  0.50000000  0.50000000  -0.50000000  1.0
  F  F2  1  0.12148163  0.74033773  -0.60748288  1.0
  F  F3  1  0.60748288  -0.12148163  0.25966227  1.0
  F  F4  1  1.25966227  -0.39251712  -0.12148163  1.0
  F  F5  1  0.87851837  0.25966227  -0.39251712  1.0
  F  F6  1  0.39251712  0.12148163  -0.25966227  1.0
  F  F7  1  0.74033773  0.39251712  -0.87851837  1.0
