# generated using pymatgen
data_SbSO2F5
_symmetry_space_group_name_H-M   'P 1'
_cell_length_a   6.04305520
_cell_length_b   11.01853879
_cell_length_c   11.34096063
_cell_angle_alpha   90.00000000
_cell_angle_beta   112.88281130
_cell_angle_gamma   90.00000000
_symmetry_Int_Tables_number   1
_chemical_formula_structural   SbSO2F5
_chemical_formula_sum   'Sb4 S4 O8 F20'
_cell_volume   695.71676823
_cell_formula_units_Z   4
loop_
 _symmetry_equiv_pos_site_id
 _symmetry_equiv_pos_as_xyz
  1  'x, y, z'
loop_
 _atom_site_type_symbol
 _atom_site_label
 _atom_site_symmetry_multiplicity
 _atom_site_fract_x
 _atom_site_fract_y
 _atom_site_fract_z
 _atom_site_occupancy
  Sb  Sb0  1  0.93703148  0.97067321  0.73272538  1.0
  Sb  Sb1  1  0.93703148  0.52932679  0.23272538  1.0
  Sb  Sb2  1  0.06296852  0.47067321  0.76727462  1.0
  Sb  Sb3  1  0.06296852  0.02932679  0.26727462  1.0
  S  S4  1  0.50873855  0.23694774  0.43104559  1.0
  S  S5  1  0.50873855  0.26305226  0.93104559  1.0
  S  S6  1  0.49126145  0.73694774  0.06895441  1.0
  S  S7  1  0.49126145  0.76305226  0.56895441  1.0
  O  O8  1  0.41629301  0.24671549  0.02922820  1.0
  O  O9  1  0.41629301  0.25328451  0.52922820  1.0
  O  O10  1  0.58370699  0.74671549  0.47077180  1.0
  O  O11  1  0.58370699  0.75328451  0.97077180  1.0
  O  O12  1  0.37573178  0.15082436  0.32456769  1.0
  O  O13  1  0.37573178  0.34917564  0.82456769  1.0
  O  O14  1  0.62426822  0.65082436  0.17543231  1.0
  O  O15  1  0.62426822  0.84917564  0.67543231  1.0
  F  F16  1  0.95181464  0.11736643  0.11006587  1.0
  F  F17  1  0.95181464  0.38263357  0.61006587  1.0
  F  F18  1  0.04818536  0.61736643  0.38993413  1.0
  F  F19  1  0.04818536  0.88263357  0.88993413  1.0
  F  F20  1  0.91730193  0.14694098  0.33751856  1.0
  F  F21  1  0.91730193  0.35305902  0.83751856  1.0
  F  F22  1  0.08269807  0.64694098  0.16248144  1.0
  F  F23  1  0.08269807  0.85305902  0.66248144  1.0
  F  F24  1  0.79509519  0.92101349  0.21525675  1.0
  F  F25  1  0.79509519  0.57898651  0.71525675  1.0
  F  F26  1  0.20490481  0.42101349  0.28474325  1.0
  F  F27  1  0.20490481  0.07898651  0.78474325  1.0
  F  F28  1  0.78578586  0.45774491  0.06567846  1.0
  F  F29  1  0.78578586  0.04225509  0.56567846  1.0
  F  F30  1  0.21421414  0.95774491  0.43432154  1.0
  F  F31  1  0.21421414  0.54225509  0.93432154  1.0
  F  F32  1  0.74593891  0.42835331  0.29171923  1.0
  F  F33  1  0.74593891  0.07164669  0.79171923  1.0
  F  F34  1  0.25406109  0.92835331  0.20828077  1.0
  F  F35  1  0.25406109  0.57164669  0.70828077  1.0
