# generated using pymatgen
data_LiS(NO2)2
_symmetry_space_group_name_H-M   'P 1'
_cell_length_a   10.51160324
_cell_length_b   9.32144458
_cell_length_c   5.63192308
_cell_angle_alpha   90.00000000
_cell_angle_beta   90.00000000
_cell_angle_gamma   90.00000000
_symmetry_Int_Tables_number   1
_chemical_formula_structural   LiS(NO2)2
_chemical_formula_sum   'Li4 S4 N8 O16'
_cell_volume   551.83456083
_cell_formula_units_Z   4
loop_
 _symmetry_equiv_pos_site_id
 _symmetry_equiv_pos_as_xyz
  1  'x, y, z'
loop_
 _atom_site_type_symbol
 _atom_site_label
 _atom_site_symmetry_multiplicity
 _atom_site_fract_x
 _atom_site_fract_y
 _atom_site_fract_z
 _atom_site_occupancy
  Li  Li0  1  0.16564981  0.09627240  0.40208854  1.0
  Li  Li1  1  0.66564981  0.40372760  0.40208854  1.0
  Li  Li2  1  0.83435019  0.90372760  0.90208854  1.0
  Li  Li3  1  0.33435019  0.59627240  0.90208854  1.0
  S  S4  1  0.34655527  0.39829948  0.40219757  1.0
  S  S5  1  0.84655527  0.10170052  0.40219757  1.0
  S  S6  1  0.65344473  0.60170052  0.90219757  1.0
  S  S7  1  0.15344473  0.89829948  0.90219757  1.0
  N  N8  1  0.49117512  0.08379304  0.90201289  1.0
  N  N9  1  0.99117512  0.41620696  0.90201289  1.0
  N  N10  1  0.50882488  0.91620696  0.40201289  1.0
  N  N11  1  0.00882488  0.58379304  0.40201289  1.0
  N  N12  1  0.45798669  0.81246474  0.40187549  1.0
  N  N13  1  0.95798669  0.68753526  0.40187549  1.0
  N  N14  1  0.54201331  0.18753526  0.90187549  1.0
  N  N15  1  0.04201331  0.31246474  0.90187549  1.0
  O  O16  1  0.48523360  0.36493200  0.40218508  1.0
  O  O17  1  0.98523360  0.13506800  0.40218508  1.0
  O  O18  1  0.51476640  0.63506800  0.90218508  1.0
  O  O19  1  0.01476640  0.86493200  0.90218508  1.0
  O  O20  1  0.31520140  0.48226276  0.18634996  1.0
  O  O21  1  0.81520140  0.01773724  0.18634996  1.0
  O  O22  1  0.68479860  0.51773724  0.68634996  1.0
  O  O23  1  0.18479860  0.98226276  0.68634996  1.0
  O  O24  1  0.27451091  0.26220584  0.40214985  1.0
  O  O25  1  0.77451091  0.23779416  0.40214985  1.0
  O  O26  1  0.72548909  0.73779416  -0.09785015  1.0
  O  O27  1  0.22548909  0.76220584  -0.09785015  1.0
  O  O28  1  0.18476754  -0.01781443  0.11814062  1.0
  O  O29  1  0.68476754  0.51781443  0.11814062  1.0
  O  O30  1  0.81523246  1.01781443  0.61814062  1.0
  O  O31  1  0.31523246  0.48218557  0.61814062  1.0
