# generated using pymatgen
data_Al3Si2H3O10
_symmetry_space_group_name_H-M   'P 1'
_cell_length_a   6.18636637
_cell_length_b   7.81304714
_cell_length_c   7.33940740
_cell_angle_alpha   115.41385995
_cell_angle_beta   93.35114966
_cell_angle_gamma   88.09075200
_symmetry_Int_Tables_number   1
_chemical_formula_structural   Al3Si2H3O10
_chemical_formula_sum   'Al6 Si4 H6 O20'
_cell_volume   319.85621712
_cell_formula_units_Z   2
loop_
 _symmetry_equiv_pos_site_id
 _symmetry_equiv_pos_as_xyz
  1  'x, y, z'
loop_
 _atom_site_type_symbol
 _atom_site_label
 _atom_site_symmetry_multiplicity
 _atom_site_fract_x
 _atom_site_fract_y
 _atom_site_fract_z
 _atom_site_occupancy
  Al  Al0  1  0.29050247  0.01071368  -0.25291176  1.0
  Al  Al1  1  0.70949753  0.98928632  -0.74708824  1.0
  Al  Al2  1  0.35136758  0.60663863  -0.34917616  1.0
  Al  Al3  1  0.64863242  0.39336137  -0.65082384  1.0
  Al  Al4  1  0.14709344  0.39629443  -0.15135591  1.0
  Al  Al5  1  0.85290656  0.60370557  -0.84864409  1.0
  Si  Si6  1  0.36553563  0.70835260  -0.72712409  1.0
  Si  Si7  1  0.63446437  0.29164740  -0.27287591  1.0
  Si  Si8  1  0.14276564  0.29559336  -0.77763773  1.0
  Si  Si9  1  0.85723436  0.70440664  -0.22236227  1.0
  H  H10  1  0.20776377  0.01594816  -0.76323309  1.0
  H  H11  1  0.79223623  0.98405184  -0.23676691  1.0
  H  H12  1  0.11283428  0.13162423  -0.50174893  1.0
  H  H13  1  0.88716572  0.86837577  -0.49825107  1.0
  H  H14  1  0.37759617  0.86783241  -0.99781754  1.0
  H  H15  1  0.62240383  0.13216759  -0.00218246  1.0
  O  O16  1  0.30055890  0.77512998  -0.49010106  1.0
  O  O17  1  0.69944110  0.22487002  -0.50989894  1.0
  O  O18  1  0.21080608  0.23116581  -0.01140281  1.0
  O  O19  1  0.78919392  0.76883419  -0.98859719  1.0
  O  O20  1  0.35964812  0.84744235  -0.14029750  1.0
  O  O21  1  0.64035188  0.15255765  -0.85970250  1.0
  O  O22  1  0.14040113  0.15418938  -0.36030098  1.0
  O  O23  1  0.85959887  0.84581062  -0.63969902  1.0
  O  O24  1  0.43059170  0.89617140  -0.75843395  1.0
  O  O25  1  0.56940830  0.10382860  -0.24156605  1.0
  O  O26  1  0.07873931  0.10257449  -0.74945958  1.0
  O  O27  1  0.92126069  0.89742551  -0.25054042  1.0
  O  O28  1  0.42490588  0.44043884  -0.21714618  1.0
  O  O29  1  0.57509412  0.55956116  -0.78285382  1.0
  O  O30  1  0.07257609  0.56503213  -0.28104984  1.0
  O  O31  1  0.92742391  0.43496787  -0.71895016  1.0
  O  O32  1  0.34243107  0.40206705  -0.61128999  1.0
  O  O33  1  0.65756893  0.59793295  -0.38871001  1.0
  O  O34  1  0.15846063  0.60131957  -0.88687522  1.0
  O  O35  1  0.84153937  0.39868043  -0.11312478  1.0
