# generated using pymatgen
data_Te2PdPb2(ClO3)2
_symmetry_space_group_name_H-M   'P 1'
_cell_length_a   8.05684106
_cell_length_b   5.63048774
_cell_length_c   13.30681229
_cell_angle_alpha   90.00000000
_cell_angle_beta   122.00331226
_cell_angle_gamma   90.00000000
_symmetry_Int_Tables_number   1
_chemical_formula_structural   Te2PdPb2(ClO3)2
_chemical_formula_sum   'Te4 Pd2 Pb4 Cl4 O12'
_cell_volume   511.90531504
_cell_formula_units_Z   2
loop_
 _symmetry_equiv_pos_site_id
 _symmetry_equiv_pos_as_xyz
  1  'x, y, z'
loop_
 _atom_site_type_symbol
 _atom_site_label
 _atom_site_symmetry_multiplicity
 _atom_site_fract_x
 _atom_site_fract_y
 _atom_site_fract_z
 _atom_site_occupancy
  Te  Te0  1  0.71304201  0.49051743  0.48901216  1.0
  Te  Te1  1  0.71304201  0.00948257  0.98901216  1.0
  Te  Te2  1  0.28695799  0.99051743  0.01098784  1.0
  Te  Te3  1  0.28695799  0.50948257  0.51098784  1.0
  Pd  Pd4  1  0.00000000  0.50000000  0.00000000  1.0
  Pd  Pd5  1  -0.00000000  0.00000000  0.50000000  1.0
  Pb  Pb6  1  0.65290195  0.46244915  0.19926466  1.0
  Pb  Pb7  1  0.65290195  0.03755085  0.69926466  1.0
  Pb  Pb8  1  0.34709805  0.96244915  0.30073534  1.0
  Pb  Pb9  1  0.34709805  0.53755085  0.80073534  1.0
  Cl  Cl10  1  0.97137583  0.88702664  0.32399107  1.0
  Cl  Cl11  1  0.97137583  0.61297336  0.82399107  1.0
  Cl  Cl12  1  0.02862417  0.38702664  0.17600893  1.0
  Cl  Cl13  1  0.02862417  0.11297336  0.67600893  1.0
  O  O14  1  0.82164106  0.28069484  0.41553795  1.0
  O  O15  1  0.82164106  0.21930516  0.91553795  1.0
  O  O16  1  0.17835894  0.78069484  0.08446205  1.0
  O  O17  1  0.17835894  0.71930516  0.58446205  1.0
  O  O18  1  0.51909790  0.26060305  0.47649384  1.0
  O  O19  1  0.51909790  0.23939695  0.97649384  1.0
  O  O20  1  0.48090210  0.76060305  0.02350616  1.0
  O  O21  1  0.48090210  0.73939695  0.52350616  1.0
  O  O22  1  0.43689477  0.14327165  0.16680851  1.0
  O  O23  1  0.43689477  0.35672835  0.66680851  1.0
  O  O24  1  0.56310523  0.64327165  0.33319149  1.0
  O  O25  1  0.56310523  0.85672835  0.83319149  1.0
