# generated using pymatgen
data_SiP2O7
_symmetry_space_group_name_H-M   'P 1'
_cell_length_a   4.81041023
_cell_length_b   12.21189830
_cell_length_c   9.06463286
_cell_angle_alpha   90.00000000
_cell_angle_beta   120.92223281
_cell_angle_gamma   90.00000000
_symmetry_Int_Tables_number   1
_chemical_formula_structural   SiP2O7
_chemical_formula_sum   'Si4 P8 O28'
_cell_volume   456.80910247
_cell_formula_units_Z   4
loop_
 _symmetry_equiv_pos_site_id
 _symmetry_equiv_pos_as_xyz
  1  'x, y, z'
loop_
 _atom_site_type_symbol
 _atom_site_label
 _atom_site_symmetry_multiplicity
 _atom_site_fract_x
 _atom_site_fract_y
 _atom_site_fract_z
 _atom_site_occupancy
  Si  Si0  1  0.61998153  0.14816737  0.34610633  1.0
  Si  Si1  1  0.61998153  0.35183263  0.84610633  1.0
  Si  Si2  1  0.38001847  0.64816737  0.15389367  1.0
  Si  Si3  1  0.38001847  0.85183263  0.65389367  1.0
  P  P4  1  0.90163036  0.48118139  0.19648138  1.0
  P  P5  1  0.90163036  0.01881861  0.69648138  1.0
  P  P6  1  0.09836964  0.98118139  0.30351862  1.0
  P  P7  1  0.09836964  0.51881861  0.80351862  1.0
  P  P8  1  0.22066421  0.30085337  0.44782959  1.0
  P  P9  1  0.22066421  0.19914663  0.94782959  1.0
  P  P10  1  0.77933579  0.80085337  0.05217041  1.0
  P  P11  1  0.77933579  0.69914663  0.55217041  1.0
  O  O12  1  0.92031426  0.06261685  0.35189208  1.0
  O  O13  1  0.92031426  0.43738315  0.85189208  1.0
  O  O14  1  0.07968574  0.56261685  0.14810792  1.0
  O  O15  1  0.07968574  0.93738315  0.64810792  1.0
  O  O16  1  0.90222475  0.26028411  0.42823907  1.0
  O  O17  1  0.90222475  0.23971589  0.92823907  1.0
  O  O18  1  0.09777525  0.76028411  0.07176093  1.0
  O  O19  1  0.09777525  0.73971589  0.57176093  1.0
  O  O20  1  0.83887591  0.92461343  0.12543226  1.0
  O  O21  1  0.83887591  0.57538657  0.62543226  1.0
  O  O22  1  0.16112409  0.42461343  0.37456774  1.0
  O  O23  1  0.16112409  0.07538657  0.87456774  1.0
  O  O24  1  0.74111363  0.39009291  0.06222010  1.0
  O  O25  1  0.74111363  0.10990709  0.56222010  1.0
  O  O26  1  0.25888637  0.89009291  0.43777990  1.0
  O  O27  1  0.25888637  0.60990709  0.93777990  1.0
  O  O28  1  0.49838123  0.18800537  0.13324475  1.0
  O  O29  1  0.49838123  0.31199463  0.63324475  1.0
  O  O30  1  0.50161877  0.68800537  0.36675525  1.0
  O  O31  1  0.50161877  0.81199463  0.86675525  1.0
  O  O32  1  0.33751765  0.03650945  0.26266004  1.0
  O  O33  1  0.33751765  0.46349055  0.76266004  1.0
  O  O34  1  0.66248235  0.53650945  0.23733996  1.0
  O  O35  1  0.66248235  0.96349055  0.73733996  1.0
  O  O36  1  0.32166250  0.23515664  0.33954343  1.0
  O  O37  1  0.32166250  0.26484336  0.83954343  1.0
  O  O38  1  0.67833750  0.73515664  0.16045657  1.0
  O  O39  1  0.67833750  0.76484336  0.66045657  1.0
