# generated using pymatgen
data_CuAsS
_symmetry_space_group_name_H-M   'P 1'
_cell_length_a   11.43820852
_cell_length_b   3.82098282
_cell_length_c   5.47276026
_cell_angle_alpha   90.00000000
_cell_angle_beta   90.00000000
_cell_angle_gamma   90.00000000
_symmetry_Int_Tables_number   1
_chemical_formula_structural   CuAsS
_chemical_formula_sum   'Cu4 As4 S4'
_cell_volume   239.18807239
_cell_formula_units_Z   4
loop_
 _symmetry_equiv_pos_site_id
 _symmetry_equiv_pos_as_xyz
  1  'x, y, z'
loop_
 _atom_site_type_symbol
 _atom_site_label
 _atom_site_symmetry_multiplicity
 _atom_site_fract_x
 _atom_site_fract_y
 _atom_site_fract_z
 _atom_site_occupancy
  Cu  Cu0  1  0.32377238  0.75000000  0.56262824  1.0
  Cu  Cu1  1  0.82377238  0.75000000  0.93737176  1.0
  Cu  Cu2  1  0.67622762  0.25000000  0.43737176  1.0
  Cu  Cu3  1  0.17622762  0.25000000  0.06262824  1.0
  As  As4  1  0.48592909  0.75000000  0.84872181  1.0
  As  As5  1  0.98592909  0.75000000  0.65127819  1.0
  As  As6  1  0.51407091  0.25000000  0.15127819  1.0
  As  As7  1  0.01407091  0.25000000  0.34872181  1.0
  S  S8  1  0.16869263  0.75000000  0.82860902  1.0
  S  S9  1  0.66869263  0.75000000  0.67139098  1.0
  S  S10  1  0.83130737  0.25000000  0.17139098  1.0
  S  S11  1  0.33130737  0.25000000  0.32860902  1.0
