# generated using pymatgen
data_Sr4MgSi2(NO3)2
_symmetry_space_group_name_H-M   'P 1'
_cell_length_a   6.46488924
_cell_length_b   6.73562835
_cell_length_c   10.96550101
_cell_angle_alpha   90.00000000
_cell_angle_beta   108.36920627
_cell_angle_gamma   90.00000000
_symmetry_Int_Tables_number   1
_chemical_formula_structural   Sr4MgSi2(NO3)2
_chemical_formula_sum   'Sr8 Mg2 Si4 N4 O12'
_cell_volume   453.16329749
_cell_formula_units_Z   2
loop_
 _symmetry_equiv_pos_site_id
 _symmetry_equiv_pos_as_xyz
  1  'x, y, z'
loop_
 _atom_site_type_symbol
 _atom_site_label
 _atom_site_symmetry_multiplicity
 _atom_site_fract_x
 _atom_site_fract_y
 _atom_site_fract_z
 _atom_site_occupancy
  Sr  Sr0  1  0.49726341  0.17675751  0.15119651  1.0
  Sr  Sr1  1  0.49726341  0.32324249  0.65119651  1.0
  Sr  Sr2  1  0.50273659  0.82324249  0.84880349  1.0
  Sr  Sr3  1  0.50273659  0.67675751  0.34880349  1.0
  Sr  Sr4  1  0.07279967  0.43735000  0.82688431  1.0
  Sr  Sr5  1  0.07279967  0.06265000  0.32688431  1.0
  Sr  Sr6  1  0.92720033  0.56265000  0.17311569  1.0
  Sr  Sr7  1  0.92720033  0.93735000  0.67311569  1.0
  Mg  Mg8  1  0.00000000  0.00000000  0.00000000  1.0
  Mg  Mg9  1  -0.00000000  0.50000000  0.50000000  1.0
  Si  Si10  1  0.31050017  0.73105482  0.06247302  1.0
  Si  Si11  1  0.31050017  0.76894518  0.56247302  1.0
  Si  Si12  1  0.68949983  0.26894518  0.93752698  1.0
  Si  Si13  1  0.68949983  0.23105482  0.43752698  1.0
  N  N14  1  0.14992545  0.79386744  0.91151047  1.0
  N  N15  1  0.14992545  0.70613256  0.41151047  1.0
  N  N16  1  0.85007455  0.20613256  0.08848953  1.0
  N  N17  1  0.85007455  0.29386744  0.58848953  1.0
  O  O18  1  0.28049359  0.50737442  0.11728158  1.0
  O  O19  1  0.28049359  -0.00737442  0.61728158  1.0
  O  O20  1  0.71950641  0.49262558  0.88271842  1.0
  O  O21  1  0.71950641  1.00737442  0.38271842  1.0
  O  O22  1  0.22684895  0.89053883  0.16167407  1.0
  O  O23  1  0.22684895  0.60946117  0.66167407  1.0
  O  O24  1  0.77315105  0.10946117  0.83832593  1.0
  O  O25  1  0.77315105  0.39053883  0.33832593  1.0
  O  O26  1  0.57592571  0.77448707  0.09431063  1.0
  O  O27  1  0.57592571  0.72551293  0.59431063  1.0
  O  O28  1  0.42407429  0.22551293  0.90568937  1.0
  O  O29  1  0.42407429  0.27448707  0.40568937  1.0
