# generated using pymatgen
data_NaPH5C2SN3O4
_symmetry_space_group_name_H-M   'P 1'
_cell_length_a   10.69504041
_cell_length_b   6.84111987
_cell_length_c   5.91902395
_cell_angle_alpha   104.35037320
_cell_angle_beta   96.47840912
_cell_angle_gamma   94.16866399
_symmetry_Int_Tables_number   1
_chemical_formula_structural   NaPH5C2SN3O4
_chemical_formula_sum   'Na2 P2 H10 C4 S2 N6 O8'
_cell_volume   414.59449009
_cell_formula_units_Z   2
loop_
 _symmetry_equiv_pos_site_id
 _symmetry_equiv_pos_as_xyz
  1  'x, y, z'
loop_
 _atom_site_type_symbol
 _atom_site_label
 _atom_site_symmetry_multiplicity
 _atom_site_fract_x
 _atom_site_fract_y
 _atom_site_fract_z
 _atom_site_occupancy
  Na  Na0  1  0.28257969  0.85086289  -0.54022261  1.0
  Na  Na1  1  0.71742031  0.14913711  -0.45977739  1.0
  P  P2  1  0.71949799  0.73230695  0.00820521  1.0
  P  P3  1  0.28050201  0.26769305  -1.00820521  1.0
  H  H4  1  0.67734314  0.40017242  0.05383496  1.0
  H  H5  1  0.32265686  0.59982758  -0.05383496  1.0
  H  H6  1  0.49147053  0.84264076  0.15095312  1.0
  H  H7  1  0.50852947  0.15735924  -0.15095312  1.0
  H  H8  1  0.37902866  0.93263132  -0.96511832  1.0
  H  H9  1  0.62097134  0.06736868  -0.03488168  1.0
  H  H10  1  0.98118104  0.35532330  -0.44408046  1.0
  H  H11  1  0.01881896  0.64467670  -0.55591954  1.0
  H  H12  1  0.89807785  0.92311712  -0.06452858  1.0
  H  H13  1  0.10192215  0.07688288  -0.93547142  1.0
  C  C14  1  0.97030177  0.79663586  -0.80538045  1.0
  C  C15  1  0.02969823  0.20336414  -0.19461955  1.0
  C  C16  1  0.84222616  0.50932246  -0.72726835  1.0
  C  C17  1  0.15777384  0.49067754  -0.27273165  1.0
  S  S18  1  0.63808607  0.63984761  -0.31698363  1.0
  S  S19  1  0.36191393  0.36015239  -0.68301637  1.0
  N  N20  1  0.74186367  0.52936384  -0.87746782  1.0
  N  N21  1  0.25813633  0.47063616  -0.12253218  1.0
  N  N22  1  0.94410240  0.65708546  -0.67900397  1.0
  N  N23  1  0.05589760  0.34291454  -0.32099603  1.0
  N  N24  1  0.87675509  0.82002348  0.03200001  1.0
  N  N25  1  0.12324491  0.17997652  -1.03200001  1.0
  O  O26  1  0.65856852  0.89514160  -0.82416858  1.0
  O  O27  1  0.34143148  0.10485840  -0.17583142  1.0
  O  O28  1  0.39750190  0.83380158  -0.87287339  1.0
  O  O29  1  0.60249810  0.16619842  -0.12712661  1.0
  O  O30  1  0.07857940  0.89144445  -0.76787201  1.0
  O  O31  1  0.92142060  0.10855555  -0.23212799  1.0
  O  O32  1  0.84746183  0.36248309  -0.63694473  1.0
  O  O33  1  0.15253817  0.63751691  -0.36305527  1.0
