# generated using pymatgen
data_Ca11(CN5)2
_symmetry_space_group_name_H-M   'P 1'
_cell_length_a   14.54214026
_cell_length_b   14.54214026
_cell_length_c   3.60594865
_cell_angle_alpha   90.00000000
_cell_angle_beta   90.00000000
_cell_angle_gamma   90.00000000
_symmetry_Int_Tables_number   1
_chemical_formula_structural   Ca11(CN5)2
_chemical_formula_sum   'Ca22 C4 N20'
_cell_volume   762.56381985
_cell_formula_units_Z   2
loop_
 _symmetry_equiv_pos_site_id
 _symmetry_equiv_pos_as_xyz
  1  'x, y, z'
loop_
 _atom_site_type_symbol
 _atom_site_label
 _atom_site_symmetry_multiplicity
 _atom_site_fract_x
 _atom_site_fract_y
 _atom_site_fract_z
 _atom_site_occupancy
  Ca  Ca0  1  0.38179547  0.89365209  0.50000000  1.0
  Ca  Ca1  1  0.88179547  0.60634791  0.00000000  1.0
  Ca  Ca2  1  0.10634791  0.61820453  0.50000000  1.0
  Ca  Ca3  1  0.60634791  0.88179547  0.00000000  1.0
  Ca  Ca4  1  0.61820453  0.10634791  0.50000000  1.0
  Ca  Ca5  1  0.11820453  0.39365209  0.00000000  1.0
  Ca  Ca6  1  0.89365209  0.38179547  0.50000000  1.0
  Ca  Ca7  1  0.39365209  0.11820453  0.00000000  1.0
  Ca  Ca8  1  0.20484466  0.01943085  0.50000000  1.0
  Ca  Ca9  1  0.70484466  0.48056915  0.00000000  1.0
  Ca  Ca10  1  0.98056915  0.79515534  0.50000000  1.0
  Ca  Ca11  1  0.48056915  0.70484466  0.00000000  1.0
  Ca  Ca12  1  0.79515534  0.98056915  0.50000000  1.0
  Ca  Ca13  1  0.29515534  0.51943085  0.00000000  1.0
  Ca  Ca14  1  0.01943085  0.20484466  0.50000000  1.0
  Ca  Ca15  1  0.51943085  0.29515534  0.00000000  1.0
  Ca  Ca16  1  0.33257092  0.33257092  0.50000000  1.0
  Ca  Ca17  1  0.83257092  0.16742908  0.00000000  1.0
  Ca  Ca18  1  0.66742908  0.66742908  0.50000000  1.0
  Ca  Ca19  1  0.16742908  0.83257092  0.00000000  1.0
  Ca  Ca20  1  0.50000000  0.50000000  0.50000000  1.0
  Ca  Ca21  1  0.00000000  0.00000000  0.00000000  1.0
  C  C22  1  0.31602737  0.68397263  0.50000000  1.0
  C  C23  1  0.81602737  0.81602737  0.00000000  1.0
  C  C24  1  0.68397263  0.31602737  0.50000000  1.0
  C  C25  1  0.18397263  0.18397263  0.00000000  1.0
  N  N26  1  0.47187364  0.18875799  0.50000000  1.0
  N  N27  1  0.97187364  0.31124201  0.00000000  1.0
  N  N28  1  0.81124201  0.52812636  0.50000000  1.0
  N  N29  1  0.31124201  0.97187364  0.00000000  1.0
  N  N30  1  0.52812636  0.81124201  0.50000000  1.0
  N  N31  1  0.02812636  0.68875799  0.00000000  1.0
  N  N32  1  0.18875799  0.47187364  0.50000000  1.0
  N  N33  1  0.68875799  0.02812636  0.00000000  1.0
  N  N34  1  0.37653460  0.62346540  0.50000000  1.0
  N  N35  1  0.87653460  0.87653460  0.00000000  1.0
  N  N36  1  0.62346540  0.37653460  0.50000000  1.0
  N  N37  1  0.12346540  0.12346540  0.00000000  1.0
  N  N38  1  0.25603419  0.74396581  0.50000000  1.0
  N  N39  1  0.75603419  0.75603419  0.00000000  1.0
  N  N40  1  0.74396581  0.25603419  0.50000000  1.0
  N  N41  1  0.24396581  0.24396581  0.00000000  1.0
  N  N42  1  0.08990432  0.91009568  0.50000000  1.0
  N  N43  1  0.58990432  0.58990432  0.00000000  1.0
  N  N44  1  0.91009568  0.08990432  0.50000000  1.0
  N  N45  1  0.41009568  0.41009568  0.00000000  1.0
