# generated using pymatgen
data_Mg2VB2Rh5
_symmetry_space_group_name_H-M   'P 1'
_cell_length_a   9.42145172
_cell_length_b   9.42145172
_cell_length_c   2.91097608
_cell_angle_alpha   90.00000000
_cell_angle_beta   90.00000000
_cell_angle_gamma   90.00000000
_symmetry_Int_Tables_number   1
_chemical_formula_structural   Mg2VB2Rh5
_chemical_formula_sum   'Mg4 V2 B4 Rh10'
_cell_volume   258.38916032
_cell_formula_units_Z   2
loop_
 _symmetry_equiv_pos_site_id
 _symmetry_equiv_pos_as_xyz
  1  'x, y, z'
loop_
 _atom_site_type_symbol
 _atom_site_label
 _atom_site_symmetry_multiplicity
 _atom_site_fract_x
 _atom_site_fract_y
 _atom_site_fract_z
 _atom_site_occupancy
  Mg  Mg0  1  0.32374310  0.17625690  0.00000000  1.0
  Mg  Mg1  1  0.82374310  0.32374310  0.00000000  1.0
  Mg  Mg2  1  0.67625690  0.82374310  0.00000000  1.0
  Mg  Mg3  1  0.17625690  0.67625690  0.00000000  1.0
  V  V4  1  0.50000000  0.50000000  0.00000000  1.0
  V  V5  1  0.00000000  0.00000000  0.00000000  1.0
  B  B6  1  0.87628377  0.62371623  0.00000000  1.0
  B  B7  1  0.37628377  0.87628377  0.00000000  1.0
  B  B8  1  0.12371623  0.37628377  0.00000000  1.0
  B  B9  1  0.62371623  0.12371623  0.00000000  1.0
  Rh  Rh10  1  0.50000000  0.00000000  0.50000000  1.0
  Rh  Rh11  1  0.00000000  0.50000000  0.50000000  1.0
  Rh  Rh12  1  0.42880852  0.71456714  0.50000000  1.0
  Rh  Rh13  1  0.92880852  0.78543286  0.50000000  1.0
  Rh  Rh14  1  0.28543286  0.42880852  0.50000000  1.0
  Rh  Rh15  1  0.78543286  0.07119148  0.50000000  1.0
  Rh  Rh16  1  0.57119148  0.28543286  0.50000000  1.0
  Rh  Rh17  1  0.07119148  0.21456714  0.50000000  1.0
  Rh  Rh18  1  0.71456714  0.57119148  0.50000000  1.0
  Rh  Rh19  1  0.21456714  0.92880852  0.50000000  1.0
