# generated using pymatgen
data_HfTe3
_symmetry_space_group_name_H-M   'P 1'
_cell_length_a   5.93662429
_cell_length_b   3.92190428
_cell_length_c   10.54197049
_cell_angle_alpha   90.00000000
_cell_angle_beta   96.73818464
_cell_angle_gamma   90.00000000
_symmetry_Int_Tables_number   1
_chemical_formula_structural   HfTe3
_chemical_formula_sum   'Hf2 Te6'
_cell_volume   243.75196683
_cell_formula_units_Z   2
loop_
 _symmetry_equiv_pos_site_id
 _symmetry_equiv_pos_as_xyz
  1  'x, y, z'
loop_
 _atom_site_type_symbol
 _atom_site_label
 _atom_site_symmetry_multiplicity
 _atom_site_fract_x
 _atom_site_fract_y
 _atom_site_fract_z
 _atom_site_occupancy
  Hf  Hf0  1  0.71605642  0.25000000  0.83706051  1.0
  Hf  Hf1  1  0.28394358  0.75000000  0.16293949  1.0
  Te  Te2  1  0.56100301  0.25000000  0.32148681  1.0
  Te  Te3  1  0.43899699  0.75000000  0.67851319  1.0
  Te  Te4  1  0.23917823  0.25000000  0.95035261  1.0
  Te  Te5  1  0.76082177  0.75000000  0.04964739  1.0
  Te  Te6  1  0.07511840  0.25000000  0.32355498  1.0
  Te  Te7  1  0.92488160  0.75000000  0.67644502  1.0
