# generated using pymatgen
data_Na4Ga3Si3B(HO3)4
_symmetry_space_group_name_H-M   'P 1'
_cell_length_a   9.02954566
_cell_length_b   9.02954566
_cell_length_c   9.02954566
_cell_angle_alpha   90.00000000
_cell_angle_beta   90.00000000
_cell_angle_gamma   90.00000000
_symmetry_Int_Tables_number   1
_chemical_formula_structural   Na4Ga3Si3B(HO3)4
_chemical_formula_sum   'Na8 Ga6 Si6 B2 H8 O24'
_cell_volume   736.20319124
_cell_formula_units_Z   2
loop_
 _symmetry_equiv_pos_site_id
 _symmetry_equiv_pos_as_xyz
  1  'x, y, z'
loop_
 _atom_site_type_symbol
 _atom_site_label
 _atom_site_symmetry_multiplicity
 _atom_site_fract_x
 _atom_site_fract_y
 _atom_site_fract_z
 _atom_site_occupancy
  Na  Na0  1  0.32938709  0.32938709  0.67061291  1.0
  Na  Na1  1  0.32938709  0.67061291  0.32938709  1.0
  Na  Na2  1  0.82938709  0.82938709  0.17061291  1.0
  Na  Na3  1  0.82938709  0.17061291  0.82938709  1.0
  Na  Na4  1  0.67061291  0.32938709  0.32938709  1.0
  Na  Na5  1  0.67061291  0.67061291  0.67061291  1.0
  Na  Na6  1  0.17061291  0.82938709  0.82938709  1.0
  Na  Na7  1  0.17061291  0.17061291  0.17061291  1.0
  Ga  Ga8  1  0.25000000  0.00000000  0.50000000  1.0
  Ga  Ga9  1  0.75000000  0.00000000  0.50000000  1.0
  Ga  Ga10  1  0.50000000  0.25000000  0.00000000  1.0
  Ga  Ga11  1  0.50000000  0.75000000  0.00000000  1.0
  Ga  Ga12  1  0.00000000  0.50000000  0.25000000  1.0
  Ga  Ga13  1  0.00000000  0.50000000  0.75000000  1.0
  Si  Si14  1  0.25000000  0.50000000  0.00000000  1.0
  Si  Si15  1  0.75000000  0.50000000  0.00000000  1.0
  Si  Si16  1  0.00000000  0.25000000  0.50000000  1.0
  Si  Si17  1  0.00000000  0.75000000  0.50000000  1.0
  Si  Si18  1  0.50000000  0.00000000  0.25000000  1.0
  Si  Si19  1  0.50000000  0.00000000  0.75000000  1.0
  B  B20  1  0.50000000  0.50000000  0.50000000  1.0
  B  B21  1  0.00000000  0.00000000  0.00000000  1.0
  H  H22  1  0.07847876  0.07847876  0.92152124  1.0
  H  H23  1  0.07847876  0.92152124  0.07847876  1.0
  H  H24  1  0.57847876  0.57847876  0.42152124  1.0
  H  H25  1  0.57847876  0.42152124  0.57847876  1.0
  H  H26  1  0.92152124  0.07847876  0.07847876  1.0
  H  H27  1  0.92152124  0.92152124  0.92152124  1.0
  H  H28  1  0.42152124  0.57847876  0.57847876  1.0
  H  H29  1  0.42152124  0.42152124  0.42152124  1.0
  O  O30  1  0.36653892  0.07488374  0.65098058  1.0
  O  O31  1  0.36653892  0.92511626  0.34901942  1.0
  O  O32  1  0.86653892  0.84901942  0.42511626  1.0
  O  O33  1  0.86653892  0.15098058  0.57488374  1.0
  O  O34  1  0.34901942  0.36653892  0.92511626  1.0
  O  O35  1  0.34901942  0.63346108  0.07488374  1.0
  O  O36  1  0.84901942  0.57488374  0.13346108  1.0
  O  O37  1  0.84901942  0.42511626  0.86653892  1.0
  O  O38  1  0.07488374  0.34901942  0.63346108  1.0
  O  O39  1  0.07488374  0.65098058  0.36653892  1.0
  O  O40  1  0.57488374  0.86653892  0.15098058  1.0
  O  O41  1  0.57488374  0.13346108  0.84901942  1.0
  O  O42  1  0.63346108  0.07488374  0.34901942  1.0
  O  O43  1  0.63346108  0.92511626  0.65098058  1.0
  O  O44  1  0.13346108  0.84901942  0.57488374  1.0
  O  O45  1  0.13346108  0.15098058  0.42511626  1.0
  O  O46  1  0.65098058  0.36653892  0.07488374  1.0
  O  O47  1  0.65098058  0.63346108  0.92511626  1.0
  O  O48  1  0.15098058  0.57488374  0.86653892  1.0
  O  O49  1  0.15098058  0.42511626  0.13346108  1.0
  O  O50  1  0.92511626  0.34901942  0.36653892  1.0
  O  O51  1  0.92511626  0.65098058  0.63346108  1.0
  O  O52  1  0.42511626  0.86653892  0.84901942  1.0
  O  O53  1  0.42511626  0.13346108  0.15098058  1.0
