# generated using pymatgen
data_CsCaH3
_symmetry_space_group_name_H-M   'P 1'
_cell_length_a   6.53788239
_cell_length_b   9.23513355
_cell_length_c   6.53296257
_cell_angle_alpha   90.00000000
_cell_angle_beta   90.00000000
_cell_angle_gamma   90.00000000
_symmetry_Int_Tables_number   1
_chemical_formula_structural   CsCaH3
_chemical_formula_sum   'Cs4 Ca4 H12'
_cell_volume   394.44863156
_cell_formula_units_Z   4
loop_
 _symmetry_equiv_pos_site_id
 _symmetry_equiv_pos_as_xyz
  1  'x, y, z'
loop_
 _atom_site_type_symbol
 _atom_site_label
 _atom_site_symmetry_multiplicity
 _atom_site_fract_x
 _atom_site_fract_y
 _atom_site_fract_z
 _atom_site_occupancy
  Cs  Cs0  1  0.50017999  0.25000000  0.49996884  1.0
  Cs  Cs1  1  0.00017999  0.25000000  0.00003116  1.0
  Cs  Cs2  1  0.49982001  0.75000000  0.50003116  1.0
  Cs  Cs3  1  0.99982001  0.75000000  0.99996884  1.0
  Ca  Ca4  1  0.50000000  0.00000000  0.00000000  1.0
  Ca  Ca5  1  0.00000000  0.50000000  0.50000000  1.0
  Ca  Ca6  1  0.50000000  0.50000000  0.00000000  1.0
  Ca  Ca7  1  0.00000000  0.00000000  0.50000000  1.0
  H  H8  1  0.49982346  0.25000000  1.00046239  1.0
  H  H9  1  0.99982346  0.25000000  0.49953762  1.0
  H  H10  1  0.50017654  0.75000000  -0.00046238  1.0
  H  H11  1  0.00017654  0.75000000  0.50046239  1.0
  H  H12  1  0.74989655  1.00010750  0.74990668  1.0
  H  H13  1  0.24989655  0.49989250  0.75009332  1.0
  H  H14  1  0.25010345  0.50010750  0.25009332  1.0
  H  H15  1  0.75010345  -0.00010750  0.24990668  1.0
  H  H16  1  0.25010345  -0.00010750  0.25009332  1.0
  H  H17  1  0.75010345  0.50010750  0.24990668  1.0
  H  H18  1  0.74989655  0.49989250  0.74990668  1.0
  H  H19  1  0.24989655  1.00010750  0.75009332  1.0
