# generated using pymatgen
data_K3NaSn3Se8
_symmetry_space_group_name_H-M   'P 1'
_cell_length_a   8.36352461
_cell_length_b   8.36352461
_cell_length_c   13.92016752
_cell_angle_alpha   90.00000000
_cell_angle_beta   90.00000000
_cell_angle_gamma   90.00000000
_symmetry_Int_Tables_number   1
_chemical_formula_structural   K3NaSn3Se8
_chemical_formula_sum   'K6 Na2 Sn6 Se16'
_cell_volume   973.69545026
_cell_formula_units_Z   2
loop_
 _symmetry_equiv_pos_site_id
 _symmetry_equiv_pos_as_xyz
  1  'x, y, z'
loop_
 _atom_site_type_symbol
 _atom_site_label
 _atom_site_symmetry_multiplicity
 _atom_site_fract_x
 _atom_site_fract_y
 _atom_site_fract_z
 _atom_site_occupancy
  K  K0  1  0.00000000  0.00000000  0.27876811  1.0
  K  K1  1  0.00000000  0.00000000  0.72123189  1.0
  K  K2  1  0.50000000  0.50000000  0.72123189  1.0
  K  K3  1  0.50000000  0.50000000  0.27876811  1.0
  K  K4  1  0.00000000  0.00000000  0.00000000  1.0
  K  K5  1  0.50000000  0.50000000  0.00000000  1.0
  Na  Na6  1  0.50000000  0.00000000  0.00000000  1.0
  Na  Na7  1  0.00000000  0.50000000  0.00000000  1.0
  Sn  Sn8  1  0.50000000  0.00000000  0.24514037  1.0
  Sn  Sn9  1  0.50000000  0.00000000  0.75485963  1.0
  Sn  Sn10  1  0.00000000  0.50000000  0.75485963  1.0
  Sn  Sn11  1  0.00000000  0.50000000  0.24514037  1.0
  Sn  Sn12  1  0.50000000  0.00000000  0.50000000  1.0
  Sn  Sn13  1  0.00000000  0.50000000  0.50000000  1.0
  Se  Se14  1  0.83700402  0.66299598  0.37630497  1.0
  Se  Se15  1  0.83700402  0.33700402  0.62369503  1.0
  Se  Se16  1  0.33700402  0.16299598  0.62369503  1.0
  Se  Se17  1  0.33700402  0.83700402  0.37630497  1.0
  Se  Se18  1  0.66299598  0.83700402  0.62369503  1.0
  Se  Se19  1  0.66299598  0.16299598  0.37630497  1.0
  Se  Se20  1  0.16299598  0.33700402  0.37630497  1.0
  Se  Se21  1  0.16299598  0.66299598  0.62369503  1.0
  Se  Se22  1  0.67980452  0.82019548  0.14702129  1.0
  Se  Se23  1  0.67980452  0.17980452  0.85297871  1.0
  Se  Se24  1  0.17980452  0.32019548  0.85297871  1.0
  Se  Se25  1  0.17980452  0.67980452  0.14702129  1.0
  Se  Se26  1  0.82019548  0.67980452  0.85297871  1.0
  Se  Se27  1  0.82019548  0.32019548  0.14702129  1.0
  Se  Se28  1  0.32019548  0.17980452  0.14702129  1.0
  Se  Se29  1  0.32019548  0.82019548  0.85297871  1.0
