# generated using pymatgen
data_Rb2PdSe16
_symmetry_space_group_name_H-M   'P 1'
_cell_length_a   12.93407343
_cell_length_b   12.93407343
_cell_length_c   7.04166992
_cell_angle_alpha   90.00000000
_cell_angle_beta   90.00000000
_cell_angle_gamma   90.00000000
_symmetry_Int_Tables_number   1
_chemical_formula_structural   Rb2PdSe16
_chemical_formula_sum   'Rb4 Pd2 Se32'
_cell_volume   1178.00276023
_cell_formula_units_Z   2
loop_
 _symmetry_equiv_pos_site_id
 _symmetry_equiv_pos_as_xyz
  1  'x, y, z'
loop_
 _atom_site_type_symbol
 _atom_site_label
 _atom_site_symmetry_multiplicity
 _atom_site_fract_x
 _atom_site_fract_y
 _atom_site_fract_z
 _atom_site_occupancy
  Rb  Rb0  1  0.00000000  0.50000000  0.00000000  1.0
  Rb  Rb1  1  0.50000000  0.00000000  0.00000000  1.0
  Rb  Rb2  1  0.50000000  0.50000000  0.50000000  1.0
  Rb  Rb3  1  0.00000000  0.00000000  0.50000000  1.0
  Pd  Pd4  1  0.50000000  0.50000000  0.00000000  1.0
  Pd  Pd5  1  0.00000000  0.00000000  0.00000000  1.0
  Se  Se6  1  0.41977482  0.80875993  0.40800603  1.0
  Se  Se7  1  0.91977482  0.69124007  0.40800603  1.0
  Se  Se8  1  0.58022518  0.19124007  0.40800603  1.0
  Se  Se9  1  0.08022518  0.30875993  0.40800603  1.0
  Se  Se10  1  0.19124007  0.41977482  0.59199397  1.0
  Se  Se11  1  0.69124007  0.08022518  0.59199397  1.0
  Se  Se12  1  0.80875993  0.58022518  0.59199397  1.0
  Se  Se13  1  0.30875993  0.91977482  0.59199397  1.0
  Se  Se14  1  0.19229888  0.57778624  0.41447168  1.0
  Se  Se15  1  0.69229888  0.92221376  0.41447168  1.0
  Se  Se16  1  0.80770112  0.42221376  0.41447168  1.0
  Se  Se17  1  0.30770112  0.07778624  0.41447168  1.0
  Se  Se18  1  0.42221376  0.19229888  0.58552832  1.0
  Se  Se19  1  0.92221376  0.30770112  0.58552832  1.0
  Se  Se20  1  0.57778624  0.80770112  0.58552832  1.0
  Se  Se21  1  0.07778624  0.69229888  0.58552832  1.0
  Se  Se22  1  0.31190342  0.47132093  0.02864929  1.0
  Se  Se23  1  0.81190342  0.02867907  0.02864929  1.0
  Se  Se24  1  0.68809658  0.52867907  0.02864929  1.0
  Se  Se25  1  0.18809658  0.97132093  0.02864929  1.0
  Se  Se26  1  0.52867907  0.31190342  0.97135071  1.0
  Se  Se27  1  0.02867907  0.18809658  0.97135071  1.0
  Se  Se28  1  0.47132093  0.68809658  0.97135071  1.0
  Se  Se29  1  0.97132093  0.81190342  0.97135071  1.0
  Se  Se30  1  0.29540807  0.70786173  0.87221933  1.0
  Se  Se31  1  0.79540807  0.79213827  0.87221933  1.0
  Se  Se32  1  0.70459193  0.29213827  0.87221933  1.0
  Se  Se33  1  0.20459193  0.20786173  0.87221933  1.0
  Se  Se34  1  0.29213827  0.29540807  0.12778067  1.0
  Se  Se35  1  0.79213827  0.20459193  0.12778067  1.0
  Se  Se36  1  0.70786173  0.70459193  0.12778067  1.0
  Se  Se37  1  0.20786173  0.79540807  0.12778067  1.0
