# generated using pymatgen
data_Zr5Sb3O
_symmetry_space_group_name_H-M   'P 1'
_cell_length_a   8.40150184
_cell_length_b   8.40150184
_cell_length_c   5.81652007
_cell_angle_alpha   90.00000000
_cell_angle_beta   90.00000000
_cell_angle_gamma   120.00000000
_symmetry_Int_Tables_number   1
_chemical_formula_structural   Zr5Sb3O
_chemical_formula_sum   'Zr10 Sb6 O2'
_cell_volume   355.55575870
_cell_formula_units_Z   2
loop_
 _symmetry_equiv_pos_site_id
 _symmetry_equiv_pos_as_xyz
  1  'x, y, z'
loop_
 _atom_site_type_symbol
 _atom_site_label
 _atom_site_symmetry_multiplicity
 _atom_site_fract_x
 _atom_site_fract_y
 _atom_site_fract_z
 _atom_site_occupancy
  Zr  Zr0  1  0.77165102  0.77165102  0.25000000  1.0
  Zr  Zr1  1  0.77165102  -0.00000000  0.75000000  1.0
  Zr  Zr2  1  0.00000000  0.77165102  0.75000000  1.0
  Zr  Zr3  1  -0.00000000  0.22834898  0.25000000  1.0
  Zr  Zr4  1  0.22834898  0.22834898  0.75000000  1.0
  Zr  Zr5  1  0.22834898  0.00000000  0.25000000  1.0
  Zr  Zr6  1  0.33333333  0.66666667  0.50000000  1.0
  Zr  Zr7  1  0.33333333  0.66666667  -0.00000000  1.0
  Zr  Zr8  1  0.66666667  0.33333333  0.50000000  1.0
  Zr  Zr9  1  0.66666667  0.33333333  0.00000000  1.0
  Sb  Sb10  1  0.40011511  0.40011511  0.25000000  1.0
  Sb  Sb11  1  0.40011511  0.00000000  0.75000000  1.0
  Sb  Sb12  1  -0.00000000  0.40011511  0.75000000  1.0
  Sb  Sb13  1  0.00000000  0.59988489  0.25000000  1.0
  Sb  Sb14  1  0.59988489  0.59988489  0.75000000  1.0
  Sb  Sb15  1  0.59988489  -0.00000000  0.25000000  1.0
  O  O16  1  0.00000000  0.00000000  0.50000000  1.0
  O  O17  1  -0.00000000  -0.00000000  -0.00000000  1.0
