# generated using pymatgen
data_Hg2P2H4O9
_symmetry_space_group_name_H-M   'P 1'
_cell_length_a   8.00007344
_cell_length_b   7.58804843
_cell_length_c   7.29269713
_cell_angle_alpha   72.94053348
_cell_angle_beta   74.24517548
_cell_angle_gamma   84.43989403
_symmetry_Int_Tables_number   1
_chemical_formula_structural   Hg2P2H4O9
_chemical_formula_sum   'Hg4 P4 H8 O18'
_cell_volume   407.25320637
_cell_formula_units_Z   2
loop_
 _symmetry_equiv_pos_site_id
 _symmetry_equiv_pos_as_xyz
  1  'x, y, z'
loop_
 _atom_site_type_symbol
 _atom_site_label
 _atom_site_symmetry_multiplicity
 _atom_site_fract_x
 _atom_site_fract_y
 _atom_site_fract_z
 _atom_site_occupancy
  Hg  Hg0  1  -0.46624815  -0.28208743  -0.80564766  1.0
  Hg  Hg1  1  -0.53375185  -0.71791257  -0.19435234  1.0
  Hg  Hg2  1  -0.23416889  -0.85525528  -0.75122640  1.0
  Hg  Hg3  1  -0.76583111  -0.14474472  -0.24877360  1.0
  P  P4  1  -0.80619685  -0.95227129  -0.78090328  1.0
  P  P5  1  -0.19380315  -0.04772871  -0.21909672  1.0
  P  P6  1  -0.63199386  -0.70483921  -0.66188290  1.0
  P  P7  1  -0.36800614  -0.29516079  -0.33811710  1.0
  H  H8  1  -0.97850410  -0.22042021  -0.80468324  1.0
  H  H9  1  -0.02149590  -0.77957979  -0.19531676  1.0
  H  H10  1  -0.84604309  -0.38808278  -0.79596954  1.0
  H  H11  1  -0.15395691  -0.61191722  -0.20403046  1.0
  H  H12  1  -0.75216640  -0.46167248  -0.43085848  1.0
  H  H13  1  -0.24783360  -0.53832752  -0.56914152  1.0
  H  H14  1  -0.88577144  -0.54033629  -0.22458607  1.0
  H  H15  1  -0.11422856  -0.45966371  -0.77541393  1.0
  O  O16  1  -0.73516411  -0.90869820  -0.00945307  1.0
  O  O17  1  -0.26483589  -0.09130180  -0.99054693  1.0
  O  O18  1  -0.93960161  -0.32683942  -0.85871600  1.0
  O  O19  1  -0.06039839  -0.67316058  -0.14128400  1.0
  O  O20  1  -0.46960308  -0.73740613  -0.82474786  1.0
  O  O21  1  -0.53039692  -0.26259387  -0.17525214  1.0
  O  O22  1  -0.22595627  -0.52913902  -0.71164637  1.0
  O  O23  1  -0.77404373  -0.47086098  -0.28835363  1.0
  O  O24  1  -0.00063257  -0.00299379  -0.72248202  1.0
  O  O25  1  -0.99936743  -0.99700621  -0.27751798  1.0
  O  O26  1  -0.79772079  -0.76065774  -0.72336223  1.0
  O  O27  1  -0.20227921  -0.23934226  -0.27663777  1.0
  O  O28  1  -0.66910839  -0.49358345  -0.68464176  1.0
  O  O29  1  -0.33089161  -0.50641655  -0.31535824  1.0
  O  O30  1  -0.63327916  -0.81275934  -0.45109615  1.0
  O  O31  1  -0.36672084  -0.18724066  -0.54890385  1.0
  O  O32  1  -0.29283553  -0.89587452  -0.33801580  1.0
  O  O33  1  -0.70716447  -0.10412548  -0.66198420  1.0
