# generated using pymatgen
data_Ba2CoGe2O7
_symmetry_space_group_name_H-M   'P 1'
_cell_length_a   8.45960343
_cell_length_b   8.45960343
_cell_length_c   5.62751718
_cell_angle_alpha   90.00000000
_cell_angle_beta   90.00000000
_cell_angle_gamma   89.99911147
_symmetry_Int_Tables_number   1
_chemical_formula_structural   Ba2CoGe2O7
_chemical_formula_sum   'Ba4 Co2 Ge4 O14'
_cell_volume   402.73264842
_cell_formula_units_Z   2
loop_
 _symmetry_equiv_pos_site_id
 _symmetry_equiv_pos_as_xyz
  1  'x, y, z'
loop_
 _atom_site_type_symbol
 _atom_site_label
 _atom_site_symmetry_multiplicity
 _atom_site_fract_x
 _atom_site_fract_y
 _atom_site_fract_z
 _atom_site_occupancy
  Ba  Ba0  1  0.16600480  1.16600480  0.34981276  1.0
  Ba  Ba1  1  -0.16600480  0.83399520  0.34981276  1.0
  Ba  Ba2  1  -0.33399701  0.33399701  0.33323518  1.0
  Ba  Ba3  1  -0.66600299  0.66600299  0.33323518  1.0
  Co  Co4  1  -0.00000000  0.50000000  0.84150775  1.0
  Co  Co5  1  0.50000000  1.00000000  0.84150775  1.0
  Ge  Ge6  1  0.35899561  1.35899561  0.80459468  1.0
  Ge  Ge7  1  -0.35899561  0.64100439  0.80459468  1.0
  Ge  Ge8  1  -0.14100334  0.14100334  0.87847104  1.0
  Ge  Ge9  1  -0.85899666  0.85899666  0.87847104  1.0
  O  O10  1  0.18227053  1.41982636  0.65598642  1.0
  O  O11  1  -0.41982636  0.81772947  0.65598642  1.0
  O  O12  1  0.41982636  1.18227053  0.65598642  1.0
  O  O13  1  -0.18227053  0.58017364  0.65598642  1.0
  O  O14  1  -0.08017207  0.31773247  0.02706909  1.0
  O  O15  1  0.68226753  1.08017207  0.02706909  1.0
  O  O16  1  -0.68226753  0.91982793  0.02706909  1.0
  O  O17  1  0.08017207  1.68226753  0.02706909  1.0
  O  O18  1  0.36249643  1.36249643  0.11452523  1.0
  O  O19  1  -0.36249643  0.63750357  0.11452523  1.0
  O  O20  1  -0.13750008  0.13750008  0.56854540  1.0
  O  O21  1  -0.86249992  0.86249992  0.56854540  1.0
  O  O22  1  -0.50000000  0.50000000  0.67912386  1.0
  O  O23  1  0.00000000  0.00000000  0.00397001  1.0
