# generated using pymatgen
data_RbBiO2
_symmetry_space_group_name_H-M   'P 1'
_cell_length_a   6.03821661
_cell_length_b   6.03821661
_cell_length_c   6.09516604
_cell_angle_alpha   67.52022361
_cell_angle_beta   112.47977639
_cell_angle_gamma   85.60820948
_symmetry_Int_Tables_number   1
_chemical_formula_structural   RbBiO2
_chemical_formula_sum   'Rb2 Bi2 O4'
_cell_volume   183.16823813
_cell_formula_units_Z   2
loop_
 _symmetry_equiv_pos_site_id
 _symmetry_equiv_pos_as_xyz
  1  'x, y, z'
loop_
 _atom_site_type_symbol
 _atom_site_label
 _atom_site_symmetry_multiplicity
 _atom_site_fract_x
 _atom_site_fract_y
 _atom_site_fract_z
 _atom_site_occupancy
  Rb  Rb0  1  0.86409315  -0.13590685  0.75000000  1.0
  Rb  Rb1  1  1.13590685  0.13590685  0.25000000  1.0
  Bi  Bi2  1  1.40992525  0.40992525  0.75000000  1.0
  Bi  Bi3  1  0.59007475  -0.40992525  0.25000000  1.0
  O  O4  1  0.37741088  -0.25568112  0.78329706  1.0
  O  O5  1  1.25568112  0.62258912  0.28329706  1.0
  O  O6  1  0.74431888  -0.62258912  0.71670294  1.0
  O  O7  1  1.62258912  0.25568112  0.21670294  1.0
