# generated using pymatgen
data_Lu3Co
_symmetry_space_group_name_H-M   'P 1'
_cell_length_a   6.82786386
_cell_length_b   9.00855326
_cell_length_c   6.11403263
_cell_angle_alpha   90.00000000
_cell_angle_beta   90.00000000
_cell_angle_gamma   90.00000000
_symmetry_Int_Tables_number   1
_chemical_formula_structural   Lu3Co
_chemical_formula_sum   'Lu12 Co4'
_cell_volume   376.06910442
_cell_formula_units_Z   4
loop_
 _symmetry_equiv_pos_site_id
 _symmetry_equiv_pos_as_xyz
  1  'x, y, z'
loop_
 _atom_site_type_symbol
 _atom_site_label
 _atom_site_symmetry_multiplicity
 _atom_site_fract_x
 _atom_site_fract_y
 _atom_site_fract_z
 _atom_site_occupancy
  Lu  Lu0  1  0.32340678  0.93550633  0.67708965  1.0
  Lu  Lu1  1  0.32340678  0.56449367  0.67708965  1.0
  Lu  Lu2  1  0.82340678  0.93550633  0.82291035  1.0
  Lu  Lu3  1  0.82340678  0.56449367  0.82291035  1.0
  Lu  Lu4  1  0.67659322  0.43550633  0.32291035  1.0
  Lu  Lu5  1  0.67659322  0.06449367  0.32291035  1.0
  Lu  Lu6  1  0.17659322  0.43550633  0.17708965  1.0
  Lu  Lu7  1  0.17659322  0.06449367  0.17708965  1.0
  Lu  Lu8  1  0.46029181  0.75000000  0.13294695  1.0
  Lu  Lu9  1  0.96029181  0.75000000  0.36705305  1.0
  Lu  Lu10  1  0.53970819  0.25000000  0.86705305  1.0
  Lu  Lu11  1  0.03970819  0.25000000  0.63294695  1.0
  Co  Co12  1  0.11070693  0.75000000  0.96038758  1.0
  Co  Co13  1  0.61070693  0.75000000  0.53961242  1.0
  Co  Co14  1  0.88929307  0.25000000  0.03961242  1.0
  Co  Co15  1  0.38929307  0.25000000  0.46038758  1.0
