# generated using pymatgen
data_Gd4(Al8Pt3)3
_symmetry_space_group_name_H-M   'P 1'
_cell_length_a   13.20843722
_cell_length_b   7.54076511
_cell_length_c   7.54236932
_cell_angle_alpha   60.11965132
_cell_angle_beta   79.05192728
_cell_angle_gamma   84.54458121
_symmetry_Int_Tables_number   1
_chemical_formula_structural   Gd4(Al8Pt3)3
_chemical_formula_sum   'Gd4 Al24 Pt9'
_cell_volume   639.51461537
_cell_formula_units_Z   1
loop_
 _symmetry_equiv_pos_site_id
 _symmetry_equiv_pos_as_xyz
  1  'x, y, z'
loop_
 _atom_site_type_symbol
 _atom_site_label
 _atom_site_symmetry_multiplicity
 _atom_site_fract_x
 _atom_site_fract_y
 _atom_site_fract_z
 _atom_site_occupancy
  Gd  Gd0  1  -0.80850740  -0.50126116  -0.23195767  1.0
  Gd  Gd1  1  -0.19149260  -0.49873884  -0.76804233  1.0
  Gd  Gd2  1  -0.80847447  -0.83206356  -0.56217363  1.0
  Gd  Gd3  1  -0.19152553  -0.16793644  -0.43782637  1.0
  Al  Al4  1  -0.56105686  -0.16736114  -0.97928065  1.0
  Al  Al5  1  -0.43894314  -0.83263886  -0.02071935  1.0
  Al  Al6  1  -0.66978714  -0.49342429  -0.94411116  1.0
  Al  Al7  1  -0.33021286  -0.50657571  -0.05588884  1.0
  Al  Al8  1  -0.18340012  -0.83611258  -0.89867220  1.0
  Al  Al9  1  -0.81659988  -0.16388742  -0.10132780  1.0
  Al  Al10  1  -0.81625151  -0.95887303  -0.89716556  1.0
  Al  Al11  1  -0.18374849  -0.04112697  -0.10283444  1.0
  Al  Al12  1  -0.94456043  -0.50029861  -0.85201638  1.0
  Al  Al13  1  -0.05543957  -0.49970139  -0.14798362  1.0
  Al  Al14  1  -0.81536595  -0.36873279  -0.69267903  1.0
  Al  Al15  1  -0.18463405  -0.63126721  -0.30732097  1.0
  Al  Al16  1  -0.44131132  -0.50046925  -0.68583023  1.0
  Al  Al17  1  -0.55868868  -0.49953075  -0.31416977  1.0
  Al  Al18  1  -0.55867816  -0.83339585  -0.64699746  1.0
  Al  Al19  1  -0.44132184  -0.16660415  -0.35300254  1.0
  Al  Al20  1  -0.94466157  -0.16629157  -0.51832905  1.0
  Al  Al21  1  -0.05533843  -0.83370843  -0.48167095  1.0
  Al  Al22  1  -0.33036714  -0.83434118  -0.38250283  1.0
  Al  Al23  1  -0.66963286  -0.16565882  -0.61749717  1.0
  Al  Al24  1  -0.66817890  -0.84012155  -0.27017126  1.0
  Al  Al25  1  -0.33182110  -0.15987845  -0.72982874  1.0
  Al  Al26  1  -0.95395955  -0.83267586  -0.18248462  1.0
  Al  Al27  1  -0.04604045  -0.16732414  -0.81751538  1.0
  Pt  Pt28  1  -0.63681633  -0.82589178  -0.95426795  1.0
  Pt  Pt29  1  -0.36318367  -0.17410822  -0.04573205  1.0
  Pt  Pt30  1  -1.00000577  -0.82880721  -0.82879402  1.0
  Pt  Pt31  1  0.00000577  -0.17119279  -0.17120598  1.0
  Pt  Pt32  1  -0.36201636  -0.83313088  -0.70504631  1.0
  Pt  Pt33  1  -0.63798364  -0.16686912  -0.29495369  1.0
  Pt  Pt34  1  -0.63800457  -0.50743047  -0.61329839  1.0
  Pt  Pt35  1  -0.36199543  -0.49256953  -0.38670161  1.0
  Pt  Pt36  1  0.00000000  -0.50000000  -0.50000000  1.0
