# generated using pymatgen
data_EuZnPd
_symmetry_space_group_name_H-M   'P 1'
_cell_length_a   7.20505069
_cell_length_b   4.47949237
_cell_length_c   7.86268093
_cell_angle_alpha   90.00000000
_cell_angle_beta   90.00000000
_cell_angle_gamma   90.00000000
_symmetry_Int_Tables_number   1
_chemical_formula_structural   EuZnPd
_chemical_formula_sum   'Eu4 Zn4 Pd4'
_cell_volume   253.76778803
_cell_formula_units_Z   4
loop_
 _symmetry_equiv_pos_site_id
 _symmetry_equiv_pos_as_xyz
  1  'x, y, z'
loop_
 _atom_site_type_symbol
 _atom_site_label
 _atom_site_symmetry_multiplicity
 _atom_site_fract_x
 _atom_site_fract_y
 _atom_site_fract_z
 _atom_site_occupancy
  Eu  Eu0  1  0.98652818  0.75000000  0.69516432  1.0
  Eu  Eu1  1  0.48652818  0.75000000  0.80483568  1.0
  Eu  Eu2  1  0.01347182  0.25000000  0.30483568  1.0
  Eu  Eu3  1  0.51347182  0.25000000  0.19516432  1.0
  Zn  Zn4  1  0.83139089  0.75000000  0.07709031  1.0
  Zn  Zn5  1  0.33139089  0.75000000  0.42290969  1.0
  Zn  Zn6  1  0.16860911  0.25000000  0.92290969  1.0
  Zn  Zn7  1  0.66860911  0.25000000  0.57709031  1.0
  Pd  Pd8  1  0.70972635  0.75000000  0.39933113  1.0
  Pd  Pd9  1  0.20972635  0.75000000  0.10066887  1.0
  Pd  Pd10  1  0.29027365  0.25000000  0.60066887  1.0
  Pd  Pd11  1  0.79027365  0.25000000  0.89933113  1.0
