# generated using pymatgen
data_TbSiPt2
_symmetry_space_group_name_H-M   'P 1'
_cell_length_a   7.37673212
_cell_length_b   6.96951509
_cell_length_c   5.52207804
_cell_angle_alpha   90.00000000
_cell_angle_beta   90.00000000
_cell_angle_gamma   90.00000000
_symmetry_Int_Tables_number   1
_chemical_formula_structural   TbSiPt2
_chemical_formula_sum   'Tb4 Si4 Pt8'
_cell_volume   283.90243355
_cell_formula_units_Z   4
loop_
 _symmetry_equiv_pos_site_id
 _symmetry_equiv_pos_as_xyz
  1  'x, y, z'
loop_
 _atom_site_type_symbol
 _atom_site_label
 _atom_site_symmetry_multiplicity
 _atom_site_fract_x
 _atom_site_fract_y
 _atom_site_fract_z
 _atom_site_occupancy
  Tb  Tb0  1  0.97397955  0.25000000  0.63271191  1.0
  Tb  Tb1  1  0.47397955  0.25000000  0.86728809  1.0
  Tb  Tb2  1  0.02602045  0.75000000  0.36728809  1.0
  Tb  Tb3  1  0.52602045  0.75000000  0.13271191  1.0
  Si  Si4  1  0.62098292  0.25000000  0.36351337  1.0
  Si  Si5  1  0.12098292  0.25000000  0.13648663  1.0
  Si  Si6  1  0.37901708  0.75000000  0.63648663  1.0
  Si  Si7  1  0.87901708  0.75000000  0.86351337  1.0
  Pt  Pt8  1  0.82039636  0.44891730  0.09227952  1.0
  Pt  Pt9  1  0.82039636  0.05108270  0.09227952  1.0
  Pt  Pt10  1  0.32039636  0.44891730  0.40772048  1.0
  Pt  Pt11  1  0.32039636  0.05108270  0.40772048  1.0
  Pt  Pt12  1  0.17960364  0.94891730  0.90772048  1.0
  Pt  Pt13  1  0.17960364  0.55108270  0.90772048  1.0
  Pt  Pt14  1  0.67960364  0.94891730  0.59227952  1.0
  Pt  Pt15  1  0.67960364  0.55108270  0.59227952  1.0
