# generated using pymatgen
data_Rb2SiS3
_symmetry_space_group_name_H-M   'P 1'
_cell_length_a   7.62625333
_cell_length_b   7.62625333
_cell_length_c   9.81293602
_cell_angle_alpha   58.62603620
_cell_angle_beta   121.37396380
_cell_angle_gamma   125.67252127
_symmetry_Int_Tables_number   1
_chemical_formula_structural   Rb2SiS3
_chemical_formula_sum   'Rb4 Si2 S6'
_cell_volume   375.96538645
_cell_formula_units_Z   2
loop_
 _symmetry_equiv_pos_site_id
 _symmetry_equiv_pos_as_xyz
  1  'x, y, z'
loop_
 _atom_site_type_symbol
 _atom_site_label
 _atom_site_symmetry_multiplicity
 _atom_site_fract_x
 _atom_site_fract_y
 _atom_site_fract_z
 _atom_site_occupancy
  Rb  Rb0  1  1.41680324  -0.41680324  0.63331353  1.0
  Rb  Rb1  1  0.58319676  0.41680324  0.36668647  1.0
  Rb  Rb2  1  0.19158680  -0.19158680  0.81428193  1.0
  Rb  Rb3  1  0.80841320  -0.80841320  0.18571807  1.0
  Si  Si4  1  0.88503813  0.11496187  0.82405615  1.0
  Si  Si5  1  1.11496187  -0.11496187  0.17594385  1.0
  S  S6  1  0.88782806  -0.88782806  0.61336337  1.0
  S  S7  1  0.11217194  -0.11217194  0.38663663  1.0
  S  S8  1  0.71374210  0.28625790  0.77923205  1.0
  S  S9  1  1.28625790  -0.28625790  0.22076795  1.0
  S  S10  1  0.76599840  0.76599840  0.00000000  1.0
  S  S11  1  0.23400160  0.23400160  -0.00000000  1.0
