# generated using pymatgen
data_HoOF
_symmetry_space_group_name_H-M   'P 1'
_cell_length_a   6.74233614
_cell_length_b   6.74233614
_cell_length_c   6.74233614
_cell_angle_alpha   33.06017404
_cell_angle_beta   33.06017404
_cell_angle_gamma   33.06017404
_symmetry_Int_Tables_number   1
_chemical_formula_structural   HoOF
_chemical_formula_sum   'Ho2 O2 F2'
_cell_volume   81.17870254
_cell_formula_units_Z   2
loop_
 _symmetry_equiv_pos_site_id
 _symmetry_equiv_pos_as_xyz
  1  'x, y, z'
loop_
 _atom_site_type_symbol
 _atom_site_label
 _atom_site_symmetry_multiplicity
 _atom_site_fract_x
 _atom_site_fract_y
 _atom_site_fract_z
 _atom_site_occupancy
  Ho  Ho0  1  0.75905579  0.75905579  0.75905579  1.0
  Ho  Ho1  1  1.24094421  1.24094421  0.24094421  1.0
  O  O2  1  0.87778906  0.87778906  0.87778906  1.0
  O  O3  1  1.12221094  1.12221094  0.12221094  1.0
  F  F4  1  1.62942955  0.62942955  0.62942955  1.0
  F  F5  1  1.37057045  0.37057045  0.37057045  1.0
