# generated using pymatgen
data_HfSiSb
_symmetry_space_group_name_H-M   'P 1'
_cell_length_a   3.74385618
_cell_length_b   3.74385618
_cell_length_c   8.60851574
_cell_angle_alpha   90.00000000
_cell_angle_beta   90.00000000
_cell_angle_gamma   90.00000000
_symmetry_Int_Tables_number   1
_chemical_formula_structural   HfSiSb
_chemical_formula_sum   'Hf2 Si2 Sb2'
_cell_volume   120.66090890
_cell_formula_units_Z   2
loop_
 _symmetry_equiv_pos_site_id
 _symmetry_equiv_pos_as_xyz
  1  'x, y, z'
loop_
 _atom_site_type_symbol
 _atom_site_label
 _atom_site_symmetry_multiplicity
 _atom_site_fract_x
 _atom_site_fract_y
 _atom_site_fract_z
 _atom_site_occupancy
  Hf  Hf0  1  0.00000000  0.50000000  0.75796742  1.0
  Hf  Hf1  1  0.50000000  0.00000000  0.24203258  1.0
  Si  Si2  1  0.00000000  0.00000000  0.00000000  1.0
  Si  Si3  1  0.50000000  0.50000000  0.00000000  1.0
  Sb  Sb4  1  0.00000000  0.50000000  0.38884845  1.0
  Sb  Sb5  1  0.50000000  0.00000000  0.61115155  1.0
