# generated using pymatgen
data_Sr3LiSbO6
_symmetry_space_group_name_H-M   'P 1'
_cell_length_a   6.84015867
_cell_length_b   6.84015867
_cell_length_c   6.84015867
_cell_angle_alpha   92.48743028
_cell_angle_beta   92.48743028
_cell_angle_gamma   92.48743028
_symmetry_Int_Tables_number   1
_chemical_formula_structural   Sr3LiSbO6
_chemical_formula_sum   'Sr6 Li2 Sb2 O12'
_cell_volume   319.10403710
_cell_formula_units_Z   2
loop_
 _symmetry_equiv_pos_site_id
 _symmetry_equiv_pos_as_xyz
  1  'x, y, z'
loop_
 _atom_site_type_symbol
 _atom_site_label
 _atom_site_symmetry_multiplicity
 _atom_site_fract_x
 _atom_site_fract_y
 _atom_site_fract_z
 _atom_site_occupancy
  Sr  Sr0  1  0.90001890  1.25000000  -0.40001890  1.0
  Sr  Sr1  1  1.40001890  0.09998110  -0.25000000  1.0
  Sr  Sr2  1  0.75000000  0.40001890  0.09998110  1.0
  Sr  Sr3  1  1.25000000  0.59998110  -0.09998110  1.0
  Sr  Sr4  1  1.09998110  -0.25000000  0.40001890  1.0
  Sr  Sr5  1  0.59998110  0.90001890  0.25000000  1.0
  Li  Li6  1  0.25000000  0.25000000  0.25000000  1.0
  Li  Li7  1  0.75000000  0.75000000  0.75000000  1.0
  Sb  Sb8  1  0.50000000  0.50000000  0.50000000  1.0
  Sb  Sb9  1  0.00000000  0.00000000  0.00000000  1.0
  O  O10  1  1.21771884  0.42009467  -0.45276557  1.0
  O  O11  1  0.71771884  1.04723443  -0.07990533  1.0
  O  O12  1  0.95276557  0.07990533  0.28228116  1.0
  O  O13  1  1.45276557  -0.21771884  0.57990533  1.0
  O  O14  1  1.57990533  0.45276557  -0.21771884  1.0
  O  O15  1  1.07990533  0.28228116  -0.04723443  1.0
  O  O16  1  0.78228116  0.57990533  0.45276557  1.0
  O  O17  1  1.28228116  -0.04723443  0.07990533  1.0
  O  O18  1  0.54723443  1.21771884  -0.57990533  1.0
  O  O19  1  1.04723443  0.92009467  -0.28228116  1.0
  O  O20  1  0.92009467  0.71771884  0.04723443  1.0
  O  O21  1  0.42009467  0.54723443  0.21771884  1.0
