# generated using pymatgen
data_Ca5P12Rh19
_symmetry_space_group_name_H-M   'P 1'
_cell_length_a   12.67732717
_cell_length_b   12.67732717
_cell_length_c   3.92159378
_cell_angle_alpha   90.00000000
_cell_angle_beta   90.00000000
_cell_angle_gamma   120.00000000
_symmetry_Int_Tables_number   1
_chemical_formula_structural   Ca5P12Rh19
_chemical_formula_sum   'Ca5 P12 Rh19'
_cell_volume   545.81897977
_cell_formula_units_Z   1
loop_
 _symmetry_equiv_pos_site_id
 _symmetry_equiv_pos_as_xyz
  1  'x, y, z'
loop_
 _atom_site_type_symbol
 _atom_site_label
 _atom_site_symmetry_multiplicity
 _atom_site_fract_x
 _atom_site_fract_y
 _atom_site_fract_z
 _atom_site_occupancy
  Ca  Ca0  1  0.18388411  0.18388411  0.50000000  1.0
  Ca  Ca1  1  -0.00000000  0.81611589  0.50000000  1.0
  Ca  Ca2  1  0.81611589  0.00000000  0.50000000  1.0
  Ca  Ca3  1  0.33333333  0.66666667  0.00000000  1.0
  Ca  Ca4  1  0.66666667  0.33333333  0.00000000  1.0
  P  P5  1  0.31412488  0.83218733  0.50000000  1.0
  P  P6  1  0.83218733  0.31412488  0.50000000  1.0
  P  P7  1  0.51806244  0.68587512  0.50000000  1.0
  P  P8  1  0.16781267  0.48193756  0.50000000  1.0
  P  P9  1  0.68587512  0.51806244  0.50000000  1.0
  P  P10  1  0.48193756  0.16781267  0.50000000  1.0
  P  P11  1  0.81891281  0.81891281  0.00000000  1.0
  P  P12  1  0.00000000  0.18108719  0.00000000  1.0
  P  P13  1  0.18108719  0.00000000  0.00000000  1.0
  P  P14  1  0.36606090  0.36606090  0.00000000  1.0
  P  P15  1  -0.00000000  0.63393910  0.00000000  1.0
  P  P16  1  0.63393910  0.00000000  0.00000000  1.0
  Rh  Rh17  1  0.12937404  0.64100580  0.50000000  1.0
  Rh  Rh18  1  0.64100580  0.12937404  0.50000000  1.0
  Rh  Rh19  1  0.51163177  0.87062596  0.50000000  1.0
  Rh  Rh20  1  0.35899420  0.48836823  0.50000000  1.0
  Rh  Rh21  1  0.87062596  0.51163177  0.50000000  1.0
  Rh  Rh22  1  0.48836823  0.35899420  0.50000000  1.0
  Rh  Rh23  1  0.19597724  0.81929760  0.00000000  1.0
  Rh  Rh24  1  0.81929760  0.19597724  0.00000000  1.0
  Rh  Rh25  1  0.62332036  0.80402276  0.00000000  1.0
  Rh  Rh26  1  0.18070240  0.37667964  0.00000000  1.0
  Rh  Rh27  1  0.80402276  0.62332036  0.00000000  1.0
  Rh  Rh28  1  0.37667964  0.18070240  0.00000000  1.0
  Rh  Rh29  1  0.71597074  0.71597074  0.50000000  1.0
  Rh  Rh30  1  0.00000000  0.28402926  0.50000000  1.0
  Rh  Rh31  1  0.28402926  0.00000000  0.50000000  1.0
  Rh  Rh32  1  0.54630917  0.54630917  0.00000000  1.0
  Rh  Rh33  1  -0.00000000  0.45369083  0.00000000  1.0
  Rh  Rh34  1  0.45369083  0.00000000  0.00000000  1.0
  Rh  Rh35  1  0.00000000  0.00000000  0.00000000  1.0
