# generated using pymatgen
data_Zn2SiO4
_symmetry_space_group_name_H-M   'P 1'
_cell_length_a   6.17488689
_cell_length_b   11.03550127
_cell_length_c   9.86292109
_cell_angle_alpha   90.00000000
_cell_angle_beta   90.00000000
_cell_angle_gamma   90.00000000
_symmetry_Int_Tables_number   1
_chemical_formula_structural   Zn2SiO4
_chemical_formula_sum   'Zn16 Si8 O32'
_cell_volume   672.08875703
_cell_formula_units_Z   8
loop_
 _symmetry_equiv_pos_site_id
 _symmetry_equiv_pos_as_xyz
  1  'x, y, z'
loop_
 _atom_site_type_symbol
 _atom_site_label
 _atom_site_symmetry_multiplicity
 _atom_site_fract_x
 _atom_site_fract_y
 _atom_site_fract_z
 _atom_site_occupancy
  Zn  Zn0  1  0.34551781  0.43922054  0.41728841  1.0
  Zn  Zn1  1  0.34551781  0.06077946  0.91728841  1.0
  Zn  Zn2  1  0.84551781  0.43922054  0.08271159  1.0
  Zn  Zn3  1  0.84551781  0.06077946  0.58271159  1.0
  Zn  Zn4  1  0.65448219  0.93922054  0.08271159  1.0
  Zn  Zn5  1  0.65448219  0.56077946  0.58271159  1.0
  Zn  Zn6  1  0.15448219  0.93922054  0.41728841  1.0
  Zn  Zn7  1  0.15448219  0.56077946  0.91728841  1.0
  Zn  Zn8  1  0.05850974  0.16118429  0.18272380  1.0
  Zn  Zn9  1  0.05850974  0.33881571  0.68272380  1.0
  Zn  Zn10  1  0.55850974  0.16118429  0.31727620  1.0
  Zn  Zn11  1  0.55850974  0.33881571  0.81727620  1.0
  Zn  Zn12  1  0.94149026  0.66118429  0.31727620  1.0
  Zn  Zn13  1  0.94149026  0.83881571  0.81727620  1.0
  Zn  Zn14  1  0.44149026  0.66118429  0.18272380  1.0
  Zn  Zn15  1  0.44149026  0.83881571  0.68272380  1.0
  Si  Si16  1  0.36390260  0.37656317  0.12029953  1.0
  Si  Si17  1  0.36390260  0.12343683  0.62029953  1.0
  Si  Si18  1  0.86390260  0.37656317  0.37970047  1.0
  Si  Si19  1  0.86390260  0.12343683  0.87970047  1.0
  Si  Si20  1  0.63609740  0.87656317  0.37970047  1.0
  Si  Si21  1  0.63609740  0.62343683  0.87970047  1.0
  Si  Si22  1  0.13609740  0.87656317  0.12029953  1.0
  Si  Si23  1  0.13609740  0.62343683  0.62029953  1.0
  O  O24  1  0.40469323  0.48819456  0.22943419  1.0
  O  O25  1  0.40469323  0.01180544  0.72943419  1.0
  O  O26  1  0.90469323  0.48819456  0.27056581  1.0
  O  O27  1  0.90469323  0.01180544  0.77056581  1.0
  O  O28  1  0.59530677  0.98819456  0.27056581  1.0
  O  O29  1  0.59530677  0.51180544  0.77056581  1.0
  O  O30  1  0.09530677  0.98819456  0.22943419  1.0
  O  O31  1  0.09530677  0.51180544  0.72943419  1.0
  O  O32  1  0.33353842  0.25232844  0.21484578  1.0
  O  O33  1  0.33353842  0.24767156  0.71484578  1.0
  O  O34  1  0.83353842  0.25232844  0.28515422  1.0
  O  O35  1  0.83353842  0.24767156  0.78515422  1.0
  O  O36  1  0.66646158  0.75232844  0.28515422  1.0
  O  O37  1  0.66646158  0.74767156  0.78515422  1.0
  O  O38  1  0.16646158  0.75232844  0.21484578  1.0
  O  O39  1  0.16646158  0.74767156  0.71484578  1.0
  O  O40  1  0.14946147  0.40145172  0.02530023  1.0
  O  O41  1  0.14946147  0.09854828  0.52530023  1.0
  O  O42  1  0.64946147  0.40145172  0.47469977  1.0
  O  O43  1  0.64946147  0.09854828  0.97469977  1.0
  O  O44  1  0.85053853  0.90145172  0.47469977  1.0
  O  O45  1  0.85053853  0.59854828  0.97469977  1.0
  O  O46  1  0.35053853  0.90145172  0.02530023  1.0
  O  O47  1  0.35053853  0.59854828  0.52530023  1.0
  O  O48  1  0.07624878  0.36507947  0.48043817  1.0
  O  O49  1  0.07624878  0.13492053  0.98043817  1.0
  O  O50  1  0.57624878  0.36507947  0.01956183  1.0
  O  O51  1  0.57624878  0.13492053  0.51956183  1.0
  O  O52  1  0.92375122  0.86507947  0.01956183  1.0
  O  O53  1  0.92375122  0.63492053  0.51956183  1.0
  O  O54  1  0.42375122  0.86507947  0.48043817  1.0
  O  O55  1  0.42375122  0.63492053  0.98043817  1.0
