# generated using pymatgen
data_Ta2As
_symmetry_space_group_name_H-M   'P 1'
_cell_length_a   11.92994833
_cell_length_b   14.91622358
_cell_length_c   3.48053287
_cell_angle_alpha   90.00000000
_cell_angle_beta   90.00000000
_cell_angle_gamma   90.00000000
_symmetry_Int_Tables_number   1
_chemical_formula_structural   Ta2As
_chemical_formula_sum   'Ta24 As12'
_cell_volume   619.36004722
_cell_formula_units_Z   12
loop_
 _symmetry_equiv_pos_site_id
 _symmetry_equiv_pos_as_xyz
  1  'x, y, z'
loop_
 _atom_site_type_symbol
 _atom_site_label
 _atom_site_symmetry_multiplicity
 _atom_site_fract_x
 _atom_site_fract_y
 _atom_site_fract_z
 _atom_site_occupancy
  Ta  Ta0  1  0.88530286  0.57183045  0.50000000  1.0
  Ta  Ta1  1  0.38530286  0.92816955  0.00000000  1.0
  Ta  Ta2  1  0.11469714  0.42816955  0.50000000  1.0
  Ta  Ta3  1  0.61469714  0.07183045  0.00000000  1.0
  Ta  Ta4  1  0.80578316  0.79771740  0.50000000  1.0
  Ta  Ta5  1  0.30578316  0.70228260  0.00000000  1.0
  Ta  Ta6  1  0.19421684  0.20228260  0.50000000  1.0
  Ta  Ta7  1  0.69421684  0.29771740  0.00000000  1.0
  Ta  Ta8  1  0.47256431  0.60951133  0.50000000  1.0
  Ta  Ta9  1  0.97256431  0.89048867  -0.00000000  1.0
  Ta  Ta10  1  0.52743569  0.39048867  0.50000000  1.0
  Ta  Ta11  1  0.02743569  0.10951133  -0.00000000  1.0
  Ta  Ta12  1  0.41383157  0.07936728  0.50000000  1.0
  Ta  Ta13  1  0.91383157  0.42063272  0.00000000  1.0
  Ta  Ta14  1  0.58616843  0.92063272  0.50000000  1.0
  Ta  Ta15  1  0.08616843  0.57936728  0.00000000  1.0
  Ta  Ta16  1  0.14102217  0.97694230  0.50000000  1.0
  Ta  Ta17  1  0.64102217  0.52305770  -0.00000000  1.0
  Ta  Ta18  1  0.85897783  0.02305770  0.50000000  1.0
  Ta  Ta19  1  0.35897783  0.47694230  -0.00000000  1.0
  Ta  Ta20  1  0.08102938  0.74346170  0.50000000  1.0
  Ta  Ta21  1  0.58102938  0.75653830  0.00000000  1.0
  Ta  Ta22  1  0.91897062  0.25653830  0.50000000  1.0
  Ta  Ta23  1  0.41897062  0.24346170  0.00000000  1.0
  As  As24  1  0.68912562  0.65121319  0.50000000  1.0
  As  As25  1  0.18912562  0.84878681  0.00000000  1.0
  As  As26  1  0.31087438  0.34878681  0.50000000  1.0
  As  As27  1  0.81087438  0.15121319  0.00000000  1.0
  As  As28  1  0.42120074  0.79606288  0.50000000  1.0
  As  As29  1  0.92120074  0.70393712  0.00000000  1.0
  As  As30  1  0.57879926  0.20393712  0.50000000  1.0
  As  As31  1  0.07879926  0.29606288  0.00000000  1.0
  As  As32  1  0.24736521  0.58057474  0.50000000  1.0
  As  As33  1  0.74736521  0.91942526  0.00000000  1.0
  As  As34  1  0.75263479  0.41942526  0.50000000  1.0
  As  As35  1  0.25263479  0.08057474  0.00000000  1.0
