# generated using pymatgen
data_RbP11
_symmetry_space_group_name_H-M   'P 1'
_cell_length_a   6.97524729
_cell_length_b   9.78112236
_cell_length_c   18.90021417
_cell_angle_alpha   90.00000000
_cell_angle_beta   93.40564965
_cell_angle_gamma   90.00000000
_symmetry_Int_Tables_number   1
_chemical_formula_structural   RbP11
_chemical_formula_sum   'Rb4 P44'
_cell_volume   1287.20397919
_cell_formula_units_Z   4
loop_
 _symmetry_equiv_pos_site_id
 _symmetry_equiv_pos_as_xyz
  1  'x, y, z'
loop_
 _atom_site_type_symbol
 _atom_site_label
 _atom_site_symmetry_multiplicity
 _atom_site_fract_x
 _atom_site_fract_y
 _atom_site_fract_z
 _atom_site_occupancy
  Rb  Rb0  1  0.92472356  0.47805696  0.33255685  1.0
  Rb  Rb1  1  0.92472356  0.02194304  0.33255685  1.0
  Rb  Rb2  1  0.07527644  0.97805696  0.66744315  1.0
  Rb  Rb3  1  0.07527644  0.52194304  0.66744315  1.0
  P  P4  1  0.84696151  0.40379760  0.90430030  1.0
  P  P5  1  0.84696151  0.09620240  0.90430030  1.0
  P  P6  1  0.15303849  0.90379760  0.09569970  1.0
  P  P7  1  0.15303849  0.59620240  0.09569970  1.0
  P  P8  1  0.77124853  0.36768712  0.78899666  1.0
  P  P9  1  0.77124853  0.13231288  0.78899666  1.0
  P  P10  1  0.22875147  0.86768712  0.21100334  1.0
  P  P11  1  0.22875147  0.63231288  0.21100334  1.0
  P  P12  1  0.67887375  0.41118502  0.53035661  1.0
  P  P13  1  0.67887375  0.08881498  0.53035661  1.0
  P  P14  1  0.32112625  0.91118502  0.46964339  1.0
  P  P15  1  0.32112625  0.58881498  0.46964339  1.0
  P  P16  1  0.68930318  0.91005759  0.93215805  1.0
  P  P17  1  0.68930318  0.58994241  0.93215805  1.0
  P  P18  1  0.31069682  0.41005759  0.06784195  1.0
  P  P19  1  0.31069682  0.08994241  0.06784195  1.0
  P  P20  1  0.51646109  0.91071464  0.57063317  1.0
  P  P21  1  0.51646109  0.58928536  0.57063317  1.0
  P  P22  1  0.48353891  0.41071464  0.42936683  1.0
  P  P23  1  0.48353891  0.08928536  0.42936683  1.0
  P  P24  1  0.45445836  0.40432595  0.79319583  1.0
  P  P25  1  0.45445836  0.09567405  0.79319583  1.0
  P  P26  1  0.54554164  0.90432595  0.20680417  1.0
  P  P27  1  0.54554164  0.59567405  0.20680417  1.0
  P  P28  1  0.42247084  0.91062441  0.85796152  1.0
  P  P29  1  0.42247084  0.58937559  0.85796152  1.0
  P  P30  1  0.57752916  0.41062441  0.14203848  1.0
  P  P31  1  0.57752916  0.08937559  0.14203848  1.0
  P  P32  1  0.87379555  0.75000000  0.88490734  1.0
  P  P33  1  0.12620445  0.25000000  0.11509266  1.0
  P  P34  1  0.79833908  0.75000000  0.77219107  1.0
  P  P35  1  0.20166092  0.25000000  0.22780893  1.0
  P  P36  1  0.73075467  0.75000000  0.54637093  1.0
  P  P37  1  0.26924533  0.25000000  0.45362907  1.0
  P  P38  1  0.75490825  0.75000000  0.43272936  1.0
  P  P39  1  0.24509175  0.25000000  0.56727064  1.0
  P  P40  1  0.61488068  0.75000000  0.12667657  1.0
  P  P41  1  0.38511932  0.25000000  0.87332343  1.0
  P  P42  1  0.48896257  0.75000000  0.77789958  1.0
  P  P43  1  0.51103743  0.25000000  0.22210042  1.0
  P  P44  1  0.45016485  0.75000000  0.40402839  1.0
  P  P45  1  0.54983515  0.25000000  0.59597161  1.0
  P  P46  1  0.34273692  0.75000000  0.04951203  1.0
  P  P47  1  0.65726308  0.25000000  0.95048797  1.0
