# generated using pymatgen
data_SrGeO4
_symmetry_space_group_name_H-M   'P 1'
_cell_length_a   6.13488009
_cell_length_b   6.13488009
_cell_length_c   6.13488009
_cell_angle_alpha   108.79761768
_cell_angle_beta   108.79761768
_cell_angle_gamma   110.82699283
_symmetry_Int_Tables_number   1
_chemical_formula_structural   SrGeO4
_chemical_formula_sum   'Sr2 Ge2 O8'
_cell_volume   177.66972792
_cell_formula_units_Z   2
loop_
 _symmetry_equiv_pos_site_id
 _symmetry_equiv_pos_as_xyz
  1  'x, y, z'
loop_
 _atom_site_type_symbol
 _atom_site_label
 _atom_site_symmetry_multiplicity
 _atom_site_fract_x
 _atom_site_fract_y
 _atom_site_fract_z
 _atom_site_occupancy
  Sr  Sr0  1  0.50000000  0.50000000  0.00000000  1.0
  Sr  Sr1  1  1.25000000  0.75000000  0.50000000  1.0
  Ge  Ge2  1  0.00000000  0.00000000  0.00000000  1.0
  Ge  Ge3  1  0.75000000  1.25000000  0.50000000  1.0
  O  O4  1  1.07191577  1.00394333  0.74074352  1.0
  O  O5  1  0.67808423  0.91882776  0.43202756  1.0
  O  O6  1  1.75394333  1.32191577  1.24074352  1.0
  O  O7  1  0.99605667  0.73680020  1.06797244  1.0
  O  O8  1  0.48680020  0.24605667  0.56797244  1.0
  O  O9  1  1.26319980  1.33117224  1.25925648  1.0
  O  O10  1  1.66882776  0.92808423  0.93202756  1.0
  O  O11  1  1.08117224  1.51319980  0.75925648  1.0
