# generated using pymatgen
data_Y2Re3Si5
_symmetry_space_group_name_H-M   'P 1'
_cell_length_a   10.98956294
_cell_length_b   10.98956294
_cell_length_c   5.52698118
_cell_angle_alpha   90.00000000
_cell_angle_beta   90.00000000
_cell_angle_gamma   90.00000000
_symmetry_Int_Tables_number   1
_chemical_formula_structural   Y2Re3Si5
_chemical_formula_sum   'Y8 Re12 Si20'
_cell_volume   667.49624488
_cell_formula_units_Z   4
loop_
 _symmetry_equiv_pos_site_id
 _symmetry_equiv_pos_as_xyz
  1  'x, y, z'
loop_
 _atom_site_type_symbol
 _atom_site_label
 _atom_site_symmetry_multiplicity
 _atom_site_fract_x
 _atom_site_fract_y
 _atom_site_fract_z
 _atom_site_occupancy
  Y  Y0  1  0.23714758  0.92196220  0.50000000  1.0
  Y  Y1  1  0.73714758  0.57803780  0.00000000  1.0
  Y  Y2  1  0.07803780  0.23714758  0.50000000  1.0
  Y  Y3  1  0.57803780  0.26285242  0.00000000  1.0
  Y  Y4  1  0.76285242  0.07803780  0.50000000  1.0
  Y  Y5  1  0.26285242  0.42196220  0.00000000  1.0
  Y  Y6  1  0.92196220  0.76285242  0.50000000  1.0
  Y  Y7  1  0.42196220  0.73714758  0.00000000  1.0
  Re  Re8  1  0.50000000  0.00000000  0.25000000  1.0
  Re  Re9  1  0.50000000  0.00000000  0.75000000  1.0
  Re  Re10  1  0.00000000  0.50000000  0.75000000  1.0
  Re  Re11  1  0.00000000  0.50000000  0.25000000  1.0
  Re  Re12  1  0.35253931  0.62323732  0.50000000  1.0
  Re  Re13  1  0.85253931  0.87676268  0.00000000  1.0
  Re  Re14  1  0.37676268  0.35253931  0.50000000  1.0
  Re  Re15  1  0.87676268  0.14746069  0.00000000  1.0
  Re  Re16  1  0.64746069  0.37676268  0.50000000  1.0
  Re  Re17  1  0.14746069  0.12323732  0.00000000  1.0
  Re  Re18  1  0.62323732  0.64746069  0.50000000  1.0
  Re  Re19  1  0.12323732  0.85253931  0.00000000  1.0
  Si  Si20  1  0.50000000  0.50000000  0.24307388  1.0
  Si  Si21  1  0.50000000  0.50000000  0.75692612  1.0
  Si  Si22  1  0.00000000  0.00000000  0.74307388  1.0
  Si  Si23  1  0.00000000  0.00000000  0.25692612  1.0
  Si  Si24  1  0.47168046  0.81407120  0.50000000  1.0
  Si  Si25  1  0.97168046  0.68592880  0.00000000  1.0
  Si  Si26  1  0.18592880  0.47168046  0.50000000  1.0
  Si  Si27  1  0.68592880  0.02831954  0.00000000  1.0
  Si  Si28  1  0.52831954  0.18592880  0.50000000  1.0
  Si  Si29  1  0.02831954  0.31407120  0.00000000  1.0
  Si  Si30  1  0.81407120  0.52831954  0.50000000  1.0
  Si  Si31  1  0.31407120  0.97168046  0.00000000  1.0
  Si  Si32  1  0.32807438  0.17192562  0.25000000  1.0
  Si  Si33  1  0.32807438  0.17192562  0.75000000  1.0
  Si  Si34  1  0.82807438  0.32807438  0.75000000  1.0
  Si  Si35  1  0.82807438  0.32807438  0.25000000  1.0
  Si  Si36  1  0.67192562  0.82807438  0.25000000  1.0
  Si  Si37  1  0.67192562  0.82807438  0.75000000  1.0
  Si  Si38  1  0.17192562  0.67192562  0.75000000  1.0
  Si  Si39  1  0.17192562  0.67192562  0.25000000  1.0
