# generated using pymatgen
data_CsCa(NO2)3
_symmetry_space_group_name_H-M   'P 1'
_cell_length_a   5.62522312
_cell_length_b   5.62522312
_cell_length_c   5.62522312
_cell_angle_alpha   90.02149314
_cell_angle_beta   90.02149314
_cell_angle_gamma   90.02149314
_symmetry_Int_Tables_number   1
_chemical_formula_structural   CsCa(NO2)3
_chemical_formula_sum   'Cs1 Ca1 N3 O6'
_cell_volume   177.99965787
_cell_formula_units_Z   1
loop_
 _symmetry_equiv_pos_site_id
 _symmetry_equiv_pos_as_xyz
  1  'x, y, z'
loop_
 _atom_site_type_symbol
 _atom_site_label
 _atom_site_symmetry_multiplicity
 _atom_site_fract_x
 _atom_site_fract_y
 _atom_site_fract_z
 _atom_site_occupancy
  Cs  Cs0  1  -0.00197495  -0.00197495  -0.00197495  1.0
  Ca  Ca1  1  0.46907007  0.46907007  -0.53092993  1.0
  N  N2  1  0.93383550  0.48452704  -0.48141220  1.0
  N  N3  1  0.48452704  0.51858780  -0.06616450  1.0
  N  N4  1  0.51858780  0.93383550  -0.51547296  1.0
  O  O5  1  1.05323639  1.29377732  0.50934872  1.0
  O  O6  1  1.29377732  1.50934872  0.05323639  1.0
  O  O7  1  1.50934872  1.05323639  0.29377732  1.0
  O  O8  1  1.05559467  -0.32726774  -0.47702483  1.0
  O  O9  1  0.67273226  -0.47702483  0.05559467  1.0
  O  O10  1  0.52297517  0.05559467  -0.32726774  1.0
