# generated using pymatgen
data_GaAgSe2
_symmetry_space_group_name_H-M   'P 1'
_cell_length_a   7.06462953
_cell_length_b   7.06462953
_cell_length_c   7.06462953
_cell_angle_alpha   129.33450362
_cell_angle_beta   129.33450362
_cell_angle_gamma   74.47293549
_symmetry_Int_Tables_number   1
_chemical_formula_structural   GaAgSe2
_chemical_formula_sum   'Ga2 Ag2 Se4'
_cell_volume   205.56689970
_cell_formula_units_Z   2
loop_
 _symmetry_equiv_pos_site_id
 _symmetry_equiv_pos_as_xyz
  1  'x, y, z'
loop_
 _atom_site_type_symbol
 _atom_site_label
 _atom_site_symmetry_multiplicity
 _atom_site_fract_x
 _atom_site_fract_y
 _atom_site_fract_z
 _atom_site_occupancy
  Ga  Ga0  1  0.75000000  0.25000000  0.50000000  1.0
  Ga  Ga1  1  1.00000000  1.00000000  1.00000000  1.0
  Ag  Ag2  1  0.25000000  0.75000000  0.50000000  1.0
  Ag  Ag3  1  0.50000000  0.50000000  0.00000000  1.0
  Se  Se4  1  1.09654423  1.12500000  1.47154423  1.0
  Se  Se5  1  1.37500000  0.90345577  1.02845577  1.0
  Se  Se6  1  0.87500000  1.34654423  0.97154423  1.0
  Se  Se7  1  0.65345577  0.62500000  0.52845577  1.0
