# generated using pymatgen
data_Zr2InPd2
_symmetry_space_group_name_H-M   'P 1'
_cell_length_a   7.53265017
_cell_length_b   7.53265017
_cell_length_c   6.88756482
_cell_angle_alpha   90.00000000
_cell_angle_beta   90.00000000
_cell_angle_gamma   90.00000000
_symmetry_Int_Tables_number   1
_chemical_formula_structural   Zr2InPd2
_chemical_formula_sum   'Zr8 In4 Pd8'
_cell_volume   390.80606597
_cell_formula_units_Z   4
loop_
 _symmetry_equiv_pos_site_id
 _symmetry_equiv_pos_as_xyz
  1  'x, y, z'
loop_
 _atom_site_type_symbol
 _atom_site_label
 _atom_site_symmetry_multiplicity
 _atom_site_fract_x
 _atom_site_fract_y
 _atom_site_fract_z
 _atom_site_occupancy
  Zr  Zr0  1  0.18658354  0.18658354  0.50000000  1.0
  Zr  Zr1  1  0.68658354  0.31341646  0.00000000  1.0
  Zr  Zr2  1  0.81341646  0.81341646  0.50000000  1.0
  Zr  Zr3  1  0.31341646  0.68658354  0.00000000  1.0
  Zr  Zr4  1  0.34612281  0.65387719  0.50000000  1.0
  Zr  Zr5  1  0.84612281  0.84612281  0.00000000  1.0
  Zr  Zr6  1  0.65387719  0.34612281  0.50000000  1.0
  Zr  Zr7  1  0.15387719  0.15387719  0.00000000  1.0
  In  In8  1  0.50000000  0.00000000  0.25000000  1.0
  In  In9  1  0.50000000  0.00000000  0.75000000  1.0
  In  In10  1  0.00000000  0.50000000  0.75000000  1.0
  In  In11  1  0.00000000  0.50000000  0.25000000  1.0
  Pd  Pd12  1  0.12900383  0.87099617  0.28233129  1.0
  Pd  Pd13  1  0.12900383  0.87099617  0.71766871  1.0
  Pd  Pd14  1  0.62900383  0.62900383  0.78233129  1.0
  Pd  Pd15  1  0.62900383  0.62900383  0.21766871  1.0
  Pd  Pd16  1  0.87099617  0.12900383  0.28233129  1.0
  Pd  Pd17  1  0.87099617  0.12900383  0.71766871  1.0
  Pd  Pd18  1  0.37099617  0.37099617  0.78233129  1.0
  Pd  Pd19  1  0.37099617  0.37099617  0.21766871  1.0
