# generated using pymatgen
data_InNi3As
_symmetry_space_group_name_H-M   'P 1'
_cell_length_a   3.82404322
_cell_length_b   5.08698398
_cell_length_c   7.31953696
_cell_angle_alpha   90.00000000
_cell_angle_beta   90.00000000
_cell_angle_gamma   90.00000000
_symmetry_Int_Tables_number   1
_chemical_formula_structural   InNi3As
_chemical_formula_sum   'In2 Ni6 As2'
_cell_volume   142.38582961
_cell_formula_units_Z   2
loop_
 _symmetry_equiv_pos_site_id
 _symmetry_equiv_pos_as_xyz
  1  'x, y, z'
loop_
 _atom_site_type_symbol
 _atom_site_label
 _atom_site_symmetry_multiplicity
 _atom_site_fract_x
 _atom_site_fract_y
 _atom_site_fract_z
 _atom_site_occupancy
  In  In0  1  0.00000000  0.50000000  0.44508448  1.0
  In  In1  1  0.50000000  0.00000000  0.55491552  1.0
  Ni  Ni2  1  0.50000000  0.74860428  0.23434780  1.0
  Ni  Ni3  1  0.50000000  0.25139572  0.23434780  1.0
  Ni  Ni4  1  0.00000000  0.75139572  0.76565220  1.0
  Ni  Ni5  1  -0.00000000  0.24860428  0.76565220  1.0
  Ni  Ni6  1  0.00000000  0.50000000  0.07803990  1.0
  Ni  Ni7  1  0.50000000  0.00000000  0.92196010  1.0
  As  As8  1  0.50000000  0.50000000  0.87768349  1.0
  As  As9  1  0.00000000  0.00000000  0.12231651  1.0
