# generated using pymatgen
data_Cs3Ba4C3O9F5
_symmetry_space_group_name_H-M   'P 1'
_cell_length_a   11.70571897
_cell_length_b   11.70571897
_cell_length_c   7.68950641
_cell_angle_alpha   90.00000000
_cell_angle_beta   90.00000000
_cell_angle_gamma   120.00000000
_symmetry_Int_Tables_number   1
_chemical_formula_structural   Cs3Ba4C3O9F5
_chemical_formula_sum   'Cs6 Ba8 C6 O18 F10'
_cell_volume   912.48404936
_cell_formula_units_Z   2
loop_
 _symmetry_equiv_pos_site_id
 _symmetry_equiv_pos_as_xyz
  1  'x, y, z'
loop_
 _atom_site_type_symbol
 _atom_site_label
 _atom_site_symmetry_multiplicity
 _atom_site_fract_x
 _atom_site_fract_y
 _atom_site_fract_z
 _atom_site_occupancy
  Cs  Cs0  1  0.75945313  0.87972657  0.24433046  1.0
  Cs  Cs1  1  0.87972657  0.75945313  0.74433046  1.0
  Cs  Cs2  1  0.87972657  0.12027343  0.74433046  1.0
  Cs  Cs3  1  0.12027343  0.87972657  0.24433046  1.0
  Cs  Cs4  1  0.12027343  0.24054687  0.24433046  1.0
  Cs  Cs5  1  0.24054687  0.12027343  0.74433046  1.0
  Ba  Ba6  1  0.92484983  0.46242492  0.40508333  1.0
  Ba  Ba7  1  0.46242492  0.92484983  0.90508333  1.0
  Ba  Ba8  1  0.46242492  0.53757508  0.90508333  1.0
  Ba  Ba9  1  0.53757508  0.46242492  0.40508333  1.0
  Ba  Ba10  1  0.53757508  0.07515017  0.40508333  1.0
  Ba  Ba11  1  0.07515017  0.53757508  0.90508333  1.0
  Ba  Ba12  1  0.33333333  0.66666667  0.44883766  1.0
  Ba  Ba13  1  0.66666667  0.33333333  0.94883766  1.0
  C  C14  1  0.39843781  0.19921891  0.17542647  1.0
  C  C15  1  0.19921891  0.39843781  0.67542647  1.0
  C  C16  1  0.19921891  0.80078109  0.67542647  1.0
  C  C17  1  0.80078109  0.19921891  0.17542647  1.0
  C  C18  1  0.80078109  0.60156219  0.17542647  1.0
  C  C19  1  0.60156219  0.80078109  0.67542647  1.0
  O  O20  1  0.69501746  0.58281416  0.09429235  1.0
  O  O21  1  0.69501746  0.11220330  0.09429235  1.0
  O  O22  1  0.58281416  0.69501746  0.59429235  1.0
  O  O23  1  0.58281416  0.88779670  0.59429235  1.0
  O  O24  1  0.88779670  0.58281416  0.09429235  1.0
  O  O25  1  0.88779670  0.30498254  0.09429235  1.0
  O  O26  1  0.41718584  0.30498254  0.09429235  1.0
  O  O27  1  0.41718584  0.11220330  0.09429235  1.0
  O  O28  1  0.30498254  0.88779670  0.59429235  1.0
  O  O29  1  0.30498254  0.41718584  0.59429235  1.0
  O  O30  1  0.11220330  0.69501746  0.59429235  1.0
  O  O31  1  0.11220330  0.41718584  0.59429235  1.0
  O  O32  1  0.36549677  0.18274839  0.33910721  1.0
  O  O33  1  0.18274839  0.36549677  0.83910721  1.0
  O  O34  1  0.18274839  0.81725161  0.83910721  1.0
  O  O35  1  0.81725161  0.18274839  0.33910721  1.0
  O  O36  1  0.81725161  0.63450323  0.33910721  1.0
  O  O37  1  0.63450323  0.81725161  0.83910721  1.0
  F  F38  1  0.14228044  0.57114022  0.22671858  1.0
  F  F39  1  0.57114022  0.14228044  0.72671858  1.0
  F  F40  1  0.57114022  0.42885978  0.72671858  1.0
  F  F41  1  0.42885978  0.57114022  0.22671858  1.0
  F  F42  1  0.42885978  0.85771956  0.22671858  1.0
  F  F43  1  0.85771956  0.42885978  0.72671858  1.0
  F  F44  1  0.33333333  0.66666667  0.81104176  1.0
  F  F45  1  0.66666667  0.33333333  0.31104176  1.0
  F  F46  1  0.00000000  0.00000000  0.00406828  1.0
  F  F47  1  0.00000000  0.00000000  0.50406828  1.0
