# generated using pymatgen
data_Y(CrFe2)4
_symmetry_space_group_name_H-M   'P 1'
_cell_length_a   6.32565104
_cell_length_b   6.32565104
_cell_length_c   6.32565104
_cell_angle_alpha   97.93523452
_cell_angle_beta   97.93523452
_cell_angle_gamma   136.37681261
_symmetry_Int_Tables_number   1
_chemical_formula_structural   Y(CrFe2)4
_chemical_formula_sum   'Y1 Cr4 Fe8'
_cell_volume   162.12495143
_cell_formula_units_Z   1
loop_
 _symmetry_equiv_pos_site_id
 _symmetry_equiv_pos_as_xyz
  1  'x, y, z'
loop_
 _atom_site_type_symbol
 _atom_site_label
 _atom_site_symmetry_multiplicity
 _atom_site_fract_x
 _atom_site_fract_y
 _atom_site_fract_z
 _atom_site_occupancy
  Y  Y0  1  0.00000000  0.00000000  0.00000000  1.0
  Cr  Cr1  1  1.36860201  1.00000000  1.36860201  1.0
  Cr  Cr2  1  0.63139799  1.00000000  0.63139799  1.0
  Cr  Cr3  1  0.00000000  0.63139799  0.63139799  1.0
  Cr  Cr4  1  -0.00000000  0.36860201  0.36860201  1.0
  Fe  Fe5  1  0.50000000  0.72638269  0.22638269  1.0
  Fe  Fe6  1  0.50000000  1.27361731  0.77361731  1.0
  Fe  Fe7  1  0.72638269  0.50000000  1.22638269  1.0
  Fe  Fe8  1  0.27361731  0.50000000  0.77361731  1.0
  Fe  Fe9  1  1.00000000  1.00000000  0.50000000  1.0
  Fe  Fe10  1  0.50000000  0.50000000  0.50000000  1.0
  Fe  Fe11  1  1.00000000  0.50000000  1.00000000  1.0
  Fe  Fe12  1  1.50000000  1.00000000  1.00000000  1.0
