# generated using pymatgen
data_K3VS4
_symmetry_space_group_name_H-M   'P 1'
_cell_length_a   9.23416970
_cell_length_b   10.65432996
_cell_length_c   9.32113675
_cell_angle_alpha   90.00000000
_cell_angle_beta   90.00000000
_cell_angle_gamma   90.00000000
_symmetry_Int_Tables_number   1
_chemical_formula_structural   K3VS4
_chemical_formula_sum   'K12 V4 S16'
_cell_volume   917.04970020
_cell_formula_units_Z   4
loop_
 _symmetry_equiv_pos_site_id
 _symmetry_equiv_pos_as_xyz
  1  'x, y, z'
loop_
 _atom_site_type_symbol
 _atom_site_label
 _atom_site_symmetry_multiplicity
 _atom_site_fract_x
 _atom_site_fract_y
 _atom_site_fract_z
 _atom_site_occupancy
  K  K0  1  0.44687450  0.95431074  0.79133214  1.0
  K  K1  1  0.44687450  0.54568926  0.79133214  1.0
  K  K2  1  0.94687450  0.95431074  0.70866786  1.0
  K  K3  1  0.94687450  0.54568926  0.70866786  1.0
  K  K4  1  0.55312550  0.45431074  0.20866786  1.0
  K  K5  1  0.55312550  0.04568926  0.20866786  1.0
  K  K6  1  0.05312550  0.45431074  0.29133214  1.0
  K  K7  1  0.05312550  0.04568926  0.29133214  1.0
  K  K8  1  0.13769783  0.75000000  0.07992440  1.0
  K  K9  1  0.63769783  0.75000000  0.42007560  1.0
  K  K10  1  0.86230217  0.25000000  0.92007560  1.0
  K  K11  1  0.36230217  0.25000000  0.57992440  1.0
  V  V12  1  0.21757559  0.75000000  0.51365426  1.0
  V  V13  1  0.71757559  0.75000000  0.98634574  1.0
  V  V14  1  0.78242441  0.25000000  0.48634574  1.0
  V  V15  1  0.28242441  0.25000000  0.01365426  1.0
  S  S16  1  0.16817734  0.41733683  0.94916521  1.0
  S  S17  1  0.16817734  0.08266317  0.94916521  1.0
  S  S18  1  0.66817734  0.41733683  0.55083479  1.0
  S  S19  1  0.66817734  0.08266317  0.55083479  1.0
  S  S20  1  0.83182266  0.91733683  0.05083479  1.0
  S  S21  1  0.83182266  0.58266317  0.05083479  1.0
  S  S22  1  0.33182266  0.91733683  0.44916521  1.0
  S  S23  1  0.33182266  0.58266317  0.44916521  1.0
  S  S24  1  0.50299180  0.75000000  0.08054044  1.0
  S  S25  1  0.00299180  0.75000000  0.41945956  1.0
  S  S26  1  0.49700820  0.25000000  0.91945956  1.0
  S  S27  1  -0.00299180  0.25000000  0.58054044  1.0
  S  S28  1  0.19823093  0.75000000  0.74509037  1.0
  S  S29  1  0.69823093  0.75000000  0.75490963  1.0
  S  S30  1  0.80176907  0.25000000  0.25490963  1.0
  S  S31  1  0.30176907  0.25000000  0.24509037  1.0
