# generated using pymatgen
data_CdSnO3
_symmetry_space_group_name_H-M   'P 1'
_cell_length_a   6.00397076
_cell_length_b   6.00397076
_cell_length_c   6.00397076
_cell_angle_alpha   55.07295072
_cell_angle_beta   55.07295072
_cell_angle_gamma   55.07295072
_symmetry_Int_Tables_number   1
_chemical_formula_structural   CdSnO3
_chemical_formula_sum   'Cd2 Sn2 O6'
_cell_volume   135.49979132
_cell_formula_units_Z   2
loop_
 _symmetry_equiv_pos_site_id
 _symmetry_equiv_pos_as_xyz
  1  'x, y, z'
loop_
 _atom_site_type_symbol
 _atom_site_label
 _atom_site_symmetry_multiplicity
 _atom_site_fract_x
 _atom_site_fract_y
 _atom_site_fract_z
 _atom_site_occupancy
  Cd  Cd0  1  0.36672416  0.36672416  -0.63327584  1.0
  Cd  Cd1  1  0.63327584  0.63327584  -0.36672416  1.0
  Sn  Sn2  1  0.15426660  0.15426660  0.15426660  1.0
  Sn  Sn3  1  0.84573340  -0.15426660  -0.15426660  1.0
  O  O4  1  0.44382198  0.03890169  -0.21251917  1.0
  O  O5  1  1.21251917  -0.44382198  -0.03890169  1.0
  O  O6  1  0.96109831  0.21251917  -0.44382198  1.0
  O  O7  1  0.55617802  -0.03890169  0.21251917  1.0
  O  O8  1  0.78748083  -0.55617802  0.03890169  1.0
  O  O9  1  1.03890169  -0.21251917  -0.55617801  1.0
