# generated using pymatgen
data_TlVO3
_symmetry_space_group_name_H-M   'P 1'
_cell_length_a   5.55182837
_cell_length_b   11.18822476
_cell_length_c   5.78797433
_cell_angle_alpha   90.00000000
_cell_angle_beta   90.00000000
_cell_angle_gamma   90.00000000
_symmetry_Int_Tables_number   1
_chemical_formula_structural   TlVO3
_chemical_formula_sum   'Tl4 V4 O12'
_cell_volume   359.52062552
_cell_formula_units_Z   4
loop_
 _symmetry_equiv_pos_site_id
 _symmetry_equiv_pos_as_xyz
  1  'x, y, z'
loop_
 _atom_site_type_symbol
 _atom_site_label
 _atom_site_symmetry_multiplicity
 _atom_site_fract_x
 _atom_site_fract_y
 _atom_site_fract_z
 _atom_site_occupancy
  Tl  Tl0  1  0.54491592  0.10132620  0.25000000  1.0
  Tl  Tl1  1  0.54491592  0.39867380  0.75000000  1.0
  Tl  Tl2  1  0.45508408  0.60132620  0.25000000  1.0
  Tl  Tl3  1  0.45508408  0.89867380  0.75000000  1.0
  V  V4  1  0.98390799  0.83659750  0.25000000  1.0
  V  V5  1  0.98390799  0.66340250  0.75000000  1.0
  V  V6  1  0.01609201  0.33659750  0.25000000  1.0
  V  V7  1  0.01609201  0.16340250  0.75000000  1.0
  O  O8  1  0.87242125  0.46521721  0.25000000  1.0
  O  O9  1  0.87242125  0.03478279  0.75000000  1.0
  O  O10  1  0.12757875  0.96521721  0.25000000  1.0
  O  O11  1  0.12757875  0.53478279  0.75000000  1.0
  O  O12  1  0.31284893  0.35912707  0.25000000  1.0
  O  O13  1  0.31284893  0.14087293  0.75000000  1.0
  O  O14  1  0.68715107  0.85912707  0.25000000  1.0
  O  O15  1  0.68715107  0.64087293  0.75000000  1.0
  O  O16  1  0.92467104  0.25000000  0.50000000  1.0
  O  O17  1  0.92467104  0.25000000  0.00000000  1.0
  O  O18  1  0.07532896  0.75000000  0.50000000  1.0
  O  O19  1  0.07532896  0.75000000  0.00000000  1.0
