# generated using pymatgen
data_SnBi
_symmetry_space_group_name_H-M   'P 1'
_cell_length_a   6.55888800
_cell_length_b   6.55888800
_cell_length_c   6.46882502
_cell_angle_alpha   90.00000000
_cell_angle_beta   90.00000000
_cell_angle_gamma   60.00033312
_symmetry_Int_Tables_number   1
_chemical_formula_structural   SnBi
_chemical_formula_sum   'Sn4 Bi4'
_cell_volume   241.00048857
_cell_formula_units_Z   4
loop_
 _symmetry_equiv_pos_site_id
 _symmetry_equiv_pos_as_xyz
  1  'x, y, z'
loop_
 _atom_site_type_symbol
 _atom_site_label
 _atom_site_symmetry_multiplicity
 _atom_site_fract_x
 _atom_site_fract_y
 _atom_site_fract_z
 _atom_site_occupancy
  Sn  Sn0  1  -0.32679845  1.32679845  0.33377027  1.0
  Sn  Sn1  1  0.17320155  0.82679845  0.16622973  1.0
  Sn  Sn2  1  0.32679845  0.67320155  0.66622973  1.0
  Sn  Sn3  1  -0.17320155  1.17320155  0.83377027  1.0
  Bi  Bi4  1  0.20802960  1.20802960  0.50000000  1.0
  Bi  Bi5  1  -0.29197040  0.70802960  0.00000000  1.0
  Bi  Bi6  1  -0.20802960  0.79197040  0.50000000  1.0
  Bi  Bi7  1  0.29197040  1.29197040  0.00000000  1.0
