# generated using pymatgen
data_BaZr(PO4)2
_symmetry_space_group_name_H-M   'P 1'
_cell_length_a   5.13280131
_cell_length_b   5.13280131
_cell_length_c   7.97835828
_cell_angle_alpha   87.91391857
_cell_angle_beta   92.08608143
_cell_angle_gamma   116.89493953
_symmetry_Int_Tables_number   1
_chemical_formula_structural   BaZr(PO4)2
_chemical_formula_sum   'Ba1 Zr1 P2 O8'
_cell_volume   187.28870281
_cell_formula_units_Z   1
loop_
 _symmetry_equiv_pos_site_id
 _symmetry_equiv_pos_as_xyz
  1  'x, y, z'
loop_
 _atom_site_type_symbol
 _atom_site_label
 _atom_site_symmetry_multiplicity
 _atom_site_fract_x
 _atom_site_fract_y
 _atom_site_fract_z
 _atom_site_occupancy
  Ba  Ba0  1  -0.00000000  0.00000000  0.50000000  1.0
  Zr  Zr1  1  0.00000000  0.00000000  0.00000000  1.0
  P  P2  1  0.64303349  -0.64303349  0.77789102  1.0
  P  P3  1  0.35696651  -0.35696651  0.22210898  1.0
  O  O4  1  1.30686298  0.22096593  0.81145111  1.0
  O  O5  1  0.77903407  -0.30686298  0.81145111  1.0
  O  O6  1  1.22096593  0.30686298  0.18854889  1.0
  O  O7  1  0.69313702  -0.22096593  0.18854889  1.0
  O  O8  1  0.77921346  -0.77921346  0.90908094  1.0
  O  O9  1  0.22078654  -0.22078654  0.09091906  1.0
  O  O10  1  0.69065305  -0.69065305  0.59594102  1.0
  O  O11  1  0.30934695  -0.30934695  0.40405898  1.0
