# generated using pymatgen
data_Si
_symmetry_space_group_name_H-M   'P 1'
_cell_length_a   5.70826343
_cell_length_b   5.70826343
_cell_length_c   12.74834025
_cell_angle_alpha   90.00000000
_cell_angle_beta   90.00000000
_cell_angle_gamma   140.56606311
_symmetry_Int_Tables_number   1
_chemical_formula_structural   Si
_chemical_formula_sum   Si12
_cell_volume   263.85420113
_cell_formula_units_Z   12
loop_
 _symmetry_equiv_pos_site_id
 _symmetry_equiv_pos_as_xyz
  1  'x, y, z'
loop_
 _atom_site_type_symbol
 _atom_site_label
 _atom_site_symmetry_multiplicity
 _atom_site_fract_x
 _atom_site_fract_y
 _atom_site_fract_z
 _atom_site_occupancy
  Si  Si0  1  0.02858318  0.97141682  0.90948772  1.0
  Si  Si1  1  0.02858318  0.97141682  0.59051228  1.0
  Si  Si2  1  -0.02858318  0.02858318  0.40948772  1.0
  Si  Si3  1  -0.02858318  0.02858318  0.09051228  1.0
  Si  Si4  1  0.24286036  0.75713964  0.94531964  1.0
  Si  Si5  1  0.24286036  0.75713964  0.55468036  1.0
  Si  Si6  1  -0.24286036  0.24286036  0.44531964  1.0
  Si  Si7  1  -0.24286036  0.24286036  0.05468036  1.0
  Si  Si8  1  0.42876911  0.57123089  0.84276972  1.0
  Si  Si9  1  0.42876911  0.57123089  0.65723028  1.0
  Si  Si10  1  -0.42876911  0.42876911  0.34276972  1.0
  Si  Si11  1  -0.42876911  0.42876911  0.15723028  1.0
