# generated using pymatgen
data_Nb3P
_symmetry_space_group_name_H-M   'P 1'
_cell_length_a   10.16977451
_cell_length_b   10.16977451
_cell_length_c   5.09831498
_cell_angle_alpha   90.00000000
_cell_angle_beta   90.00000000
_cell_angle_gamma   90.00000000
_symmetry_Int_Tables_number   1
_chemical_formula_structural   Nb3P
_chemical_formula_sum   'Nb24 P8'
_cell_volume   527.28972717
_cell_formula_units_Z   8
loop_
 _symmetry_equiv_pos_site_id
 _symmetry_equiv_pos_as_xyz
  1  'x, y, z'
loop_
 _atom_site_type_symbol
 _atom_site_label
 _atom_site_symmetry_multiplicity
 _atom_site_fract_x
 _atom_site_fract_y
 _atom_site_fract_z
 _atom_site_occupancy
  Nb  Nb0  1  0.48919669  0.35469573  1.23579150  1.0
  Nb  Nb1  1  0.98919669  0.85469573  0.26420850  1.0
  Nb  Nb2  1  0.35469573  0.51080331  -0.23579150  1.0
  Nb  Nb3  1  0.85469573  0.01080331  0.73579150  1.0
  Nb  Nb4  1  0.51080331  0.64530427  1.23579150  1.0
  Nb  Nb5  1  0.01080331  0.14530427  0.26420850  1.0
  Nb  Nb6  1  0.64530427  0.48919669  -0.23579150  1.0
  Nb  Nb7  1  0.14530427  0.98919669  0.73579150  1.0
  Nb  Nb8  1  0.30727200  0.78774856  0.49050856  1.0
  Nb  Nb9  1  0.80727200  0.28774856  0.00949144  1.0
  Nb  Nb10  1  0.78774856  0.69272800  0.50949144  1.0
  Nb  Nb11  1  0.28774856  0.19272800  0.99050856  1.0
  Nb  Nb12  1  0.69272800  0.21225144  0.49050856  1.0
  Nb  Nb13  1  0.19272800  0.71225144  0.00949144  1.0
  Nb  Nb14  1  0.21225144  0.30727200  0.50949144  1.0
  Nb  Nb15  1  0.71225144  0.80727200  0.99050856  1.0
  Nb  Nb16  1  1.09595257  0.41341153  0.02222288  1.0
  Nb  Nb17  1  0.59595257  0.91341153  0.47777712  1.0
  Nb  Nb18  1  0.41341153  -0.09595257  0.97777712  1.0
  Nb  Nb19  1  0.91341153  0.40404743  0.52222288  1.0
  Nb  Nb20  1  -0.09595257  0.58658847  0.02222288  1.0
  Nb  Nb21  1  0.40404743  0.08658847  0.47777712  1.0
  Nb  Nb22  1  0.58658847  1.09595257  0.97777712  1.0
  Nb  Nb23  1  0.08658847  0.59595257  0.52222288  1.0
  P  P24  1  0.47858004  0.29289260  0.73203251  1.0
  P  P25  1  0.97858004  0.79289260  -0.23203251  1.0
  P  P26  1  0.29289260  0.52141996  0.26796749  1.0
  P  P27  1  0.79289260  0.02141996  1.23203251  1.0
  P  P28  1  0.52141996  0.70710740  0.73203251  1.0
  P  P29  1  0.02141996  0.20710740  -0.23203251  1.0
  P  P30  1  0.70710740  0.47858004  0.26796749  1.0
  P  P31  1  0.20710740  0.97858004  1.23203251  1.0
