# generated using pymatgen
data_AsRh
_symmetry_space_group_name_H-M   'P 1'
_cell_length_a   5.70281586
_cell_length_b   3.64732689
_cell_length_c   6.15169400
_cell_angle_alpha   90.00000000
_cell_angle_beta   90.00000000
_cell_angle_gamma   90.00000000
_symmetry_Int_Tables_number   1
_chemical_formula_structural   AsRh
_chemical_formula_sum   'As4 Rh4'
_cell_volume   127.95544197
_cell_formula_units_Z   4
loop_
 _symmetry_equiv_pos_site_id
 _symmetry_equiv_pos_as_xyz
  1  'x, y, z'
loop_
 _atom_site_type_symbol
 _atom_site_label
 _atom_site_symmetry_multiplicity
 _atom_site_fract_x
 _atom_site_fract_y
 _atom_site_fract_z
 _atom_site_occupancy
  As  As0  1  0.80504915  0.75000000  0.58643723  1.0
  As  As1  1  0.30504915  0.75000000  0.91356277  1.0
  As  As2  1  0.19495085  0.25000000  0.41356277  1.0
  As  As3  1  0.69495085  0.25000000  0.08643723  1.0
  Rh  Rh4  1  0.99917772  0.75000000  0.19361967  1.0
  Rh  Rh5  1  0.49917772  0.75000000  0.30638033  1.0
  Rh  Rh6  1  0.00082228  0.25000000  0.80638033  1.0
  Rh  Rh7  1  0.50082228  0.25000000  0.69361967  1.0
