# generated using pymatgen
data_Ca2Co(AsO5)2
_symmetry_space_group_name_H-M   'P 1'
_cell_length_a   5.44646941
_cell_length_b   13.22631757
_cell_length_c   6.01810740
_cell_angle_alpha   90.00000000
_cell_angle_beta   107.51428595
_cell_angle_gamma   90.00000000
_symmetry_Int_Tables_number   1
_chemical_formula_structural   Ca2Co(AsO5)2
_chemical_formula_sum   'Ca4 Co2 As4 O20'
_cell_volume   413.42743540
_cell_formula_units_Z   2
loop_
 _symmetry_equiv_pos_site_id
 _symmetry_equiv_pos_as_xyz
  1  'x, y, z'
loop_
 _atom_site_type_symbol
 _atom_site_label
 _atom_site_symmetry_multiplicity
 _atom_site_fract_x
 _atom_site_fract_y
 _atom_site_fract_z
 _atom_site_occupancy
  O  O0  1  0.35341021  0.13638212  0.16597017  1.0
  O  O1  1  0.64658979  0.63638212  0.83402983  1.0
  O  O2  1  0.49013116  0.48096906  0.10745959  1.0
  O  O3  1  0.50986884  0.98096906  0.89254041  1.0
  O  O4  1  0.01685101  0.52680844  0.17584680  1.0
  O  O5  1  0.98314899  0.02680844  0.82415320  1.0
  O  O6  1  0.24121430  0.73499164  0.46427589  1.0
  O  O7  1  0.75878570  0.23499164  0.53572411  1.0
  O  O8  1  0.31572665  0.14926723  0.66148389  1.0
  O  O9  1  0.68427335  0.64926723  0.33851611  1.0
  O  O10  1  0.35684279  0.37044924  0.57916660  1.0
  O  O11  1  0.64315721  0.87044924  0.42083340  1.0
  O  O12  1  0.84679948  0.07419463  0.24333506  1.0
  O  O13  1  0.15320052  0.57419463  0.75666494  1.0
  O  O14  1  0.15898377  0.34652517  0.03822059  1.0
  O  O15  1  0.84101623  0.84652517  0.96177941  1.0
  O  O16  1  0.73623101  0.28466465  -0.00928402  1.0
  O  O17  1  0.26376899  0.78466465  1.00928402  1.0
  O  O18  1  0.16472681  0.93942060  0.30277610  1.0
  O  O19  1  0.83527319  0.43942060  0.69722390  1.0
  As  As20  1  0.33552772  0.82252349  0.29643564  1.0
  As  As21  1  0.66447228  0.32252349  0.70356436  1.0
  As  As22  1  0.28947228  0.08155826  0.89711256  1.0
  As  As23  1  0.71052772  0.58155826  0.10288744  1.0
  Ca  Ca24  1  0.06426137  0.24332637  0.33060899  1.0
  Ca  Ca25  1  0.93573863  0.74332637  0.66939101  1.0
  Ca  Ca26  1  0.60450154  0.05465286  0.51231960  1.0
  Ca  Ca27  1  0.39549846  0.55465286  0.48768040  1.0
  Co  Co28  1  0.14756796  0.46626624  -0.08242673  1.0
  Co  Co29  1  0.85243204  0.96626624  0.08242673  1.0
