# generated using pymatgen
data_Ca3Al2SO16
_symmetry_space_group_name_H-M   'P 1'
_cell_length_a   8.53422016
_cell_length_b   8.53422016
_cell_length_c   10.01628530
_cell_angle_alpha   86.57076194
_cell_angle_beta   93.42923806
_cell_angle_gamma   114.39981935
_symmetry_Int_Tables_number   1
_chemical_formula_structural   Ca3Al2SO16
_chemical_formula_sum   'Ca6 Al4 S2 O32'
_cell_volume   662.67429328
_cell_formula_units_Z   2
loop_
 _symmetry_equiv_pos_site_id
 _symmetry_equiv_pos_as_xyz
  1  'x, y, z'
loop_
 _atom_site_type_symbol
 _atom_site_label
 _atom_site_symmetry_multiplicity
 _atom_site_fract_x
 _atom_site_fract_y
 _atom_site_fract_z
 _atom_site_occupancy
  Ca  Ca0  1  0.97576127  -0.51537904  0.80506986  1.0
  Ca  Ca1  1  0.48462096  -0.02423873  0.69493014  1.0
  Ca  Ca2  1  1.02423873  0.51537904  0.19493014  1.0
  Ca  Ca3  1  1.51537904  0.02423873  0.30506986  1.0
  Ca  Ca4  1  0.95541481  -0.04458519  0.25000000  1.0
  Ca  Ca5  1  1.04458519  0.04458519  0.75000000  1.0
  Al  Al6  1  1.68863320  0.11775425  0.99351504  1.0
  Al  Al7  1  1.11775425  0.68863320  0.50648496  1.0
  Al  Al8  1  0.31136680  -0.11775425  0.00648496  1.0
  Al  Al9  1  0.88224575  -0.68863320  0.49351504  1.0
  S  S10  1  1.30717240  0.30717240  0.25000000  1.0
  S  S11  1  0.69282760  -0.30717240  0.75000000  1.0
  O  O12  1  0.85256897  -0.32391979  0.15760685  1.0
  O  O13  1  0.67608021  -0.14743103  0.34239315  1.0
  O  O14  1  1.14743103  0.32391979  0.84239315  1.0
  O  O15  1  1.32391979  0.14743103  0.65760685  1.0
  O  O16  1  0.10509340  -0.13305305  0.08145067  1.0
  O  O17  1  0.86694695  -0.89490660  0.41854933  1.0
  O  O18  1  1.89490660  0.13305305  0.91854933  1.0
  O  O19  1  1.13305305  0.89490660  0.58145067  1.0
  O  O20  1  1.15825587  0.65762396  0.98748906  1.0
  O  O21  1  1.65762396  0.15825587  0.51251094  1.0
  O  O22  1  0.84174413  -0.65762396  0.01251094  1.0
  O  O23  1  0.34237604  -0.15825587  0.48748906  1.0
  O  O24  1  0.76517212  -0.70832926  0.32355814  1.0
  O  O25  1  0.29167074  -0.23482788  0.17644186  1.0
  O  O26  1  1.23482788  0.70832926  0.67644186  1.0
  O  O27  1  1.70832926  0.23482788  0.82355814  1.0
  O  O28  1  0.27201349  -0.01528974  0.84648731  1.0
  O  O29  1  0.98471026  -0.72798651  0.65351269  1.0
  O  O30  1  1.72798651  0.01528974  0.15351269  1.0
  O  O31  1  1.01528974  0.72798651  0.34648731  1.0
  O  O32  1  1.47537772  0.09706591  0.05204564  1.0
  O  O33  1  1.09706591  0.47537772  0.44795436  1.0
  O  O34  1  0.52462228  -0.09706591  0.94795436  1.0
  O  O35  1  0.90293409  -0.47537772  0.55204564  1.0
  O  O36  1  1.43536155  0.38434810  0.14377819  1.0
  O  O37  1  1.38434810  0.43536155  0.35622181  1.0
  O  O38  1  0.56463845  -0.38434810  0.85622181  1.0
  O  O39  1  0.61565190  -0.43536155  0.64377819  1.0
  O  O40  1  0.86960713  -0.28873821  0.79621032  1.0
  O  O41  1  0.71126179  -0.13039287  0.70378968  1.0
  O  O42  1  1.13039287  0.28873821  0.20378968  1.0
  O  O43  1  1.28873821  0.13039287  0.29621032  1.0
