# generated using pymatgen
data_CsHSO3
_symmetry_space_group_name_H-M   'P 1'
_cell_length_a   4.88542823
_cell_length_b   4.88542823
_cell_length_c   4.88542823
_cell_angle_alpha   80.74097525
_cell_angle_beta   80.74097525
_cell_angle_gamma   80.74097525
_symmetry_Int_Tables_number   1
_chemical_formula_structural   CsHSO3
_chemical_formula_sum   'Cs1 H1 S1 O3'
_cell_volume   112.48765980
_cell_formula_units_Z   1
loop_
 _symmetry_equiv_pos_site_id
 _symmetry_equiv_pos_as_xyz
  1  'x, y, z'
loop_
 _atom_site_type_symbol
 _atom_site_label
 _atom_site_symmetry_multiplicity
 _atom_site_fract_x
 _atom_site_fract_y
 _atom_site_fract_z
 _atom_site_occupancy
  Cs  Cs0  1  -0.01669357  -0.01669357  -0.01669357  1.0
  H  H1  1  0.59028047  0.59028047  -0.40971953  1.0
  S  S2  1  0.45030984  0.45030984  -0.54969016  1.0
  O  O3  1  0.14984389  0.54017969  -0.45982031  1.0
  O  O4  1  0.54017969  0.14984389  -0.45982031  1.0
  O  O5  1  0.54017969  0.54017969  -0.85015611  1.0
