# generated using pymatgen
data_Li2La2Ti3O10
_symmetry_space_group_name_H-M   'P 1'
_cell_length_a   13.63748045
_cell_length_b   13.63748045
_cell_length_c   13.63748045
_cell_angle_alpha   163.68249741
_cell_angle_beta   163.68249741
_cell_angle_gamma   23.15579229
_symmetry_Int_Tables_number   1
_chemical_formula_structural   Li2La2Ti3O10
_chemical_formula_sum   'Li2 La2 Ti3 O10'
_cell_volume   200.17015625
_cell_formula_units_Z   1
loop_
 _symmetry_equiv_pos_site_id
 _symmetry_equiv_pos_as_xyz
  1  'x, y, z'
loop_
 _atom_site_type_symbol
 _atom_site_label
 _atom_site_symmetry_multiplicity
 _atom_site_fract_x
 _atom_site_fract_y
 _atom_site_fract_z
 _atom_site_occupancy
  Li  Li0  1  0.25000000  0.75000000  0.50000000  1.0
  Li  Li1  1  0.75000000  0.25000000  0.50000000  1.0
  La  La2  1  0.58153381  0.58153381  1.00000000  1.0
  La  La3  1  0.41846619  0.41846619  0.00000000  1.0
  Ti  Ti4  1  0.84165662  0.84165662  1.00000000  1.0
  Ti  Ti5  1  0.15834338  0.15834338  0.00000000  1.0
  Ti  Ti6  1  0.00000000  0.00000000  0.00000000  1.0
  O  O7  1  0.35679843  0.85679843  0.50000000  1.0
  O  O8  1  0.64320157  0.14320157  0.50000000  1.0
  O  O9  1  0.85679843  0.35679843  0.50000000  1.0
  O  O10  1  0.14320157  0.64320157  0.50000000  1.0
  O  O11  1  0.92736218  0.92736218  1.00000000  1.0
  O  O12  1  0.07263782  0.07263782  0.00000000  1.0
  O  O13  1  0.77504320  0.77504320  1.00000000  1.0
  O  O14  1  0.22495680  0.22495680  0.00000000  1.0
  O  O15  1  0.50000000  0.00000000  0.50000000  1.0
  O  O16  1  0.00000000  0.50000000  0.50000000  1.0
