# generated using pymatgen
data_SrPO3F
_symmetry_space_group_name_H-M   'P 1'
_cell_length_a   6.83263956
_cell_length_b   7.19432966
_cell_length_c   8.82877772
_cell_angle_alpha   90.00000000
_cell_angle_beta   127.48686404
_cell_angle_gamma   90.00000000
_symmetry_Int_Tables_number   1
_chemical_formula_structural   SrPO3F
_chemical_formula_sum   'Sr4 P4 O12 F4'
_cell_volume   344.36774512
_cell_formula_units_Z   4
loop_
 _symmetry_equiv_pos_site_id
 _symmetry_equiv_pos_as_xyz
  1  'x, y, z'
loop_
 _atom_site_type_symbol
 _atom_site_label
 _atom_site_symmetry_multiplicity
 _atom_site_fract_x
 _atom_site_fract_y
 _atom_site_fract_z
 _atom_site_occupancy
  Sr  Sr0  1  0.17412921  0.86672715  0.27322279  1.0
  Sr  Sr1  1  0.82587079  0.36672715  0.22677721  1.0
  Sr  Sr2  1  0.82587079  0.13327285  0.72677721  1.0
  Sr  Sr3  1  0.17412921  0.63327285  0.77322279  1.0
  P  P4  1  0.27734248  0.35888861  0.17868337  1.0
  P  P5  1  0.72265752  0.85888861  0.32131663  1.0
  P  P6  1  0.72265752  0.64111139  0.82131663  1.0
  P  P7  1  0.27734248  0.14111139  0.67868337  1.0
  O  O8  1  0.18440515  0.51527924  0.23651683  1.0
  O  O9  1  0.81559485  0.01527924  0.26348317  1.0
  O  O10  1  0.81559485  0.48472076  0.76348317  1.0
  O  O11  1  0.18440515  0.98472076  0.73651683  1.0
  O  O12  1  0.35712996  0.40865752  0.05585233  1.0
  O  O13  1  0.64287004  0.90865752  0.44414767  1.0
  O  O14  1  0.64287004  0.59134248  0.94414767  1.0
  O  O15  1  0.35712996  0.09134248  0.55585233  1.0
  O  O16  1  0.11464526  0.18453910  0.11435930  1.0
  O  O17  1  0.88535474  0.68453910  0.38564070  1.0
  O  O18  1  0.88535474  0.81546090  0.88564070  1.0
  O  O19  1  0.11464526  0.31546090  0.61435930  1.0
  F  F20  1  0.54593978  0.30125980  0.37875797  1.0
  F  F21  1  0.45406022  0.80125980  0.12124203  1.0
  F  F22  1  0.45406022  0.69874020  0.62124203  1.0
  F  F23  1  0.54593978  0.19874020  0.87875797  1.0
