# generated using pymatgen
data_Te(C6F5)2
_symmetry_space_group_name_H-M   'P 1'
_cell_length_a   9.89556509
_cell_length_b   7.89826068
_cell_length_c   10.51014653
_cell_angle_alpha   90.00000000
_cell_angle_beta   107.88048867
_cell_angle_gamma   90.00000000
_symmetry_Int_Tables_number   1
_chemical_formula_structural   Te(C6F5)2
_chemical_formula_sum   'Te2 C24 F20'
_cell_volume   781.77261578
_cell_formula_units_Z   2
loop_
 _symmetry_equiv_pos_site_id
 _symmetry_equiv_pos_as_xyz
  1  'x, y, z'
loop_
 _atom_site_type_symbol
 _atom_site_label
 _atom_site_symmetry_multiplicity
 _atom_site_fract_x
 _atom_site_fract_y
 _atom_site_fract_z
 _atom_site_occupancy
  Te  Te0  1  0.73104218  0.75107877  0.53063242  1.0
  Te  Te1  1  0.26895782  0.25107877  0.46936758  1.0
  C  C2  1  0.88360121  0.91364586  0.66456710  1.0
  C  C3  1  0.11639879  0.41364586  0.33543290  1.0
  C  C4  1  0.96192812  0.86127721  0.79286921  1.0
  C  C5  1  0.03807188  0.36127721  0.20713079  1.0
  C  C6  1  0.06279108  0.96582230  0.87901213  1.0
  C  C7  1  0.93720892  0.46582230  0.12098787  1.0
  C  C8  1  0.08857684  0.12615855  0.83560692  1.0
  C  C9  1  0.91142316  0.62615855  0.16439308  1.0
  C  C10  1  0.01312900  0.18035378  0.70707817  1.0
  C  C11  1  0.98687100  0.68035378  0.29292183  1.0
  C  C12  1  0.91135951  0.07435771  0.62349316  1.0
  C  C13  1  0.08864049  0.57435771  0.37650684  1.0
  C  C14  1  0.60943102  0.70513214  0.66453817  1.0
  C  C15  1  0.39056898  0.20513214  0.33546183  1.0
  C  C16  1  0.53460645  0.83505717  0.70286357  1.0
  C  C17  1  0.46539355  0.33505717  0.29713643  1.0
  C  C18  1  0.45127919  0.80539527  0.78593058  1.0
  C  C19  1  0.54872081  0.30539527  0.21406942  1.0
  C  C20  1  0.44069592  0.64134393  0.83133682  1.0
  C  C21  1  0.55930408  0.14134393  0.16866318  1.0
  C  C22  1  0.51402389  0.50909961  0.79409032  1.0
  C  C23  1  0.48597611  1.00909961  0.20590968  1.0
  C  C24  1  0.59744529  0.54230172  0.71143767  1.0
  C  C25  1  0.40255471  0.04230172  0.28856233  1.0
  F  F26  1  0.94223097  0.70555012  0.83745608  1.0
  F  F27  1  0.05776903  0.20555012  0.16254392  1.0
  F  F28  1  0.13704206  0.91231237  0.00240911  1.0
  F  F29  1  0.86295794  0.41231237  0.99759089  1.0
  F  F30  1  0.18726766  0.22730878  0.91664792  1.0
  F  F31  1  0.81273234  0.72730878  0.08335208  1.0
  F  F32  1  0.04019669  0.33441682  0.66449427  1.0
  F  F33  1  0.95980331  0.83441682  0.33550573  1.0
  F  F34  1  0.83999378  0.13223950  0.49984722  1.0
  F  F35  1  0.16000622  0.63223950  0.50015278  1.0
  F  F36  1  0.54052606  -0.00434212  0.65939555  1.0
  F  F37  1  0.45947394  0.49565788  0.34060445  1.0
  F  F38  1  0.37921829  0.93292158  0.82119219  1.0
  F  F39  1  0.62078171  0.43292158  0.17880781  1.0
  F  F40  1  0.35884391  0.61062567  0.90976967  1.0
  F  F41  1  0.64115609  0.11062567  0.09023033  1.0
  F  F42  1  0.50288698  0.35091008  0.83770294  1.0
  F  F43  1  0.49711302  0.85091008  0.16229706  1.0
  F  F44  1  0.66650379  0.41069320  0.67739735  1.0
  F  F45  1  0.33349621  0.91069320  0.32260265  1.0
