# generated using pymatgen
data_FeAgO2
_symmetry_space_group_name_H-M   'P 1'
_cell_length_a   6.53786087
_cell_length_b   6.53786087
_cell_length_c   6.53786087
_cell_angle_alpha   27.10581680
_cell_angle_beta   27.10581680
_cell_angle_gamma   27.10581680
_symmetry_Int_Tables_number   1
_chemical_formula_structural   FeAgO2
_chemical_formula_sum   'Fe1 Ag1 O2'
_cell_volume   51.17879483
_cell_formula_units_Z   1
loop_
 _symmetry_equiv_pos_site_id
 _symmetry_equiv_pos_as_xyz
  1  'x, y, z'
loop_
 _atom_site_type_symbol
 _atom_site_label
 _atom_site_symmetry_multiplicity
 _atom_site_fract_x
 _atom_site_fract_y
 _atom_site_fract_z
 _atom_site_occupancy
  Fe  Fe0  1  1.50000000  0.50000000  0.50000000  1.0
  Ag  Ag1  1  -0.00000000  0.00000000  -0.00000000  1.0
  O  O2  1  0.88883369  0.88883369  0.88883369  1.0
  O  O3  1  1.11116631  1.11116631  0.11116631  1.0
