# generated using pymatgen
data_In5S5Br
_symmetry_space_group_name_H-M   'P 1'
_cell_length_a   3.99668860
_cell_length_b   9.21710198
_cell_length_c   15.34055527
_cell_angle_alpha   90.00000000
_cell_angle_beta   90.00000000
_cell_angle_gamma   90.00000000
_symmetry_Int_Tables_number   1
_chemical_formula_structural   In5S5Br
_chemical_formula_sum   'In10 S10 Br2'
_cell_volume   565.11363250
_cell_formula_units_Z   2
loop_
 _symmetry_equiv_pos_site_id
 _symmetry_equiv_pos_as_xyz
  1  'x, y, z'
loop_
 _atom_site_type_symbol
 _atom_site_label
 _atom_site_symmetry_multiplicity
 _atom_site_fract_x
 _atom_site_fract_y
 _atom_site_fract_z
 _atom_site_occupancy
  In  In0  1  0.50000000  0.87972411  0.49922521  1.0
  In  In1  1  -0.00000000  0.12027589  -0.00077479  1.0
  In  In2  1  0.50000000  0.81872448  0.90117377  1.0
  In  In3  1  -0.00000000  0.18127552  0.40117377  1.0
  In  In4  1  0.50000000  0.52441532  0.85329930  1.0
  In  In5  1  0.00000000  0.47558468  0.35329930  1.0
  In  In6  1  0.50000000  0.39832928  0.12468992  1.0
  In  In7  1  -0.00000000  0.60167072  0.62468992  1.0
  In  In8  1  0.50000000  0.12992646  0.70118316  1.0
  In  In9  1  -0.00000000  0.87007354  0.20118316  1.0
  S  S10  1  0.50000000  0.94587984  0.04994457  1.0
  S  S11  1  -0.00000000  0.05412016  0.54994457  1.0
  S  S12  1  0.50000000  0.76883153  0.65950003  1.0
  S  S13  1  -0.00000000  0.23116847  0.15950003  1.0
  S  S14  1  0.50000000  0.56389991  0.26176061  1.0
  S  S15  1  -0.00000000  0.43610009  0.76176061  1.0
  S  S16  1  0.50000000  0.30667454  0.96114988  1.0
  S  S17  1  -0.00000000  0.69332546  0.46114988  1.0
  S  S18  1  0.50000000  0.02419743  0.35058566  1.0
  S  S19  1  -0.00000000  0.97580257  0.85058566  1.0
  Br  Br20  1  0.50000000  0.39706197  0.56008789  1.0
  Br  Br21  1  0.00000000  0.60293803  0.06008789  1.0
