# generated using pymatgen
data_ZrO2
_symmetry_space_group_name_H-M   'P 1'
_cell_length_a   5.12912794
_cell_length_b   10.14307995
_cell_length_c   5.29486495
_cell_angle_alpha   90.00000000
_cell_angle_beta   90.00000000
_cell_angle_gamma   90.00000000
_symmetry_Int_Tables_number   1
_chemical_formula_structural   ZrO2
_chemical_formula_sum   'Zr8 O16'
_cell_volume   275.46616829
_cell_formula_units_Z   8
loop_
 _symmetry_equiv_pos_site_id
 _symmetry_equiv_pos_as_xyz
  1  'x, y, z'
loop_
 _atom_site_type_symbol
 _atom_site_label
 _atom_site_symmetry_multiplicity
 _atom_site_fract_x
 _atom_site_fract_y
 _atom_site_fract_z
 _atom_site_occupancy
  Zr  Zr0  1  0.25183874  0.11568534  0.03485116  1.0
  Zr  Zr1  1  0.25183874  0.38431466  0.53485116  1.0
  Zr  Zr2  1  0.75183874  0.11568534  0.46514884  1.0
  Zr  Zr3  1  0.75183874  0.38431466  0.96514884  1.0
  Zr  Zr4  1  0.74816126  0.61568534  0.46514884  1.0
  Zr  Zr5  1  0.74816126  0.88431466  0.96514884  1.0
  Zr  Zr6  1  0.24816126  0.61568534  0.03485116  1.0
  Zr  Zr7  1  0.24816126  0.88431466  0.53485116  1.0
  O  O8  1  0.49764923  0.47812122  0.23877602  1.0
  O  O9  1  0.49764923  0.02187878  0.73877602  1.0
  O  O10  1  0.99764923  0.47812122  0.26122398  1.0
  O  O11  1  0.99764923  0.02187878  0.76122398  1.0
  O  O12  1  0.50235077  0.97812122  0.26122398  1.0
  O  O13  1  0.50235077  0.52187878  0.76122398  1.0
  O  O14  1  0.00235077  0.97812122  0.23877602  1.0
  O  O15  1  0.00235077  0.52187878  0.73877602  1.0
  O  O16  1  0.12424986  0.21134404  0.37264500  1.0
  O  O17  1  0.12424986  0.28865596  0.87264500  1.0
  O  O18  1  0.62424986  0.21134404  0.12735500  1.0
  O  O19  1  0.62424986  0.28865596  0.62735500  1.0
  O  O20  1  0.87575014  0.71134404  0.12735500  1.0
  O  O21  1  0.87575014  0.78865596  0.62735500  1.0
  O  O22  1  0.37575014  0.71134404  0.37264500  1.0
  O  O23  1  0.37575014  0.78865596  0.87264500  1.0
