# generated using pymatgen
data_Rb3(MoO3)10
_symmetry_space_group_name_H-M   'P 1'
_cell_length_a   10.53988787
_cell_length_b   10.53988787
_cell_length_c   10.57377593
_cell_angle_alpha   60.77247929
_cell_angle_beta   119.22752071
_cell_angle_gamma   137.80161929
_symmetry_Int_Tables_number   1
_chemical_formula_structural   Rb3(MoO3)10
_chemical_formula_sum   'Rb3 Mo10 O30'
_cell_volume   672.31348698
_cell_formula_units_Z   1
loop_
 _symmetry_equiv_pos_site_id
 _symmetry_equiv_pos_as_xyz
  1  'x, y, z'
loop_
 _atom_site_type_symbol
 _atom_site_label
 _atom_site_symmetry_multiplicity
 _atom_site_fract_x
 _atom_site_fract_y
 _atom_site_fract_z
 _atom_site_occupancy
  Rb  Rb0  1  0.31800072  -0.31800072  0.77293470  1.0
  Rb  Rb1  1  0.68199928  0.31800072  0.22706530  1.0
  Rb  Rb2  1  0.00000000  0.00000000  0.00000000  1.0
  Mo  Mo3  1  0.68119575  -0.17122904  0.54265244  1.0
  Mo  Mo4  1  1.17122904  0.31880425  0.54265244  1.0
  Mo  Mo5  1  0.82877096  0.68119575  0.45734756  1.0
  Mo  Mo6  1  0.31880425  0.17122904  0.45734756  1.0
  Mo  Mo7  1  0.39083011  0.10974271  0.84412614  1.0
  Mo  Mo8  1  0.89025729  0.60916989  0.84412614  1.0
  Mo  Mo9  1  1.10974271  0.39083011  0.15587386  1.0
  Mo  Mo10  1  0.60916989  -0.10974271  0.15587386  1.0
  Mo  Mo11  1  0.71892941  0.28107059  0.67299630  1.0
  Mo  Mo12  1  0.28107059  -0.28107059  0.32700370  1.0
  O  O13  1  0.66543265  -0.15132757  0.68382527  1.0
  O  O14  1  1.15132757  0.33456735  0.68382527  1.0
  O  O15  1  0.84867243  0.66543265  0.31617473  1.0
  O  O16  1  0.33456735  0.15132757  0.31617473  1.0
  O  O17  1  0.43907846  0.07986410  0.65791972  1.0
  O  O18  1  0.92013590  0.56092154  0.65791972  1.0
  O  O19  1  1.07986410  0.43907846  0.34208028  1.0
  O  O20  1  0.56092154  -0.07986410  0.34208028  1.0
  O  O21  1  0.37240489  0.18190227  0.94251648  1.0
  O  O22  1  0.81809773  0.62759511  0.94251648  1.0
  O  O23  1  1.18190227  0.37240489  0.05748352  1.0
  O  O24  1  0.62759511  -0.18190227  0.05748352  1.0
  O  O25  1  0.29135547  0.21235333  0.64613313  1.0
  O  O26  1  0.78764667  0.70864453  0.64613313  1.0
  O  O27  1  1.21235333  0.29135547  0.35386687  1.0
  O  O28  1  0.70864453  -0.21235333  0.35386687  1.0
  O  O29  1  0.92378977  0.07621023  0.51060167  1.0
  O  O30  1  0.07621023  -0.07621023  0.48939833  1.0
  O  O31  1  0.85557545  0.14442455  0.17184672  1.0
  O  O32  1  0.14442455  -0.14442455  0.82815328  1.0
  O  O33  1  0.81134251  0.18865749  0.83272183  1.0
  O  O34  1  0.18865749  -0.18865749  0.16727817  1.0
  O  O35  1  0.73900139  0.26099861  0.53298184  1.0
  O  O36  1  0.26099861  -0.26099861  0.46701816  1.0
  O  O37  1  0.65553239  0.34446761  0.80955872  1.0
  O  O38  1  0.34446761  -0.34446761  0.19044128  1.0
  O  O39  1  0.58125281  0.41874719  0.48919089  1.0
  O  O40  1  0.41874719  -0.41874719  0.51080911  1.0
  O  O41  1  0.50000000  0.00000000  -0.00000000  1.0
  O  O42  1  1.00000000  0.50000000  -0.00000000  1.0
