# generated using pymatgen
data_Hg2P4PdO8
_symmetry_space_group_name_H-M   'P 1'
_cell_length_a   13.47553933
_cell_length_b   10.80281431
_cell_length_c   9.39316849
_cell_angle_alpha   83.39536877
_cell_angle_beta   52.78207711
_cell_angle_gamma   43.82255412
_symmetry_Int_Tables_number   1
_chemical_formula_structural   Hg2P4PdO8
_chemical_formula_sum   'Hg4 P8 Pd2 O16'
_cell_volume   612.69553690
_cell_formula_units_Z   2
loop_
 _symmetry_equiv_pos_site_id
 _symmetry_equiv_pos_as_xyz
  1  'x, y, z'
loop_
 _atom_site_type_symbol
 _atom_site_label
 _atom_site_symmetry_multiplicity
 _atom_site_fract_x
 _atom_site_fract_y
 _atom_site_fract_z
 _atom_site_occupancy
  Hg  Hg0  1  0.62500000  -0.37500000  1.12500000  1.0
  Hg  Hg1  1  -0.37500000  1.12500000  0.62500000  1.0
  Hg  Hg2  1  -0.37500000  0.62500000  0.62500000  1.0
  Hg  Hg3  1  1.12500000  -0.37500000  0.62500000  1.0
  P  P4  1  0.64898420  0.26731493  1.17460670  1.0
  P  P5  1  -0.09090584  0.17460670  0.26731493  1.0
  P  P6  1  -0.01731493  0.60101580  0.34090584  1.0
  P  P7  1  0.07539330  0.34090584  0.60101580  1.0
  P  P8  1  0.17460670  -0.09090584  1.64898420  1.0
  P  P9  1  0.26731493  0.64898420  -0.09090584  1.0
  P  P10  1  -0.65909416  1.07539330  0.98268507  1.0
  P  P11  1  -0.39898420  0.98268507  1.07539330  1.0
  Pd  Pd12  1  0.00000000  0.00000000  0.00000000  1.0
  Pd  Pd13  1  0.25000000  0.25000000  1.25000000  1.0
  O  O14  1  -0.12781783  0.12726073  0.43588201  1.0
  O  O15  1  0.56467508  0.43588201  1.12726073  1.0
  O  O16  1  0.12273927  0.37781783  0.68532492  1.0
  O  O17  1  -0.18588201  0.68532492  0.37781783  1.0
  O  O18  1  0.43588201  0.56467508  -0.12781783  1.0
  O  O19  1  0.12726073  -0.12781783  1.56467508  1.0
  O  O20  1  -0.31467508  0.81411799  1.12273927  1.0
  O  O21  1  -0.62218217  1.12273927  0.81411799  1.0
  O  O22  1  0.46981625  0.32660887  1.38755668  1.0
  O  O23  1  -0.18398180  0.38755668  0.32660887  1.0
  O  O24  1  -0.07660887  0.78018375  0.43398180  1.0
  O  O25  1  -0.13755668  0.43398180  0.78018375  1.0
  O  O26  1  0.38755668  -0.18398180  1.46981625  1.0
  O  O27  1  0.32660887  0.46981625  -0.18398180  1.0
  O  O28  1  -0.56601820  0.86244332  0.92339113  1.0
  O  O29  1  -0.21981625  0.92339113  0.86244332  1.0
