# generated using pymatgen
data_Ca4Al6TeO12
_symmetry_space_group_name_H-M   'P 1'
_cell_length_a   8.00099613
_cell_length_b   8.00099613
_cell_length_c   8.00099613
_cell_angle_alpha   109.47122063
_cell_angle_beta   109.47122063
_cell_angle_gamma   109.47122063
_symmetry_Int_Tables_number   1
_chemical_formula_structural   Ca4Al6TeO12
_chemical_formula_sum   'Ca4 Al6 Te1 O12'
_cell_volume   394.28503159
_cell_formula_units_Z   1
loop_
 _symmetry_equiv_pos_site_id
 _symmetry_equiv_pos_as_xyz
  1  'x, y, z'
loop_
 _atom_site_type_symbol
 _atom_site_label
 _atom_site_symmetry_multiplicity
 _atom_site_fract_x
 _atom_site_fract_y
 _atom_site_fract_z
 _atom_site_occupancy
  Ca  Ca0  1  0.61000326  0.61000326  0.61000326  1.0
  Ca  Ca1  1  1.00000000  1.00000000  0.38999674  1.0
  Ca  Ca2  1  1.00000000  0.38999674  1.00000000  1.0
  Ca  Ca3  1  0.38999674  1.00000000  1.00000000  1.0
  Al  Al4  1  0.25000000  0.75000000  0.50000000  1.0
  Al  Al5  1  0.75000000  0.25000000  0.50000000  1.0
  Al  Al6  1  0.25000000  0.50000000  0.75000000  1.0
  Al  Al7  1  0.50000000  0.25000000  0.75000000  1.0
  Al  Al8  1  0.75000000  0.50000000  0.25000000  1.0
  Al  Al9  1  0.50000000  0.75000000  0.25000000  1.0
  Te  Te10  1  0.00000000  0.00000000  0.00000000  1.0
  O  O11  1  0.70083727  0.41603334  0.41603334  1.0
  O  O12  1  0.41603334  0.70083727  0.41603334  1.0
  O  O13  1  1.00000000  1.28480393  0.58396666  1.0
  O  O14  1  1.28480393  1.00000000  0.58396666  1.0
  O  O15  1  0.41603334  0.41603334  0.70083727  1.0
  O  O16  1  0.71519607  0.71519607  0.29916273  1.0
  O  O17  1  1.00000000  0.58396666  1.28480393  1.0
  O  O18  1  0.71519607  0.29916273  0.71519607  1.0
  O  O19  1  0.29916273  0.71519607  0.71519607  1.0
  O  O20  1  0.58396666  1.00000000  1.28480393  1.0
  O  O21  1  1.28480393  0.58396666  1.00000000  1.0
  O  O22  1  0.58396666  1.28480393  1.00000000  1.0
