# generated using pymatgen
data_ZnAg2P2O7
_symmetry_space_group_name_H-M   'P 1'
_cell_length_a   7.90706133
_cell_length_b   7.90706133
_cell_length_c   10.58486137
_cell_angle_alpha   90.00000000
_cell_angle_beta   90.00000000
_cell_angle_gamma   90.00000000
_symmetry_Int_Tables_number   1
_chemical_formula_structural   ZnAg2P2O7
_chemical_formula_sum   'Zn4 Ag8 P8 O28'
_cell_volume   661.78266798
_cell_formula_units_Z   4
loop_
 _symmetry_equiv_pos_site_id
 _symmetry_equiv_pos_as_xyz
  1  'x, y, z'
loop_
 _atom_site_type_symbol
 _atom_site_label
 _atom_site_symmetry_multiplicity
 _atom_site_fract_x
 _atom_site_fract_y
 _atom_site_fract_z
 _atom_site_occupancy
  Zn  Zn0  1  0.50000000  0.00000000  0.25000000  1.0
  Zn  Zn1  1  0.50000000  0.00000000  0.75000000  1.0
  Zn  Zn2  1  0.00000000  0.50000000  0.75000000  1.0
  Zn  Zn3  1  0.00000000  0.50000000  0.25000000  1.0
  Ag  Ag4  1  0.29985494  0.29985494  0.50000000  1.0
  Ag  Ag5  1  0.79985494  0.20014506  0.00000000  1.0
  Ag  Ag6  1  0.70014506  0.70014506  0.50000000  1.0
  Ag  Ag7  1  0.20014506  0.79985494  0.00000000  1.0
  Ag  Ag8  1  0.13871632  0.86128368  0.50000000  1.0
  Ag  Ag9  1  0.63871632  0.63871632  0.00000000  1.0
  Ag  Ag10  1  0.86128368  0.13871632  0.50000000  1.0
  Ag  Ag11  1  0.36128368  0.36128368  0.00000000  1.0
  P  P12  1  0.36228092  0.63771908  0.28840389  1.0
  P  P13  1  0.36228092  0.63771908  0.71159611  1.0
  P  P14  1  0.86228092  0.86228092  0.78840389  1.0
  P  P15  1  0.86228092  0.86228092  0.21159611  1.0
  P  P16  1  0.63771908  0.36228092  0.28840389  1.0
  P  P17  1  0.63771908  0.36228092  0.71159611  1.0
  P  P18  1  0.13771908  0.13771908  0.78840389  1.0
  P  P19  1  0.13771908  0.13771908  0.21159611  1.0
  O  O20  1  0.41999080  0.80573994  0.35000905  1.0
  O  O21  1  0.41999080  0.80573994  0.64999095  1.0
  O  O22  1  0.91999080  0.69426006  0.85000905  1.0
  O  O23  1  0.91999080  0.69426006  0.14999095  1.0
  O  O24  1  0.19426006  0.58000920  0.35000905  1.0
  O  O25  1  0.19426006  0.58000920  0.64999095  1.0
  O  O26  1  0.69426006  0.91999080  0.85000905  1.0
  O  O27  1  0.69426006  0.91999080  0.14999095  1.0
  O  O28  1  0.58000920  0.19426006  0.35000905  1.0
  O  O29  1  0.58000920  0.19426006  0.64999095  1.0
  O  O30  1  0.08000920  0.30573994  0.85000905  1.0
  O  O31  1  0.08000920  0.30573994  0.14999095  1.0
  O  O32  1  0.80573994  0.41999080  0.35000905  1.0
  O  O33  1  0.80573994  0.41999080  0.64999095  1.0
  O  O34  1  0.30573994  0.08000920  0.85000905  1.0
  O  O35  1  0.30573994  0.08000920  0.14999095  1.0
  O  O36  1  0.36473357  0.63526643  0.14410711  1.0
  O  O37  1  0.36473357  0.63526643  0.85589289  1.0
  O  O38  1  0.86473357  0.86473357  0.64410711  1.0
  O  O39  1  0.86473357  0.86473357  0.35589289  1.0
  O  O40  1  0.63526643  0.36473357  0.14410711  1.0
  O  O41  1  0.63526643  0.36473357  0.85589289  1.0
  O  O42  1  0.13526643  0.13526643  0.64410711  1.0
  O  O43  1  0.13526643  0.13526643  0.35589289  1.0
  O  O44  1  0.50000000  0.50000000  0.34262396  1.0
  O  O45  1  0.50000000  0.50000000  0.65737604  1.0
  O  O46  1  0.00000000  0.00000000  0.84262396  1.0
  O  O47  1  0.00000000  0.00000000  0.15737604  1.0
