# generated using pymatgen
data_LuCuS2
_symmetry_space_group_name_H-M   'P 1'
_cell_length_a   4.10596564
_cell_length_b   6.02740827
_cell_length_c   12.48662364
_cell_angle_alpha   90.00000000
_cell_angle_beta   90.00000000
_cell_angle_gamma   90.00000000
_symmetry_Int_Tables_number   1
_chemical_formula_structural   LuCuS2
_chemical_formula_sum   'Lu4 Cu4 S8'
_cell_volume   309.02309842
_cell_formula_units_Z   4
loop_
 _symmetry_equiv_pos_site_id
 _symmetry_equiv_pos_as_xyz
  1  'x, y, z'
loop_
 _atom_site_type_symbol
 _atom_site_label
 _atom_site_symmetry_multiplicity
 _atom_site_fract_x
 _atom_site_fract_y
 _atom_site_fract_z
 _atom_site_occupancy
  Lu  Lu0  1  0.24532381  0.80739218  0.87689774  1.0
  Lu  Lu1  1  0.74532381  0.69260782  0.12310226  1.0
  Lu  Lu2  1  0.75467619  0.30739218  0.62310226  1.0
  Lu  Lu3  1  0.25467619  0.19260782  0.37689774  1.0
  Cu  Cu4  1  0.50752994  0.80666208  0.63054078  1.0
  Cu  Cu5  1  1.00752994  0.69333792  0.36945922  1.0
  Cu  Cu6  1  0.49247006  0.30666208  0.86945922  1.0
  Cu  Cu7  1  -0.00752994  0.19333792  0.13054078  1.0
  S  S8  1  0.24337824  0.89357368  0.22407516  1.0
  S  S9  1  0.74337824  0.60642632  0.77592484  1.0
  S  S10  1  0.75662176  0.39357368  0.27592484  1.0
  S  S11  1  0.25662176  0.10642632  0.72407516  1.0
  S  S12  1  0.25258370  0.51871860  0.52199716  1.0
  S  S13  1  0.75258370  -0.01871860  0.47800284  1.0
  S  S14  1  0.74741630  1.01871860  0.97800284  1.0
  S  S15  1  0.24741630  0.48128140  0.02199716  1.0
