# generated using pymatgen
data_Mg2As2O7
_symmetry_space_group_name_H-M   'P 1'
_cell_length_a   5.47799254
_cell_length_b   5.47799254
_cell_length_c   4.85998734
_cell_angle_alpha   81.88330580
_cell_angle_beta   98.11669420
_cell_angle_gamma   74.83318710
_symmetry_Int_Tables_number   1
_chemical_formula_structural   Mg2As2O7
_chemical_formula_sum   'Mg2 As2 O7'
_cell_volume   136.90757865
_cell_formula_units_Z   1
loop_
 _symmetry_equiv_pos_site_id
 _symmetry_equiv_pos_as_xyz
  1  'x, y, z'
loop_
 _atom_site_type_symbol
 _atom_site_label
 _atom_site_symmetry_multiplicity
 _atom_site_fract_x
 _atom_site_fract_y
 _atom_site_fract_z
 _atom_site_occupancy
  Mg  Mg0  1  0.68938493  -0.31061507  0.00000000  1.0
  Mg  Mg1  1  1.31061507  0.31061507  0.00000000  1.0
  As  As2  1  0.76310862  -0.76310862  0.60153077  1.0
  As  As3  1  0.23689138  -0.23689138  0.39846923  1.0
  O  O4  1  1.59928845  0.06863964  0.79450112  1.0
  O  O5  1  0.93136036  -0.59928845  0.79450112  1.0
  O  O6  1  1.06863964  0.59928845  0.20549888  1.0
  O  O7  1  0.40071155  -0.06863964  0.20549888  1.0
  O  O8  1  0.40735985  -0.40735985  0.72777737  1.0
  O  O9  1  0.59264015  -0.59264015  0.27222263  1.0
  O  O10  1  0.00000000  -0.00000000  0.50000000  1.0
