# generated using pymatgen
data_I3N
_symmetry_space_group_name_H-M   'P 1'
_cell_length_a   8.94059224
_cell_length_b   8.62445584
_cell_length_c   11.01044353
_cell_angle_alpha   90.00000000
_cell_angle_beta   90.00000000
_cell_angle_gamma   90.00000000
_symmetry_Int_Tables_number   1
_chemical_formula_structural   I3N
_chemical_formula_sum   'I12 N4'
_cell_volume   848.99044980
_cell_formula_units_Z   4
loop_
 _symmetry_equiv_pos_site_id
 _symmetry_equiv_pos_as_xyz
  1  'x, y, z'
loop_
 _atom_site_type_symbol
 _atom_site_label
 _atom_site_symmetry_multiplicity
 _atom_site_fract_x
 _atom_site_fract_y
 _atom_site_fract_z
 _atom_site_occupancy
  I  I0  1  0.34831688  0.75000000  0.07767080  1.0
  I  I1  1  0.84831688  0.75000000  0.42232920  1.0
  I  I2  1  0.65168312  0.25000000  0.92232920  1.0
  I  I3  1  0.15168312  0.25000000  0.57767080  1.0
  I  I4  1  0.12150199  0.75000000  0.73507333  1.0
  I  I5  1  0.62150199  0.75000000  0.76492667  1.0
  I  I6  1  0.87849801  0.25000000  0.26492667  1.0
  I  I7  1  0.37849801  0.25000000  0.23507333  1.0
  I  I8  1  0.09859274  0.75000000  0.25012382  1.0
  I  I9  1  0.59859274  0.75000000  0.24987618  1.0
  I  I10  1  0.90140726  0.25000000  0.74987618  1.0
  I  I11  1  0.40140726  0.25000000  0.75012382  1.0
  N  N12  1  0.32606825  0.75000000  0.66386399  1.0
  N  N13  1  0.82606825  0.75000000  0.83613601  1.0
  N  N14  1  0.67393175  0.25000000  0.33613601  1.0
  N  N15  1  0.17393175  0.25000000  0.16386399  1.0
