# generated using pymatgen
data_Fe3P2(HO5)2
_symmetry_space_group_name_H-M   'P 1'
_cell_length_a   7.39233083
_cell_length_b   7.58099451
_cell_length_c   7.68470508
_cell_angle_alpha   90.00000000
_cell_angle_beta   119.99504380
_cell_angle_gamma   90.00000000
_symmetry_Int_Tables_number   1
_chemical_formula_structural   Fe3P2(HO5)2
_chemical_formula_sum   'Fe6 P4 H4 O20'
_cell_volume   372.98133673
_cell_formula_units_Z   2
loop_
 _symmetry_equiv_pos_site_id
 _symmetry_equiv_pos_as_xyz
  1  'x, y, z'
loop_
 _atom_site_type_symbol
 _atom_site_label
 _atom_site_symmetry_multiplicity
 _atom_site_fract_x
 _atom_site_fract_y
 _atom_site_fract_z
 _atom_site_occupancy
  Fe  Fe0  1  0.73786738  0.26576250  0.00698886  1.0
  Fe  Fe1  1  0.73786738  0.23423750  0.50698886  1.0
  Fe  Fe2  1  0.26213262  0.76576250  0.49301114  1.0
  Fe  Fe3  1  0.26213262  0.73423750  0.99301114  1.0
  Fe  Fe4  1  -0.00000000  0.50000000  0.50000000  1.0
  Fe  Fe5  1  0.00000000  0.00000000  0.00000000  1.0
  P  P6  1  0.75068166  0.88415556  0.25359209  1.0
  P  P7  1  0.75068166  0.61584444  0.75359209  1.0
  P  P8  1  0.24931834  0.38415556  0.24640791  1.0
  P  P9  1  0.24931834  0.11584444  0.74640791  1.0
  H  H10  1  0.61774693  0.44703998  0.20407837  1.0
  H  H11  1  0.61774693  0.05296002  0.70407837  1.0
  H  H12  1  0.38225307  0.94703998  0.29592163  1.0
  H  H13  1  0.38225307  0.55296002  0.79592163  1.0
  O  O14  1  0.94029805  0.75992523  0.38661994  1.0
  O  O15  1  0.94029805  0.74007477  0.88661994  1.0
  O  O16  1  0.05970195  0.25992523  0.11338006  1.0
  O  O17  1  0.05970195  0.24007477  0.61338006  1.0
  O  O18  1  0.81769818  0.00592939  0.13031695  1.0
  O  O19  1  0.81769818  0.49407061  0.63031695  1.0
  O  O20  1  0.18230182  0.50592939  0.36968305  1.0
  O  O21  1  0.18230182  0.99407061  0.86968305  1.0
  O  O22  1  0.74435355  0.37323229  0.26196702  1.0
  O  O23  1  0.74435355  0.12676771  0.76196702  1.0
  O  O24  1  0.25564645  0.87323229  0.23803298  1.0
  O  O25  1  0.25564645  0.62676771  0.73803298  1.0
  O  O26  1  0.69509327  0.99993937  0.38539514  1.0
  O  O27  1  0.69509327  0.50006063  0.88539514  1.0
  O  O28  1  0.30490673  0.49993937  0.11460486  1.0
  O  O29  1  0.30490673  0.00006063  0.61460486  1.0
  O  O30  1  0.43770695  0.26993319  0.38862044  1.0
  O  O31  1  0.43770695  0.23006681  0.88862044  1.0
  O  O32  1  0.56229305  0.76993319  0.11137956  1.0
  O  O33  1  0.56229305  0.73006681  0.61137956  1.0
