# generated using pymatgen
data_CaAl2SiO6
_symmetry_space_group_name_H-M   'P 1'
_cell_length_a   9.71172998
_cell_length_b   8.73938445
_cell_length_c   5.33630268
_cell_angle_alpha   90.30096388
_cell_angle_beta   74.61131664
_cell_angle_gamma   89.89923390
_symmetry_Int_Tables_number   1
_chemical_formula_structural   CaAl2SiO6
_chemical_formula_sum   'Ca4 Al8 Si4 O24'
_cell_volume   436.66985931
_cell_formula_units_Z   4
loop_
 _symmetry_equiv_pos_site_id
 _symmetry_equiv_pos_as_xyz
  1  'x, y, z'
loop_
 _atom_site_type_symbol
 _atom_site_label
 _atom_site_symmetry_multiplicity
 _atom_site_fract_x
 _atom_site_fract_y
 _atom_site_fract_z
 _atom_site_occupancy
  Ca  Ca0  1  0.00372634  0.30948081  -0.75825140  1.0
  Ca  Ca1  1  0.48612321  0.81291981  -0.24047056  1.0
  Ca  Ca2  1  0.00408830  0.68778131  -0.25780052  1.0
  Ca  Ca3  1  0.48602161  0.18898813  -0.74053288  1.0
  Al  Al4  1  0.28798711  0.09679332  -0.07833482  1.0
  Al  Al5  1  0.21672369  0.40288784  -0.42649553  1.0
  Al  Al6  1  0.28952889  0.90180558  -0.58009590  1.0
  Al  Al7  1  0.78473161  0.40146282  -0.07462070  1.0
  Al  Al8  1  0.00222762  0.90992713  -0.75180586  1.0
  Al  Al9  1  0.49494493  0.40708574  -0.23301031  1.0
  Al  Al10  1  0.00482967  0.09355797  -0.25486224  1.0
  Al  Al11  1  0.49864970  0.58889935  -0.73615781  1.0
  Si  Si12  1  0.79171480  0.59686885  -0.57429625  1.0
  Si  Si13  1  0.71474754  0.09450840  -0.43487007  1.0
  Si  Si14  1  0.20886502  0.59637900  -0.92313182  1.0
  Si  Si15  1  0.71330179  0.90214736  -0.93496885  1.0
  O  O16  1  0.09753664  0.07304415  -0.98166931  1.0
  O  O17  1  0.36296576  0.27493396  -0.03983209  1.0
  O  O18  1  0.36513458  0.02510495  -0.38975620  1.0
  O  O19  1  0.61459499  0.58563207  -0.48030648  1.0
  O  O20  1  0.86343340  0.76452707  -0.55672024  1.0
  O  O21  1  0.85437045  0.52329063  -0.86569115  1.0
  O  O22  1  0.88948871  0.08203223  -0.52350616  1.0
  O  O23  1  0.63676404  0.25854207  -0.42516527  1.0
  O  O24  1  0.65571984  0.00709612  -0.15061109  1.0
  O  O25  1  0.38648223  0.58883052  -0.01139701  1.0
  O  O26  1  0.13411826  0.76227423  -0.94105180  1.0
  O  O27  1  0.14627228  0.52504096  -0.63222714  1.0
  O  O28  1  0.88844338  0.90581962  -0.01503460  1.0
  O  O29  1  0.63064109  0.74205864  -0.93381967  1.0
  O  O30  1  0.65376080  0.99148929  -0.64974087  1.0
  O  O31  1  0.40571062  0.41822797  -0.50987218  1.0
  O  O32  1  0.12918770  0.23227600  -0.45025909  1.0
  O  O33  1  0.14380195  0.48684831  -0.11720872  1.0
  O  O34  1  0.09692495  0.91857255  -0.48091744  1.0
  O  O35  1  0.36944709  0.72591649  -0.54218796  1.0
  O  O36  1  0.36512096  0.97552437  -0.88951655  1.0
  O  O37  1  0.59668704  0.42710393  -0.97604501  1.0
  O  O38  1  0.86820182  0.22697334  -0.05628012  1.0
  O  O39  1  0.85697958  0.48734709  -0.38147834  1.0
