# generated using pymatgen
data_CaNiGeH
_symmetry_space_group_name_H-M   'P 1'
_cell_length_a   3.98951509
_cell_length_b   3.98951509
_cell_length_c   7.76600396
_cell_angle_alpha   90.00000000
_cell_angle_beta   90.00000000
_cell_angle_gamma   90.00000000
_symmetry_Int_Tables_number   1
_chemical_formula_structural   CaNiGeH
_chemical_formula_sum   'Ca2 Ni2 Ge2 H2'
_cell_volume   123.60551017
_cell_formula_units_Z   2
loop_
 _symmetry_equiv_pos_site_id
 _symmetry_equiv_pos_as_xyz
  1  'x, y, z'
loop_
 _atom_site_type_symbol
 _atom_site_label
 _atom_site_symmetry_multiplicity
 _atom_site_fract_x
 _atom_site_fract_y
 _atom_site_fract_z
 _atom_site_occupancy
  Ca  Ca0  1  0.50000000  0.00000000  0.15072672  1.0
  Ca  Ca1  1  0.00000000  0.50000000  0.84927328  1.0
  Ni  Ni2  1  0.00000000  0.00000000  0.50000000  1.0
  Ni  Ni3  1  0.50000000  0.50000000  0.50000000  1.0
  Ge  Ge4  1  0.50000000  0.00000000  0.66075863  1.0
  Ge  Ge5  1  0.00000000  0.50000000  0.33924137  1.0
  H  H6  1  0.00000000  0.00000000  0.00000000  1.0
  H  H7  1  0.50000000  0.50000000  0.00000000  1.0
