# generated using pymatgen
data_Fe3S
_symmetry_space_group_name_H-M   'P 1'
_cell_length_a   4.98870494
_cell_length_b   7.04654705
_cell_length_c   5.36214099
_cell_angle_alpha   90.00000000
_cell_angle_beta   90.00000000
_cell_angle_gamma   90.00000000
_symmetry_Int_Tables_number   1
_chemical_formula_structural   Fe3S
_chemical_formula_sum   'Fe12 S4'
_cell_volume   188.49611460
_cell_formula_units_Z   4
loop_
 _symmetry_equiv_pos_site_id
 _symmetry_equiv_pos_as_xyz
  1  'x, y, z'
loop_
 _atom_site_type_symbol
 _atom_site_label
 _atom_site_symmetry_multiplicity
 _atom_site_fract_x
 _atom_site_fract_y
 _atom_site_fract_z
 _atom_site_occupancy
  Fe  Fe0  1  0.26580900  0.94812801  0.59263145  1.0
  Fe  Fe1  1  0.26580900  0.55187199  0.59263145  1.0
  Fe  Fe2  1  0.76580900  0.94812801  0.90736855  1.0
  Fe  Fe3  1  0.76580900  0.55187199  0.90736855  1.0
  Fe  Fe4  1  0.73419100  0.44812801  0.40736855  1.0
  Fe  Fe5  1  0.73419100  0.05187199  0.40736855  1.0
  Fe  Fe6  1  0.23419100  0.44812801  0.09263145  1.0
  Fe  Fe7  1  0.23419100  0.05187199  0.09263145  1.0
  Fe  Fe8  1  0.47237358  0.75000000  0.20853922  1.0
  Fe  Fe9  1  0.97237358  0.75000000  0.29146078  1.0
  Fe  Fe10  1  0.52762642  0.25000000  0.79146078  1.0
  Fe  Fe11  1  0.02762642  0.25000000  0.70853922  1.0
  S  S12  1  0.16095509  0.75000000  0.91697622  1.0
  S  S13  1  0.66095509  0.75000000  0.58302378  1.0
  S  S14  1  0.83904491  0.25000000  0.08302378  1.0
  S  S15  1  0.33904491  0.25000000  0.41697622  1.0
