# generated using pymatgen
data_Cu11PdN4
_symmetry_space_group_name_H-M   'P 1'
_cell_length_a   7.43454327
_cell_length_b   7.43454327
_cell_length_c   7.82468901
_cell_angle_alpha   90.00000000
_cell_angle_beta   90.00000000
_cell_angle_gamma   90.00000000
_symmetry_Int_Tables_number   1
_chemical_formula_structural   Cu11PdN4
_chemical_formula_sum   'Cu22 Pd2 N8'
_cell_volume   432.48960367
_cell_formula_units_Z   2
loop_
 _symmetry_equiv_pos_site_id
 _symmetry_equiv_pos_as_xyz
  1  'x, y, z'
loop_
 _atom_site_type_symbol
 _atom_site_label
 _atom_site_symmetry_multiplicity
 _atom_site_fract_x
 _atom_site_fract_y
 _atom_site_fract_z
 _atom_site_occupancy
  N  N0  1  0.00000000  0.00000000  0.00000000  1.0
  N  N1  1  0.00000000  0.00000000  0.50000000  1.0
  N  N2  1  0.50000000  0.50000000  0.50000000  1.0
  N  N3  1  0.50000000  0.00000000  0.50000000  1.0
  N  N4  1  0.00000000  0.50000000  0.50000000  1.0
  N  N5  1  0.50000000  0.00000000  0.00000000  1.0
  N  N6  1  0.00000000  0.50000000  0.00000000  1.0
  N  N7  1  0.50000000  0.50000000  0.00000000  1.0
  Pd  Pd8  1  0.00000000  0.00000000  0.75204242  1.0
  Pd  Pd9  1  0.00000000  0.00000000  0.24795758  1.0
  Cu  Cu10  1  0.50000000  0.50000000  0.77046197  1.0
  Cu  Cu11  1  0.50000000  0.50000000  0.22953803  1.0
  Cu  Cu12  1  0.50000000  0.24685303  0.50000000  1.0
  Cu  Cu13  1  0.50000000  0.75314697  0.50000000  1.0
  Cu  Cu14  1  0.75314697  0.50000000  0.50000000  1.0
  Cu  Cu15  1  0.24685303  0.50000000  0.50000000  1.0
  Cu  Cu16  1  0.00000000  0.26286864  0.00000000  1.0
  Cu  Cu17  1  0.00000000  0.73713136  0.00000000  1.0
  Cu  Cu18  1  0.73713136  0.00000000  0.00000000  1.0
  Cu  Cu19  1  0.26286864  0.00000000  0.00000000  1.0
  Cu  Cu20  1  0.00000000  0.25526972  0.50000000  1.0
  Cu  Cu21  1  0.00000000  0.74473028  0.50000000  1.0
  Cu  Cu22  1  0.74473028  0.00000000  0.50000000  1.0
  Cu  Cu23  1  0.25526972  0.00000000  0.50000000  1.0
  Cu  Cu24  1  0.25555401  0.25555401  0.75905959  1.0
  Cu  Cu25  1  0.74444599  0.74444599  0.75905959  1.0
  Cu  Cu26  1  0.74444599  0.25555401  0.75905959  1.0
  Cu  Cu27  1  0.25555401  0.74444599  0.75905959  1.0
  Cu  Cu28  1  0.74444599  0.74444599  0.24094041  1.0
  Cu  Cu29  1  0.25555401  0.25555401  0.24094041  1.0
  Cu  Cu30  1  0.25555401  0.74444599  0.24094041  1.0
  Cu  Cu31  1  0.74444599  0.25555401  0.24094041  1.0
