# generated using pymatgen
data_Ba3Ge5
_symmetry_space_group_name_H-M   'P 1'
_cell_length_a   6.78300215
_cell_length_b   6.78300215
_cell_length_c   10.46081435
_cell_angle_alpha   90.00000000
_cell_angle_beta   90.00000000
_cell_angle_gamma   79.54930504
_symmetry_Int_Tables_number   1
_chemical_formula_structural   Ba3Ge5
_chemical_formula_sum   'Ba6 Ge10'
_cell_volume   473.30885113
_cell_formula_units_Z   2
loop_
 _symmetry_equiv_pos_site_id
 _symmetry_equiv_pos_as_xyz
  1  'x, y, z'
loop_
 _atom_site_type_symbol
 _atom_site_label
 _atom_site_symmetry_multiplicity
 _atom_site_fract_x
 _atom_site_fract_y
 _atom_site_fract_z
 _atom_site_occupancy
  Ba  Ba0  1  0.34528206  0.65471794  0.75000000  1.0
  Ba  Ba1  1  -0.34528206  1.34528206  0.25000000  1.0
  Ba  Ba2  1  0.79015656  0.79015656  0.00000000  1.0
  Ba  Ba3  1  0.79015656  0.79015656  0.50000000  1.0
  Ba  Ba4  1  0.20984344  0.20984344  0.00000000  1.0
  Ba  Ba5  1  0.20984344  0.20984344  0.50000000  1.0
  Ge  Ge6  1  -0.46595653  1.10583847  0.75000000  1.0
  Ge  Ge7  1  0.10583847  0.53404347  0.25000000  1.0
  Ge  Ge8  1  0.46595653  0.89416153  0.25000000  1.0
  Ge  Ge9  1  -0.10583847  1.46595653  0.75000000  1.0
  Ge  Ge10  1  -0.06977188  1.06977188  0.75000000  1.0
  Ge  Ge11  1  0.06977188  0.93022812  0.25000000  1.0
  Ge  Ge12  1  -0.29720910  1.29720910  0.92826257  1.0
  Ge  Ge13  1  0.29720910  0.70279090  0.07173743  1.0
  Ge  Ge14  1  -0.29720910  1.29720910  0.57173743  1.0
  Ge  Ge15  1  0.29720910  0.70279090  0.42826257  1.0
