# generated using pymatgen
data_Eu(ZnGe)2
_symmetry_space_group_name_H-M   'P 1'
_cell_length_a   4.34782627
_cell_length_b   4.34782627
_cell_length_c   10.55489840
_cell_angle_alpha   90.00000000
_cell_angle_beta   90.00000000
_cell_angle_gamma   90.00000000
_symmetry_Int_Tables_number   1
_chemical_formula_structural   Eu(ZnGe)2
_chemical_formula_sum   'Eu2 Zn4 Ge4'
_cell_volume   199.52550669
_cell_formula_units_Z   2
loop_
 _symmetry_equiv_pos_site_id
 _symmetry_equiv_pos_as_xyz
  1  'x, y, z'
loop_
 _atom_site_type_symbol
 _atom_site_label
 _atom_site_symmetry_multiplicity
 _atom_site_fract_x
 _atom_site_fract_y
 _atom_site_fract_z
 _atom_site_occupancy
  Eu  Eu0  1  0.50000000  0.00000000  0.75042588  1.0
  Eu  Eu1  1  0.00000000  0.50000000  0.24957412  1.0
  Zn  Zn2  1  0.50000000  0.00000000  0.13268902  1.0
  Zn  Zn3  1  0.00000000  0.50000000  0.86731098  1.0
  Zn  Zn4  1  0.00000000  0.00000000  0.50000000  1.0
  Zn  Zn5  1  0.50000000  0.50000000  0.50000000  1.0
  Ge  Ge6  1  0.50000000  0.00000000  0.36448296  1.0
  Ge  Ge7  1  0.00000000  0.50000000  0.63551704  1.0
  Ge  Ge8  1  0.00000000  0.00000000  0.00000000  1.0
  Ge  Ge9  1  0.50000000  0.50000000  0.00000000  1.0
