# generated using pymatgen
data_LiTi2O4
_symmetry_space_group_name_H-M   'P 1'
_cell_length_a   6.31325309
_cell_length_b   6.31325309
_cell_length_c   6.59990620
_cell_angle_alpha   73.92501853
_cell_angle_beta   106.07498147
_cell_angle_gamma   142.96413725
_symmetry_Int_Tables_number   1
_chemical_formula_structural   LiTi2O4
_chemical_formula_sum   'Li2 Ti4 O8'
_cell_volume   151.53522149
_cell_formula_units_Z   2
loop_
 _symmetry_equiv_pos_site_id
 _symmetry_equiv_pos_as_xyz
  1  'x, y, z'
loop_
 _atom_site_type_symbol
 _atom_site_label
 _atom_site_symmetry_multiplicity
 _atom_site_fract_x
 _atom_site_fract_y
 _atom_site_fract_z
 _atom_site_occupancy
  O  O0  1  0.93920836  -0.93920836  0.64006110  1.0
  O  O1  1  1.06079164  -0.06079164  0.35993890  1.0
  O  O2  1  0.85031878  -0.85031878  -0.00028497  1.0
  O  O3  1  1.14968122  -0.14968122  1.00028497  1.0
  O  O4  1  0.72606415  -0.72606415  0.34270537  1.0
  O  O5  1  1.27393585  -0.27393585  0.65729463  1.0
  O  O6  1  0.61430605  -0.61430605  0.67494513  1.0
  O  O7  1  1.38569395  -0.38569395  0.32505487  1.0
  Li  Li8  1  1.44156592  -0.44156592  0.64563643  1.0
  Li  Li9  1  0.55843408  -0.55843408  0.35436357  1.0
  Ti  Ti10  1  0.88637382  -0.88637382  0.29192434  1.0
  Ti  Ti11  1  1.11362618  -0.11362618  0.70807566  1.0
  Ti  Ti12  1  0.78969533  -0.78969533  0.71711928  1.0
  Ti  Ti13  1  1.21030467  -0.21030467  0.28288072  1.0
