# generated using pymatgen
data_K6InTe4Cl
_symmetry_space_group_name_H-M   'P 1'
_cell_length_a   11.47349719
_cell_length_b   11.47349719
_cell_length_c   8.20353584
_cell_angle_alpha   90.00000000
_cell_angle_beta   90.00000000
_cell_angle_gamma   120.00000000
_symmetry_Int_Tables_number   1
_chemical_formula_structural   K6InTe4Cl
_chemical_formula_sum   'K12 In2 Te8 Cl2'
_cell_volume   935.24057228
_cell_formula_units_Z   2
loop_
 _symmetry_equiv_pos_site_id
 _symmetry_equiv_pos_as_xyz
  1  'x, y, z'
loop_
 _atom_site_type_symbol
 _atom_site_label
 _atom_site_symmetry_multiplicity
 _atom_site_fract_x
 _atom_site_fract_y
 _atom_site_fract_z
 _atom_site_occupancy
  K  K0  1  0.75361144  0.87680572  0.26769108  1.0
  K  K1  1  0.87680572  0.75361144  0.76769108  1.0
  K  K2  1  0.87680572  0.12319428  0.76769108  1.0
  K  K3  1  0.12319428  0.87680572  0.26769108  1.0
  K  K4  1  0.12319428  0.24638856  0.26769108  1.0
  K  K5  1  0.24638856  0.12319428  0.76769108  1.0
  K  K6  1  0.95354876  0.47677438  0.45422612  1.0
  K  K7  1  0.47677438  0.95354876  0.95422612  1.0
  K  K8  1  0.47677438  0.52322562  0.95422612  1.0
  K  K9  1  0.52322562  0.47677438  0.45422612  1.0
  K  K10  1  0.52322562  0.04645124  0.45422612  1.0
  K  K11  1  0.04645124  0.52322562  0.95422612  1.0
  In  In12  1  0.33333333  0.66666667  0.56491838  1.0
  In  In13  1  0.66666667  0.33333333  0.06491838  1.0
  Te  Te14  1  0.39732764  0.19866382  0.17387382  1.0
  Te  Te15  1  0.19866382  0.39732764  0.67387382  1.0
  Te  Te16  1  0.19866382  0.80133618  0.67387382  1.0
  Te  Te17  1  0.80133618  0.19866382  0.17387382  1.0
  Te  Te18  1  0.80133618  0.60267236  0.17387382  1.0
  Te  Te19  1  0.60267236  0.80133618  0.67387382  1.0
  Te  Te20  1  0.33333333  0.66666667  0.22027879  1.0
  Te  Te21  1  0.66666667  0.33333333  0.72027879  1.0
  Cl  Cl22  1  0.00000000  0.00000000  0.00842976  1.0
  Cl  Cl23  1  0.00000000  0.00000000  0.50842976  1.0
