# generated using pymatgen
data_Rb2Be2Ni(O3F4)2
_symmetry_space_group_name_H-M   'P 1'
_cell_length_a   7.07327418
_cell_length_b   11.84271922
_cell_length_c   7.80069980
_cell_angle_alpha   90.00000000
_cell_angle_beta   107.30743169
_cell_angle_gamma   90.00000000
_symmetry_Int_Tables_number   1
_chemical_formula_structural   Rb2Be2Ni(O3F4)2
_chemical_formula_sum   'Rb4 Be4 Ni2 O12 F16'
_cell_volume   623.85336297
_cell_formula_units_Z   2
loop_
 _symmetry_equiv_pos_site_id
 _symmetry_equiv_pos_as_xyz
  1  'x, y, z'
loop_
 _atom_site_type_symbol
 _atom_site_label
 _atom_site_symmetry_multiplicity
 _atom_site_fract_x
 _atom_site_fract_y
 _atom_site_fract_z
 _atom_site_occupancy
  Rb  Rb0  1  0.65659612  0.14764571  0.40901566  1.0
  Rb  Rb1  1  0.65659612  0.35235429  0.90901566  1.0
  Rb  Rb2  1  0.34340388  0.64764571  0.09098434  1.0
  Rb  Rb3  1  0.34340388  0.85235429  0.59098434  1.0
  Be  Be4  1  0.75743280  0.84637097  0.42467916  1.0
  Be  Be5  1  0.75743280  0.65362903  0.92467916  1.0
  Be  Be6  1  0.24256720  0.34637097  0.07532084  1.0
  Be  Be7  1  0.24256720  0.15362903  0.57532084  1.0
  Ni  Ni8  1  0.00000000  0.00000000  0.00000000  1.0
  Ni  Ni9  1  0.00000000  0.50000000  0.50000000  1.0
  O  O10  1  0.80848459  0.89710756  0.00623908  1.0
  O  O11  1  0.80848459  0.60289244  0.50623908  1.0
  O  O12  1  0.19151541  0.39710756  0.49376092  1.0
  O  O13  1  0.19151541  0.10289244  0.99376092  1.0
  O  O14  1  0.03010496  0.56833825  0.30017534  1.0
  O  O15  1  0.03010496  0.93166175  0.80017534  1.0
  O  O16  1  0.96989504  0.06833825  0.19982466  1.0
  O  O17  1  0.96989504  0.43166175  0.69982466  1.0
  O  O18  1  0.21166831  0.91728618  0.10069654  1.0
  O  O19  1  0.21166831  0.58271382  0.60069654  1.0
  O  O20  1  0.78833169  0.41728618  0.39930346  1.0
  O  O21  1  0.78833169  0.08271382  0.89930346  1.0
  F  F22  1  0.55905149  0.78552892  0.35867903  1.0
  F  F23  1  0.55905149  0.71447108  0.85867903  1.0
  F  F24  1  0.44094851  0.28552892  0.14132097  1.0
  F  F25  1  0.44094851  0.21447108  0.64132097  1.0
  F  F26  1  0.77711966  0.93531826  0.27326781  1.0
  F  F27  1  0.77711966  0.56468174  0.77326781  1.0
  F  F28  1  0.22288034  0.43531826  0.22673219  1.0
  F  F29  1  0.22288034  0.06468174  0.72673219  1.0
  F  F30  1  0.74614622  0.57400844  0.08676016  1.0
  F  F31  1  0.74614622  0.92599156  0.58676016  1.0
  F  F32  1  0.25385378  0.07400844  0.41323984  1.0
  F  F33  1  0.25385378  0.42599156  0.91323984  1.0
  F  F34  1  0.94437860  0.76880771  0.47701641  1.0
  F  F35  1  0.94437860  0.73119229  0.97701641  1.0
  F  F36  1  0.05562140  0.26880771  0.02298359  1.0
  F  F37  1  0.05562140  0.23119229  0.52298359  1.0
