# generated using pymatgen
data_YFe3(BO3)4
_symmetry_space_group_name_H-M   'P 1'
_cell_length_a   6.12199613
_cell_length_b   6.12199613
_cell_length_c   6.12199613
_cell_angle_alpha   103.82886915
_cell_angle_beta   103.82886915
_cell_angle_gamma   103.82886915
_symmetry_Int_Tables_number   1
_chemical_formula_structural   YFe3(BO3)4
_chemical_formula_sum   'Y1 Fe3 B4 O12'
_cell_volume   205.38785440
_cell_formula_units_Z   1
loop_
 _symmetry_equiv_pos_site_id
 _symmetry_equiv_pos_as_xyz
  1  'x, y, z'
loop_
 _atom_site_type_symbol
 _atom_site_label
 _atom_site_symmetry_multiplicity
 _atom_site_fract_x
 _atom_site_fract_y
 _atom_site_fract_z
 _atom_site_occupancy
  Y  Y0  1  0.50000000  0.50000000  0.50000000  1.0
  Fe  Fe1  1  1.04808633  0.50000000  -0.04808633  1.0
  Fe  Fe2  1  0.50000000  0.95191367  0.04808633  1.0
  Fe  Fe3  1  0.95191367  0.04808633  0.50000000  1.0
  B  B4  1  0.44963585  1.00000000  -0.44963585  1.0
  B  B5  1  1.00000000  0.55036415  -0.55036415  1.0
  B  B6  1  0.55036415  0.44963585  -0.00000000  1.0
  B  B7  1  0.00000000  0.00000000  0.00000000  1.0
  O  O8  1  1.47034401  0.86645434  -0.29701852  1.0
  O  O9  1  1.29701852  0.13354566  -0.47034401  1.0
  O  O10  1  1.13354566  -0.47034401  0.29701852  1.0
  O  O11  1  0.52965599  0.29701852  0.13354566  1.0
  O  O12  1  0.70298148  1.47034401  -0.13354566  1.0
  O  O13  1  0.86645434  0.70298148  0.47034401  1.0
  O  O14  1  0.85672072  -0.00000000  0.14327928  1.0
  O  O15  1  1.00000000  0.14327928  -0.14327928  1.0
  O  O16  1  1.14327928  -0.14327928  -0.00000000  1.0
  O  O17  1  0.59252314  1.00000000  -0.59252314  1.0
  O  O18  1  1.00000000  0.40747686  -0.40747686  1.0
  O  O19  1  0.40747686  0.59252314  -0.00000000  1.0
