# generated using pymatgen
data_BaNiO2
_symmetry_space_group_name_H-M   'P 1'
_cell_length_a   5.47818524
_cell_length_b   5.47818524
_cell_length_c   4.82551312
_cell_angle_alpha   90.00000000
_cell_angle_beta   90.00000000
_cell_angle_gamma   116.60277908
_symmetry_Int_Tables_number   1
_chemical_formula_structural   BaNiO2
_chemical_formula_sum   'Ba2 Ni2 O4'
_cell_volume   129.48480793
_cell_formula_units_Z   2
loop_
 _symmetry_equiv_pos_site_id
 _symmetry_equiv_pos_as_xyz
  1  'x, y, z'
loop_
 _atom_site_type_symbol
 _atom_site_label
 _atom_site_symmetry_multiplicity
 _atom_site_fract_x
 _atom_site_fract_y
 _atom_site_fract_z
 _atom_site_occupancy
  Ba  Ba0  1  0.34466663  0.65533337  0.25000000  1.0
  Ba  Ba1  1  -0.34466663  1.34466663  0.75000000  1.0
  Ni  Ni2  1  0.00000000  0.00000000  0.50000000  1.0
  Ni  Ni3  1  0.00000000  0.00000000  0.00000000  1.0
  O  O4  1  -0.13983634  1.70099289  0.25000000  1.0
  O  O5  1  0.70099289  0.86016366  0.75000000  1.0
  O  O6  1  -0.70099289  1.13983634  0.25000000  1.0
  O  O7  1  0.13983634  0.29900711  0.75000000  1.0
