# generated using pymatgen
data_BePH3O5
_symmetry_space_group_name_H-M   'P 1'
_cell_length_a   8.60008426
_cell_length_b   8.72993582
_cell_length_c   5.03481224
_cell_angle_alpha   90.00000000
_cell_angle_beta   90.00000000
_cell_angle_gamma   90.00000000
_symmetry_Int_Tables_number   1
_chemical_formula_structural   BePH3O5
_chemical_formula_sum   'Be4 P4 H12 O20'
_cell_volume   378.00455786
_cell_formula_units_Z   4
loop_
 _symmetry_equiv_pos_site_id
 _symmetry_equiv_pos_as_xyz
  1  'x, y, z'
loop_
 _atom_site_type_symbol
 _atom_site_label
 _atom_site_symmetry_multiplicity
 _atom_site_fract_x
 _atom_site_fract_y
 _atom_site_fract_z
 _atom_site_occupancy
  Be  Be0  1  0.17752599  0.08984082  0.43907948  1.0
  Be  Be1  1  0.67752599  0.41015918  0.43907948  1.0
  Be  Be2  1  0.82247401  0.91015918  0.93907948  1.0
  Be  Be3  1  0.32247401  0.58984082  0.93907948  1.0
  P  P4  1  0.31169340  0.41395559  0.44367596  1.0
  P  P5  1  0.81169340  0.08604441  0.44367596  1.0
  P  P6  1  0.68830660  0.58604441  0.94367596  1.0
  P  P7  1  0.18830660  0.91395559  0.94367596  1.0
  H  H8  1  0.49926527  0.74006796  0.20157012  1.0
  H  H9  1  0.99926527  0.75993204  0.20157012  1.0
  H  H10  1  0.50073473  0.25993204  0.70157012  1.0
  H  H11  1  0.00073473  0.24006796  0.70157012  1.0
  H  H12  1  0.39735640  0.89317106  0.29137962  1.0
  H  H13  1  0.89735640  0.60682894  0.29137962  1.0
  H  H14  1  0.60264360  0.10682894  0.79137962  1.0
  H  H15  1  0.10264360  0.39317106  0.79137962  1.0
  H  H16  1  0.39741612  0.11036702  0.79703386  1.0
  H  H17  1  0.89741612  0.38963298  0.79703386  1.0
  H  H18  1  0.60258388  0.88963298  0.29703386  1.0
  H  H19  1  0.10258388  0.61036702  0.29703386  1.0
  O  O20  1  0.49968690  0.82908875  0.32909788  1.0
  O  O21  1  0.99968690  0.67091125  0.32909788  1.0
  O  O22  1  0.50031310  0.17091125  0.82909788  1.0
  O  O23  1  0.00031310  0.32908875  0.82909788  1.0
  O  O24  1  0.48968469  0.40131499  0.46287300  1.0
  O  O25  1  0.98968469  0.09868501  0.46287300  1.0
  O  O26  1  0.51031531  0.59868501  0.96287300  1.0
  O  O27  1  0.01031531  0.90131499  0.96287300  1.0
  O  O28  1  0.25812314  0.53749199  0.23800343  1.0
  O  O29  1  0.75812314  -0.03749199  0.23800343  1.0
  O  O30  1  0.74187686  0.46250801  0.73800343  1.0
  O  O31  1  0.24187686  1.03749199  0.73800343  1.0
  O  O32  1  0.23924583  0.25944290  0.37705828  1.0
  O  O33  1  0.73924583  0.24055710  0.37705828  1.0
  O  O34  1  0.76075417  0.74055710  -0.12294172  1.0
  O  O35  1  0.26075417  0.75944290  -0.12294172  1.0
  O  O36  1  0.25014459  -0.03324434  0.22432837  1.0
  O  O37  1  0.75014459  0.53324434  0.22432837  1.0
  O  O38  1  0.74985541  1.03324434  0.72432837  1.0
  O  O39  1  0.24985541  0.46675566  0.72432837  1.0
