# generated using pymatgen
data_Cs2KCo(CN)6
_symmetry_space_group_name_H-M   'P 1'
_cell_length_a   7.78102416
_cell_length_b   8.14938662
_cell_length_c   13.59564445
_cell_angle_alpha   90.00000000
_cell_angle_beta   124.61963178
_cell_angle_gamma   90.00000000
_symmetry_Int_Tables_number   1
_chemical_formula_structural   Cs2KCo(CN)6
_chemical_formula_sum   'Cs4 K2 Co2 C12 N12'
_cell_volume   709.46435775
_cell_formula_units_Z   2
loop_
 _symmetry_equiv_pos_site_id
 _symmetry_equiv_pos_as_xyz
  1  'x, y, z'
loop_
 _atom_site_type_symbol
 _atom_site_label
 _atom_site_symmetry_multiplicity
 _atom_site_fract_x
 _atom_site_fract_y
 _atom_site_fract_z
 _atom_site_occupancy
  Cs  Cs0  1  0.72986888  0.56158967  0.74891949  1.0
  Cs  Cs1  1  0.72986888  0.93841033  0.24891949  1.0
  Cs  Cs2  1  0.27013112  0.43841033  0.25108051  1.0
  Cs  Cs3  1  0.27013112  0.06158967  0.75108051  1.0
  K  K4  1  0.50000000  0.50000000  0.00000000  1.0
  K  K5  1  0.50000000  0.00000000  0.50000000  1.0
  Co  Co6  1  -0.00000000  0.50000000  0.50000000  1.0
  Co  Co7  1  0.00000000  0.00000000  0.00000000  1.0
  C  C8  1  0.08978425  0.47674612  0.65981268  1.0
  C  C9  1  0.08978425  0.02325388  0.15981268  1.0
  C  C10  1  0.91021575  0.52325388  0.34018732  1.0
  C  C11  1  0.91021575  0.97674612  0.84018732  1.0
  C  C12  1  0.22727858  0.37305132  0.53120682  1.0
  C  C13  1  0.22727858  0.12694868  0.03120682  1.0
  C  C14  1  0.77272142  0.62694868  0.46879318  1.0
  C  C15  1  0.77272142  0.87305132  0.96879318  1.0
  C  C16  1  0.83624807  0.30961343  0.45941907  1.0
  C  C17  1  0.83624807  0.19038657  0.95941907  1.0
  C  C18  1  0.16375193  0.69038657  0.54058093  1.0
  C  C19  1  0.16375193  0.80961343  0.04058093  1.0
  N  N20  1  0.14511498  0.45929739  0.75942365  1.0
  N  N21  1  0.14511498  0.04070261  0.25942365  1.0
  N  N22  1  0.85488502  0.54070261  0.24057635  1.0
  N  N23  1  0.85488502  0.95929739  0.74057635  1.0
  N  N24  1  0.37183103  0.29535882  0.55275395  1.0
  N  N25  1  0.37183103  0.20464118  0.05275395  1.0
  N  N26  1  0.62816897  0.70464118  0.44724605  1.0
  N  N27  1  0.62816897  0.79535882  0.94724605  1.0
  N  N28  1  0.73224641  0.19172569  0.43337345  1.0
  N  N29  1  0.73224641  0.30827431  0.93337345  1.0
  N  N30  1  0.26775359  0.80827431  0.56662655  1.0
  N  N31  1  0.26775359  0.69172569  0.06662655  1.0
