# generated using pymatgen
data_BN
_symmetry_space_group_name_H-M   'P 1'
_cell_length_a   4.50458363
_cell_length_b   2.50854569
_cell_length_c   4.14074936
_cell_angle_alpha   81.28615412
_cell_angle_beta   33.39853406
_cell_angle_gamma   65.31531183
_symmetry_Int_Tables_number   1
_chemical_formula_structural   BN
_chemical_formula_sum   'B1 N1'
_cell_volume   21.50758659
_cell_formula_units_Z   1
loop_
 _symmetry_equiv_pos_site_id
 _symmetry_equiv_pos_as_xyz
  1  'x, y, z'
loop_
 _atom_site_type_symbol
 _atom_site_label
 _atom_site_symmetry_multiplicity
 _atom_site_fract_x
 _atom_site_fract_y
 _atom_site_fract_z
 _atom_site_occupancy
  B  B0  1  0.00018571  0.00018571  -0.00018571  1.0
  N  N1  1  0.66681429  0.66681429  -0.66681429  1.0
