# generated using pymatgen
data_NaGdTiO4
_symmetry_space_group_name_H-M   'P 1'
_cell_length_a   12.67085881
_cell_length_b   5.41297307
_cell_length_c   5.30556300
_cell_angle_alpha   90.00000000
_cell_angle_beta   90.00000000
_cell_angle_gamma   90.00000000
_symmetry_Int_Tables_number   1
_chemical_formula_structural   NaGdTiO4
_chemical_formula_sum   'Na4 Gd4 Ti4 O16'
_cell_volume   363.89274251
_cell_formula_units_Z   4
loop_
 _symmetry_equiv_pos_site_id
 _symmetry_equiv_pos_as_xyz
  1  'x, y, z'
loop_
 _atom_site_type_symbol
 _atom_site_label
 _atom_site_symmetry_multiplicity
 _atom_site_fract_x
 _atom_site_fract_y
 _atom_site_fract_z
 _atom_site_occupancy
  Na  Na0  1  0.91404474  0.49880871  0.75000000  1.0
  Na  Na1  1  0.91404474  0.00119129  0.25000000  1.0
  Na  Na2  1  0.08595526  0.99880871  0.75000000  1.0
  Na  Na3  1  0.08595526  0.50119129  0.25000000  1.0
  Gd  Gd4  1  0.39321356  0.97836524  0.75000000  1.0
  Gd  Gd5  1  0.39321356  0.52163476  0.25000000  1.0
  Gd  Gd6  1  0.60678644  0.47836524  0.75000000  1.0
  Gd  Gd7  1  0.60678644  0.02163476  0.25000000  1.0
  Ti  Ti8  1  0.76593200  0.99274016  0.75000000  1.0
  Ti  Ti9  1  0.76593200  0.50725984  0.25000000  1.0
  Ti  Ti10  1  0.23406800  0.49274016  0.75000000  1.0
  Ti  Ti11  1  0.23406800  0.00725984  0.25000000  1.0
  O  O12  1  0.90336349  0.95984582  0.75000000  1.0
  O  O13  1  0.90336349  0.54015418  0.25000000  1.0
  O  O14  1  0.09663651  0.45984582  0.75000000  1.0
  O  O15  1  0.09663651  0.04015418  0.25000000  1.0
  O  O16  1  0.43439952  0.56290818  0.75000000  1.0
  O  O17  1  0.43439952  0.93709182  0.25000000  1.0
  O  O18  1  0.56560048  0.06290818  0.75000000  1.0
  O  O19  1  0.56560048  0.43709182  0.25000000  1.0
  O  O20  1  0.71705564  0.75000000  0.00000000  1.0
  O  O21  1  0.71705564  0.75000000  0.50000000  1.0
  O  O22  1  0.28294436  0.25000000  0.00000000  1.0
  O  O23  1  0.28294436  0.25000000  0.50000000  1.0
  O  O24  1  0.25627712  0.75000000  0.00000000  1.0
  O  O25  1  0.25627712  0.75000000  0.50000000  1.0
  O  O26  1  0.74372288  0.25000000  0.00000000  1.0
  O  O27  1  0.74372288  0.25000000  0.50000000  1.0
