# generated using pymatgen
data_Zr3Cu8
_symmetry_space_group_name_H-M   'P 1'
_cell_length_a   7.88917421
_cell_length_b   8.19598558
_cell_length_c   10.00287341
_cell_angle_alpha   90.00000000
_cell_angle_beta   90.00000000
_cell_angle_gamma   90.00000000
_symmetry_Int_Tables_number   1
_chemical_formula_structural   Zr3Cu8
_chemical_formula_sum   'Zr12 Cu32'
_cell_volume   646.78137411
_cell_formula_units_Z   4
loop_
 _symmetry_equiv_pos_site_id
 _symmetry_equiv_pos_as_xyz
  1  'x, y, z'
loop_
 _atom_site_type_symbol
 _atom_site_label
 _atom_site_symmetry_multiplicity
 _atom_site_fract_x
 _atom_site_fract_y
 _atom_site_fract_z
 _atom_site_occupancy
  Zr  Zr0  1  0.43863695  0.44732586  0.64029294  1.0
  Zr  Zr1  1  0.43863695  0.05267414  0.64029294  1.0
  Zr  Zr2  1  0.93863695  0.44732586  0.85970706  1.0
  Zr  Zr3  1  0.93863695  0.05267414  0.85970706  1.0
  Zr  Zr4  1  0.56136305  0.94732586  0.35970706  1.0
  Zr  Zr5  1  0.56136305  0.55267414  0.35970706  1.0
  Zr  Zr6  1  0.06136305  0.94732586  0.14029294  1.0
  Zr  Zr7  1  0.06136305  0.55267414  0.14029294  1.0
  Zr  Zr8  1  0.46176589  0.75000000  0.04720466  1.0
  Zr  Zr9  1  0.96176589  0.75000000  0.45279534  1.0
  Zr  Zr10  1  0.53823411  0.25000000  0.95279534  1.0
  Zr  Zr11  1  0.03823411  0.25000000  0.54720466  1.0
  Cu  Cu12  1  0.30129355  0.49994274  0.90669416  1.0
  Cu  Cu13  1  0.30129355  0.00005726  0.90669416  1.0
  Cu  Cu14  1  0.80129355  0.49994274  0.59330584  1.0
  Cu  Cu15  1  0.80129355  0.00005726  0.59330584  1.0
  Cu  Cu16  1  0.69870645  0.99994274  0.09330584  1.0
  Cu  Cu17  1  0.69870645  0.50005726  0.09330584  1.0
  Cu  Cu18  1  0.19870645  0.99994274  0.40669416  1.0
  Cu  Cu19  1  0.19870645  0.50005726  0.40669416  1.0
  Cu  Cu20  1  0.12160984  0.92218838  0.65968674  1.0
  Cu  Cu21  1  0.12160984  0.57781162  0.65968674  1.0
  Cu  Cu22  1  0.62160984  0.92218838  0.84031326  1.0
  Cu  Cu23  1  0.62160984  0.57781162  0.84031326  1.0
  Cu  Cu24  1  0.87839016  0.42218838  0.34031326  1.0
  Cu  Cu25  1  0.87839016  0.07781162  0.34031326  1.0
  Cu  Cu26  1  0.37839016  0.42218838  0.15968674  1.0
  Cu  Cu27  1  0.37839016  0.07781162  0.15968674  1.0
  Cu  Cu28  1  0.36983603  0.75000000  0.76566915  1.0
  Cu  Cu29  1  0.86983603  0.75000000  0.73433085  1.0
  Cu  Cu30  1  0.63016397  0.25000000  0.23433085  1.0
  Cu  Cu31  1  0.13016397  0.25000000  0.26566915  1.0
  Cu  Cu32  1  0.32317601  0.75000000  0.51703261  1.0
  Cu  Cu33  1  0.82317601  0.75000000  0.98296739  1.0
  Cu  Cu34  1  0.67682399  0.25000000  0.48296739  1.0
  Cu  Cu35  1  0.17682399  0.25000000  0.01703261  1.0
  Cu  Cu36  1  0.28334692  0.75000000  0.27388844  1.0
  Cu  Cu37  1  0.78334692  0.75000000  0.22611156  1.0
  Cu  Cu38  1  0.71665308  0.25000000  0.72611156  1.0
  Cu  Cu39  1  0.21665308  0.25000000  0.77388844  1.0
  Cu  Cu40  1  0.11641562  0.75000000  0.90165535  1.0
  Cu  Cu41  1  0.61641562  0.75000000  0.59834465  1.0
  Cu  Cu42  1  0.88358438  0.25000000  0.09834465  1.0
  Cu  Cu43  1  0.38358438  0.25000000  0.40165535  1.0
