# generated using pymatgen
data_CaSi2(BO4)2
_symmetry_space_group_name_H-M   'P 1'
_cell_length_a   7.11750911
_cell_length_b   5.71407486
_cell_length_c   5.72524240
_cell_angle_alpha   95.98626795
_cell_angle_beta   103.70094668
_cell_angle_gamma   90.91123001
_symmetry_Int_Tables_number   1
_chemical_formula_structural   CaSi2(BO4)2
_chemical_formula_sum   'Ca2 Si4 B4 O16'
_cell_volume   224.78758151
_cell_formula_units_Z   2
loop_
 _symmetry_equiv_pos_site_id
 _symmetry_equiv_pos_as_xyz
  1  'x, y, z'
loop_
 _atom_site_type_symbol
 _atom_site_label
 _atom_site_symmetry_multiplicity
 _atom_site_fract_x
 _atom_site_fract_y
 _atom_site_fract_z
 _atom_site_occupancy
  Ca  Ca0  1  -0.78691078  -0.91746222  -0.18348732  1.0
  Ca  Ca1  1  -0.21308922  -0.08253778  -0.81651268  1.0
  Si  Si2  1  -0.51368165  -0.31305319  -0.32756468  1.0
  Si  Si3  1  -0.48631835  -0.68694681  -0.67243532  1.0
  Si  Si4  1  -0.84375982  -0.56566883  -0.59691515  1.0
  Si  Si5  1  -0.15624018  -0.43433117  -0.40308485  1.0
  B  B6  1  -0.22428053  -0.61814858  -0.97355300  1.0
  B  B7  1  -0.77571947  -0.38185142  -0.02644700  1.0
  B  B8  1  -0.76710449  -0.05589816  -0.70356032  1.0
  B  B9  1  -0.23289551  -0.94410184  -0.29643968  1.0
  O  O10  1  -0.41055882  -0.04171648  -0.26003499  1.0
  O  O11  1  -0.58944118  -0.95828352  -0.73996501  1.0
  O  O12  1  -0.73646773  -0.23868352  -0.52107436  1.0
  O  O13  1  -0.26353227  -0.76131648  -0.47892564  1.0
  O  O14  1  -0.60456010  -0.30143958  -0.08188948  1.0
  O  O15  1  -0.39543990  -0.69856042  -0.91811052  1.0
  O  O16  1  -0.60691588  -0.61119436  -0.42827419  1.0
  O  O17  1  -0.39308412  -0.38880564  -0.57172581  1.0
  O  O18  1  -0.12296401  -0.81120677  -0.06584063  1.0
  O  O19  1  -0.87703599  -0.18879323  -0.93415937  1.0
  O  O20  1  -0.11035952  -0.12932198  -0.37953681  1.0
  O  O21  1  -0.88964048  -0.87067802  -0.62046319  1.0
  O  O22  1  -0.08214231  -0.49087682  -0.70930680  1.0
  O  O23  1  -0.91785769  -0.50912318  -0.29069320  1.0
  O  O24  1  -0.74509048  -0.57113924  -0.86026760  1.0
  O  O25  1  -0.25490952  -0.42886076  -0.13973240  1.0
