# generated using pymatgen
data_KLiSi2O5
_symmetry_space_group_name_H-M   'P 1'
_cell_length_a   6.07791734
_cell_length_b   4.87664714
_cell_length_c   8.33193798
_cell_angle_alpha   90.00000000
_cell_angle_beta   93.87980288
_cell_angle_gamma   90.00000000
_symmetry_Int_Tables_number   1
_chemical_formula_structural   KLiSi2O5
_chemical_formula_sum   'K2 Li2 Si4 O10'
_cell_volume   246.39148101
_cell_formula_units_Z   2
loop_
 _symmetry_equiv_pos_site_id
 _symmetry_equiv_pos_as_xyz
  1  'x, y, z'
loop_
 _atom_site_type_symbol
 _atom_site_label
 _atom_site_symmetry_multiplicity
 _atom_site_fract_x
 _atom_site_fract_y
 _atom_site_fract_z
 _atom_site_occupancy
  K  K0  1  0.52360190  0.49108116  0.68676593  1.0
  K  K1  1  0.47639810  0.99108116  0.31323407  1.0
  Li  Li2  1  0.37132432  0.00779704  0.90619546  1.0
  Li  Li3  1  0.62867568  0.50779704  0.09380454  1.0
  Si  Si4  1  0.94124705  0.44098025  0.39327577  1.0
  Si  Si5  1  0.05875295  0.94098025  0.60672423  1.0
  Si  Si6  1  0.87002241  0.03291216  0.93403760  1.0
  Si  Si7  1  0.12997759  0.53291216  0.06596240  1.0
  O  O8  1  0.98091982  0.11317301  0.44123246  1.0
  O  O9  1  0.01908018  0.61317301  0.55876754  1.0
  O  O10  1  0.90642451  0.71421996  1.00507299  1.0
  O  O11  1  0.09357549  0.21421996  -0.00507299  1.0
  O  O12  1  0.86896815  0.00958651  0.73632399  1.0
  O  O13  1  0.13103185  0.50958651  0.26367601  1.0
  O  O14  1  0.64610386  0.16294768  0.98618727  1.0
  O  O15  1  0.35389614  0.66294768  0.01381273  1.0
  O  O16  1  0.30679641  -0.00379778  0.67392642  1.0
  O  O17  1  0.69320359  0.49620222  0.32607358  1.0
