# generated using pymatgen
data_N2
_symmetry_space_group_name_H-M   'P 1'
_cell_length_a   2.16456917
_cell_length_b   6.98812475
_cell_length_c   3.43595420
_cell_angle_alpha   90.00000000
_cell_angle_beta   90.00000000
_cell_angle_gamma   90.00000000
_symmetry_Int_Tables_number   1
_chemical_formula_structural   N2
_chemical_formula_sum   N4
_cell_volume   51.97320326
_cell_formula_units_Z   2
loop_
 _symmetry_equiv_pos_site_id
 _symmetry_equiv_pos_as_xyz
  1  'x, y, z'
loop_
 _atom_site_type_symbol
 _atom_site_label
 _atom_site_symmetry_multiplicity
 _atom_site_fract_x
 _atom_site_fract_y
 _atom_site_fract_z
 _atom_site_occupancy
  N  N0  1  0.52034802  0.25000000  0.85484188  1.0
  N  N1  1  0.02034802  0.25000000  0.64515812  1.0
  N  N2  1  0.47965198  0.75000000  0.14515812  1.0
  N  N3  1  0.97965198  0.75000000  0.35484188  1.0
