# generated using pymatgen
data_Cu2GeSe3
_symmetry_space_group_name_H-M   'P 1'
_cell_length_a   6.89144433
_cell_length_b   6.89144433
_cell_length_c   6.91456097
_cell_angle_alpha   80.53926411
_cell_angle_beta   99.46073589
_cell_angle_gamma   59.72922740
_symmetry_Int_Tables_number   1
_chemical_formula_structural   Cu2GeSe3
_chemical_formula_sum   'Cu4 Ge2 Se6'
_cell_volume   267.71468863
_cell_formula_units_Z   2
loop_
 _symmetry_equiv_pos_site_id
 _symmetry_equiv_pos_as_xyz
  1  'x, y, z'
loop_
 _atom_site_type_symbol
 _atom_site_label
 _atom_site_symmetry_multiplicity
 _atom_site_fract_x
 _atom_site_fract_y
 _atom_site_fract_z
 _atom_site_occupancy
  Cu  Cu0  1  1.52663827  0.30632830  0.35463307  1.0
  Cu  Cu1  1  0.69367170  0.47336173  0.85463307  1.0
  Cu  Cu2  1  1.37174139  0.12421302  0.85749095  1.0
  Cu  Cu3  1  0.87578698  0.62825861  0.35749095  1.0
  Ge  Ge4  1  1.22040043  -0.04583791  0.37378902  1.0
  Ge  Ge5  1  1.04583791  0.77959957  0.87378902  1.0
  Se  Se6  1  0.59166579  0.57888172  0.48420887  1.0
  Se  Se7  1  1.42111828  0.40833421  -0.01579113  1.0
  Se  Se8  1  1.90363465  -0.07525721  0.48453804  1.0
  Se  Se9  1  1.07525721  0.09636535  0.98453804  1.0
  Se  Se10  1  1.24740949  0.25516211  0.48834005  1.0
  Se  Se11  1  1.74483789  -0.24740949  0.98834005  1.0
