# generated using pymatgen
data_CaMn3V4O12
_symmetry_space_group_name_H-M   'P 1'
_cell_length_a   6.42365727
_cell_length_b   6.42365727
_cell_length_c   6.42365727
_cell_angle_alpha   109.47122063
_cell_angle_beta   109.47122063
_cell_angle_gamma   109.47122063
_symmetry_Int_Tables_number   1
_chemical_formula_structural   CaMn3V4O12
_chemical_formula_sum   'Ca1 Mn3 V4 O12'
_cell_volume   204.04464073
_cell_formula_units_Z   1
loop_
 _symmetry_equiv_pos_site_id
 _symmetry_equiv_pos_as_xyz
  1  'x, y, z'
loop_
 _atom_site_type_symbol
 _atom_site_label
 _atom_site_symmetry_multiplicity
 _atom_site_fract_x
 _atom_site_fract_y
 _atom_site_fract_z
 _atom_site_occupancy
  Ca  Ca0  1  0.00000000  0.00000000  0.00000000  1.0
  Mn  Mn1  1  0.50000000  0.50000000  -0.00000000  1.0
  Mn  Mn2  1  -0.00000000  0.50000000  0.50000000  1.0
  Mn  Mn3  1  0.50000000  0.00000000  0.50000000  1.0
  V  V4  1  0.50000000  1.00000000  1.00000000  1.0
  V  V5  1  0.50000000  0.50000000  0.50000000  1.0
  V  V6  1  1.00000000  1.00000000  0.50000000  1.0
  V  V7  1  1.00000000  0.50000000  1.00000000  1.0
  O  O8  1  0.81928060  1.30604597  1.12532657  1.0
  O  O9  1  0.81928060  0.69395403  0.51323463  1.0
  O  O10  1  0.18071940  0.30604597  0.48676537  1.0
  O  O11  1  0.18071940  0.69395403  0.87467343  1.0
  O  O12  1  0.51323463  0.81928060  0.69395403  1.0
  O  O13  1  1.12532657  0.81928060  1.30604597  1.0
  O  O14  1  0.69395403  0.87467343  0.18071940  1.0
  O  O15  1  0.69395403  0.51323463  0.81928060  1.0
  O  O16  1  0.87467343  0.18071940  0.69395403  1.0
  O  O17  1  0.48676537  0.18071940  0.30604597  1.0
  O  O18  1  0.30604597  0.48676537  0.18071940  1.0
  O  O19  1  1.30604597  1.12532657  0.81928060  1.0
