# generated using pymatgen
data_Na2MgSiO4
_symmetry_space_group_name_H-M   'P 1'
_cell_length_a   5.34088015
_cell_length_b   5.57344004
_cell_length_c   8.83173621
_cell_angle_alpha   90.00000000
_cell_angle_beta   127.02633824
_cell_angle_gamma   90.00000000
_symmetry_Int_Tables_number   1
_chemical_formula_structural   Na2MgSiO4
_chemical_formula_sum   'Na4 Mg2 Si2 O8'
_cell_volume   209.88449626
_cell_formula_units_Z   2
loop_
 _symmetry_equiv_pos_site_id
 _symmetry_equiv_pos_as_xyz
  1  'x, y, z'
loop_
 _atom_site_type_symbol
 _atom_site_label
 _atom_site_symmetry_multiplicity
 _atom_site_fract_x
 _atom_site_fract_y
 _atom_site_fract_z
 _atom_site_occupancy
  Na  Na0  1  0.24668914  0.33356227  0.30857156  1.0
  Na  Na1  1  0.24668914  0.66643773  0.80857156  1.0
  Na  Na2  1  0.49879318  0.18257044  0.06392509  1.0
  Na  Na3  1  0.49879318  0.81742956  0.56392509  1.0
  Mg  Mg4  1  0.98307559  0.81389306  0.05794433  1.0
  Mg  Mg5  1  0.98307559  0.18610694  0.55794433  1.0
  Si  Si6  1  0.73204365  0.68785443  0.31066232  1.0
  Si  Si7  1  0.73204365  0.31214557  0.81066232  1.0
  O  O8  1  0.00172996  0.84600889  0.50107518  1.0
  O  O9  1  0.00172996  0.15399111  0.00107518  1.0
  O  O10  1  0.39572838  0.71386669  0.28000147  1.0
  O  O11  1  0.39572838  0.28613331  0.78000147  1.0
  O  O12  1  0.68428314  0.78904900  0.11864875  1.0
  O  O13  1  0.68428314  0.21095100  0.61864875  1.0
  O  O14  1  0.83635697  0.40101985  0.34197129  1.0
  O  O15  1  0.83635697  0.59898015  0.84197129  1.0
