# generated using pymatgen
data_AgO
_symmetry_space_group_name_H-M   'P 1'
_cell_length_a   6.79371795
_cell_length_b   6.79371795
_cell_length_c   6.79371795
_cell_angle_alpha   118.83088162
_cell_angle_beta   118.83088162
_cell_angle_gamma   92.03718862
_symmetry_Int_Tables_number   1
_chemical_formula_structural   AgO
_chemical_formula_sum   'Ag8 O8'
_cell_volume   225.48523701
_cell_formula_units_Z   8
loop_
 _symmetry_equiv_pos_site_id
 _symmetry_equiv_pos_as_xyz
  1  'x, y, z'
loop_
 _atom_site_type_symbol
 _atom_site_label
 _atom_site_symmetry_multiplicity
 _atom_site_fract_x
 _atom_site_fract_y
 _atom_site_fract_z
 _atom_site_occupancy
  Ag  Ag0  1  0.37500000  1.12500000  0.75000000  1.0
  Ag  Ag1  1  0.37500000  0.62500000  0.25000000  1.0
  Ag  Ag2  1  0.87500000  0.62500000  1.25000000  1.0
  Ag  Ag3  1  1.37500000  0.62500000  0.75000000  1.0
  Ag  Ag4  1  0.87500000  1.62500000  0.75000000  1.0
  Ag  Ag5  1  0.87500000  1.12500000  1.25000000  1.0
  Ag  Ag6  1  0.37500000  0.12500000  0.25000000  1.0
  Ag  Ag7  1  0.87500000  0.12500000  0.75000000  1.0
  O  O8  1  0.17091745  0.84057448  0.84464940  1.0
  O  O9  1  0.99592509  0.32626805  1.15535060  1.0
  O  O10  1  0.59057448  1.24592509  1.16965703  1.0
  O  O11  1  1.07626805  1.42091745  0.83034297  1.0
  O  O12  1  1.57908255  1.40942552  1.65535060  1.0
  O  O13  1  0.75407491  0.92373195  0.34464940  1.0
  O  O14  1  1.15942552  1.00407491  1.33034297  1.0
  O  O15  1  1.67373195  1.82908255  1.66965703  1.0
