# generated using pymatgen
data_KPtS2O9
_symmetry_space_group_name_H-M   'P 1'
_cell_length_a   7.81886551
_cell_length_b   7.85079043
_cell_length_c   8.00099951
_cell_angle_alpha   102.92190268
_cell_angle_beta   121.42859385
_cell_angle_gamma   101.22991361
_symmetry_Int_Tables_number   1
_chemical_formula_structural   KPtS2O9
_chemical_formula_sum   'K2 Pt2 S4 O18'
_cell_volume   378.76547733
_cell_formula_units_Z   2
loop_
 _symmetry_equiv_pos_site_id
 _symmetry_equiv_pos_as_xyz
  1  'x, y, z'
loop_
 _atom_site_type_symbol
 _atom_site_label
 _atom_site_symmetry_multiplicity
 _atom_site_fract_x
 _atom_site_fract_y
 _atom_site_fract_z
 _atom_site_occupancy
  Pt  Pt0  1  0.33969573  0.51595275  0.34678615  1.0
  Pt  Pt1  1  0.66030427  0.48404725  0.65321385  1.0
  O  O2  1  0.12501462  0.96253258  0.32009831  1.0
  O  O3  1  0.87498538  0.03746742  0.67990169  1.0
  O  O4  1  0.19798721  0.35245396  0.66469531  1.0
  O  O5  1  0.80201279  0.64754604  0.33530469  1.0
  O  O6  1  0.15693722  0.24685103  0.25167839  1.0
  O  O7  1  0.84306278  0.75314897  0.74832161  1.0
  O  O8  1  0.24993121  0.60277596  0.53521497  1.0
  O  O9  1  0.75006879  0.39722404  0.46478503  1.0
  O  O10  1  0.33864590  0.04500507  0.18386301  1.0
  O  O11  1  0.66135410  0.95499493  0.81613699  1.0
  O  O12  1  0.47495194  0.21453348  0.55555831  1.0
  O  O13  1  0.52504806  0.78546652  0.44444169  1.0
  O  O14  1  0.43088054  0.42709171  0.16023897  1.0
  O  O15  1  0.56911946  0.57290829  0.83976103  1.0
  O  O16  1  0.67471239  0.30806422  0.11847559  1.0
  O  O17  1  0.32528761  0.69193578  0.88152441  1.0
  O  O18  1  0.06250047  0.56444297  0.09222697  1.0
  O  O19  1  0.93749953  0.43555703  0.90777303  1.0
  S  S20  1  0.27169697  0.10636019  0.31790355  1.0
  S  S21  1  0.72830303  0.89363981  0.68209645  1.0
  S  S22  1  0.67394962  0.45261761  0.26759093  1.0
  S  S23  1  0.32605038  0.54738239  0.73240907  1.0
  K  K24  1  0.26638449  0.01711625  0.75578098  1.0
  K  K25  1  0.73361551  0.98288375  0.24421902  1.0
