# generated using pymatgen
data_Fe2CuS3
_symmetry_space_group_name_H-M   'P 1'
_cell_length_a   6.00160158
_cell_length_b   9.93340266
_cell_length_c   6.26401235
_cell_angle_alpha   90.00000000
_cell_angle_beta   90.00000000
_cell_angle_gamma   90.00000000
_symmetry_Int_Tables_number   1
_chemical_formula_structural   Fe2CuS3
_chemical_formula_sum   'Fe8 Cu4 S12'
_cell_volume   373.43739671
_cell_formula_units_Z   4
loop_
 _symmetry_equiv_pos_site_id
 _symmetry_equiv_pos_as_xyz
  1  'x, y, z'
loop_
 _atom_site_type_symbol
 _atom_site_label
 _atom_site_symmetry_multiplicity
 _atom_site_fract_x
 _atom_site_fract_y
 _atom_site_fract_z
 _atom_site_occupancy
  Fe  Fe0  1  0.36468276  0.40280958  0.04853138  1.0
  Fe  Fe1  1  0.36468276  0.09719042  0.04853138  1.0
  Fe  Fe2  1  0.86468276  0.40280958  0.45146862  1.0
  Fe  Fe3  1  0.86468276  0.09719042  0.45146862  1.0
  Fe  Fe4  1  0.63531724  0.90280958  0.95146862  1.0
  Fe  Fe5  1  0.63531724  0.59719042  0.95146862  1.0
  Fe  Fe6  1  0.13531724  0.90280958  0.54853138  1.0
  Fe  Fe7  1  0.13531724  0.59719042  0.54853138  1.0
  Cu  Cu8  1  0.26249703  0.25000000  0.55797862  1.0
  Cu  Cu9  1  0.76249703  0.25000000  0.94202138  1.0
  Cu  Cu10  1  0.73750297  0.75000000  0.44202138  1.0
  Cu  Cu11  1  0.23750297  0.75000000  0.05797862  1.0
  S  S12  1  0.29843250  0.93082907  0.84377186  1.0
  S  S13  1  0.29843250  0.56917093  0.84377186  1.0
  S  S14  1  0.79843250  0.93082907  0.65622814  1.0
  S  S15  1  0.79843250  0.56917093  0.65622814  1.0
  S  S16  1  0.70156750  0.43082907  0.15622814  1.0
  S  S17  1  0.70156750  0.06917093  0.15622814  1.0
  S  S18  1  0.20156750  0.43082907  0.34377186  1.0
  S  S19  1  0.20156750  0.06917093  0.34377186  1.0
  S  S20  1  0.15044102  0.25000000  0.90589928  1.0
  S  S21  1  0.65044102  0.25000000  0.59410072  1.0
  S  S22  1  0.84955898  0.75000000  0.09410072  1.0
  S  S23  1  0.34955898  0.75000000  0.40589928  1.0
