# generated using pymatgen
data_C4SBr4
_symmetry_space_group_name_H-M   'P 1'
_cell_length_a   13.59345994
_cell_length_b   4.60225477
_cell_length_c   17.43201716
_cell_angle_alpha   90.00000000
_cell_angle_beta   90.00000000
_cell_angle_gamma   90.00000000
_symmetry_Int_Tables_number   1
_chemical_formula_structural   C4SBr4
_chemical_formula_sum   'C16 S4 Br16'
_cell_volume   1090.55685662
_cell_formula_units_Z   4
loop_
 _symmetry_equiv_pos_site_id
 _symmetry_equiv_pos_as_xyz
  1  'x, y, z'
loop_
 _atom_site_type_symbol
 _atom_site_label
 _atom_site_symmetry_multiplicity
 _atom_site_fract_x
 _atom_site_fract_y
 _atom_site_fract_z
 _atom_site_occupancy
  C  C0  1  0.33328757  0.17774893  0.11371254  1.0
  C  C1  1  0.83328757  0.82225107  0.11371254  1.0
  C  C2  1  0.66671243  0.82225107  0.61371254  1.0
  C  C3  1  0.16671243  0.17774893  0.61371254  1.0
  C  C4  1  0.33457302  0.18846061  0.25570442  1.0
  C  C5  1  0.83457302  0.81153939  0.25570442  1.0
  C  C6  1  0.66542698  0.81153939  0.75570442  1.0
  C  C7  1  0.16542698  0.18846061  0.75570442  1.0
  C  C8  1  0.24753517  0.28896268  0.14350452  1.0
  C  C9  1  0.74753517  0.71103732  0.14350452  1.0
  C  C10  1  0.75246483  0.71103732  0.64350452  1.0
  C  C11  1  0.25246483  0.28896268  0.64350452  1.0
  C  C12  1  0.24826597  0.29509110  0.22573420  1.0
  C  C13  1  0.74826597  0.70490890  0.22573420  1.0
  C  C14  1  0.75173403  0.70490890  0.72573420  1.0
  C  C15  1  0.25173403  0.29509110  0.72573420  1.0
  S  S16  1  0.41534896  0.07882142  0.18481353  1.0
  S  S17  1  0.91534896  0.92117858  0.18481353  1.0
  S  S18  1  0.58465104  0.92117858  0.68481353  1.0
  S  S19  1  0.08465104  0.07882142  0.68481353  1.0
  Br  Br20  1  0.36996998  0.15500287  0.35926173  1.0
  Br  Br21  1  0.86996998  0.84499713  0.35926173  1.0
  Br  Br22  1  0.63003002  0.84499713  0.85926173  1.0
  Br  Br23  1  0.13003002  0.15500287  0.85926173  1.0
  Br  Br24  1  0.36692847  0.12964688  0.01020888  1.0
  Br  Br25  1  0.86692847  0.87035312  0.01020888  1.0
  Br  Br26  1  0.63307153  0.87035312  0.51020888  1.0
  Br  Br27  1  0.13307153  0.12964688  0.51020888  1.0
  Br  Br28  1  0.14147915  0.42072015  0.08333693  1.0
  Br  Br29  1  0.64147915  0.57927985  0.08333693  1.0
  Br  Br30  1  0.85852085  0.57927985  0.58333693  1.0
  Br  Br31  1  0.35852085  0.42072015  0.58333693  1.0
  Br  Br32  1  0.14317037  0.43449289  0.28572324  1.0
  Br  Br33  1  0.64317037  0.56550711  0.28572324  1.0
  Br  Br34  1  0.85682963  0.56550711  0.78572324  1.0
  Br  Br35  1  0.35682963  0.43449289  0.78572324  1.0
