# generated using pymatgen
data_Li2CN2
_symmetry_space_group_name_H-M   'P 1'
_cell_length_a   5.08257740
_cell_length_b   5.08257740
_cell_length_c   5.08257740
_cell_angle_alpha   137.34491249
_cell_angle_beta   137.34491249
_cell_angle_gamma   61.90779156
_symmetry_Int_Tables_number   1
_chemical_formula_structural   Li2CN2
_chemical_formula_sum   'Li2 C1 N2'
_cell_volume   59.57606038
_cell_formula_units_Z   1
loop_
 _symmetry_equiv_pos_site_id
 _symmetry_equiv_pos_as_xyz
  1  'x, y, z'
loop_
 _atom_site_type_symbol
 _atom_site_label
 _atom_site_symmetry_multiplicity
 _atom_site_fract_x
 _atom_site_fract_y
 _atom_site_fract_z
 _atom_site_occupancy
  Li  Li0  1  0.25000000  0.75000000  0.50000000  1.0
  Li  Li1  1  0.75000000  0.25000000  0.50000000  1.0
  C  C2  1  0.00000000  0.00000000  0.00000000  1.0
  N  N3  1  0.85823063  0.85823063  1.00000000  1.0
  N  N4  1  0.14176937  0.14176937  0.00000000  1.0
