# generated using pymatgen
data_ScNbO4
_symmetry_space_group_name_H-M   'P 1'
_cell_length_a   4.84708395
_cell_length_b   5.75404813
_cell_length_c   5.12904738
_cell_angle_alpha   90.00000000
_cell_angle_beta   91.01461205
_cell_angle_gamma   90.00000000
_symmetry_Int_Tables_number   1
_chemical_formula_structural   ScNbO4
_chemical_formula_sum   'Sc2 Nb2 O8'
_cell_volume   143.02852040
_cell_formula_units_Z   2
loop_
 _symmetry_equiv_pos_site_id
 _symmetry_equiv_pos_as_xyz
  1  'x, y, z'
loop_
 _atom_site_type_symbol
 _atom_site_label
 _atom_site_symmetry_multiplicity
 _atom_site_fract_x
 _atom_site_fract_y
 _atom_site_fract_z
 _atom_site_occupancy
  Sc  Sc0  1  0.00000000  0.81867145  0.25000000  1.0
  Sc  Sc1  1  -0.00000000  0.18132855  0.75000000  1.0
  Nb  Nb2  1  0.50000000  0.31762450  0.25000000  1.0
  Nb  Nb3  1  0.50000000  0.68237550  0.75000000  1.0
  O  O4  1  0.76426053  0.88329170  0.90629060  1.0
  O  O5  1  0.76426053  0.11670830  0.40629060  1.0
  O  O6  1  0.23573947  0.88329170  0.59370940  1.0
  O  O7  1  0.23573947  0.11670830  0.09370940  1.0
  O  O8  1  0.71779523  0.60795923  0.43642804  1.0
  O  O9  1  0.71779523  0.39204077  0.93642804  1.0
  O  O10  1  0.28220477  0.60795923  0.06357196  1.0
  O  O11  1  0.28220477  0.39204077  0.56357196  1.0
