# generated using pymatgen
data_LaPPt
_symmetry_space_group_name_H-M   'P 1'
_cell_length_a   8.23528776
_cell_length_b   4.23865982
_cell_length_c   7.33717365
_cell_angle_alpha   90.00000000
_cell_angle_beta   90.00000000
_cell_angle_gamma   90.00000000
_symmetry_Int_Tables_number   1
_chemical_formula_structural   LaPPt
_chemical_formula_sum   'La4 P4 Pt4'
_cell_volume   256.11566376
_cell_formula_units_Z   4
loop_
 _symmetry_equiv_pos_site_id
 _symmetry_equiv_pos_as_xyz
  1  'x, y, z'
loop_
 _atom_site_type_symbol
 _atom_site_label
 _atom_site_symmetry_multiplicity
 _atom_site_fract_x
 _atom_site_fract_y
 _atom_site_fract_z
 _atom_site_occupancy
  La  La0  1  0.99998665  0.75000000  0.75002304  1.0
  La  La1  1  0.49998665  0.75000000  0.74997696  1.0
  La  La2  1  0.00001335  0.25000000  0.24997696  1.0
  La  La3  1  0.50001335  0.25000000  0.25002304  1.0
  P  P4  1  0.74993546  0.75000000  0.08357577  1.0
  P  P5  1  0.24993546  0.75000000  0.41642423  1.0
  P  P6  1  0.25006454  0.25000000  0.91642423  1.0
  P  P7  1  0.75006454  0.25000000  0.58357577  1.0
  Pt  Pt8  1  0.74997779  0.75000000  0.41703250  1.0
  Pt  Pt9  1  0.24997779  0.75000000  0.08296750  1.0
  Pt  Pt10  1  0.25002221  0.25000000  0.58296750  1.0
  Pt  Pt11  1  0.75002221  0.25000000  0.91703250  1.0
