# generated using pymatgen
data_YB2Rh5
_symmetry_space_group_name_H-M   'P 1'
_cell_length_a   2.93678005
_cell_length_b   8.88575682
_cell_length_c   5.16747956
_cell_angle_alpha   90.00000000
_cell_angle_beta   106.52923799
_cell_angle_gamma   90.00000000
_symmetry_Int_Tables_number   1
_chemical_formula_structural   YB2Rh5
_chemical_formula_sum   'Y1 B2 Rh5'
_cell_volume   129.27539357
_cell_formula_units_Z   1
loop_
 _symmetry_equiv_pos_site_id
 _symmetry_equiv_pos_as_xyz
  1  'x, y, z'
loop_
 _atom_site_type_symbol
 _atom_site_label
 _atom_site_symmetry_multiplicity
 _atom_site_fract_x
 _atom_site_fract_y
 _atom_site_fract_z
 _atom_site_occupancy
  Y  Y0  1  0.50000000  0.50000000  -0.00000000  1.0
  B  B1  1  0.50000000  0.17844993  -0.00000000  1.0
  B  B2  1  0.50000000  0.82155007  -0.00000000  1.0
  Rh  Rh3  1  -0.13899682  0.26575622  0.72217074  1.0
  Rh  Rh4  1  -0.13899682  0.73424378  0.72217074  1.0
  Rh  Rh5  1  0.13899682  0.26575622  0.27782926  1.0
  Rh  Rh6  1  0.13899682  0.73424378  0.27782926  1.0
  Rh  Rh7  1  0.00000000  0.00000000  0.00000000  1.0
