# generated using pymatgen
data_NaSmTiO4
_symmetry_space_group_name_H-M   'P 1'
_cell_length_a   12.83977244
_cell_length_b   5.38748626
_cell_length_c   5.30945426
_cell_angle_alpha   90.00000000
_cell_angle_beta   90.00000000
_cell_angle_gamma   90.00000000
_symmetry_Int_Tables_number   1
_chemical_formula_structural   NaSmTiO4
_chemical_formula_sum   'Na4 Sm4 Ti4 O16'
_cell_volume   367.27670670
_cell_formula_units_Z   4
loop_
 _symmetry_equiv_pos_site_id
 _symmetry_equiv_pos_as_xyz
  1  'x, y, z'
loop_
 _atom_site_type_symbol
 _atom_site_label
 _atom_site_symmetry_multiplicity
 _atom_site_fract_x
 _atom_site_fract_y
 _atom_site_fract_z
 _atom_site_occupancy
  Sm  Sm0  1  0.39286151  0.48103042  0.75000000  1.0
  Sm  Sm1  1  0.39286151  0.01896958  0.25000000  1.0
  Sm  Sm2  1  0.60713849  0.98103042  0.75000000  1.0
  Sm  Sm3  1  0.60713849  0.51896958  0.25000000  1.0
  O  O4  1  0.43253666  0.05254317  0.75000000  1.0
  O  O5  1  0.43253666  0.44745683  0.25000000  1.0
  O  O6  1  0.56746334  0.55254317  0.75000000  1.0
  O  O7  1  0.56746334  0.94745683  0.25000000  1.0
  O  O8  1  0.72242238  0.25000000  0.00000000  1.0
  O  O9  1  0.72242238  0.25000000  0.50000000  1.0
  O  O10  1  0.27757762  0.75000000  0.00000000  1.0
  O  O11  1  0.27757762  0.75000000  0.50000000  1.0
  O  O12  1  0.25701424  0.25000000  0.00000000  1.0
  O  O13  1  0.25701424  0.25000000  0.50000000  1.0
  O  O14  1  0.74298576  0.75000000  0.00000000  1.0
  O  O15  1  0.74298576  0.75000000  0.50000000  1.0
  O  O16  1  0.90445560  0.46845742  0.75000000  1.0
  O  O17  1  0.90445560  0.03154258  0.25000000  1.0
  O  O18  1  0.09554440  0.96845742  0.75000000  1.0
  O  O19  1  0.09554440  0.53154258  0.25000000  1.0
  Ti  Ti20  1  0.76840134  0.49346645  0.75000000  1.0
  Ti  Ti21  1  0.76840134  0.00653355  0.25000000  1.0
  Ti  Ti22  1  0.23159866  -0.00653355  0.75000000  1.0
  Ti  Ti23  1  0.23159866  0.50653355  0.25000000  1.0
  Na  Na24  1  0.91489886  -0.00137839  0.75000000  1.0
  Na  Na25  1  0.91489886  0.50137839  0.25000000  1.0
  Na  Na26  1  0.08510114  0.49862161  0.75000000  1.0
  Na  Na27  1  0.08510114  1.00137839  0.25000000  1.0
