# generated using pymatgen
data_P3Pb5O13
_symmetry_space_group_name_H-M   'P 1'
_cell_length_a   9.89686242
_cell_length_b   9.89686242
_cell_length_c   7.31987831
_cell_angle_alpha   90.00000000
_cell_angle_beta   90.00000000
_cell_angle_gamma   120.00000000
_symmetry_Int_Tables_number   1
_chemical_formula_structural   P3Pb5O13
_chemical_formula_sum   'P6 Pb10 O26'
_cell_volume   620.91129341
_cell_formula_units_Z   2
loop_
 _symmetry_equiv_pos_site_id
 _symmetry_equiv_pos_as_xyz
  1  'x, y, z'
loop_
 _atom_site_type_symbol
 _atom_site_label
 _atom_site_symmetry_multiplicity
 _atom_site_fract_x
 _atom_site_fract_y
 _atom_site_fract_z
 _atom_site_occupancy
  O  O0  1  0.27116898  0.91650387  0.42086448  1.0
  O  O1  1  0.27116898  0.91650387  0.07913552  1.0
  O  O2  1  0.91650387  0.64533489  0.92086448  1.0
  O  O3  1  0.91650387  0.64533489  0.57913552  1.0
  O  O4  1  0.64533489  0.72883102  0.42086448  1.0
  O  O5  1  0.64533489  0.72883102  0.07913552  1.0
  O  O6  1  0.08349613  0.35466511  0.42086448  1.0
  O  O7  1  0.08349613  0.35466511  0.07913552  1.0
  O  O8  1  0.72883102  0.08349613  0.92086448  1.0
  O  O9  1  0.72883102  0.08349613  0.57913552  1.0
  O  O10  1  0.35466511  0.27116898  0.92086448  1.0
  O  O11  1  0.35466511  0.27116898  0.57913552  1.0
  O  O12  1  0.48631013  0.89911536  0.25000000  1.0
  O  O13  1  0.89911536  0.41280522  0.75000000  1.0
  O  O14  1  0.41280522  0.51368987  0.25000000  1.0
  O  O15  1  0.10088464  0.58719478  0.25000000  1.0
  O  O16  1  0.51368987  0.10088464  0.75000000  1.0
  O  O17  1  0.58719478  0.48631013  0.75000000  1.0
  O  O18  1  0.67591972  0.51831098  0.25000000  1.0
  O  O19  1  0.51831098  0.84239126  0.75000000  1.0
  O  O20  1  0.84239126  0.32408028  0.25000000  1.0
  O  O21  1  0.48168902  0.15760874  0.25000000  1.0
  O  O22  1  0.32408028  0.48168902  0.75000000  1.0
  O  O23  1  0.15760874  0.67591972  0.75000000  1.0
  O  O24  1  0.00000000  0.00000000  0.50000000  1.0
  O  O25  1  0.00000000  0.00000000  0.00000000  1.0
  Pb  Pb26  1  0.00958101  0.78022012  0.25000000  1.0
  Pb  Pb27  1  0.78022012  0.77063911  0.75000000  1.0
  Pb  Pb28  1  0.77063911  0.99041899  0.25000000  1.0
  Pb  Pb29  1  0.21977988  0.22936089  0.25000000  1.0
  Pb  Pb30  1  0.99041899  0.21977988  0.75000000  1.0
  Pb  Pb31  1  0.22936089  0.00958101  0.75000000  1.0
  Pb  Pb32  1  0.33333333  0.66666667  0.50172815  1.0
  Pb  Pb33  1  0.33333333  0.66666667  0.99827185  1.0
  Pb  Pb34  1  0.66666667  0.33333333  0.00172815  1.0
  Pb  Pb35  1  0.66666667  0.33333333  0.49827185  1.0
  P  P36  1  0.38124896  0.97636776  0.25000000  1.0
  P  P37  1  0.97636776  0.59511880  0.75000000  1.0
  P  P38  1  0.59511880  0.61875104  0.25000000  1.0
  P  P39  1  0.02363224  0.40488120  0.25000000  1.0
  P  P40  1  0.61875104  0.02363224  0.75000000  1.0
  P  P41  1  0.40488120  0.38124896  0.75000000  1.0
