# generated using pymatgen
data_Ta3Ga2
_symmetry_space_group_name_H-M   'P 1'
_cell_length_a   6.89946461
_cell_length_b   6.89946461
_cell_length_c   3.51248275
_cell_angle_alpha   90.00000000
_cell_angle_beta   90.00000000
_cell_angle_gamma   90.00000000
_symmetry_Int_Tables_number   1
_chemical_formula_structural   Ta3Ga2
_chemical_formula_sum   'Ta6 Ga4'
_cell_volume   167.20335322
_cell_formula_units_Z   2
loop_
 _symmetry_equiv_pos_site_id
 _symmetry_equiv_pos_as_xyz
  1  'x, y, z'
loop_
 _atom_site_type_symbol
 _atom_site_label
 _atom_site_symmetry_multiplicity
 _atom_site_fract_x
 _atom_site_fract_y
 _atom_site_fract_z
 _atom_site_occupancy
  Ta  Ta0  1  0.32472849  0.17527151  0.50000000  1.0
  Ta  Ta1  1  0.82472849  0.32472849  0.50000000  1.0
  Ta  Ta2  1  0.67527151  0.82472849  0.50000000  1.0
  Ta  Ta3  1  0.17527151  0.67527151  0.50000000  1.0
  Ta  Ta4  1  0.50000000  0.50000000  0.00000000  1.0
  Ta  Ta5  1  0.00000000  0.00000000  0.00000000  1.0
  Ga  Ga6  1  0.87386703  0.62613297  0.00000000  1.0
  Ga  Ga7  1  0.37386703  0.87386703  0.00000000  1.0
  Ga  Ga8  1  0.12613297  0.37386703  0.00000000  1.0
  Ga  Ga9  1  0.62613297  0.12613297  0.00000000  1.0
