# generated using pymatgen
data_Hf(VGa2)2
_symmetry_space_group_name_H-M   'P 1'
_cell_length_a   5.25131616
_cell_length_b   5.25131616
_cell_length_c   5.25131616
_cell_angle_alpha   104.14282661
_cell_angle_beta   104.14282661
_cell_angle_gamma   120.75180910
_symmetry_Int_Tables_number   1
_chemical_formula_structural   Hf(VGa2)2
_chemical_formula_sum   'Hf1 V2 Ga4'
_cell_volume   108.18278996
_cell_formula_units_Z   1
loop_
 _symmetry_equiv_pos_site_id
 _symmetry_equiv_pos_as_xyz
  1  'x, y, z'
loop_
 _atom_site_type_symbol
 _atom_site_label
 _atom_site_symmetry_multiplicity
 _atom_site_fract_x
 _atom_site_fract_y
 _atom_site_fract_z
 _atom_site_occupancy
  Hf  Hf0  1  0.00000000  0.00000000  0.00000000  1.0
  V  V1  1  0.25000000  0.75000000  0.50000000  1.0
  V  V2  1  0.75000000  1.25000000  0.50000000  1.0
  Ga  Ga3  1  0.69760854  0.69760854  0.39521708  1.0
  Ga  Ga4  1  1.30239146  0.69760854  1.00000000  1.0
  Ga  Ga5  1  0.69760854  0.30239146  1.00000000  1.0
  Ga  Ga6  1  0.30239146  0.30239146  0.60478292  1.0
