# generated using pymatgen
data_K2LiAlH6
_symmetry_space_group_name_H-M   'P 1'
_cell_length_a   5.53617831
_cell_length_b   5.53617831
_cell_length_c   5.53617831
_cell_angle_alpha   60.00000000
_cell_angle_beta   60.00000000
_cell_angle_gamma   60.00000000
_symmetry_Int_Tables_number   1
_chemical_formula_structural   K2LiAlH6
_chemical_formula_sum   'K2 Li1 Al1 H6'
_cell_volume   119.98175485
_cell_formula_units_Z   1
loop_
 _symmetry_equiv_pos_site_id
 _symmetry_equiv_pos_as_xyz
  1  'x, y, z'
loop_
 _atom_site_type_symbol
 _atom_site_label
 _atom_site_symmetry_multiplicity
 _atom_site_fract_x
 _atom_site_fract_y
 _atom_site_fract_z
 _atom_site_occupancy
  K  K0  1  0.75000000  0.75000000  -0.25000000  1.0
  K  K1  1  1.25000000  0.25000000  0.25000000  1.0
  Li  Li2  1  -0.50000000  0.50000000  0.50000000  1.0
  Al  Al3  1  0.00000000  0.00000000  0.00000000  1.0
  H  H4  1  -0.77142095  0.77142095  0.77142095  1.0
  H  H5  1  -0.22857905  0.22857905  0.77142095  1.0
  H  H6  1  0.77142095  0.77142095  -0.77142095  1.0
  H  H7  1  0.22857905  1.22857905  -0.22857905  1.0
  H  H8  1  0.22857905  -0.22857905  1.22857905  1.0
  H  H9  1  -0.22857905  0.22857905  0.22857905  1.0
