# generated using pymatgen
data_Ba3ScCO3F7
_symmetry_space_group_name_H-M   'P 1'
_cell_length_a   8.94236619
_cell_length_b   8.94236619
_cell_length_c   6.08712588
_cell_angle_alpha   90.00000000
_cell_angle_beta   90.00000000
_cell_angle_gamma   98.92361436
_symmetry_Int_Tables_number   1
_chemical_formula_structural   Ba3ScCO3F7
_chemical_formula_sum   'Ba6 Sc2 C2 O6 F14'
_cell_volume   480.87081377
_cell_formula_units_Z   2
loop_
 _symmetry_equiv_pos_site_id
 _symmetry_equiv_pos_as_xyz
  1  'x, y, z'
loop_
 _atom_site_type_symbol
 _atom_site_label
 _atom_site_symmetry_multiplicity
 _atom_site_fract_x
 _atom_site_fract_y
 _atom_site_fract_z
 _atom_site_occupancy
  Ba  Ba0  1  -0.15576426  1.60284071  0.25000000  1.0
  Ba  Ba1  1  0.60284071  0.84423574  0.75000000  1.0
  Ba  Ba2  1  -0.60284071  1.15576426  0.25000000  1.0
  Ba  Ba3  1  0.15576426  0.39715929  0.75000000  1.0
  Ba  Ba4  1  -0.09384221  1.09384221  0.25000000  1.0
  Ba  Ba5  1  0.09384221  0.90615779  0.75000000  1.0
  Sc  Sc6  1  0.26831628  0.73168372  0.25000000  1.0
  Sc  Sc7  1  -0.26831628  1.26831628  0.75000000  1.0
  C  C8  1  0.46207122  0.53792878  0.25000000  1.0
  C  C9  1  -0.46207122  1.46207122  0.75000000  1.0
  O  O10  1  0.31538809  0.49349610  0.25000000  1.0
  O  O11  1  -0.50650390  1.31538809  0.75000000  1.0
  O  O12  1  0.50650390  0.68461191  0.25000000  1.0
  O  O13  1  -0.31538809  1.50650390  0.75000000  1.0
  O  O14  1  -0.44414849  1.44414849  0.25000000  1.0
  O  O15  1  0.44414849  0.55585151  0.75000000  1.0
  F  F16  1  0.11680999  0.64167160  0.49450287  1.0
  F  F17  1  0.11680999  0.64167160  0.00549713  1.0
  F  F18  1  -0.35832840  1.11680999  0.99450287  1.0
  F  F19  1  -0.35832840  1.11680999  0.50549713  1.0
  F  F20  1  0.35832840  0.88319001  0.49450287  1.0
  F  F21  1  0.35832840  0.88319001  0.00549713  1.0
  F  F22  1  -0.11680999  1.35832840  0.99450287  1.0
  F  F23  1  -0.11680999  1.35832840  0.50549713  1.0
  F  F24  1  0.83849415  0.83849415  0.50000000  1.0
  F  F25  1  0.83849415  0.83849415  0.00000000  1.0
  F  F26  1  0.16150585  0.16150585  0.50000000  1.0
  F  F27  1  0.16150585  0.16150585  0.00000000  1.0
  F  F28  1  0.11387081  0.88612919  0.25000000  1.0
  F  F29  1  -0.11387081  1.11387081  0.75000000  1.0
