# generated using pymatgen
data_LiC2N3
_symmetry_space_group_name_H-M   'P 1'
_cell_length_a   5.36987990
_cell_length_b   5.33135003
_cell_length_c   11.67473928
_cell_angle_alpha   90.00000000
_cell_angle_beta   101.62433904
_cell_angle_gamma   90.00000000
_symmetry_Int_Tables_number   1
_chemical_formula_structural   LiC2N3
_chemical_formula_sum   'Li4 C8 N12'
_cell_volume   327.37751922
_cell_formula_units_Z   4
loop_
 _symmetry_equiv_pos_site_id
 _symmetry_equiv_pos_as_xyz
  1  'x, y, z'
loop_
 _atom_site_type_symbol
 _atom_site_label
 _atom_site_symmetry_multiplicity
 _atom_site_fract_x
 _atom_site_fract_y
 _atom_site_fract_z
 _atom_site_occupancy
  Li  Li0  1  0.00000000  0.90909772  0.25000000  1.0
  Li  Li1  1  -0.00000000  0.09090228  0.75000000  1.0
  Li  Li2  1  -0.00000000  0.00000000  0.50000000  1.0
  Li  Li3  1  0.00000000  0.00000000  0.00000000  1.0
  C  C4  1  0.75179758  0.50732816  0.38278306  1.0
  C  C5  1  0.75179758  0.49267184  0.88278306  1.0
  C  C6  1  0.24820242  0.50732816  0.11721694  1.0
  C  C7  1  0.24820242  0.49267184  0.61721694  1.0
  C  C8  1  0.44756977  0.79536377  0.88921710  1.0
  C  C9  1  0.44756977  0.20463623  0.38921710  1.0
  C  C10  1  0.55243023  0.79536377  0.61078290  1.0
  C  C11  1  0.55243023  0.20463623  0.11078290  1.0
  N  N12  1  0.84112568  0.70126217  0.36437485  1.0
  N  N13  1  0.84112568  0.29873783  0.86437485  1.0
  N  N14  1  0.15887432  0.70126217  0.13562515  1.0
  N  N15  1  0.15887432  0.29873783  0.63562515  1.0
  N  N16  1  0.75409185  0.89080620  0.62359320  1.0
  N  N17  1  0.75409185  0.10919380  0.12359320  1.0
  N  N18  1  0.24590815  0.89080620  0.87640680  1.0
  N  N19  1  0.24590815  0.10919380  0.37640680  1.0
  N  N20  1  0.67965180  0.71421898  0.90849082  1.0
  N  N21  1  0.67965180  0.28578102  0.40849082  1.0
  N  N22  1  0.32034820  0.71421898  0.59150918  1.0
  N  N23  1  0.32034820  0.28578102  0.09150918  1.0
