# generated using pymatgen
data_NaHSO4
_symmetry_space_group_name_H-M   'P 1'
_cell_length_a   5.17814810
_cell_length_b   7.74421009
_cell_length_c   9.50494483
_cell_angle_alpha   90.00000000
_cell_angle_beta   112.71968989
_cell_angle_gamma   90.00000000
_symmetry_Int_Tables_number   1
_chemical_formula_structural   NaHSO4
_chemical_formula_sum   'Na4 H4 S4 O16'
_cell_volume   351.57909074
_cell_formula_units_Z   4
loop_
 _symmetry_equiv_pos_site_id
 _symmetry_equiv_pos_as_xyz
  1  'x, y, z'
loop_
 _atom_site_type_symbol
 _atom_site_label
 _atom_site_symmetry_multiplicity
 _atom_site_fract_x
 _atom_site_fract_y
 _atom_site_fract_z
 _atom_site_occupancy
  Na  Na0  1  0.01014680  0.99632247  0.29646356  1.0
  Na  Na1  1  0.01014680  0.50367753  0.79646356  1.0
  Na  Na2  1  0.98985320  0.00367753  0.70353644  1.0
  Na  Na3  1  0.98985320  0.49632247  0.20353644  1.0
  H  H4  1  0.39159705  0.03927552  0.11937737  1.0
  H  H5  1  0.39159705  0.46072448  0.61937737  1.0
  H  H6  1  0.60840295  0.96072448  0.88062263  1.0
  H  H7  1  0.60840295  0.53927552  0.38062263  1.0
  S  S8  1  0.40549847  0.77663847  0.06056506  1.0
  S  S9  1  0.40549847  0.72336153  0.56056506  1.0
  S  S10  1  0.59450153  0.22336153  0.93943494  1.0
  S  S11  1  0.59450153  0.27663847  0.43943494  1.0
  O  O12  1  0.70078438  0.75384024  0.16303386  1.0
  O  O13  1  0.70078438  0.74615976  0.66303386  1.0
  O  O14  1  0.29921562  0.24615976  0.83696614  1.0
  O  O15  1  0.29921562  0.25384024  0.33696614  1.0
  O  O16  1  0.37346918  0.83116783  0.90472150  1.0
  O  O17  1  0.37346918  0.66883217  0.40472150  1.0
  O  O18  1  0.62653082  0.16883217  0.09527850  1.0
  O  O19  1  0.62653082  0.33116783  0.59527850  1.0
  O  O20  1  0.28573254  0.93270106  0.12870276  1.0
  O  O21  1  0.28573254  0.56729894  0.62870276  1.0
  O  O22  1  0.71426746  0.06729894  0.87129724  1.0
  O  O23  1  0.71426746  0.43270106  0.37129724  1.0
  O  O24  1  0.22494119  0.62950812  0.05537418  1.0
  O  O25  1  0.22494119  0.87049188  0.55537418  1.0
  O  O26  1  0.77505881  0.37049188  0.94462582  1.0
  O  O27  1  0.77505881  0.12950812  0.44462582  1.0
