# generated using pymatgen
data_Sr3Co2(ClO2)2
_symmetry_space_group_name_H-M   'P 1'
_cell_length_a   11.98485464
_cell_length_b   11.98485464
_cell_length_c   11.98485464
_cell_angle_alpha   161.16543745
_cell_angle_beta   161.16858887
_cell_angle_gamma   26.75659484
_symmetry_Int_Tables_number   1
_chemical_formula_structural   Sr3Co2(ClO2)2
_chemical_formula_sum   'Sr3 Co2 Cl2 O4'
_cell_volume   179.32040002
_cell_formula_units_Z   1
loop_
 _symmetry_equiv_pos_site_id
 _symmetry_equiv_pos_as_xyz
  1  'x, y, z'
loop_
 _atom_site_type_symbol
 _atom_site_label
 _atom_site_symmetry_multiplicity
 _atom_site_fract_x
 _atom_site_fract_y
 _atom_site_fract_z
 _atom_site_occupancy
  Sr  Sr0  1  0.85263742  0.85263742  1.00000000  1.0
  Sr  Sr1  1  0.14736258  0.14736258  -0.00000000  1.0
  Sr  Sr2  1  0.00000000  0.00000000  0.00000000  1.0
  Co  Co3  1  0.56722939  0.56722939  1.00000000  1.0
  Co  Co4  1  0.43277061  0.43277061  -0.00000000  1.0
  Cl  Cl5  1  0.69989387  0.69989387  1.00000000  1.0
  Cl  Cl6  1  0.30010613  0.30010613  -0.00000000  1.0
  O  O7  1  0.92561681  0.42561681  0.50000000  1.0
  O  O8  1  0.07438319  0.57438319  0.50000000  1.0
  O  O9  1  0.57440630  0.07440630  0.50000000  1.0
  O  O10  1  0.42559370  0.92559370  0.50000000  1.0
