# generated using pymatgen
data_Rb2Co2O3
_symmetry_space_group_name_H-M   'P 1'
_cell_length_a   11.88340777
_cell_length_b   6.06035374
_cell_length_c   7.84444343
_cell_angle_alpha   90.00000000
_cell_angle_beta   90.00000000
_cell_angle_gamma   90.00000000
_symmetry_Int_Tables_number   1
_chemical_formula_structural   Rb2Co2O3
_chemical_formula_sum   'Rb8 Co8 O12'
_cell_volume   564.93841840
_cell_formula_units_Z   4
loop_
 _symmetry_equiv_pos_site_id
 _symmetry_equiv_pos_as_xyz
  1  'x, y, z'
loop_
 _atom_site_type_symbol
 _atom_site_label
 _atom_site_symmetry_multiplicity
 _atom_site_fract_x
 _atom_site_fract_y
 _atom_site_fract_z
 _atom_site_occupancy
  Rb  Rb0  1  0.12336282  0.75000000  0.50907888  1.0
  Rb  Rb1  1  0.62336282  0.75000000  0.99092112  1.0
  Rb  Rb2  1  0.87663718  0.25000000  0.49092112  1.0
  Rb  Rb3  1  0.37663718  0.25000000  0.00907888  1.0
  Rb  Rb4  1  0.94070466  0.75000000  0.12415767  1.0
  Rb  Rb5  1  0.44070466  0.75000000  0.37584233  1.0
  Rb  Rb6  1  0.05929534  0.25000000  0.87584233  1.0
  Rb  Rb7  1  0.55929534  0.25000000  0.62415767  1.0
  Co  Co8  1  0.34099361  0.75000000  0.78949615  1.0
  Co  Co9  1  0.84099361  0.75000000  0.71050385  1.0
  Co  Co10  1  0.65900639  0.25000000  0.21050385  1.0
  Co  Co11  1  0.15900639  0.25000000  0.28949615  1.0
  Co  Co12  1  0.23253543  0.75000000  0.08082463  1.0
  Co  Co13  1  0.73253543  0.75000000  0.41917537  1.0
  Co  Co14  1  0.76746457  0.25000000  0.91917537  1.0
  Co  Co15  1  0.26746457  0.25000000  0.58082463  1.0
  O  O16  1  0.33876155  1.00024612  0.65754510  1.0
  O  O17  1  0.33876155  0.49975388  0.65754510  1.0
  O  O18  1  0.83876155  1.00024612  0.84245490  1.0
  O  O19  1  0.83876155  0.49975388  0.84245490  1.0
  O  O20  1  0.66123845  0.50024612  0.34245490  1.0
  O  O21  1  0.66123845  -0.00024612  0.34245490  1.0
  O  O22  1  0.16123845  0.50024612  0.15754510  1.0
  O  O23  1  0.16123845  -0.00024612  0.15754510  1.0
  O  O24  1  0.38245136  0.75000000  0.01691554  1.0
  O  O25  1  0.88245136  0.75000000  0.48308446  1.0
  O  O26  1  0.61754864  0.25000000  0.98308446  1.0
  O  O27  1  0.11754864  0.25000000  0.51691554  1.0
