# generated using pymatgen
data_Cs2LiY(BH4)6
_symmetry_space_group_name_H-M   'P 1'
_cell_length_a   7.93687223
_cell_length_b   7.93687223
_cell_length_c   7.93687223
_cell_angle_alpha   60.00000000
_cell_angle_beta   60.00000000
_cell_angle_gamma   60.00000000
_symmetry_Int_Tables_number   1
_chemical_formula_structural   Cs2LiY(BH4)6
_chemical_formula_sum   'Cs2 Li1 Y1 B6 H24'
_cell_volume   353.53561411
_cell_formula_units_Z   1
loop_
 _symmetry_equiv_pos_site_id
 _symmetry_equiv_pos_as_xyz
  1  'x, y, z'
loop_
 _atom_site_type_symbol
 _atom_site_label
 _atom_site_symmetry_multiplicity
 _atom_site_fract_x
 _atom_site_fract_y
 _atom_site_fract_z
 _atom_site_occupancy
  Cs  Cs0  1  0.25000000  0.25000000  0.25000000  1.0
  Cs  Cs1  1  0.75000000  0.75000000  -0.25000000  1.0
  Li  Li2  1  -0.50000000  0.50000000  0.50000000  1.0
  Y  Y3  1  0.00000000  0.00000000  0.00000000  1.0
  B  B4  1  -0.75250455  0.75250455  0.75250455  1.0
  B  B5  1  0.24749545  -0.24749545  0.24749545  1.0
  B  B6  1  -0.24749545  0.24749545  0.75250455  1.0
  B  B7  1  -0.24749545  0.75250455  0.24749545  1.0
  B  B8  1  0.24749545  1.24749545  -0.24749545  1.0
  B  B9  1  -0.24749545  0.24749545  0.24749545  1.0
  H  H10  1  1.21674367  0.60232916  -0.60232916  1.0
  H  H11  1  0.60232916  1.21674367  -0.21674367  1.0
  H  H12  1  0.39767084  -0.21674367  0.21674367  1.0
  H  H13  1  -0.21674367  0.39767084  0.60232916  1.0
  H  H14  1  -0.21674367  0.60232916  0.21674367  1.0
  H  H15  1  0.39767084  1.21674367  -0.39767084  1.0
  H  H16  1  -0.60232916  0.60232916  0.78325633  1.0
  H  H17  1  0.21674367  -0.21674367  0.60232916  1.0
  H  H18  1  -0.39767084  0.78325633  0.39767084  1.0
  H  H19  1  0.21674367  1.39767084  -0.21674367  1.0
  H  H20  1  -0.21674367  0.21674367  0.39767084  1.0
  H  H21  1  -0.39767084  0.39767084  1.21674367  1.0
  H  H22  1  -0.09351360  0.72590075  0.27409925  1.0
  H  H23  1  0.72590075  -0.09351360  0.09351360  1.0
  H  H24  1  0.27409925  1.09351360  -0.09351360  1.0
  H  H25  1  1.09351360  0.27409925  -0.27409925  1.0
  H  H26  1  0.09351360  1.72590075  -0.09351360  1.0
  H  H27  1  -0.72590075  0.90648640  0.72590075  1.0
  H  H28  1  -0.72590075  0.72590075  1.09351360  1.0
  H  H29  1  -0.09351360  0.09351360  0.72590075  1.0
  H  H30  1  0.72590075  1.09351360  -0.72590075  1.0
  H  H31  1  -0.09351360  0.27409925  0.09351360  1.0
  H  H32  1  0.09351360  -0.09351360  0.27409925  1.0
  H  H33  1  -0.27409925  0.27409925  0.90648640  1.0
