# generated using pymatgen
data_Mg3(PO4)2
_symmetry_space_group_name_H-M   'P 1'
_cell_length_a   5.98154702
_cell_length_b   4.79136239
_cell_length_c   10.33492989
_cell_angle_alpha   90.00000000
_cell_angle_beta   90.30135352
_cell_angle_gamma   90.00000000
_symmetry_Int_Tables_number   1
_chemical_formula_structural   Mg3(PO4)2
_chemical_formula_sum   'Mg6 P4 O16'
_cell_volume   296.19250781
_cell_formula_units_Z   2
loop_
 _symmetry_equiv_pos_site_id
 _symmetry_equiv_pos_as_xyz
  1  'x, y, z'
loop_
 _atom_site_type_symbol
 _atom_site_label
 _atom_site_symmetry_multiplicity
 _atom_site_fract_x
 _atom_site_fract_y
 _atom_site_fract_z
 _atom_site_occupancy
  Mg  Mg0  1  0.73779342  0.98845936  0.27826570  1.0
  Mg  Mg1  1  0.73779342  0.51154064  0.77826570  1.0
  Mg  Mg2  1  0.26220658  0.48845936  0.22173430  1.0
  Mg  Mg3  1  0.26220658  0.01154064  0.72173430  1.0
  Mg  Mg4  1  -0.00000000  0.50000000  0.50000000  1.0
  Mg  Mg5  1  0.00000000  0.00000000  0.00000000  1.0
  P  P6  1  0.75767486  0.42572454  0.09792140  1.0
  P  P7  1  0.75767486  0.07427546  0.59792140  1.0
  P  P8  1  0.24232514  0.92572454  0.40207860  1.0
  P  P9  1  0.24232514  0.57427546  0.90207860  1.0
  O  O10  1  0.96835567  0.26892379  0.16118218  1.0
  O  O11  1  0.96835567  0.23107621  0.66118218  1.0
  O  O12  1  0.03164433  0.76892379  0.33881782  1.0
  O  O13  1  0.03164433  0.73107621  0.83881782  1.0
  O  O14  1  0.75694843  0.18588971  0.45656881  1.0
  O  O15  1  0.75694843  0.31411029  0.95656881  1.0
  O  O16  1  0.24305157  0.68588971  0.04343119  1.0
  O  O17  1  0.24305157  0.81411029  0.54343119  1.0
  O  O18  1  0.56058922  0.31119138  0.17890318  1.0
  O  O19  1  0.56058922  0.18880862  0.67890318  1.0
  O  O20  1  0.43941078  0.81119138  0.32109682  1.0
  O  O21  1  0.43941078  0.68880862  0.82109682  1.0
  O  O22  1  0.22285140  0.24675068  0.39437650  1.0
  O  O23  1  0.22285140  0.25324932  0.89437650  1.0
  O  O24  1  0.77714860  0.74675068  0.10562350  1.0
  O  O25  1  0.77714860  0.75324932  0.60562350  1.0
