# generated using pymatgen
data_La4Co3O10
_symmetry_space_group_name_H-M   'P 1'
_cell_length_a   3.84069366
_cell_length_b   3.84069366
_cell_length_c   27.85864324
_cell_angle_alpha   90.00003350
_cell_angle_beta   89.99996650
_cell_angle_gamma   90.00012353
_symmetry_Int_Tables_number   1
_chemical_formula_structural   La4Co3O10
_chemical_formula_sum   'La8 Co6 O20'
_cell_volume   410.94083379
_cell_formula_units_Z   2
loop_
 _symmetry_equiv_pos_site_id
 _symmetry_equiv_pos_as_xyz
  1  'x, y, z'
loop_
 _atom_site_type_symbol
 _atom_site_label
 _atom_site_symmetry_multiplicity
 _atom_site_fract_x
 _atom_site_fract_y
 _atom_site_fract_z
 _atom_site_occupancy
  La  La0  1  -0.00002757  0.00002757  0.69815196  1.0
  La  La1  1  0.00002757  -0.00002757  0.30184804  1.0
  La  La2  1  0.50002803  -0.50002803  0.19807746  1.0
  La  La3  1  0.49997197  -0.49997197  0.80192254  1.0
  La  La4  1  -0.00000036  0.00000036  0.56777045  1.0
  La  La5  1  0.00000036  -0.00000036  0.43222955  1.0
  La  La6  1  0.50000759  -0.50000759  0.06773725  1.0
  La  La7  1  0.49999241  -0.49999241  0.93226275  1.0
  Co  Co8  1  0.50000000  -0.50000000  0.50000000  1.0
  Co  Co9  1  0.00000000  0.00000000  0.00000000  1.0
  Co  Co10  1  -0.00002225  0.00002225  0.85924563  1.0
  Co  Co11  1  0.00002225  -0.00002225  0.14075437  1.0
  Co  Co12  1  0.50002169  -0.50002169  0.35918535  1.0
  Co  Co13  1  0.49997831  -0.49997831  0.64081465  1.0
  O  O14  1  1.00000000  -0.50000000  0.50000000  1.0
  O  O15  1  1.50000000  -0.00000000  0.50000000  1.0
  O  O16  1  1.00000000  -0.50000000  0.00000000  1.0
  O  O17  1  1.50000000  -0.00000000  0.00000000  1.0
  O  O18  1  -0.00001801  0.00001801  0.92821649  1.0
  O  O19  1  0.00001801  -0.00001801  0.07178351  1.0
  O  O20  1  0.50002518  -0.50002518  0.42817078  1.0
  O  O21  1  0.49997482  -0.49997482  0.57182922  1.0
  O  O22  1  0.99997318  -0.49997709  0.86027270  1.0
  O  O23  1  1.49997709  0.00002682  0.86027270  1.0
  O  O24  1  1.00002682  -0.50002291  0.13972730  1.0
  O  O25  1  1.50002291  -0.00002682  0.13972730  1.0
  O  O26  1  1.50002337  -0.00002223  0.36019343  1.0
  O  O27  1  1.00002223  -0.50002337  0.36019343  1.0
  O  O28  1  1.49997663  0.00002223  0.63980657  1.0
  O  O29  1  0.99997777  -0.49997663  0.63980657  1.0
  O  O30  1  -0.00002704  0.00002704  0.78495304  1.0
  O  O31  1  0.00002704  -0.00002704  0.21504696  1.0
  O  O32  1  0.50002703  -0.50002703  0.28487409  1.0
  O  O33  1  0.49997297  -0.49997297  0.71512591  1.0
