# generated using pymatgen
data_LaNi5H7
_symmetry_space_group_name_H-M   'P 1'
_cell_length_a   5.36039427
_cell_length_b   5.36039427
_cell_length_c   8.72082141
_cell_angle_alpha   90.00000000
_cell_angle_beta   90.00000000
_cell_angle_gamma   120.00000000
_symmetry_Int_Tables_number   1
_chemical_formula_structural   LaNi5H7
_chemical_formula_sum   'La2 Ni10 H14'
_cell_volume   217.01087228
_cell_formula_units_Z   2
loop_
 _symmetry_equiv_pos_site_id
 _symmetry_equiv_pos_as_xyz
  1  'x, y, z'
loop_
 _atom_site_type_symbol
 _atom_site_label
 _atom_site_symmetry_multiplicity
 _atom_site_fract_x
 _atom_site_fract_y
 _atom_site_fract_z
 _atom_site_occupancy
  La  La0  1  0.00000000  0.00000000  0.52054875  1.0
  La  La1  1  0.00000000  0.00000000  0.02054875  1.0
  Ni  Ni2  1  0.50055954  0.00111909  0.75165540  1.0
  Ni  Ni3  1  0.99888091  0.49944046  0.75165540  1.0
  Ni  Ni4  1  0.50055954  0.49944046  0.75165540  1.0
  Ni  Ni5  1  0.49944046  0.99888091  0.25165540  1.0
  Ni  Ni6  1  0.00111909  0.50055954  0.25165540  1.0
  Ni  Ni7  1  0.49944046  0.50055954  0.25165540  1.0
  Ni  Ni8  1  0.66666667  0.33333333  0.50511470  1.0
  Ni  Ni9  1  0.33333333  0.66666667  0.00511470  1.0
  Ni  Ni10  1  0.66666667  0.33333333  0.98269778  1.0
  Ni  Ni11  1  0.33333333  0.66666667  0.48269778  1.0
  H  H12  1  0.49409390  0.98818779  0.56049785  1.0
  H  H13  1  0.01181221  0.50590610  0.56049785  1.0
  H  H14  1  0.49409390  0.50590610  0.56049785  1.0
  H  H15  1  0.50590610  0.01181221  0.06049785  1.0
  H  H16  1  0.98818779  0.49409390  0.06049785  1.0
  H  H17  1  0.50590610  0.49409390  0.06049785  1.0
  H  H18  1  0.66666667  0.33333333  0.31963503  1.0
  H  H19  1  0.33333333  0.66666667  0.81963503  1.0
  H  H20  1  0.84956007  0.69912015  0.77351466  1.0
  H  H21  1  0.30087985  0.15043993  0.77351466  1.0
  H  H22  1  0.84956007  0.15043993  0.77351466  1.0
  H  H23  1  0.15043993  0.30087985  0.27351466  1.0
  H  H24  1  0.69912015  0.84956007  0.27351466  1.0
  H  H25  1  0.15043993  0.84956007  0.27351466  1.0
