# generated using pymatgen
data_Ca3CrN3
_symmetry_space_group_name_H-M   'P 1'
_cell_length_a   6.63646430
_cell_length_b   6.63646430
_cell_length_c   5.05068132
_cell_angle_alpha   90.00000000
_cell_angle_beta   90.00000000
_cell_angle_gamma   101.22025436
_symmetry_Int_Tables_number   1
_chemical_formula_structural   Ca3CrN3
_chemical_formula_sum   'Ca6 Cr2 N6'
_cell_volume   218.19370612
_cell_formula_units_Z   2
loop_
 _symmetry_equiv_pos_site_id
 _symmetry_equiv_pos_as_xyz
  1  'x, y, z'
loop_
 _atom_site_type_symbol
 _atom_site_label
 _atom_site_symmetry_multiplicity
 _atom_site_fract_x
 _atom_site_fract_y
 _atom_site_fract_z
 _atom_site_occupancy
  Ca  Ca0  1  0.09573267  0.33056885  0.25000000  1.0
  Ca  Ca1  1  -0.66943115  1.09573267  0.75000000  1.0
  Ca  Ca2  1  0.66943115  0.90426733  0.25000000  1.0
  Ca  Ca3  1  -0.09573267  1.66943115  0.75000000  1.0
  Ca  Ca4  1  -0.39322423  1.39322423  0.25000000  1.0
  Ca  Ca5  1  0.39322423  0.60677577  0.75000000  1.0
  Cr  Cr6  1  0.19581973  0.80418027  0.25000000  1.0
  Cr  Cr7  1  -0.19581973  1.19581973  0.75000000  1.0
  N  N8  1  0.37293911  0.62706089  0.25000000  1.0
  N  N9  1  -0.37293911  1.37293911  0.75000000  1.0
  N  N10  1  -0.06516475  1.68235287  0.25000000  1.0
  N  N11  1  0.68235287  0.93483525  0.75000000  1.0
  N  N12  1  -0.68235287  1.06516475  0.25000000  1.0
  N  N13  1  0.06516475  0.31764713  0.75000000  1.0
