# generated using pymatgen
data_Ba2Si5N8
_symmetry_space_group_name_H-M   'P 1'
_cell_length_a   5.82416138
_cell_length_b   7.01416486
_cell_length_c   9.46035395
_cell_angle_alpha   90.00000000
_cell_angle_beta   90.00000000
_cell_angle_gamma   90.00000000
_symmetry_Int_Tables_number   1
_chemical_formula_structural   Ba2Si5N8
_chemical_formula_sum   'Ba4 Si10 N16'
_cell_volume   386.47086102
_cell_formula_units_Z   2
loop_
 _symmetry_equiv_pos_site_id
 _symmetry_equiv_pos_as_xyz
  1  'x, y, z'
loop_
 _atom_site_type_symbol
 _atom_site_label
 _atom_site_symmetry_multiplicity
 _atom_site_fract_x
 _atom_site_fract_y
 _atom_site_fract_z
 _atom_site_occupancy
  Ba  Ba0  1  0.50000000  0.37953374  0.65929070  1.0
  Ba  Ba1  1  0.00000000  0.62046626  0.15929070  1.0
  Ba  Ba2  1  0.50000000  0.35640402  0.02815556  1.0
  Ba  Ba3  1  0.00000000  0.64359598  0.52815556  1.0
  Si  Si4  1  0.25073705  0.83554820  0.84878253  1.0
  Si  Si5  1  0.75073705  0.16445180  0.34878253  1.0
  Si  Si6  1  0.74926295  0.83554820  0.84878253  1.0
  Si  Si7  1  0.24926295  0.16445180  0.34878253  1.0
  Si  Si8  1  0.50000000  0.91936608  0.56737813  1.0
  Si  Si9  1  0.00000000  0.08063392  0.06737813  1.0
  Si  Si10  1  0.50000000  0.89973951  0.13131715  1.0
  Si  Si11  1  0.00000000  0.10026049  0.63131715  1.0
  Si  Si12  1  0.50000000  0.55262119  0.35042024  1.0
  Si  Si13  1  0.00000000  0.44737881  0.85042024  1.0
  N  N14  1  0.25307379  0.94584200  0.02113888  1.0
  N  N15  1  0.75307379  0.05415800  0.52113888  1.0
  N  N16  1  0.74692621  0.94584200  0.02113888  1.0
  N  N17  1  0.24692621  0.05415800  0.52113888  1.0
  N  N18  1  0.23908605  0.59389875  0.85840676  1.0
  N  N19  1  0.73908605  0.40610125  0.35840676  1.0
  N  N20  1  0.76091395  0.59389875  0.85840676  1.0
  N  N21  1  0.26091395  0.40610125  0.35840676  1.0
  N  N22  1  0.50000000  0.91840014  0.75745040  1.0
  N  N23  1  0.00000000  0.08159986  0.25745040  1.0
  N  N24  1  0.50000000  0.69788878  0.49926420  1.0
  N  N25  1  0.00000000  0.30211122  -0.00073580  1.0
  N  N26  1  0.50000000  0.67522255  0.19249392  1.0
  N  N27  1  0.00000000  0.32477745  0.69249392  1.0
  N  N28  1  0.50000000  0.07680376  0.26307335  1.0
  N  N29  1  0.00000000  0.92319624  0.76307335  1.0
