# generated using pymatgen
data_RbGd(MoO4)2
_symmetry_space_group_name_H-M   'P 1'
_cell_length_a   5.15789235
_cell_length_b   19.57715326
_cell_length_c   8.31522186
_cell_angle_alpha   90.00000000
_cell_angle_beta   90.00000000
_cell_angle_gamma   90.00000000
_symmetry_Int_Tables_number   1
_chemical_formula_structural   RbGd(MoO4)2
_chemical_formula_sum   'Rb4 Gd4 Mo8 O32'
_cell_volume   839.64490182
_cell_formula_units_Z   4
loop_
 _symmetry_equiv_pos_site_id
 _symmetry_equiv_pos_as_xyz
  1  'x, y, z'
loop_
 _atom_site_type_symbol
 _atom_site_label
 _atom_site_symmetry_multiplicity
 _atom_site_fract_x
 _atom_site_fract_y
 _atom_site_fract_z
 _atom_site_occupancy
  Rb  Rb0  1  0.50000000  0.72521453  0.25000000  1.0
  Rb  Rb1  1  0.50000000  0.27478547  0.75000000  1.0
  Rb  Rb2  1  0.00000000  0.22521453  0.25000000  1.0
  Rb  Rb3  1  0.00000000  0.77478547  0.75000000  1.0
  Gd  Gd4  1  0.50000000  0.49606728  0.25000000  1.0
  Gd  Gd5  1  0.50000000  0.50393272  0.75000000  1.0
  Gd  Gd6  1  0.00000000  0.99606728  0.25000000  1.0
  Gd  Gd7  1  0.00000000  0.00393272  0.75000000  1.0
  Mo  Mo8  1  0.47429646  0.09750378  0.00776120  1.0
  Mo  Mo9  1  0.47429646  0.90249622  0.50776120  1.0
  Mo  Mo10  1  0.97429646  0.59750378  0.49223880  1.0
  Mo  Mo11  1  0.97429646  0.40249622  0.99223880  1.0
  Mo  Mo12  1  0.52570354  0.09750378  0.49223880  1.0
  Mo  Mo13  1  0.52570354  0.90249622  0.99223880  1.0
  Mo  Mo14  1  0.02570354  0.59750378  0.00776120  1.0
  Mo  Mo15  1  0.02570354  0.40249622  0.50776120  1.0
  O  O16  1  0.40965772  0.18091018  0.48468189  1.0
  O  O17  1  0.40965772  0.81908982  0.98468189  1.0
  O  O18  1  0.90965772  0.68091018  0.01531811  1.0
  O  O19  1  0.90965772  0.31908982  0.51531811  1.0
  O  O20  1  0.59034228  0.18091018  0.01531811  1.0
  O  O21  1  0.59034228  0.81908982  0.51531811  1.0
  O  O22  1  0.09034228  0.68091018  0.48468189  1.0
  O  O23  1  0.09034228  0.31908982  0.98468189  1.0
  O  O24  1  0.26147121  0.08772514  0.17678912  1.0
  O  O25  1  0.26147121  0.91227486  0.67678912  1.0
  O  O26  1  0.76147121  0.58772514  0.32321088  1.0
  O  O27  1  0.76147121  0.41227486  0.82321088  1.0
  O  O28  1  0.73852879  0.08772514  0.32321088  1.0
  O  O29  1  0.73852879  0.91227486  0.82321088  1.0
  O  O30  1  0.23852879  0.58772514  0.17678912  1.0
  O  O31  1  0.23852879  0.41227486  0.67678912  1.0
  O  O32  1  0.24830718  0.46270470  0.00128382  1.0
  O  O33  1  0.24830718  0.53729530  0.50128382  1.0
  O  O34  1  0.74830718  0.96270470  0.49871618  1.0
  O  O35  1  0.74830718  0.03729530  0.99871618  1.0
  O  O36  1  0.75169282  0.46270470  0.49871618  1.0
  O  O37  1  0.75169282  0.53729530  0.99871618  1.0
  O  O38  1  0.25169282  0.96270470  0.00128382  1.0
  O  O39  1  0.25169282  0.03729530  0.50128382  1.0
  O  O40  1  0.23000395  0.40801717  0.33580757  1.0
  O  O41  1  0.23000395  0.59198283  0.83580757  1.0
  O  O42  1  0.73000395  0.90801717  0.16419243  1.0
  O  O43  1  0.73000395  0.09198283  0.66419243  1.0
  O  O44  1  0.76999605  0.40801717  0.16419243  1.0
  O  O45  1  0.76999605  0.59198283  0.66419243  1.0
  O  O46  1  0.26999605  0.90801717  0.33580757  1.0
  O  O47  1  0.26999605  0.09198283  0.83580757  1.0
