# generated using pymatgen
data_CaN
_symmetry_space_group_name_H-M   'P 1'
_cell_length_a   7.95963613
_cell_length_b   7.95963613
_cell_length_c   7.95963613
_cell_angle_alpha   126.28837939
_cell_angle_beta   126.28837939
_cell_angle_gamma   79.41468481
_symmetry_Int_Tables_number   1
_chemical_formula_structural   CaN
_chemical_formula_sum   'Ca8 N8'
_cell_volume   316.69081605
_cell_formula_units_Z   8
loop_
 _symmetry_equiv_pos_site_id
 _symmetry_equiv_pos_as_xyz
  1  'x, y, z'
loop_
 _atom_site_type_symbol
 _atom_site_label
 _atom_site_symmetry_multiplicity
 _atom_site_fract_x
 _atom_site_fract_y
 _atom_site_fract_z
 _atom_site_occupancy
  Ca  Ca0  1  1.08694832  0.36082347  0.72612485  1.0
  Ca  Ca1  1  1.11530137  0.88917653  1.22612485  1.0
  Ca  Ca2  1  0.63469863  0.36082347  0.27387515  1.0
  Ca  Ca3  1  0.66305168  0.88917653  0.77387515  1.0
  Ca  Ca4  1  0.63917653  0.36530137  0.72612485  1.0
  Ca  Ca5  1  0.11082347  0.33694832  0.22612485  1.0
  Ca  Ca6  1  0.63917653  0.91305168  1.27387515  1.0
  Ca  Ca7  1  0.11082347  0.88469863  0.77387515  1.0
  N  N8  1  0.93474705  0.17893819  0.75580887  1.0
  N  N9  1  0.32687068  0.07106181  0.25580887  1.0
  N  N10  1  0.42312932  0.17893819  0.24419113  1.0
  N  N11  1  0.81525295  0.07106181  0.74419113  1.0
  N  N12  1  0.82106181  0.57687068  0.75580887  1.0
  N  N13  1  0.92893819  1.18474705  1.25580887  1.0
  N  N14  1  0.82106181  1.06525295  1.24419113  1.0
  N  N15  1  0.92893819  0.67312932  0.74419113  1.0
