# generated using pymatgen
data_Ca2Si3Ag
_symmetry_space_group_name_H-M   'P 1'
_cell_length_a   8.41022910
_cell_length_b   8.32928636
_cell_length_c   6.00875782
_cell_angle_alpha   69.68602571
_cell_angle_beta   68.24520841
_cell_angle_gamma   42.06876588
_symmetry_Int_Tables_number   1
_chemical_formula_structural   Ca2Si3Ag
_chemical_formula_sum   'Ca4 Si6 Ag2'
_cell_volume   260.17943421
_cell_formula_units_Z   2
loop_
 _symmetry_equiv_pos_site_id
 _symmetry_equiv_pos_as_xyz
  1  'x, y, z'
loop_
 _atom_site_type_symbol
 _atom_site_label
 _atom_site_symmetry_multiplicity
 _atom_site_fract_x
 _atom_site_fract_y
 _atom_site_fract_z
 _atom_site_occupancy
  Ca  Ca0  1  -0.24676000  0.24676000  0.75324000  1.0
  Ca  Ca1  1  0.24676000  -0.24676000  1.24676000  1.0
  Ca  Ca2  1  -0.25000000  0.75000000  0.75000000  1.0
  Ca  Ca3  1  0.25000000  0.25000000  1.25000000  1.0
  Si  Si4  1  0.16304334  0.67514400  -0.16304334  1.0
  Si  Si5  1  -0.67514400  0.83695666  0.67514400  1.0
  Si  Si6  1  -0.32485600  1.16304334  0.32485600  1.0
  Si  Si7  1  -0.16304334  0.32485600  0.16304334  1.0
  Si  Si8  1  -0.16170360  0.83829640  0.16170360  1.0
  Si  Si9  1  0.16170360  0.16170360  -0.16170360  1.0
  Ag  Ag10  1  -0.33334980  0.66665020  0.33334980  1.0
  Ag  Ag11  1  0.33334980  0.33334980  -0.33334980  1.0
