# generated using pymatgen
data_K3Na2SnAs3
_symmetry_space_group_name_H-M   'P 1'
_cell_length_a   10.86042780
_cell_length_b   10.86042780
_cell_length_c   15.62360770
_cell_angle_alpha   90.00000000
_cell_angle_beta   90.00000000
_cell_angle_gamma   36.81272154
_symmetry_Int_Tables_number   1
_chemical_formula_structural   K3Na2SnAs3
_chemical_formula_sum   'K12 Na8 Sn4 As12'
_cell_volume   1104.20062929
_cell_formula_units_Z   4
loop_
 _symmetry_equiv_pos_site_id
 _symmetry_equiv_pos_as_xyz
  1  'x, y, z'
loop_
 _atom_site_type_symbol
 _atom_site_label
 _atom_site_symmetry_multiplicity
 _atom_site_fract_x
 _atom_site_fract_y
 _atom_site_fract_z
 _atom_site_occupancy
  K  K0  1  0.10010355  0.56673027  0.82449655  1.0
  K  K1  1  -0.39989645  1.06673027  0.67550345  1.0
  K  K2  1  -0.43326973  1.10010355  0.17550345  1.0
  K  K3  1  0.06673027  0.60010355  0.32449655  1.0
  K  K4  1  -0.56673027  0.89989645  0.82449655  1.0
  K  K5  1  -0.06673027  0.39989645  0.67550345  1.0
  K  K6  1  -0.10010355  0.43326973  0.17550345  1.0
  K  K7  1  -0.60010355  0.93326973  0.32449655  1.0
  K  K8  1  -0.75905888  0.75905888  0.67738147  1.0
  K  K9  1  -0.25905888  0.25905888  0.82261853  1.0
  K  K10  1  -0.24094112  0.24094112  0.32261853  1.0
  K  K11  1  -0.74094112  0.74094112  0.17738147  1.0
  Na  Na12  1  -0.25478991  0.74521009  0.00000000  1.0
  Na  Na13  1  0.24521009  0.24521009  0.50000000  1.0
  Na  Na14  1  0.25478991  0.25478991  0.00000000  1.0
  Na  Na15  1  -0.24521009  0.75478991  0.50000000  1.0
  Na  Na16  1  -0.41871043  0.58128957  0.00000000  1.0
  Na  Na17  1  0.08128957  0.08128957  0.50000000  1.0
  Na  Na18  1  0.41871043  0.41871043  0.00000000  1.0
  Na  Na19  1  -0.08128957  0.91871043  0.50000000  1.0
  Sn  Sn20  1  -0.08882039  0.91117961  0.00000000  1.0
  Sn  Sn21  1  0.41117961  0.41117961  0.50000000  1.0
  Sn  Sn22  1  0.08882039  0.08882039  0.00000000  1.0
  Sn  Sn23  1  -0.41117961  0.58882039  0.50000000  1.0
  As  As24  1  -0.06405297  0.38210505  0.89394116  1.0
  As  As25  1  -0.56405297  0.88210505  0.60605884  1.0
  As  As26  1  -0.61789495  0.93594703  0.10605884  1.0
  As  As27  1  -0.11789495  0.43594703  0.39394116  1.0
  As  As28  1  -0.38210505  1.06405297  0.89394116  1.0
  As  As29  1  0.11789495  0.56405297  0.60605884  1.0
  As  As30  1  0.06405297  0.61789495  0.10605884  1.0
  As  As31  1  -0.43594703  1.11789495  0.39394116  1.0
  As  As32  1  -0.79426884  0.79426884  0.90490422  1.0
  As  As33  1  -0.29426884  0.29426884  0.59509578  1.0
  As  As34  1  -0.20573116  0.20573116  0.09509578  1.0
  As  As35  1  -0.70573116  0.70573116  0.40490422  1.0
