# generated using pymatgen
data_Sr4Al6CrO16
_symmetry_space_group_name_H-M   'P 1'
_cell_length_a   8.32287259
_cell_length_b   8.32287259
_cell_length_c   8.32287259
_cell_angle_alpha   109.47122063
_cell_angle_beta   109.47122063
_cell_angle_gamma   109.47122063
_symmetry_Int_Tables_number   1
_chemical_formula_structural   Sr4Al6CrO16
_chemical_formula_sum   'Sr4 Al6 Cr1 O16'
_cell_volume   443.81078066
_cell_formula_units_Z   1
loop_
 _symmetry_equiv_pos_site_id
 _symmetry_equiv_pos_as_xyz
  1  'x, y, z'
loop_
 _atom_site_type_symbol
 _atom_site_label
 _atom_site_symmetry_multiplicity
 _atom_site_fract_x
 _atom_site_fract_y
 _atom_site_fract_z
 _atom_site_occupancy
  Sr  Sr0  1  0.50944008  0.50944008  0.50944008  1.0
  Sr  Sr1  1  1.00000000  1.00000000  0.49055992  1.0
  Sr  Sr2  1  1.00000000  0.49055992  1.00000000  1.0
  Sr  Sr3  1  0.49055992  1.00000000  1.00000000  1.0
  Al  Al4  1  0.25000000  0.75000000  0.50000000  1.0
  Al  Al5  1  0.75000000  0.25000000  0.50000000  1.0
  Al  Al6  1  0.25000000  0.50000000  0.75000000  1.0
  Al  Al7  1  0.50000000  0.25000000  0.75000000  1.0
  Al  Al8  1  0.75000000  0.50000000  0.25000000  1.0
  Al  Al9  1  0.50000000  0.75000000  0.25000000  1.0
  Cr  Cr10  1  0.00000000  0.00000000  0.00000000  1.0
  O  O11  1  0.31840730  0.66368780  0.66368780  1.0
  O  O12  1  0.66368780  0.31840730  0.66368780  1.0
  O  O13  1  1.00000000  0.65471950  1.33631220  1.0
  O  O14  1  0.65471950  1.00000000  1.33631220  1.0
  O  O15  1  0.66368780  0.66368780  0.31840730  1.0
  O  O16  1  1.34528050  1.34528050  0.68159270  1.0
  O  O17  1  1.00000000  1.33631220  0.65471950  1.0
  O  O18  1  1.34528050  0.68159270  1.34528050  1.0
  O  O19  1  0.68159270  1.34528050  1.34528050  1.0
  O  O20  1  1.33631220  1.00000000  0.65471950  1.0
  O  O21  1  0.65471950  1.33631220  1.00000000  1.0
  O  O22  1  1.33631220  0.65471950  1.00000000  1.0
  O  O23  1  0.80173666  0.80173666  0.80173666  1.0
  O  O24  1  1.00000000  1.00000000  0.19826334  1.0
  O  O25  1  1.00000000  0.19826334  1.00000000  1.0
  O  O26  1  0.19826334  1.00000000  1.00000000  1.0
