# generated using pymatgen
data_LiGa(SeO3)2
_symmetry_space_group_name_H-M   'P 1'
_cell_length_a   9.08858406
_cell_length_b   9.08858406
_cell_length_c   9.08858406
_cell_angle_alpha   107.75596650
_cell_angle_beta   107.75596650
_cell_angle_gamma   112.95904483
_symmetry_Int_Tables_number   1
_chemical_formula_structural   LiGa(SeO3)2
_chemical_formula_sum   'Li4 Ga4 Se8 O24'
_cell_volume   576.30212656
_cell_formula_units_Z   4
loop_
 _symmetry_equiv_pos_site_id
 _symmetry_equiv_pos_as_xyz
  1  'x, y, z'
loop_
 _atom_site_type_symbol
 _atom_site_label
 _atom_site_symmetry_multiplicity
 _atom_site_fract_x
 _atom_site_fract_y
 _atom_site_fract_z
 _atom_site_occupancy
  Li  Li0  1  0.87500000  1.06099456  0.68599456  1.0
  Li  Li1  1  1.81099456  1.12500000  1.18599456  1.0
  Li  Li2  1  0.93900544  1.62500000  0.81400544  1.0
  Li  Li3  1  1.37500000  1.18900544  1.31400544  1.0
  Ga  Ga4  1  0.87500000  0.33872307  0.96372307  1.0
  Ga  Ga5  1  1.08872307  1.12500000  0.46372307  1.0
  Ga  Ga6  1  0.66127693  0.62500000  0.53627693  1.0
  Ga  Ga7  1  1.37500000  0.91127693  1.03627693  1.0
  Se  Se8  1  1.10298794  0.88278449  0.67102467  1.0
  Se  Se9  1  0.64701206  0.81803673  0.27979655  1.0
  Se  Se10  1  0.63278449  1.35298794  1.17102467  1.0
  Se  Se11  1  1.11721551  1.78824018  1.22020345  1.0
  Se  Se12  1  0.53824018  0.36721551  0.72020345  1.0
  Se  Se13  1  1.21175982  1.43196327  1.32897533  1.0
  Se  Se14  1  1.56803673  0.89701206  0.77979655  1.0
  Se  Se15  1  1.18196327  1.46175982  0.82897533  1.0
  O  O16  1  1.16569551  1.37691307  0.62444324  1.0
  O  O17  1  0.58430449  0.70874772  0.71121756  1.0
  O  O18  1  1.12691307  0.41569551  1.12444324  1.0
  O  O19  1  0.62308693  0.24753016  0.78878244  1.0
  O  O20  1  0.99753016  0.87308693  0.28878244  1.0
  O  O21  1  0.75246984  0.54125228  0.37555676  1.0
  O  O22  1  1.45874772  0.83430449  1.21121756  1.0
  O  O23  1  1.29125228  1.00246984  0.87555676  1.0
  O  O24  1  1.08728949  1.06458085  0.65872757  1.0
  O  O25  1  0.66271051  0.82143808  0.47729136  1.0
  O  O26  1  0.81458085  1.33728949  1.15872757  1.0
  O  O27  1  0.93541915  1.59414672  1.02270864  1.0
  O  O28  1  0.34414672  0.18541915  0.52270864  1.0
  O  O29  1  0.40585328  0.42856192  0.34127243  1.0
  O  O30  1  0.57143808  0.91271051  0.97729136  1.0
  O  O31  1  1.17856192  1.65585328  0.84127243  1.0
  O  O32  1  0.92926335  0.79562095  0.72132840  1.0
  O  O33  1  0.82073665  1.04206505  0.36635760  1.0
  O  O34  1  1.54562095  1.17926335  1.22132840  1.0
  O  O35  1  1.20437905  0.92570745  1.13364240  1.0
  O  O36  1  1.67570745  1.45437905  1.63364240  1.0
  O  O37  1  0.07429255  0.20793495  0.27867160  1.0
  O  O38  1  1.79206505  1.07073665  0.86635760  1.0
  O  O39  1  0.95793495  1.32429255  0.77867160  1.0
