# generated using pymatgen
data_NbPt3
_symmetry_space_group_name_H-M   'P 1'
_cell_length_a   4.60364498
_cell_length_b   5.59936528
_cell_length_c   4.92057095
_cell_angle_alpha   90.00000000
_cell_angle_beta   90.00000000
_cell_angle_gamma   90.00000000
_symmetry_Int_Tables_number   1
_chemical_formula_structural   NbPt3
_chemical_formula_sum   'Nb2 Pt6'
_cell_volume   126.83996774
_cell_formula_units_Z   2
loop_
 _symmetry_equiv_pos_site_id
 _symmetry_equiv_pos_as_xyz
  1  'x, y, z'
loop_
 _atom_site_type_symbol
 _atom_site_label
 _atom_site_symmetry_multiplicity
 _atom_site_fract_x
 _atom_site_fract_y
 _atom_site_fract_z
 _atom_site_occupancy
  Nb  Nb0  1  0.50000000  0.00000000  0.15909966  1.0
  Nb  Nb1  1  0.00000000  0.50000000  0.84090034  1.0
  Pt  Pt2  1  0.50000000  0.74992960  0.66538463  1.0
  Pt  Pt3  1  0.50000000  0.25007040  0.66538463  1.0
  Pt  Pt4  1  0.00000000  0.24992960  0.33461537  1.0
  Pt  Pt5  1  0.00000000  0.75007040  0.33461537  1.0
  Pt  Pt6  1  0.50000000  0.50000000  0.15970356  1.0
  Pt  Pt7  1  0.00000000  0.00000000  0.84029644  1.0
