# generated using pymatgen
data_Tl2GePbS4
_symmetry_space_group_name_H-M   'P 1'
_cell_length_a   10.72426324
_cell_length_b   9.35840591
_cell_length_c   9.34156516
_cell_angle_alpha   90.00000000
_cell_angle_beta   93.90332942
_cell_angle_gamma   90.00000000
_symmetry_Int_Tables_number   1
_chemical_formula_structural   Tl2GePbS4
_chemical_formula_sum   'Tl8 Ge4 Pb4 S16'
_cell_volume   935.36345828
_cell_formula_units_Z   4
loop_
 _symmetry_equiv_pos_site_id
 _symmetry_equiv_pos_as_xyz
  1  'x, y, z'
loop_
 _atom_site_type_symbol
 _atom_site_label
 _atom_site_symmetry_multiplicity
 _atom_site_fract_x
 _atom_site_fract_y
 _atom_site_fract_z
 _atom_site_occupancy
  Tl  Tl0  1  0.93794419  0.31057012  0.41219130  1.0
  Tl  Tl1  1  0.93794419  0.18942988  0.91219130  1.0
  Tl  Tl2  1  0.06205581  0.81057012  0.08780870  1.0
  Tl  Tl3  1  0.06205581  0.68942988  0.58780870  1.0
  Tl  Tl4  1  0.23122684  0.10796354  0.43211569  1.0
  Tl  Tl5  1  0.23122684  0.39203646  0.93211569  1.0
  Tl  Tl6  1  0.76877316  0.60796354  0.06788431  1.0
  Tl  Tl7  1  0.76877316  0.89203646  0.56788431  1.0
  Ge  Ge8  1  0.73626772  0.03558909  0.20105787  1.0
  Ge  Ge9  1  0.73626772  0.46441091  0.70105787  1.0
  Ge  Ge10  1  0.26373228  0.53558909  0.29894213  1.0
  Ge  Ge11  1  0.26373228  0.96441091  0.79894213  1.0
  Pb  Pb12  1  0.55413588  0.31504649  0.38616014  1.0
  Pb  Pb13  1  0.55413588  0.18495351  0.88616014  1.0
  Pb  Pb14  1  0.44586412  0.81504649  0.11383986  1.0
  Pb  Pb15  1  0.44586412  0.68495351  0.61383986  1.0
  S  S16  1  0.91557191  0.97573952  0.31683685  1.0
  S  S17  1  0.91557191  0.52426048  0.81683685  1.0
  S  S18  1  0.08442809  0.47573952  0.18316315  1.0
  S  S19  1  0.08442809  0.02426048  0.68316315  1.0
  S  S20  1  0.72890653  0.27661980  0.17383335  1.0
  S  S21  1  0.72890653  0.22338020  0.67383335  1.0
  S  S22  1  0.27109347  0.77661980  0.32616665  1.0
  S  S23  1  0.27109347  0.72338020  0.82616665  1.0
  S  S24  1  0.70340276  0.94285548  0.98081714  1.0
  S  S25  1  0.70340276  0.55714452  0.48081714  1.0
  S  S26  1  0.29659724  0.44285548  0.51918286  1.0
  S  S27  1  0.29659724  0.05714452  0.01918286  1.0
  S  S28  1  0.42425588  0.47839957  0.16698137  1.0
  S  S29  1  0.42425588  0.02160043  0.66698137  1.0
  S  S30  1  0.57574412  0.97839957  0.33301863  1.0
  S  S31  1  0.57574412  0.52160043  0.83301863  1.0
