# generated using pymatgen
data_MgAl2(OF4)2
_symmetry_space_group_name_H-M   'P 1'
_cell_length_a   7.29644549
_cell_length_b   7.25113635
_cell_length_c   5.13195083
_cell_angle_alpha   69.81724217
_cell_angle_beta   68.87055972
_cell_angle_gamma   41.31219811
_symmetry_Int_Tables_number   1
_chemical_formula_structural   MgAl2(OF4)2
_chemical_formula_sum   'Mg1 Al2 O2 F8'
_cell_volume   165.97524937
_cell_formula_units_Z   1
loop_
 _symmetry_equiv_pos_site_id
 _symmetry_equiv_pos_as_xyz
  1  'x, y, z'
loop_
 _atom_site_type_symbol
 _atom_site_label
 _atom_site_symmetry_multiplicity
 _atom_site_fract_x
 _atom_site_fract_y
 _atom_site_fract_z
 _atom_site_occupancy
  Mg  Mg0  1  0.00000000  0.00000000  0.00000000  1.0
  Al  Al1  1  -0.00000000  0.50000000  0.00000000  1.0
  Al  Al2  1  -0.50000000  1.00000000  0.50000000  1.0
  O  O3  1  -0.29913106  0.29913106  0.70086894  1.0
  O  O4  1  0.29913106  -0.29913106  1.29913106  1.0
  F  F5  1  0.08257849  0.69713771  -0.08257849  1.0
  F  F6  1  -0.69713771  0.91742151  0.69713771  1.0
  F  F7  1  -0.30286229  1.08257849  0.30286229  1.0
  F  F8  1  -0.08257849  0.30286229  0.08257849  1.0
  F  F9  1  -0.28430887  0.71569113  0.28430887  1.0
  F  F10  1  0.28430887  0.28430887  -0.28430887  1.0
  F  F11  1  -0.25000000  0.75000000  0.75000000  1.0
  F  F12  1  0.25000000  0.25000000  1.25000000  1.0
