# generated using pymatgen
data_BiPd3
_symmetry_space_group_name_H-M   'P 1'
_cell_length_a   9.55162133
_cell_length_b   5.84932187
_cell_length_c   5.06723212
_cell_angle_alpha   90.00000000
_cell_angle_beta   90.00000000
_cell_angle_gamma   90.00000000
_symmetry_Int_Tables_number   1
_chemical_formula_structural   BiPd3
_chemical_formula_sum   'Bi4 Pd12'
_cell_volume   283.10883011
_cell_formula_units_Z   4
loop_
 _symmetry_equiv_pos_site_id
 _symmetry_equiv_pos_as_xyz
  1  'x, y, z'
loop_
 _atom_site_type_symbol
 _atom_site_label
 _atom_site_symmetry_multiplicity
 _atom_site_fract_x
 _atom_site_fract_y
 _atom_site_fract_z
 _atom_site_occupancy
  Bi  Bi0  1  0.75000000  0.00000000  0.65016710  1.0
  Bi  Bi1  1  0.25000000  0.00000000  0.34983290  1.0
  Bi  Bi2  1  0.00000000  0.50000000  0.00000000  1.0
  Bi  Bi3  1  0.50000000  0.50000000  0.00000000  1.0
  Pd  Pd4  1  0.75000000  0.75089940  0.15984519  1.0
  Pd  Pd5  1  0.75000000  0.24910060  0.15984519  1.0
  Pd  Pd6  1  0.25000000  0.75089940  0.84015481  1.0
  Pd  Pd7  1  0.25000000  0.24910060  0.84015481  1.0
  Pd  Pd8  1  0.00000000  0.75073243  0.50000000  1.0
  Pd  Pd9  1  0.00000000  0.24926757  0.50000000  1.0
  Pd  Pd10  1  0.50000000  0.75073243  0.50000000  1.0
  Pd  Pd11  1  0.50000000  0.24926757  0.50000000  1.0
  Pd  Pd12  1  0.75000000  0.50000000  0.64529022  1.0
  Pd  Pd13  1  0.25000000  0.50000000  0.35470978  1.0
  Pd  Pd14  1  0.00000000  0.00000000  0.00000000  1.0
  Pd  Pd15  1  0.50000000  0.00000000  0.00000000  1.0
