# generated using pymatgen
data_AlH4NF4
_symmetry_space_group_name_H-M   'P 1'
_cell_length_a   5.13964580
_cell_length_b   5.13964580
_cell_length_c   12.96330623
_cell_angle_alpha   90.00000000
_cell_angle_beta   90.00000000
_cell_angle_gamma   90.00000000
_symmetry_Int_Tables_number   1
_chemical_formula_structural   AlH4NF4
_chemical_formula_sum   'Al4 H16 N4 F16'
_cell_volume   342.43816485
_cell_formula_units_Z   4
loop_
 _symmetry_equiv_pos_site_id
 _symmetry_equiv_pos_as_xyz
  1  'x, y, z'
loop_
 _atom_site_type_symbol
 _atom_site_label
 _atom_site_symmetry_multiplicity
 _atom_site_fract_x
 _atom_site_fract_y
 _atom_site_fract_z
 _atom_site_occupancy
  Al  Al0  1  0.50000000  0.00000000  0.00000000  1.0
  Al  Al1  1  0.00000000  0.50000000  0.00000000  1.0
  Al  Al2  1  0.00000000  0.50000000  0.50000000  1.0
  Al  Al3  1  0.50000000  0.00000000  0.50000000  1.0
  H  H4  1  0.49897590  0.66532583  0.79586500  1.0
  H  H5  1  0.49897590  0.66532583  0.20413500  1.0
  H  H6  1  0.99897590  0.83467417  0.79586500  1.0
  H  H7  1  0.99897590  0.83467417  0.20413500  1.0
  H  H8  1  0.33467417  0.49897590  0.29586500  1.0
  H  H9  1  0.33467417  0.49897590  0.70413500  1.0
  H  H10  1  0.83467417  0.00102410  0.29586500  1.0
  H  H11  1  0.83467417  0.00102410  0.70413500  1.0
  H  H12  1  0.50102410  0.33467417  0.79586500  1.0
  H  H13  1  0.50102410  0.33467417  0.20413500  1.0
  H  H14  1  0.00102410  0.16532583  0.79586500  1.0
  H  H15  1  0.00102410  0.16532583  0.20413500  1.0
  H  H16  1  0.66532583  0.50102410  0.29586500  1.0
  H  H17  1  0.66532583  0.50102410  0.70413500  1.0
  H  H18  1  0.16532583  0.99897590  0.29586500  1.0
  H  H19  1  0.16532583  0.99897590  0.70413500  1.0
  N  N20  1  0.50000000  0.50000000  0.75000000  1.0
  N  N21  1  0.50000000  0.50000000  0.25000000  1.0
  N  N22  1  0.00000000  0.00000000  0.75000000  1.0
  N  N23  1  0.00000000  0.00000000  0.25000000  1.0
  F  F24  1  0.29315445  0.70719312  0.00000000  1.0
  F  F25  1  0.79315445  0.79280688  0.00000000  1.0
  F  F26  1  0.29280688  0.29315445  0.50000000  1.0
  F  F27  1  0.79280688  0.20684555  0.50000000  1.0
  F  F28  1  0.70684555  0.29280688  0.00000000  1.0
  F  F29  1  0.20684555  0.20719312  0.00000000  1.0
  F  F30  1  0.70719312  0.70684555  0.50000000  1.0
  F  F31  1  0.20719312  0.79315445  0.50000000  1.0
  F  F32  1  0.50000000  0.00000000  0.86093910  1.0
  F  F33  1  0.50000000  0.00000000  0.13906090  1.0
  F  F34  1  0.00000000  0.50000000  0.86093910  1.0
  F  F35  1  0.00000000  0.50000000  0.13906090  1.0
  F  F36  1  0.00000000  0.50000000  0.36093910  1.0
  F  F37  1  0.00000000  0.50000000  0.63906090  1.0
  F  F38  1  0.50000000  0.00000000  0.36093910  1.0
  F  F39  1  0.50000000  0.00000000  0.63906090  1.0
