# generated using pymatgen
data_FeSe2
_symmetry_space_group_name_H-M   'P 1'
_cell_length_a   4.80349031
_cell_length_b   5.77489593
_cell_length_c   3.59712556
_cell_angle_alpha   90.00000000
_cell_angle_beta   90.00000000
_cell_angle_gamma   90.00000000
_symmetry_Int_Tables_number   1
_chemical_formula_structural   FeSe2
_chemical_formula_sum   'Fe2 Se4'
_cell_volume   99.78302774
_cell_formula_units_Z   2
loop_
 _symmetry_equiv_pos_site_id
 _symmetry_equiv_pos_as_xyz
  1  'x, y, z'
loop_
 _atom_site_type_symbol
 _atom_site_label
 _atom_site_symmetry_multiplicity
 _atom_site_fract_x
 _atom_site_fract_y
 _atom_site_fract_z
 _atom_site_occupancy
  Fe  Fe0  1  0.50000000  0.50000000  0.50000000  1.0
  Fe  Fe1  1  0.00000000  0.00000000  0.00000000  1.0
  Se  Se2  1  0.28214915  0.86734106  0.50000000  1.0
  Se  Se3  1  0.78214915  0.63265894  0.00000000  1.0
  Se  Se4  1  0.71785085  0.13265894  0.50000000  1.0
  Se  Se5  1  0.21785085  0.36734106  0.00000000  1.0
