# generated using pymatgen
data_CsC8
_symmetry_space_group_name_H-M   'P 1'
_cell_length_a   4.97188733
_cell_length_b   4.97188733
_cell_length_c   18.15210401
_cell_angle_alpha   90.00000000
_cell_angle_beta   90.00000000
_cell_angle_gamma   120.00000000
_symmetry_Int_Tables_number   1
_chemical_formula_structural   CsC8
_chemical_formula_sum   'Cs3 C24'
_cell_volume   388.59764060
_cell_formula_units_Z   3
loop_
 _symmetry_equiv_pos_site_id
 _symmetry_equiv_pos_as_xyz
  1  'x, y, z'
loop_
 _atom_site_type_symbol
 _atom_site_label
 _atom_site_symmetry_multiplicity
 _atom_site_fract_x
 _atom_site_fract_y
 _atom_site_fract_z
 _atom_site_occupancy
  Cs  Cs0  1  0.50000000  0.50000000  0.83333333  1.0
  Cs  Cs1  1  0.50000000  0.00000000  0.50000000  1.0
  Cs  Cs2  1  0.00000000  0.50000000  0.16666667  1.0
  C  C3  1  0.83342244  0.66659046  0.33455903  1.0
  C  C4  1  0.83342244  0.16683198  -0.00122570  1.0
  C  C5  1  0.66659046  0.83342244  0.33210763  1.0
  C  C6  1  0.66659046  0.83316802  0.00122570  1.0
  C  C7  1  0.83316802  0.66659046  0.66544097  1.0
  C  C8  1  0.83316802  0.16657756  0.66789237  1.0
  C  C9  1  0.33340954  0.16657756  0.33210763  1.0
  C  C10  1  0.33340954  0.16683198  0.00122570  1.0
  C  C11  1  0.16657756  0.83316802  -0.00122570  1.0
  C  C12  1  0.16657756  0.33340954  0.33455903  1.0
  C  C13  1  0.16683198  0.83342244  0.66789237  1.0
  C  C14  1  0.16683198  0.33340954  0.66544097  1.0
  C  C15  1  0.16672119  0.83327881  0.33333333  1.0
  C  C16  1  0.16672119  0.33344237  -0.00000000  1.0
  C  C17  1  0.83327881  0.16672119  0.33333333  1.0
  C  C18  1  0.83327881  0.66655763  0.00000000  1.0
  C  C19  1  0.66655763  0.83327881  0.66666667  1.0
  C  C20  1  0.33344237  0.16672119  0.66666667  1.0
  C  C21  1  0.33327134  0.66672866  0.33333333  1.0
  C  C22  1  0.33327134  0.66654268  0.00000000  1.0
  C  C23  1  0.66672866  0.33327134  0.33333333  1.0
  C  C24  1  0.66672866  0.33345732  0.00000000  1.0
  C  C25  1  0.33345732  0.66672866  0.66666667  1.0
  C  C26  1  0.66654268  0.33327134  0.66666667  1.0
