# generated using pymatgen
data_Mn4Cu3BiO12
_symmetry_space_group_name_H-M   'P 1'
_cell_length_a   6.34831312
_cell_length_b   6.34831312
_cell_length_c   6.34831312
_cell_angle_alpha   109.47122063
_cell_angle_beta   109.47122063
_cell_angle_gamma   109.47122063
_symmetry_Int_Tables_number   1
_chemical_formula_structural   Mn4Cu3BiO12
_chemical_formula_sum   'Mn4 Cu3 Bi1 O12'
_cell_volume   196.94870445
_cell_formula_units_Z   1
loop_
 _symmetry_equiv_pos_site_id
 _symmetry_equiv_pos_as_xyz
  1  'x, y, z'
loop_
 _atom_site_type_symbol
 _atom_site_label
 _atom_site_symmetry_multiplicity
 _atom_site_fract_x
 _atom_site_fract_y
 _atom_site_fract_z
 _atom_site_occupancy
  Mn  Mn0  1  0.50000000  1.00000000  1.00000000  1.0
  Mn  Mn1  1  0.50000000  0.50000000  0.50000000  1.0
  Mn  Mn2  1  1.00000000  1.00000000  0.50000000  1.0
  Mn  Mn3  1  1.00000000  0.50000000  1.00000000  1.0
  Cu  Cu4  1  0.50000000  0.50000000  -0.00000000  1.0
  Cu  Cu5  1  0.00000000  0.50000000  0.50000000  1.0
  Cu  Cu6  1  0.50000000  0.00000000  0.50000000  1.0
  Bi  Bi7  1  0.00000000  0.00000000  0.00000000  1.0
  O  O8  1  0.81950671  1.30192840  1.12143511  1.0
  O  O9  1  0.81950671  0.69807160  0.51757831  1.0
  O  O10  1  0.18049329  0.30192840  0.48242169  1.0
  O  O11  1  0.18049329  0.69807160  0.87856489  1.0
  O  O12  1  0.51757831  0.81950671  0.69807160  1.0
  O  O13  1  1.12143511  0.81950671  1.30192840  1.0
  O  O14  1  0.69807160  0.87856489  0.18049329  1.0
  O  O15  1  0.69807160  0.51757831  0.81950671  1.0
  O  O16  1  0.87856489  0.18049329  0.69807160  1.0
  O  O17  1  0.48242169  0.18049329  0.30192840  1.0
  O  O18  1  0.30192840  0.48242169  0.18049329  1.0
  O  O19  1  1.30192840  1.12143511  0.81950671  1.0
