# generated using pymatgen
data_Al2Te4O11
_symmetry_space_group_name_H-M   'P 1'
_cell_length_a   6.93047147
_cell_length_b   7.73348057
_cell_length_c   9.74409462
_cell_angle_alpha   90.00000000
_cell_angle_beta   100.64870842
_cell_angle_gamma   90.00000000
_symmetry_Int_Tables_number   1
_chemical_formula_structural   Al2Te4O11
_chemical_formula_sum   'Al4 Te8 O22'
_cell_volume   513.25710276
_cell_formula_units_Z   2
loop_
 _symmetry_equiv_pos_site_id
 _symmetry_equiv_pos_as_xyz
  1  'x, y, z'
loop_
 _atom_site_type_symbol
 _atom_site_label
 _atom_site_symmetry_multiplicity
 _atom_site_fract_x
 _atom_site_fract_y
 _atom_site_fract_z
 _atom_site_occupancy
  Al  Al0  1  0.81872949  0.50309790  0.88599627  1.0
  Al  Al1  1  0.81872949  -0.00309790  0.38599627  1.0
  Al  Al2  1  0.18127051  1.00309790  0.61400373  1.0
  Al  Al3  1  0.18127051  0.49690210  0.11400373  1.0
  Te  Te4  1  0.82151213  0.64710489  0.58739409  1.0
  Te  Te5  1  0.82151213  0.85289511  0.08739409  1.0
  Te  Te6  1  0.17848787  0.14710489  0.91260591  1.0
  Te  Te7  1  0.17848787  0.35289511  0.41260591  1.0
  Te  Te8  1  0.34605303  0.65065531  0.82668439  1.0
  Te  Te9  1  0.34605303  0.84934469  0.32668439  1.0
  Te  Te10  1  0.65394697  0.15065531  0.67331561  1.0
  Te  Te11  1  0.65394697  0.34934469  0.17331561  1.0
  O  O12  1  0.97222898  0.63798693  0.77608831  1.0
  O  O13  1  0.97222898  0.86201307  0.27608831  1.0
  O  O14  1  0.02777102  0.13798693  0.72391169  1.0
  O  O15  1  0.02777102  0.36201307  0.22391169  1.0
  O  O16  1  0.94082830  0.87254337  0.55238901  1.0
  O  O17  1  0.94082830  0.62745663  0.05238901  1.0
  O  O18  1  0.05917170  0.37254337  0.94761099  1.0
  O  O19  1  0.05917170  0.12745663  0.44761099  1.0
  O  O20  1  0.66584993  0.35129060  0.97554545  1.0
  O  O21  1  0.66584993  0.14870940  0.47554545  1.0
  O  O22  1  0.33415007  0.85129060  0.52445455  1.0
  O  O23  1  0.33415007  0.64870940  0.02445455  1.0
  O  O24  1  0.63270837  0.68861464  0.85436074  1.0
  O  O25  1  0.63270837  0.81138536  0.35436074  1.0
  O  O26  1  0.36729163  0.18861464  0.64563926  1.0
  O  O27  1  0.36729163  0.31138536  0.14563926  1.0
  O  O28  1  0.29099034  0.89683241  0.78912684  1.0
  O  O29  1  0.29099034  0.60316759  0.28912684  1.0
  O  O30  1  0.70900966  0.39683241  0.71087316  1.0
  O  O31  1  0.70900966  0.10316759  0.21087316  1.0
  O  O32  1  -0.00000000  -0.00000000  -0.00000000  1.0
  O  O33  1  0.00000000  0.50000000  0.50000000  1.0
