# generated using pymatgen
data_BaV2SeO8
_symmetry_space_group_name_H-M   'P 1'
_cell_length_a   14.30246043
_cell_length_b   5.41899377
_cell_length_c   9.26160193
_cell_angle_alpha   90.00000000
_cell_angle_beta   90.00000000
_cell_angle_gamma   90.00000000
_symmetry_Int_Tables_number   1
_chemical_formula_structural   BaV2SeO8
_chemical_formula_sum   'Ba4 V8 Se4 O32'
_cell_volume   717.81993882
_cell_formula_units_Z   4
loop_
 _symmetry_equiv_pos_site_id
 _symmetry_equiv_pos_as_xyz
  1  'x, y, z'
loop_
 _atom_site_type_symbol
 _atom_site_label
 _atom_site_symmetry_multiplicity
 _atom_site_fract_x
 _atom_site_fract_y
 _atom_site_fract_z
 _atom_site_occupancy
  Ba  Ba0  1  0.07875401  0.75000000  0.70904828  1.0
  Ba  Ba1  1  0.57875401  0.75000000  0.79095172  1.0
  Ba  Ba2  1  0.92124599  0.25000000  0.29095172  1.0
  Ba  Ba3  1  0.42124599  0.25000000  0.20904828  1.0
  V  V4  1  0.33561146  0.75000000  0.53943469  1.0
  V  V5  1  0.83561146  0.75000000  0.96056531  1.0
  V  V6  1  0.66438854  0.25000000  0.46056531  1.0
  V  V7  1  0.16438854  0.25000000  0.03943469  1.0
  V  V8  1  0.28771964  0.75000000  0.95047542  1.0
  V  V9  1  0.78771964  0.75000000  0.54952458  1.0
  V  V10  1  0.71228036  0.25000000  0.04952458  1.0
  V  V11  1  0.21228036  0.25000000  0.45047542  1.0
  Se  Se12  1  0.10527365  0.75000000  0.29070120  1.0
  Se  Se13  1  0.60527365  0.75000000  0.20929880  1.0
  Se  Se14  1  0.89472635  0.25000000  0.70929880  1.0
  Se  Se15  1  0.39472635  0.25000000  0.79070120  1.0
  O  O16  1  0.38766794  0.49771764  0.91503287  1.0
  O  O17  1  0.38766794  0.00228236  0.91503287  1.0
  O  O18  1  0.88766794  0.49771764  0.58496713  1.0
  O  O19  1  0.88766794  0.00228236  0.58496713  1.0
  O  O20  1  0.61233206  0.99771764  0.08496713  1.0
  O  O21  1  0.61233206  0.50228236  0.08496713  1.0
  O  O22  1  0.11233206  0.99771764  0.41503287  1.0
  O  O23  1  0.11233206  0.50228236  0.41503287  1.0
  O  O24  1  0.19540741  0.98659359  0.93223766  1.0
  O  O25  1  0.19540741  0.51340641  0.93223766  1.0
  O  O26  1  0.69540741  0.98659359  0.56776234  1.0
  O  O27  1  0.69540741  0.51340641  0.56776234  1.0
  O  O28  1  0.80459259  0.48659359  0.06776234  1.0
  O  O29  1  0.80459259  0.01340641  0.06776234  1.0
  O  O30  1  0.30459259  0.48659359  0.43223766  1.0
  O  O31  1  0.30459259  0.01340641  0.43223766  1.0
  O  O32  1  0.48958483  0.75000000  0.23468303  1.0
  O  O33  1  0.98958483  0.75000000  0.26531697  1.0
  O  O34  1  0.51041517  0.25000000  0.76531697  1.0
  O  O35  1  0.01041517  0.25000000  0.73468303  1.0
  O  O36  1  0.44699194  0.75000000  0.58293436  1.0
  O  O37  1  0.94699194  0.75000000  0.91706564  1.0
  O  O38  1  0.55300806  0.25000000  0.41706564  1.0
  O  O39  1  0.05300806  0.25000000  0.08293436  1.0
  O  O40  1  0.30504076  0.75000000  0.12091808  1.0
  O  O41  1  0.80504076  0.75000000  0.37908192  1.0
  O  O42  1  0.69495924  0.25000000  0.87908192  1.0
  O  O43  1  0.19495924  0.25000000  0.62091808  1.0
  O  O44  1  0.27379537  0.75000000  0.69358622  1.0
  O  O45  1  0.77379537  0.75000000  0.80641378  1.0
  O  O46  1  0.72620463  0.25000000  0.30641378  1.0
  O  O47  1  0.22620463  0.25000000  0.19358622  1.0
