# generated using pymatgen
data_CsScAs2(HO4)2
_symmetry_space_group_name_H-M   'P 1'
_cell_length_a   5.64491552
_cell_length_b   9.56953358
_cell_length_c   15.30496123
_cell_angle_alpha   90.00000000
_cell_angle_beta   96.20471343
_cell_angle_gamma   90.00000000
_symmetry_Int_Tables_number   1
_chemical_formula_structural   CsScAs2(HO4)2
_chemical_formula_sum   'Cs4 Sc4 As8 H8 O32'
_cell_volume   821.91878474
_cell_formula_units_Z   4
loop_
 _symmetry_equiv_pos_site_id
 _symmetry_equiv_pos_as_xyz
  1  'x, y, z'
loop_
 _atom_site_type_symbol
 _atom_site_label
 _atom_site_symmetry_multiplicity
 _atom_site_fract_x
 _atom_site_fract_y
 _atom_site_fract_z
 _atom_site_occupancy
  Cs  Cs0  1  0.72856393  0.99325180  0.89216988  1.0
  Cs  Cs1  1  0.72856393  0.50674820  0.39216988  1.0
  Cs  Cs2  1  0.27143607  0.49325180  0.60783012  1.0
  Cs  Cs3  1  0.27143607  0.00674820  0.10783012  1.0
  Sc  Sc4  1  0.74267761  0.53372740  0.84733101  1.0
  Sc  Sc5  1  0.74267761  0.96627260  0.34733101  1.0
  Sc  Sc6  1  0.25732239  0.03372740  0.65266899  1.0
  Sc  Sc7  1  0.25732239  0.46627260  0.15266899  1.0
  As  As8  1  0.78131914  0.24736237  0.69053504  1.0
  As  As9  1  0.78131914  0.25263763  0.19053504  1.0
  As  As10  1  0.21868086  0.74736237  0.80946496  1.0
  As  As11  1  0.21868086  0.75263763  0.30946496  1.0
  As  As12  1  0.71632812  0.85120771  0.55902597  1.0
  As  As13  1  0.71632812  0.64879229  0.05902597  1.0
  As  As14  1  0.28367188  0.35120771  0.94097403  1.0
  As  As15  1  0.28367188  0.14879229  0.44097403  1.0
  H  H16  1  0.83178142  0.69382249  0.67214169  1.0
  H  H17  1  0.83178142  0.80617751  0.17214169  1.0
  H  H18  1  0.16821858  0.19382249  0.82785831  1.0
  H  H19  1  0.16821858  0.30617751  0.32785831  1.0
  H  H20  1  0.25954366  0.70923544  0.96084264  1.0
  H  H21  1  0.25954366  0.79076456  0.46084264  1.0
  H  H22  1  0.74045634  0.20923544  0.53915736  1.0
  H  H23  1  0.74045634  0.29076456  0.03915736  1.0
  O  O24  1  0.92815481  0.69478476  0.77825009  1.0
  O  O25  1  0.92815481  0.80521524  0.27825009  1.0
  O  O26  1  0.07184519  0.19478476  0.72174991  1.0
  O  O27  1  0.07184519  0.30521524  0.22174991  1.0
  O  O28  1  0.91418404  0.97199019  0.60571174  1.0
  O  O29  1  0.91418404  0.52800981  0.10571174  1.0
  O  O30  1  0.08581596  0.47199019  0.89428826  1.0
  O  O31  1  0.08581596  0.02800981  0.39428826  1.0
  O  O32  1  0.78732597  0.68308796  0.60651262  1.0
  O  O33  1  0.78732597  0.81691204  0.10651262  1.0
  O  O34  1  0.21267403  0.18308796  0.89348738  1.0
  O  O35  1  0.21267403  0.31691204  0.39348738  1.0
  O  O36  1  0.74040813  0.67981246  0.95009616  1.0
  O  O37  1  0.74040813  0.82018754  0.45009616  1.0
  O  O38  1  0.25959187  0.17981246  0.54990384  1.0
  O  O39  1  0.25959187  0.32018754  0.04990384  1.0
  O  O40  1  0.72663270  0.40662477  0.73519886  1.0
  O  O41  1  0.72663270  0.09337523  0.23519886  1.0
  O  O42  1  0.27336730  0.90662477  0.76480114  1.0
  O  O43  1  0.27336730  0.59337523  0.26480114  1.0
  O  O44  1  0.42301636  0.88586499  0.57524242  1.0
  O  O45  1  0.42301636  0.61413501  0.07524242  1.0
  O  O46  1  0.57698364  0.38586499  0.92475758  1.0
  O  O47  1  0.57698364  0.11413501  0.42475758  1.0
  O  O48  1  0.42495176  0.62478098  0.78664607  1.0
  O  O49  1  0.42495176  0.87521902  0.28664607  1.0
  O  O50  1  0.57504824  0.12478098  0.71335393  1.0
  O  O51  1  0.57504824  0.37521902  0.21335393  1.0
  O  O52  1  0.24264792  0.79437513  0.92404439  1.0
  O  O53  1  0.24264792  0.70562487  0.42404439  1.0
  O  O54  1  0.75735208  0.29437513  0.57595561  1.0
  O  O55  1  0.75735208  0.20562487  0.07595561  1.0
