# generated using pymatgen
data_HfSiRu
_symmetry_space_group_name_H-M   'P 1'
_cell_length_a   6.65170043
_cell_length_b   6.65170043
_cell_length_c   3.69378482
_cell_angle_alpha   90.00000000
_cell_angle_beta   90.00000000
_cell_angle_gamma   120.00000000
_symmetry_Int_Tables_number   1
_chemical_formula_structural   HfSiRu
_chemical_formula_sum   'Hf3 Si3 Ru3'
_cell_volume   141.53621837
_cell_formula_units_Z   3
loop_
 _symmetry_equiv_pos_site_id
 _symmetry_equiv_pos_as_xyz
  1  'x, y, z'
loop_
 _atom_site_type_symbol
 _atom_site_label
 _atom_site_symmetry_multiplicity
 _atom_site_fract_x
 _atom_site_fract_y
 _atom_site_fract_z
 _atom_site_occupancy
  Hf  Hf0  1  0.41469161  0.41469161  -0.00000000  1.0
  Hf  Hf1  1  -0.00000000  0.58530839  0.00000000  1.0
  Hf  Hf2  1  0.58530839  0.00000000  0.00000000  1.0
  Si  Si3  1  0.33333333  0.66666667  0.50000000  1.0
  Si  Si4  1  0.66666667  0.33333333  0.50000000  1.0
  Si  Si5  1  -0.00000000  -0.00000000  0.00000000  1.0
  Ru  Ru6  1  0.75419876  0.75419876  0.50000000  1.0
  Ru  Ru7  1  -0.00000000  0.24580124  0.50000000  1.0
  Ru  Ru8  1  0.24580124  0.00000000  0.50000000  1.0
