# generated using pymatgen
data_BaAl2Si3(NO)4
_symmetry_space_group_name_H-M   'P 1'
_cell_length_a   7.42137779
_cell_length_b   7.42137779
_cell_length_c   9.57637454
_cell_angle_alpha   90.00000000
_cell_angle_beta   90.00000000
_cell_angle_gamma   134.20565943
_symmetry_Int_Tables_number   1
_chemical_formula_structural   BaAl2Si3(NO)4
_chemical_formula_sum   'Ba2 Al4 Si6 N8 O8'
_cell_volume   378.08851855
_cell_formula_units_Z   2
loop_
 _symmetry_equiv_pos_site_id
 _symmetry_equiv_pos_as_xyz
  1  'x, y, z'
loop_
 _atom_site_type_symbol
 _atom_site_label
 _atom_site_symmetry_multiplicity
 _atom_site_fract_x
 _atom_site_fract_y
 _atom_site_fract_z
 _atom_site_occupancy
  Ba  Ba0  1  -0.01822750  0.01822750  0.49921338  1.0
  Ba  Ba1  1  0.01822750  0.98177250  -0.00078662  1.0
  Al  Al2  1  0.47374929  0.52625071  0.74502201  1.0
  Al  Al3  1  -0.47374929  0.47374929  0.24502201  1.0
  Al  Al4  1  0.28732109  0.71267891  0.96093388  1.0
  Al  Al5  1  -0.28732109  0.28732109  0.46093388  1.0
  Si  Si6  1  0.29798837  0.70201163  0.51402925  1.0
  Si  Si7  1  -0.29798837  0.29798837  0.01402925  1.0
  Si  Si8  1  -0.08234978  0.57110883  0.73845777  1.0
  Si  Si9  1  0.42889117  1.08234978  0.73845777  1.0
  Si  Si10  1  0.08234978  0.42889117  0.23845777  1.0
  Si  Si11  1  0.57110883  0.91765022  0.23845777  1.0
  N  N12  1  0.20824496  0.79175504  0.64930459  1.0
  N  N13  1  -0.20824496  0.20824496  0.14930459  1.0
  N  N14  1  -0.28767439  0.28767439  0.65434540  1.0
  N  N15  1  0.28767439  0.71232561  0.15434540  1.0
  N  N16  1  -0.04326270  0.53580902  0.91120177  1.0
  N  N17  1  0.46419098  1.04326270  0.91120177  1.0
  N  N18  1  0.04326270  0.46419098  0.41120177  1.0
  N  N19  1  0.53580902  0.95673730  0.41120177  1.0
  O  O20  1  -0.19815341  0.70166539  0.73988769  1.0
  O  O21  1  0.29833461  1.19815341  0.73988769  1.0
  O  O22  1  0.19815341  0.29833461  0.23988769  1.0
  O  O23  1  0.70166539  0.80184659  0.23988769  1.0
  O  O24  1  0.40688677  0.59311323  0.58835208  1.0
  O  O25  1  -0.40688677  0.40688677  0.08835208  1.0
  O  O26  1  0.40671372  0.59328628  0.89740496  1.0
  O  O27  1  -0.40671372  0.40671372  0.39740496  1.0
