# generated using pymatgen
data_Ba2NaNb5O15
_symmetry_space_group_name_H-M   'P 1'
_cell_length_a   12.55722034
_cell_length_b   12.55773355
_cell_length_c   4.11130715
_cell_angle_alpha   90.00000000
_cell_angle_beta   90.00000000
_cell_angle_gamma   90.00000000
_symmetry_Int_Tables_number   1
_chemical_formula_structural   Ba2NaNb5O15
_chemical_formula_sum   'Ba4 Na2 Nb10 O30'
_cell_volume   648.31295858
_cell_formula_units_Z   2
loop_
 _symmetry_equiv_pos_site_id
 _symmetry_equiv_pos_as_xyz
  1  'x, y, z'
loop_
 _atom_site_type_symbol
 _atom_site_label
 _atom_site_symmetry_multiplicity
 _atom_site_fract_x
 _atom_site_fract_y
 _atom_site_fract_z
 _atom_site_occupancy
  Ba  Ba0  1  0.32934151  0.67117956  0.49842040  1.0
  Ba  Ba1  1  0.82934151  0.82882044  0.49842040  1.0
  Ba  Ba2  1  0.67065849  0.32882044  0.49842040  1.0
  Ba  Ba3  1  0.17065849  0.17117956  0.49842040  1.0
  Na  Na4  1  0.50000000  0.00000000  0.45975830  1.0
  Na  Na5  1  0.00000000  0.50000000  0.45975830  1.0
  Nb  Nb6  1  0.29155553  0.92465069  -0.00688151  1.0
  Nb  Nb7  1  0.79155553  0.57534931  -0.00688151  1.0
  Nb  Nb8  1  0.70844447  0.07534931  -0.00688151  1.0
  Nb  Nb9  1  0.20844447  0.42465069  -0.00688151  1.0
  Nb  Nb10  1  0.07539707  0.70840769  -0.00691194  1.0
  Nb  Nb11  1  0.57539707  0.79159231  -0.00691194  1.0
  Nb  Nb12  1  0.92460293  0.29159231  -0.00691194  1.0
  Nb  Nb13  1  0.42460293  0.20840769  -0.00691194  1.0
  Nb  Nb14  1  0.50000000  0.50000000  -0.01238667  1.0
  Nb  Nb15  1  0.00000000  0.00000000  -0.01238667  1.0
  O  O16  1  0.49436154  0.65654013  0.04673956  1.0
  O  O17  1  0.99436154  0.84345987  0.04673956  1.0
  O  O18  1  0.50563846  0.34345987  0.04673956  1.0
  O  O19  1  0.00563846  0.15654013  0.04673956  1.0
  O  O20  1  0.43116255  0.85836854  0.05600861  1.0
  O  O21  1  0.93116255  0.64163146  0.05600861  1.0
  O  O22  1  0.56883745  0.14163146  0.05600861  1.0
  O  O23  1  0.06883745  0.35836854  0.05600861  1.0
  O  O24  1  0.34342437  0.50574285  0.04683897  1.0
  O  O25  1  0.84342437  0.99425715  0.04683897  1.0
  O  O26  1  0.65657563  0.49425715  0.04683897  1.0
  O  O27  1  0.15657563  0.00574285  0.04683897  1.0
  O  O28  1  0.29554609  0.92262781  0.54734628  1.0
  O  O29  1  0.79554609  0.57737219  0.54734628  1.0
  O  O30  1  0.70445391  0.07737219  0.54734628  1.0
  O  O31  1  0.20445391  0.42262781  0.54734628  1.0
  O  O32  1  0.21806396  0.78187944  0.03860418  1.0
  O  O33  1  0.71806396  0.71812056  0.03860418  1.0
  O  O34  1  0.78193604  0.21812056  0.03860418  1.0
  O  O35  1  0.28193604  0.28187944  0.03860418  1.0
  O  O36  1  0.14135812  0.56867474  0.05586849  1.0
  O  O37  1  0.64135812  0.93132526  0.05586849  1.0
  O  O38  1  0.85864188  0.43132526  0.05586849  1.0
  O  O39  1  0.35864188  0.06867474  0.05586849  1.0
  O  O40  1  0.07726141  0.70443887  0.54729938  1.0
  O  O41  1  0.57726141  0.79556113  0.54729938  1.0
  O  O42  1  0.92273859  0.29556113  0.54729938  1.0
  O  O43  1  0.42273859  0.20443887  0.54729938  1.0
  O  O44  1  0.50000000  0.50000000  0.54156353  1.0
  O  O45  1  0.00000000  0.00000000  0.54156353  1.0
