# generated using pymatgen
data_PH8SN3O
_symmetry_space_group_name_H-M   'P 1'
_cell_length_a   5.43390631
_cell_length_b   6.50058749
_cell_length_c   8.30161774
_cell_angle_alpha   90.00000000
_cell_angle_beta   99.53047662
_cell_angle_gamma   90.00000000
_symmetry_Int_Tables_number   1
_chemical_formula_structural   PH8SN3O
_chemical_formula_sum   'P2 H16 S2 N6 O2'
_cell_volume   289.19545121
_cell_formula_units_Z   2
loop_
 _symmetry_equiv_pos_site_id
 _symmetry_equiv_pos_as_xyz
  1  'x, y, z'
loop_
 _atom_site_type_symbol
 _atom_site_label
 _atom_site_symmetry_multiplicity
 _atom_site_fract_x
 _atom_site_fract_y
 _atom_site_fract_z
 _atom_site_occupancy
  P  P0  1  0.71082336  0.71567166  0.74568032  1.0
  P  P1  1  0.28917664  0.21567166  0.25431968  1.0
  H  H2  1  0.98866826  0.27792411  0.73681094  1.0
  H  H3  1  0.01133174  0.77792411  0.26318906  1.0
  H  H4  1  0.98206136  0.51616561  0.92481578  1.0
  H  H5  1  0.01793864  0.01616561  0.07518422  1.0
  H  H6  1  0.99164444  0.52564432  0.32415727  1.0
  H  H7  1  0.00835556  0.02564432  0.67584273  1.0
  H  H8  1  0.89117533  0.71807483  0.43613110  1.0
  H  H9  1  0.10882467  0.21807483  0.56386890  1.0
  H  H10  1  0.69026893  0.43175665  0.90776599  1.0
  H  H11  1  0.30973107  0.93175665  0.09223401  1.0
  H  H12  1  0.73026280  0.65283834  0.24774071  1.0
  H  H13  1  0.26973720  0.15283834  0.75225929  1.0
  H  H14  1  0.45486268  0.51728615  0.55306247  1.0
  H  H15  1  0.54513732  0.01728615  0.44693753  1.0
  H  H16  1  0.28286502  0.67911515  0.65386003  1.0
  H  H17  1  0.71713498  0.17911515  0.34613997  1.0
  S  S18  1  0.62126163  0.94078168  0.89139244  1.0
  S  S19  1  0.37873837  0.44078168  0.10860756  1.0
  N  N20  1  0.90557967  0.67154970  0.31695007  1.0
  N  N21  1  0.09442033  0.17154970  0.68304993  1.0
  N  N22  1  0.81803885  0.49552814  0.84372418  1.0
  N  N23  1  0.18196115  -0.00447186  0.15627582  1.0
  N  N24  1  0.45127940  0.64962943  0.61876042  1.0
  N  N25  1  0.54872060  0.14962943  0.38123958  1.0
  O  O26  1  0.91425525  0.77503425  0.64475038  1.0
  O  O27  1  0.08574475  0.27503425  0.35524962  1.0
