# generated using pymatgen
data_Sn2CN2O
_symmetry_space_group_name_H-M   'P 1'
_cell_length_a   5.53780282
_cell_length_b   13.78140560
_cell_length_c   5.68777531
_cell_angle_alpha   90.00000000
_cell_angle_beta   90.00000000
_cell_angle_gamma   90.00000000
_symmetry_Int_Tables_number   1
_chemical_formula_structural   Sn2CN2O
_chemical_formula_sum   'Sn8 C4 N8 O4'
_cell_volume   434.08365622
_cell_formula_units_Z   4
loop_
 _symmetry_equiv_pos_site_id
 _symmetry_equiv_pos_as_xyz
  1  'x, y, z'
loop_
 _atom_site_type_symbol
 _atom_site_label
 _atom_site_symmetry_multiplicity
 _atom_site_fract_x
 _atom_site_fract_y
 _atom_site_fract_z
 _atom_site_occupancy
  Sn  Sn0  1  0.94867224  0.15028773  0.95733253  1.0
  Sn  Sn1  1  0.55132776  0.34971227  0.95733253  1.0
  Sn  Sn2  1  0.05132776  0.65028773  0.54266747  1.0
  Sn  Sn3  1  0.44867224  0.84971227  0.54266747  1.0
  Sn  Sn4  1  0.05132776  0.84971227  0.04266747  1.0
  Sn  Sn5  1  0.44867224  0.65028773  0.04266747  1.0
  Sn  Sn6  1  0.94867224  0.34971227  0.45733253  1.0
  Sn  Sn7  1  0.55132776  0.15028773  0.45733253  1.0
  C  C8  1  0.00000000  0.00000000  0.50000000  1.0
  C  C9  1  0.50000000  0.50000000  0.50000000  1.0
  C  C10  1  0.00000000  0.50000000  0.00000000  1.0
  C  C11  1  0.50000000  0.00000000  0.00000000  1.0
  N  N12  1  0.87976766  0.06720367  0.58131817  1.0
  N  N13  1  0.62023234  0.43279633  0.58131817  1.0
  N  N14  1  0.12023234  0.56720367  0.91868183  1.0
  N  N15  1  0.37976766  0.93279633  0.91868183  1.0
  N  N16  1  0.12023234  0.93279633  0.41868183  1.0
  N  N17  1  0.37976766  0.56720367  0.41868183  1.0
  N  N18  1  0.87976766  0.43279633  0.08131817  1.0
  N  N19  1  0.62023234  0.06720367  0.08131817  1.0
  O  O20  1  0.75000000  0.25000000  0.24270115  1.0
  O  O21  1  0.25000000  0.75000000  0.25729885  1.0
  O  O22  1  0.25000000  0.75000000  0.75729885  1.0
  O  O23  1  0.75000000  0.25000000  0.74270115  1.0
