# generated using pymatgen
data_Al(Ni10B7)2
_symmetry_space_group_name_H-M   'P 1'
_cell_length_a   7.54788622
_cell_length_b   7.54788622
_cell_length_c   7.54788622
_cell_angle_alpha   60.00000000
_cell_angle_beta   60.00000000
_cell_angle_gamma   60.00000000
_symmetry_Int_Tables_number   1
_chemical_formula_structural   Al(Ni10B7)2
_chemical_formula_sum   'Al1 Ni20 B14'
_cell_volume   304.06122206
_cell_formula_units_Z   1
loop_
 _symmetry_equiv_pos_site_id
 _symmetry_equiv_pos_as_xyz
  1  'x, y, z'
loop_
 _atom_site_type_symbol
 _atom_site_label
 _atom_site_symmetry_multiplicity
 _atom_site_fract_x
 _atom_site_fract_y
 _atom_site_fract_z
 _atom_site_occupancy
  Al  Al0  1  0.00000000  -0.00000000  0.00000000  1.0
  Ni  Ni1  1  1.66586656  -0.00000000  0.00000000  1.0
  Ni  Ni2  1  1.00000000  0.33413344  -0.33413344  1.0
  Ni  Ni3  1  1.00000000  0.66586656  -0.66586656  1.0
  Ni  Ni4  1  1.33413344  0.00000000  -0.00000000  1.0
  Ni  Ni5  1  -0.00000000  1.66586656  0.00000000  1.0
  Ni  Ni6  1  0.33413344  1.00000000  -0.33413344  1.0
  Ni  Ni7  1  0.00000000  0.00000000  0.66586656  1.0
  Ni  Ni8  1  0.33413344  -0.33413344  1.00000000  1.0
  Ni  Ni9  1  0.66586656  1.00000000  -0.66586656  1.0
  Ni  Ni10  1  0.00000000  1.33413344  -0.00000000  1.0
  Ni  Ni11  1  0.66586656  -0.66586656  1.00000000  1.0
  Ni  Ni12  1  0.00000000  0.00000000  0.33413344  1.0
  Ni  Ni13  1  0.62148366  0.62148366  -0.37851634  1.0
  Ni  Ni14  1  0.37851634  1.37851634  -0.13554902  1.0
  Ni  Ni15  1  1.37851634  -0.13554902  0.37851634  1.0
  Ni  Ni16  1  1.13554902  0.62148366  0.62148366  1.0
  Ni  Ni17  1  -0.13554902  1.37851634  0.37851634  1.0
  Ni  Ni18  1  0.62148366  1.13554902  -0.37851634  1.0
  Ni  Ni19  1  0.62148366  0.62148366  1.13554902  1.0
  Ni  Ni20  1  1.37851634  0.37851634  0.37851634  1.0
  B  B21  1  0.81015796  0.81015796  -0.18984204  1.0
  B  B22  1  1.18984204  0.18984204  0.43047388  1.0
  B  B23  1  1.18984204  0.43047388  0.18984204  1.0
  B  B24  1  0.56952612  0.81015796  -0.18984204  1.0
  B  B25  1  1.43047388  0.18984204  0.18984204  1.0
  B  B26  1  0.81015796  0.56952612  -0.18984204  1.0
  B  B27  1  0.81015796  0.81015796  -0.43047388  1.0
  B  B28  1  1.18984204  0.18984204  0.18984204  1.0
  B  B29  1  -0.72354673  0.72354673  0.72354673  1.0
  B  B30  1  -0.27645327  0.27645327  0.72354673  1.0
  B  B31  1  0.72354673  0.72354673  -0.72354673  1.0
  B  B32  1  0.27645327  1.27645327  -0.27645327  1.0
  B  B33  1  0.27645327  -0.27645327  1.27645327  1.0
  B  B34  1  -0.27645327  0.27645327  0.27645327  1.0
