# generated using pymatgen
data_La3Zn3Ge2SbO14
_symmetry_space_group_name_H-M   'P 1'
_cell_length_a   8.42920964
_cell_length_b   8.42920964
_cell_length_c   5.28843313
_cell_angle_alpha   90.01067146
_cell_angle_beta   89.98932854
_cell_angle_gamma   120.00253760
_symmetry_Int_Tables_number   1
_chemical_formula_structural   La3Zn3Ge2SbO14
_chemical_formula_sum   'La3 Zn3 Ge2 Sb1 O14'
_cell_volume   325.40201922
_cell_formula_units_Z   1
loop_
 _symmetry_equiv_pos_site_id
 _symmetry_equiv_pos_as_xyz
  1  'x, y, z'
loop_
 _atom_site_type_symbol
 _atom_site_label
 _atom_site_symmetry_multiplicity
 _atom_site_fract_x
 _atom_site_fract_y
 _atom_site_fract_z
 _atom_site_occupancy
  La  La0  1  0.82486842  -0.75546487  0.49999478  1.0
  La  La1  1  0.24453513  -0.17513158  0.50000522  1.0
  La  La2  1  0.66434784  -0.33565216  0.50000000  1.0
  Zn  Zn3  1  1.24458678  0.48340820  1.00003387  1.0
  Zn  Zn4  1  1.48340820  0.24458678  -0.00003387  1.0
  Zn  Zn5  1  0.00582602  0.00582602  0.00000000  1.0
  Ge  Ge6  1  0.91129731  -0.42206433  0.94882580  1.0
  Ge  Ge7  1  0.57793567  -0.08870269  0.05117420  1.0
  Sb  Sb8  1  1.24460590  0.24460590  0.50000000  1.0
  O  O9  1  1.38593072  0.46935420  0.71996348  1.0
  O  O10  1  1.46935420  0.38593072  0.28003652  1.0
  O  O11  1  1.01980128  0.16110137  0.71992284  1.0
  O  O12  1  1.16110137  0.01980128  0.28007716  1.0
  O  O13  1  1.10331025  0.32804636  0.28011042  1.0
  O  O14  1  1.32804636  0.10331025  0.71988958  1.0
  O  O15  1  1.09615781  0.56935816  0.79821103  1.0
  O  O16  1  1.56935816  0.09615781  0.20178897  1.0
  O  O17  1  0.71788992  -0.60692157  0.79820984  1.0
  O  O18  1  0.39307843  -0.28211008  0.20179016  1.0
  O  O19  1  0.91991323  -0.22865096  0.79819587  1.0
  O  O20  1  0.77134904  -0.08008677  0.20180413  1.0
  O  O21  1  0.57796819  -0.08877023  0.71739958  1.0
  O  O22  1  0.91122977  -0.42203181  0.28260042  1.0
