# generated using pymatgen
data_K2VCuSe4
_symmetry_space_group_name_H-M   'P 1'
_cell_length_a   13.75088339
_cell_length_b   12.29036611
_cell_length_c   7.34537268
_cell_angle_alpha   84.94124777
_cell_angle_beta   62.91171235
_cell_angle_gamma   32.14703988
_symmetry_Int_Tables_number   1
_chemical_formula_structural   K2VCuSe4
_chemical_formula_sum   'K4 V2 Cu2 Se8'
_cell_volume   457.78050589
_cell_formula_units_Z   2
loop_
 _symmetry_equiv_pos_site_id
 _symmetry_equiv_pos_as_xyz
  1  'x, y, z'
loop_
 _atom_site_type_symbol
 _atom_site_label
 _atom_site_symmetry_multiplicity
 _atom_site_fract_x
 _atom_site_fract_y
 _atom_site_fract_z
 _atom_site_occupancy
  K  K0  1  0.56980316  -0.43019684  0.93019684  1.0
  K  K1  1  0.93019684  0.93019684  0.56980316  1.0
  K  K2  1  0.68019684  0.68019684  -0.68019684  1.0
  K  K3  1  0.31980316  1.31980316  -0.31980316  1.0
  V  V4  1  -0.50000000  0.50000000  0.50000000  1.0
  V  V5  1  0.75000000  0.75000000  0.75000000  1.0
  Cu  Cu6  1  0.00000000  0.00000000  0.00000000  1.0
  Cu  Cu7  1  1.25000000  0.25000000  0.25000000  1.0
  Se  Se8  1  0.22370658  -0.11146943  1.57722116  1.0
  Se  Se9  1  0.31054169  1.57722116  -0.11146943  1.0
  Se  Se10  1  1.57722116  0.31054169  0.22370658  1.0
  Se  Se11  1  -0.11146943  0.22370658  0.31054169  1.0
  Se  Se12  1  1.02629342  0.36146943  0.67277884  1.0
  Se  Se13  1  0.93945831  0.67277884  0.36146943  1.0
  Se  Se14  1  0.67277884  0.93945831  1.02629342  1.0
  Se  Se15  1  0.36146943  1.02629342  0.93945831  1.0
