# generated using pymatgen
data_Zn2SiO4
_symmetry_space_group_name_H-M   'P 1'
_cell_length_a   4.98777690
_cell_length_b   5.07937830
_cell_length_c   10.43402223
_cell_angle_alpha   90.00000000
_cell_angle_beta   90.00000000
_cell_angle_gamma   90.00000000
_symmetry_Int_Tables_number   1
_chemical_formula_structural   Zn2SiO4
_chemical_formula_sum   'Zn8 Si4 O16'
_cell_volume   264.34392660
_cell_formula_units_Z   4
loop_
 _symmetry_equiv_pos_site_id
 _symmetry_equiv_pos_as_xyz
  1  'x, y, z'
loop_
 _atom_site_type_symbol
 _atom_site_label
 _atom_site_symmetry_multiplicity
 _atom_site_fract_x
 _atom_site_fract_y
 _atom_site_fract_z
 _atom_site_occupancy
  Zn  Zn0  1  0.49948028  0.05274158  0.16300153  1.0
  Zn  Zn1  1  0.99948028  0.44725842  0.83699847  1.0
  Zn  Zn2  1  0.50051972  0.55274158  0.33699847  1.0
  Zn  Zn3  1  0.00051972  0.94725842  0.66300153  1.0
  Zn  Zn4  1  0.50051972  0.94725842  0.83699847  1.0
  Zn  Zn5  1  0.00051972  0.55274158  0.16300153  1.0
  Zn  Zn6  1  0.49948028  0.44725842  0.66300153  1.0
  Zn  Zn7  1  0.99948028  0.05274158  0.33699847  1.0
  Si  Si8  1  0.50000000  0.00000000  0.50000000  1.0
  Si  Si9  1  0.00000000  0.50000000  0.50000000  1.0
  Si  Si10  1  0.50000000  0.50000000  0.00000000  1.0
  Si  Si11  1  0.00000000  0.00000000  -0.00000000  1.0
  O  O12  1  0.69825144  0.29066552  0.45216966  1.0
  O  O13  1  0.19825144  0.20933448  0.54783034  1.0
  O  O14  1  0.30174856  0.79066552  0.04783034  1.0
  O  O15  1  0.80174856  0.70933448  0.95216966  1.0
  O  O16  1  0.30174856  0.70933448  0.54783034  1.0
  O  O17  1  0.80174856  0.79066552  0.45216966  1.0
  O  O18  1  0.69825144  0.20933448  0.95216966  1.0
  O  O19  1  0.19825144  0.29066552  0.04783034  1.0
  O  O20  1  0.38843099  0.95453589  0.34092620  1.0
  O  O21  1  0.88843099  0.54546411  0.65907380  1.0
  O  O22  1  0.61156901  0.45453589  0.15907380  1.0
  O  O23  1  0.11156901  0.04546411  0.84092620  1.0
  O  O24  1  0.61156901  0.04546411  0.65907380  1.0
  O  O25  1  0.11156901  0.45453589  0.34092620  1.0
  O  O26  1  0.38843099  0.54546411  0.84092620  1.0
  O  O27  1  0.88843099  0.95453589  0.15907380  1.0
