# generated using pymatgen
data_La2MgGe6
_symmetry_space_group_name_H-M   'P 1'
_cell_length_a   6.24571434
_cell_length_b   6.24571434
_cell_length_c   21.18992434
_cell_angle_alpha   90.00000000
_cell_angle_beta   90.00000000
_cell_angle_gamma   86.94166546
_symmetry_Int_Tables_number   1
_chemical_formula_structural   La2MgGe6
_chemical_formula_sum   'La8 Mg4 Ge24'
_cell_volume   825.41935428
_cell_formula_units_Z   4
loop_
 _symmetry_equiv_pos_site_id
 _symmetry_equiv_pos_as_xyz
  1  'x, y, z'
loop_
 _atom_site_type_symbol
 _atom_site_label
 _atom_site_symmetry_multiplicity
 _atom_site_fract_x
 _atom_site_fract_y
 _atom_site_fract_z
 _atom_site_occupancy
  La  La0  1  -0.37743050  0.87430056  0.41736179  1.0
  La  La1  1  0.12256950  1.37430056  0.08263821  1.0
  La  La2  1  -0.12569944  0.62256950  0.58263821  1.0
  La  La3  1  0.37430056  1.12256950  0.91736179  1.0
  La  La4  1  0.12569944  1.37743050  0.41736179  1.0
  La  La5  1  -0.37430056  0.87743050  0.08263821  1.0
  La  La6  1  0.37743050  1.12569944  0.58263821  1.0
  La  La7  1  -0.12256950  0.62569944  0.91736179  1.0
  Mg  Mg8  1  -0.37570396  1.37570396  0.33665871  1.0
  Mg  Mg9  1  0.12429604  0.87570396  0.16334129  1.0
  Mg  Mg10  1  0.37570396  0.62429604  0.66334129  1.0
  Mg  Mg11  1  -0.12429604  1.12429604  0.83665871  1.0
  Ge  Ge12  1  0.33049962  1.08214225  0.30631835  1.0
  Ge  Ge13  1  -0.16950038  0.58214225  0.19368165  1.0
  Ge  Ge14  1  0.08214225  1.33049962  0.69368165  1.0
  Ge  Ge15  1  -0.41785775  0.83049962  0.80631835  1.0
  Ge  Ge16  1  -0.08214225  0.66950038  0.30631835  1.0
  Ge  Ge17  1  0.41785775  1.16950038  0.19368165  1.0
  Ge  Ge18  1  -0.33049962  0.91785775  0.69368165  1.0
  Ge  Ge19  1  0.16950038  1.41785775  0.80631835  1.0
  Ge  Ge20  1  -0.37868001  1.37868001  0.04000522  1.0
  Ge  Ge21  1  0.12131999  0.87868001  0.45999478  1.0
  Ge  Ge22  1  0.37868001  0.62131999  0.95999478  1.0
  Ge  Ge23  1  -0.12131999  1.12131999  0.54000522  1.0
  Ge  Ge24  1  -0.37160978  1.37160978  0.46717102  1.0
  Ge  Ge25  1  0.12839022  0.87160978  0.03282898  1.0
  Ge  Ge26  1  0.37160978  0.62839022  0.53282898  1.0
  Ge  Ge27  1  -0.12839022  1.12839022  0.96717102  1.0
  Ge  Ge28  1  -0.17773886  1.17773886  0.19382071  1.0
  Ge  Ge29  1  0.32226114  0.67773886  0.30617929  1.0
  Ge  Ge30  1  0.17773886  0.82226114  0.80617929  1.0
  Ge  Ge31  1  -0.32226114  1.32226114  0.69382071  1.0
  Ge  Ge32  1  -0.07370080  1.07370080  0.30675810  1.0
  Ge  Ge33  1  0.42629920  0.57370080  0.19324190  1.0
  Ge  Ge34  1  0.07370080  0.92629920  0.69324190  1.0
  Ge  Ge35  1  -0.42629920  1.42629920  0.80675810  1.0
