# generated using pymatgen
data_Cu(CN)6
_symmetry_space_group_name_H-M   'P 1'
_cell_length_a   9.99409573
_cell_length_b   9.99409573
_cell_length_c   7.25252808
_cell_angle_alpha   90.00000000
_cell_angle_beta   90.00000000
_cell_angle_gamma   32.94870616
_symmetry_Int_Tables_number   1
_chemical_formula_structural   Cu(CN)6
_chemical_formula_sum   'Cu2 C12 N12'
_cell_volume   393.99064144
_cell_formula_units_Z   2
loop_
 _symmetry_equiv_pos_site_id
 _symmetry_equiv_pos_as_xyz
  1  'x, y, z'
loop_
 _atom_site_type_symbol
 _atom_site_label
 _atom_site_symmetry_multiplicity
 _atom_site_fract_x
 _atom_site_fract_y
 _atom_site_fract_z
 _atom_site_occupancy
  C  C0  1  -0.08490562  1.92413310  0.41546794  1.0
  C  C1  1  0.07586690  1.08490562  0.91546794  1.0
  C  C2  1  0.07586690  1.08490562  0.58453206  1.0
  C  C3  1  -0.08490562  1.92413310  0.08453206  1.0
  C  C4  1  0.28819081  1.31965125  0.40703700  1.0
  C  C5  1  0.68034875  0.71180919  0.90703700  1.0
  C  C6  1  0.68034875  0.71180919  0.59296300  1.0
  C  C7  1  0.28819081  1.31965125  0.09296300  1.0
  C  C8  1  0.04233962  1.83792575  0.25000000  1.0
  C  C9  1  0.16207425  0.95766038  0.75000000  1.0
  C  C10  1  0.28588845  1.68219375  0.25000000  1.0
  C  C11  1  0.31780625  0.71411155  0.75000000  1.0
  Cu  Cu12  1  -0.19072857  1.44290286  0.25000000  1.0
  Cu  Cu13  1  0.55709714  1.19072857  0.75000000  1.0
  N  N14  1  0.23339034  1.31316268  0.25000000  1.0
  N  N15  1  0.68683732  0.76660966  0.75000000  1.0
  N  N16  1  0.48748446  0.55376309  0.25000000  1.0
  N  N17  1  0.44623691  1.51251554  0.75000000  1.0
  N  N18  1  0.00308424  1.19458326  0.44866319  1.0
  N  N19  1  0.80541674  0.99691576  0.94866319  1.0
  N  N20  1  0.80541674  0.99691576  0.55133681  1.0
  N  N21  1  0.00308424  1.19458326  0.05133681  1.0
  N  N22  1  0.66796194  0.67657684  0.44365352  1.0
  N  N23  1  0.32342316  1.33203806  0.94365352  1.0
  N  N24  1  0.32342316  1.33203806  0.55634648  1.0
  N  N25  1  0.66796194  0.67657684  0.05634648  1.0
