# generated using pymatgen
data_Sr3CoPtO6
_symmetry_space_group_name_H-M   'P 1'
_cell_length_a   6.73695638
_cell_length_b   6.73695638
_cell_length_c   6.73695638
_cell_angle_alpha   91.34643271
_cell_angle_beta   91.34643271
_cell_angle_gamma   91.34643272
_symmetry_Int_Tables_number   1
_chemical_formula_structural   Sr3CoPtO6
_chemical_formula_sum   'Sr6 Co2 Pt2 O12'
_cell_volume   305.51010580
_cell_formula_units_Z   2
loop_
 _symmetry_equiv_pos_site_id
 _symmetry_equiv_pos_as_xyz
  1  'x, y, z'
loop_
 _atom_site_type_symbol
 _atom_site_label
 _atom_site_symmetry_multiplicity
 _atom_site_fract_x
 _atom_site_fract_y
 _atom_site_fract_z
 _atom_site_occupancy
  Sr  Sr0  1  0.88818601  1.25000000  -0.38818601  1.0
  Sr  Sr1  1  1.38818601  0.11181399  -0.25000000  1.0
  Sr  Sr2  1  0.75000000  0.38818601  0.11181399  1.0
  Sr  Sr3  1  1.25000000  0.61181399  -0.11181399  1.0
  Sr  Sr4  1  1.11181399  -0.25000000  0.38818601  1.0
  Sr  Sr5  1  0.61181399  0.88818601  0.25000000  1.0
  Co  Co6  1  0.25000000  0.25000000  0.25000000  1.0
  Co  Co7  1  0.75000000  0.75000000  0.75000000  1.0
  Pt  Pt8  1  0.50000000  0.50000000  0.50000000  1.0
  Pt  Pt9  1  0.00000000  0.00000000  0.00000000  1.0
  O  O10  1  1.21421581  0.40515574  -0.46209445  1.0
  O  O11  1  0.71421581  1.03790555  -0.09484426  1.0
  O  O12  1  0.96209445  0.09484426  0.28578419  1.0
  O  O13  1  1.46209445  -0.21421581  0.59484426  1.0
  O  O14  1  1.59484426  0.46209445  -0.21421581  1.0
  O  O15  1  1.09484426  0.28578419  -0.03790555  1.0
  O  O16  1  0.78578419  0.59484426  0.46209445  1.0
  O  O17  1  1.28578419  -0.03790555  0.09484426  1.0
  O  O18  1  0.53790555  1.21421581  -0.59484426  1.0
  O  O19  1  1.03790555  0.90515574  -0.28578419  1.0
  O  O20  1  0.90515574  0.71421581  0.03790555  1.0
  O  O21  1  0.40515574  0.53790555  0.21421581  1.0
