# generated using pymatgen
data_LiCa3As2H
_symmetry_space_group_name_H-M   'P 1'
_cell_length_a   11.43753424
_cell_length_b   4.27797324
_cell_length_c   11.89286460
_cell_angle_alpha   90.00000000
_cell_angle_beta   90.00000000
_cell_angle_gamma   90.00000000
_symmetry_Int_Tables_number   1
_chemical_formula_structural   LiCa3As2H
_chemical_formula_sum   'Li4 Ca12 As8 H4'
_cell_volume   581.91150713
_cell_formula_units_Z   4
loop_
 _symmetry_equiv_pos_site_id
 _symmetry_equiv_pos_as_xyz
  1  'x, y, z'
loop_
 _atom_site_type_symbol
 _atom_site_label
 _atom_site_symmetry_multiplicity
 _atom_site_fract_x
 _atom_site_fract_y
 _atom_site_fract_z
 _atom_site_occupancy
  Li  Li0  1  0.86745390  0.75000000  0.13900994  1.0
  Li  Li1  1  0.36745390  0.75000000  0.36099006  1.0
  Li  Li2  1  0.13254610  0.25000000  0.86099006  1.0
  Li  Li3  1  0.63254610  0.25000000  0.63900994  1.0
  Ca  Ca4  1  0.93934719  0.75000000  0.37831251  1.0
  Ca  Ca5  1  0.43934719  0.75000000  0.12168749  1.0
  Ca  Ca6  1  0.06065281  0.25000000  0.62168749  1.0
  Ca  Ca7  1  0.56065281  0.25000000  0.87831251  1.0
  Ca  Ca8  1  0.79086315  0.75000000  0.70385073  1.0
  Ca  Ca9  1  0.29086315  0.75000000  0.79614927  1.0
  Ca  Ca10  1  0.20913685  0.25000000  0.29614927  1.0
  Ca  Ca11  1  0.70913685  0.25000000  0.20385073  1.0
  Ca  Ca12  1  0.63453131  0.75000000  0.43854134  1.0
  Ca  Ca13  1  0.13453131  0.75000000  0.06145866  1.0
  Ca  Ca14  1  0.36546869  0.25000000  0.56145866  1.0
  Ca  Ca15  1  0.86546869  0.25000000  0.93854134  1.0
  As  As16  1  0.68429629  0.75000000  0.01321558  1.0
  As  As17  1  0.18429629  0.75000000  0.48678442  1.0
  As  As18  1  0.31570371  0.25000000  0.98678442  1.0
  As  As19  1  0.81570371  0.25000000  0.51321558  1.0
  As  As20  1  0.51901169  0.75000000  0.67592861  1.0
  As  As21  1  0.01901169  0.75000000  0.82407139  1.0
  As  As22  1  0.48098831  0.25000000  0.32407139  1.0
  As  As23  1  0.98098831  0.25000000  0.17592861  1.0
  H  H24  1  0.76271225  0.75000000  0.27854615  1.0
  H  H25  1  0.26271225  0.75000000  0.22145385  1.0
  H  H26  1  0.23728775  0.25000000  0.72145385  1.0
  H  H27  1  0.73728775  0.25000000  0.77854615  1.0
