# generated using pymatgen
data_AgHPbC2SN2O
_symmetry_space_group_name_H-M   'P 1'
_cell_length_a   22.72746653
_cell_length_b   4.04502422
_cell_length_c   7.25368923
_cell_angle_alpha   90.00000000
_cell_angle_beta   90.00000000
_cell_angle_gamma   90.00000000
_symmetry_Int_Tables_number   1
_chemical_formula_structural   AgHPbC2SN2O
_chemical_formula_sum   'Ag4 H4 Pb4 C8 S4 N8 O4'
_cell_volume   666.85451806
_cell_formula_units_Z   4
loop_
 _symmetry_equiv_pos_site_id
 _symmetry_equiv_pos_as_xyz
  1  'x, y, z'
loop_
 _atom_site_type_symbol
 _atom_site_label
 _atom_site_symmetry_multiplicity
 _atom_site_fract_x
 _atom_site_fract_y
 _atom_site_fract_z
 _atom_site_occupancy
  Ag  Ag0  1  0.29546456  0.75000000  -0.08349049  1.0
  Ag  Ag1  1  0.79546456  0.75000000  0.58349049  1.0
  Ag  Ag2  1  0.70453544  0.25000000  1.08349049  1.0
  Ag  Ag3  1  0.20453544  0.25000000  0.41650951  1.0
  H  H4  1  0.05605645  0.75000000  0.20174589  1.0
  H  H5  1  0.55605645  0.75000000  0.29825411  1.0
  H  H6  1  0.94394355  0.25000000  0.79825411  1.0
  H  H7  1  0.44394355  0.25000000  0.70174589  1.0
  Pb  Pb8  1  0.03572791  0.75000000  0.79224060  1.0
  Pb  Pb9  1  0.53572791  0.75000000  0.70775940  1.0
  Pb  Pb10  1  0.96427209  0.25000000  0.20775940  1.0
  Pb  Pb11  1  0.46427209  0.25000000  0.29224060  1.0
  C  C12  1  0.38762590  0.75000000  0.93063375  1.0
  C  C13  1  0.88762590  0.75000000  0.56936625  1.0
  C  C14  1  0.61237410  0.25000000  0.06936625  1.0
  C  C15  1  0.11237410  0.25000000  0.43063375  1.0
  C  C16  1  0.33054629  0.75000000  0.46755697  1.0
  C  C17  1  0.83054629  0.75000000  1.03244303  1.0
  C  C18  1  0.66945371  0.25000000  0.53244303  1.0
  C  C19  1  0.16945371  0.25000000  -0.03244303  1.0
  S  S20  1  0.26320055  0.75000000  0.55606504  1.0
  S  S21  1  0.76320055  0.75000000  0.94393496  1.0
  S  S22  1  0.73679945  0.25000000  0.44393496  1.0
  S  S23  1  0.23679945  0.25000000  0.05606504  1.0
  N  N24  1  0.43932786  0.75000000  0.92861432  1.0
  N  N25  1  0.93932786  0.75000000  0.57138568  1.0
  N  N26  1  0.56067214  0.25000000  0.07138568  1.0
  N  N27  1  0.06067214  0.25000000  0.42861432  1.0
  N  N28  1  0.87876145  0.75000000  0.09268011  1.0
  N  N29  1  0.37876145  0.75000000  0.40731989  1.0
  N  N30  1  0.12123855  0.25000000  0.90731989  1.0
  N  N31  1  0.62123855  0.25000000  0.59268011  1.0
  O  O32  1  0.02045086  0.75000000  0.12674775  1.0
  O  O33  1  0.52045086  0.75000000  0.37325225  1.0
  O  O34  1  0.97954914  0.25000000  0.87325225  1.0
  O  O35  1  0.47954914  0.25000000  0.62674775  1.0
