# generated using pymatgen
data_YbB2C
_symmetry_space_group_name_H-M   'P 1'
_cell_length_a   6.80179537
_cell_length_b   6.66091433
_cell_length_c   3.68889301
_cell_angle_alpha   90.00000000
_cell_angle_beta   90.00000000
_cell_angle_gamma   90.00000000
_symmetry_Int_Tables_number   1
_chemical_formula_structural   YbB2C
_chemical_formula_sum   'Yb4 B8 C4'
_cell_volume   167.12963694
_cell_formula_units_Z   4
loop_
 _symmetry_equiv_pos_site_id
 _symmetry_equiv_pos_as_xyz
  1  'x, y, z'
loop_
 _atom_site_type_symbol
 _atom_site_label
 _atom_site_symmetry_multiplicity
 _atom_site_fract_x
 _atom_site_fract_y
 _atom_site_fract_z
 _atom_site_occupancy
  Yb  Yb0  1  0.18884733  0.81323544  0.50000000  1.0
  Yb  Yb1  1  0.68884733  0.68676456  0.50000000  1.0
  Yb  Yb2  1  0.81115267  0.18676456  0.50000000  1.0
  Yb  Yb3  1  0.31115267  0.31323544  0.50000000  1.0
  B  B4  1  0.46662463  0.85245806  0.00000000  1.0
  B  B5  1  0.96662463  0.64754194  0.00000000  1.0
  B  B6  1  0.53337537  0.14754194  0.00000000  1.0
  B  B7  1  0.03337537  0.35245806  0.00000000  1.0
  B  B8  1  0.40526641  0.59579271  0.00000000  1.0
  B  B9  1  0.90526641  0.90420729  0.00000000  1.0
  B  B10  1  0.59473359  0.40420729  0.00000000  1.0
  B  B11  1  0.09473359  0.09579271  0.00000000  1.0
  C  C12  1  0.18027650  0.54183016  0.00000000  1.0
  C  C13  1  0.68027650  0.95816984  0.00000000  1.0
  C  C14  1  0.81972350  0.45816984  0.00000000  1.0
  C  C15  1  0.31972350  0.04183016  0.00000000  1.0
