# generated using pymatgen
data_LuGaPd
_symmetry_space_group_name_H-M   'P 1'
_cell_length_a   6.80172454
_cell_length_b   4.42500902
_cell_length_c   7.61968905
_cell_angle_alpha   90.00000000
_cell_angle_beta   90.00000000
_cell_angle_gamma   90.00000000
_symmetry_Int_Tables_number   1
_chemical_formula_structural   LuGaPd
_chemical_formula_sum   'Lu4 Ga4 Pd4'
_cell_volume   229.33505770
_cell_formula_units_Z   4
loop_
 _symmetry_equiv_pos_site_id
 _symmetry_equiv_pos_as_xyz
  1  'x, y, z'
loop_
 _atom_site_type_symbol
 _atom_site_label
 _atom_site_symmetry_multiplicity
 _atom_site_fract_x
 _atom_site_fract_y
 _atom_site_fract_z
 _atom_site_occupancy
  Lu  Lu0  1  1.01371890  0.75000000  0.70027439  1.0
  Lu  Lu1  1  0.51371890  0.75000000  0.79972561  1.0
  Lu  Lu2  1  -0.01371890  0.25000000  0.29972561  1.0
  Lu  Lu3  1  0.48628110  0.25000000  0.20027439  1.0
  Ga  Ga4  1  0.67968146  0.75000000  0.42341900  1.0
  Ga  Ga5  1  0.17968146  0.75000000  0.07658100  1.0
  Ga  Ga6  1  0.32031854  0.25000000  0.57658100  1.0
  Ga  Ga7  1  0.82031854  0.25000000  0.92341900  1.0
  Pd  Pd8  1  0.77841298  0.75000000  0.09579621  1.0
  Pd  Pd9  1  0.27841298  0.75000000  0.40420379  1.0
  Pd  Pd10  1  0.22158702  0.25000000  0.90420379  1.0
  Pd  Pd11  1  0.72158702  0.25000000  0.59579621  1.0
