# generated using pymatgen
data_NaH4BrO2
_symmetry_space_group_name_H-M   'P 1'
_cell_length_a   6.73009380
_cell_length_b   10.53743197
_cell_length_c   6.89412056
_cell_angle_alpha   90.00000000
_cell_angle_beta   117.06955986
_cell_angle_gamma   90.00000000
_symmetry_Int_Tables_number   1
_chemical_formula_structural   NaH4BrO2
_chemical_formula_sum   'Na4 H16 Br4 O8'
_cell_volume   435.35807715
_cell_formula_units_Z   4
loop_
 _symmetry_equiv_pos_site_id
 _symmetry_equiv_pos_as_xyz
  1  'x, y, z'
loop_
 _atom_site_type_symbol
 _atom_site_label
 _atom_site_symmetry_multiplicity
 _atom_site_fract_x
 _atom_site_fract_y
 _atom_site_fract_z
 _atom_site_occupancy
  Na  Na0  1  0.99259014  0.16674341  0.05485455  1.0
  Na  Na1  1  0.99259014  0.33325659  0.55485455  1.0
  Na  Na2  1  0.00740986  0.66674341  0.44514545  1.0
  Na  Na3  1  0.00740986  0.83325659  0.94514545  1.0
  H  H4  1  0.78106847  0.90233119  0.21113662  1.0
  H  H5  1  0.78106847  0.59766881  0.71113662  1.0
  H  H6  1  0.21893153  0.40233119  0.28886338  1.0
  H  H7  1  0.21893153  0.09766881  0.78886338  1.0
  H  H8  1  0.75087668  0.45838847  0.13093432  1.0
  H  H9  1  0.75087668  0.04161153  0.63093432  1.0
  H  H10  1  0.24912332  0.95838847  0.36906568  1.0
  H  H11  1  0.24912332  0.54161153  0.86906568  1.0
  H  H12  1  0.37826272  1.01115465  0.24600850  1.0
  H  H13  1  0.37826272  0.48884535  0.74600850  1.0
  H  H14  1  0.62173728  0.51115465  0.25399150  1.0
  H  H15  1  0.62173728  -0.01115465  0.75399150  1.0
  H  H16  1  0.36617054  0.30303329  0.45592478  1.0
  H  H17  1  0.36617054  0.19696671  0.95592478  1.0
  H  H18  1  0.63382946  0.80303329  0.04407522  1.0
  H  H19  1  0.63382946  0.69696671  0.54407522  1.0
  Br  Br20  1  0.71560885  0.11130926  0.29451368  1.0
  Br  Br21  1  0.71560885  0.38869074  0.79451368  1.0
  Br  Br22  1  0.28439115  0.61130926  0.20548632  1.0
  Br  Br23  1  0.28439115  0.88869074  0.70548632  1.0
  O  O24  1  0.78770632  0.81665143  0.15603010  1.0
  O  O25  1  0.78770632  0.68334857  0.65603010  1.0
  O  O26  1  0.21229368  0.31665143  0.34396990  1.0
  O  O27  1  0.21229368  0.18334857  0.84396990  1.0
  O  O28  1  0.77128916  0.48571367  0.27575333  1.0
  O  O29  1  0.77128916  0.01428633  0.77575333  1.0
  O  O30  1  0.22871084  0.98571367  0.22424667  1.0
  O  O31  1  0.22871084  0.51428633  0.72424667  1.0
