# generated using pymatgen
data_PH3O4
_symmetry_space_group_name_H-M   'P 1'
_cell_length_a   5.96602030
_cell_length_b   4.82183974
_cell_length_c   12.29051924
_cell_angle_alpha   90.00000000
_cell_angle_beta   96.65431716
_cell_angle_gamma   90.00000000
_symmetry_Int_Tables_number   1
_chemical_formula_structural   PH3O4
_chemical_formula_sum   'P4 H12 O16'
_cell_volume   351.18191619
_cell_formula_units_Z   4
loop_
 _symmetry_equiv_pos_site_id
 _symmetry_equiv_pos_as_xyz
  1  'x, y, z'
loop_
 _atom_site_type_symbol
 _atom_site_label
 _atom_site_symmetry_multiplicity
 _atom_site_fract_x
 _atom_site_fract_y
 _atom_site_fract_z
 _atom_site_occupancy
  P  P0  1  0.78788729  0.19010232  0.35157555  1.0
  P  P1  1  0.78788729  0.30989768  0.85157555  1.0
  P  P2  1  0.21211271  0.69010232  0.14842445  1.0
  P  P3  1  0.21211271  0.80989768  0.64842445  1.0
  H  H4  1  0.87896975  0.99744561  0.67163184  1.0
  H  H5  1  0.87896975  0.50255439  0.17163184  1.0
  H  H6  1  0.12103025  0.49744561  0.82836816  1.0
  H  H7  1  0.12103025  0.00255439  0.32836816  1.0
  H  H8  1  0.71949341  0.92034078  0.93084796  1.0
  H  H9  1  0.71949341  0.57965922  0.43084796  1.0
  H  H10  1  0.28050659  0.42034078  0.56915204  1.0
  H  H11  1  0.28050659  0.07965922  0.06915204  1.0
  H  H12  1  0.49319499  0.37860662  0.18044669  1.0
  H  H13  1  0.49319499  0.12139338  0.68044669  1.0
  H  H14  1  0.50680501  0.87860662  0.31955331  1.0
  H  H15  1  0.50680501  0.62139338  0.81955331  1.0
  O  O16  1  0.95400938  0.63257958  0.12142360  1.0
  O  O17  1  0.95400938  0.86742042  0.62142360  1.0
  O  O18  1  0.04599062  0.13257958  0.37857640  1.0
  O  O19  1  0.04599062  0.36742042  0.87857640  1.0
  O  O20  1  0.72292503  0.37818761  0.44782994  1.0
  O  O21  1  0.72292503  0.12181239  0.94782994  1.0
  O  O22  1  0.27707497  0.87818761  0.05217006  1.0
  O  O23  1  0.27707497  0.62181239  0.55217006  1.0
  O  O24  1  0.72514073  0.31950788  0.23895352  1.0
  O  O25  1  0.72514073  0.18049212  0.73895352  1.0
  O  O26  1  0.27485927  0.81950788  0.26104648  1.0
  O  O27  1  0.27485927  0.68049212  0.76104648  1.0
  O  O28  1  0.66391995  0.90423790  0.36378189  1.0
  O  O29  1  0.66391995  0.59576210  0.86378189  1.0
  O  O30  1  0.33608005  0.40423790  0.13621811  1.0
  O  O31  1  0.33608005  0.09576210  0.63621811  1.0
