# generated using pymatgen
data_BaSiPd
_symmetry_space_group_name_H-M   'P 1'
_cell_length_a   6.73025960
_cell_length_b   6.73025960
_cell_length_c   6.73025960
_cell_angle_alpha   90.00000000
_cell_angle_beta   90.00000000
_cell_angle_gamma   90.00000000
_symmetry_Int_Tables_number   1
_chemical_formula_structural   BaSiPd
_chemical_formula_sum   'Ba4 Si4 Pd4'
_cell_volume   304.85649226
_cell_formula_units_Z   4
loop_
 _symmetry_equiv_pos_site_id
 _symmetry_equiv_pos_as_xyz
  1  'x, y, z'
loop_
 _atom_site_type_symbol
 _atom_site_label
 _atom_site_symmetry_multiplicity
 _atom_site_fract_x
 _atom_site_fract_y
 _atom_site_fract_z
 _atom_site_occupancy
  Ba  Ba0  1  0.13386427  0.63386427  0.86613573  1.0
  Ba  Ba1  1  0.63386427  0.86613573  0.13386427  1.0
  Ba  Ba2  1  0.86613573  0.13386427  0.63386427  1.0
  Ba  Ba3  1  0.36613573  0.36613573  0.36613573  1.0
  Si  Si4  1  0.84410550  0.34410550  0.15589450  1.0
  Si  Si5  1  0.34410550  0.15589450  0.84410550  1.0
  Si  Si6  1  0.15589450  0.84410550  0.34410550  1.0
  Si  Si7  1  0.65589450  0.65589450  0.65589450  1.0
  Pd  Pd8  1  0.40574372  0.90574372  0.59425628  1.0
  Pd  Pd9  1  0.90574372  0.59425628  0.40574372  1.0
  Pd  Pd10  1  0.59425628  0.40574372  0.90574372  1.0
  Pd  Pd11  1  0.09425628  0.09425628  0.09425628  1.0
