# generated using pymatgen
data_Ta2Cr4Si5
_symmetry_space_group_name_H-M   'P 1'
_cell_length_a   9.05033661
_cell_length_b   9.05033661
_cell_length_c   9.05033661
_cell_angle_alpha   131.15337793
_cell_angle_beta   59.00617994
_cell_angle_gamma   148.96678930
_symmetry_Int_Tables_number   1
_chemical_formula_structural   Ta2Cr4Si5
_chemical_formula_sum   'Ta4 Cr8 Si10'
_cell_volume   285.45608385
_cell_formula_units_Z   2
loop_
 _symmetry_equiv_pos_site_id
 _symmetry_equiv_pos_as_xyz
  1  'x, y, z'
loop_
 _atom_site_type_symbol
 _atom_site_label
 _atom_site_symmetry_multiplicity
 _atom_site_fract_x
 _atom_site_fract_y
 _atom_site_fract_z
 _atom_site_occupancy
  Ta  Ta0  1  0.14144398  0.11877596  0.26021994  1.0
  Ta  Ta1  1  0.35855602  0.61877596  0.97733198  1.0
  Ta  Ta2  1  0.64144398  1.38122404  1.02266802  1.0
  Ta  Ta3  1  0.85855602  0.88122404  0.73978006  1.0
  Cr  Cr4  1  0.43873366  0.24567685  0.68441051  1.0
  Cr  Cr5  1  0.06126634  0.74567685  0.80694318  1.0
  Cr  Cr6  1  0.93873366  1.25432315  1.19305682  1.0
  Cr  Cr7  1  0.56126634  0.75432315  0.31558949  1.0
  Cr  Cr8  1  0.94308389  1.25000000  0.69308389  1.0
  Cr  Cr9  1  0.44308389  0.75000000  0.69308389  1.0
  Cr  Cr10  1  1.05691611  0.75000000  0.30691611  1.0
  Cr  Cr11  1  0.55691611  0.25000000  0.30691611  1.0
  Si  Si12  1  0.06496182  0.42322310  0.48818493  1.0
  Si  Si13  1  0.43503818  0.92322310  1.35826128  1.0
  Si  Si14  1  0.56496182  1.07677690  0.64173872  1.0
  Si  Si15  1  0.93503818  0.57677690  0.51181507  1.0
  Si  Si16  1  0.28823847  0.29142208  0.57966055  1.0
  Si  Si17  1  0.21176153  0.79142208  1.00318361  1.0
  Si  Si18  1  0.78823847  1.20857792  0.99681639  1.0
  Si  Si19  1  0.71176153  0.70857792  0.42033945  1.0
  Si  Si20  1  0.25000000  0.25000000  -0.00000000  1.0
  Si  Si21  1  0.75000000  0.75000000  -0.00000000  1.0
