# generated using pymatgen
data_ZrAu4
_symmetry_space_group_name_H-M   'P 1'
_cell_length_a   5.09128072
_cell_length_b   4.93792388
_cell_length_c   14.54728095
_cell_angle_alpha   90.00000000
_cell_angle_beta   90.00000000
_cell_angle_gamma   90.00000000
_symmetry_Int_Tables_number   1
_chemical_formula_structural   ZrAu4
_chemical_formula_sum   'Zr4 Au16'
_cell_volume   365.72383170
_cell_formula_units_Z   4
loop_
 _symmetry_equiv_pos_site_id
 _symmetry_equiv_pos_as_xyz
  1  'x, y, z'
loop_
 _atom_site_type_symbol
 _atom_site_label
 _atom_site_symmetry_multiplicity
 _atom_site_fract_x
 _atom_site_fract_y
 _atom_site_fract_z
 _atom_site_occupancy
  Zr  Zr0  1  0.84291995  0.75000000  0.40179661  1.0
  Zr  Zr1  1  0.34291995  0.75000000  0.09820339  1.0
  Zr  Zr2  1  0.15708005  0.25000000  0.59820339  1.0
  Zr  Zr3  1  0.65708005  0.25000000  0.90179661  1.0
  Au  Au4  1  0.83783670  0.75000000  0.00019885  1.0
  Au  Au5  1  0.33783670  0.75000000  0.49980115  1.0
  Au  Au6  1  0.16216330  0.25000000  -0.00019885  1.0
  Au  Au7  1  0.66216330  0.25000000  0.50019885  1.0
  Au  Au8  1  0.82381663  0.75000000  0.80338110  1.0
  Au  Au9  1  0.32381663  0.75000000  0.69661890  1.0
  Au  Au10  1  0.17618337  0.25000000  0.19661890  1.0
  Au  Au11  1  0.67618337  0.25000000  0.30338110  1.0
  Au  Au12  1  0.83934397  0.75000000  0.60082534  1.0
  Au  Au13  1  0.33934397  0.75000000  0.89917466  1.0
  Au  Au14  1  0.16065603  0.25000000  0.39917466  1.0
  Au  Au15  1  0.66065603  0.25000000  0.10082534  1.0
  Au  Au16  1  0.84264854  0.75000000  0.20133368  1.0
  Au  Au17  1  0.34264854  0.75000000  0.29866632  1.0
  Au  Au18  1  0.15735146  0.25000000  0.79866632  1.0
  Au  Au19  1  0.65735146  0.25000000  0.70133368  1.0
