# generated using pymatgen
data_Mg2Ni
_symmetry_space_group_name_H-M   'P 1'
_cell_length_a   5.19745104
_cell_length_b   5.19745104
_cell_length_c   13.20241696
_cell_angle_alpha   90.00000000
_cell_angle_beta   90.00000000
_cell_angle_gamma   120.00000000
_symmetry_Int_Tables_number   1
_chemical_formula_structural   Mg2Ni
_chemical_formula_sum   'Mg12 Ni6'
_cell_volume   308.86229245
_cell_formula_units_Z   6
loop_
 _symmetry_equiv_pos_site_id
 _symmetry_equiv_pos_as_xyz
  1  'x, y, z'
loop_
 _atom_site_type_symbol
 _atom_site_label
 _atom_site_symmetry_multiplicity
 _atom_site_fract_x
 _atom_site_fract_y
 _atom_site_fract_z
 _atom_site_occupancy
  Mg  Mg0  1  0.16435739  0.83564261  0.83333333  1.0
  Mg  Mg1  1  0.16435739  0.32871478  0.50000000  1.0
  Mg  Mg2  1  0.83564261  0.16435739  0.83333333  1.0
  Mg  Mg3  1  0.83564261  0.67128522  0.50000000  1.0
  Mg  Mg4  1  0.67128522  0.83564261  0.16666667  1.0
  Mg  Mg5  1  0.32871478  0.16435739  0.16666667  1.0
  Mg  Mg6  1  0.50000000  0.50000000  0.71737007  1.0
  Mg  Mg7  1  0.50000000  0.00000000  0.61596327  1.0
  Mg  Mg8  1  0.50000000  0.50000000  0.94929660  1.0
  Mg  Mg9  1  0.50000000  0.00000000  0.38403673  1.0
  Mg  Mg10  1  -0.00000000  0.50000000  0.28262993  1.0
  Mg  Mg11  1  -0.00000000  0.50000000  0.05070340  1.0
  Ni  Ni12  1  0.50000000  0.50000000  0.33333333  1.0
  Ni  Ni13  1  0.50000000  0.00000000  0.00000000  1.0
  Ni  Ni14  1  -0.00000000  0.50000000  0.66666667  1.0
  Ni  Ni15  1  0.00000000  0.00000000  0.33333333  1.0
  Ni  Ni16  1  0.00000000  0.00000000  0.00000000  1.0
  Ni  Ni17  1  0.00000000  0.00000000  0.66666667  1.0
