# generated using pymatgen
data_Li2GeF6
_symmetry_space_group_name_H-M   'P 1'
_cell_length_a   4.65996845
_cell_length_b   4.65996845
_cell_length_c   8.95407419
_cell_angle_alpha   90.00000000
_cell_angle_beta   90.00000000
_cell_angle_gamma   90.00000000
_symmetry_Int_Tables_number   1
_chemical_formula_structural   Li2GeF6
_chemical_formula_sum   'Li4 Ge2 F12'
_cell_volume   194.44046049
_cell_formula_units_Z   2
loop_
 _symmetry_equiv_pos_site_id
 _symmetry_equiv_pos_as_xyz
  1  'x, y, z'
loop_
 _atom_site_type_symbol
 _atom_site_label
 _atom_site_symmetry_multiplicity
 _atom_site_fract_x
 _atom_site_fract_y
 _atom_site_fract_z
 _atom_site_occupancy
  Li  Li0  1  0.50000000  0.50000000  0.16161112  1.0
  Li  Li1  1  0.50000000  0.50000000  0.83838888  1.0
  Li  Li2  1  0.00000000  0.00000000  0.66161112  1.0
  Li  Li3  1  0.00000000  0.00000000  0.33838888  1.0
  Ge  Ge4  1  0.50000000  0.50000000  0.50000000  1.0
  Ge  Ge5  1  0.00000000  0.00000000  0.00000000  1.0
  F  F6  1  0.18894706  0.81105294  0.14993614  1.0
  F  F7  1  0.18894706  0.81105294  0.85006386  1.0
  F  F8  1  0.68894706  0.68894706  0.64993614  1.0
  F  F9  1  0.68894706  0.68894706  0.35006386  1.0
  F  F10  1  0.81105294  0.18894706  0.14993614  1.0
  F  F11  1  0.81105294  0.18894706  0.85006386  1.0
  F  F12  1  0.31105294  0.31105294  0.64993614  1.0
  F  F13  1  0.31105294  0.31105294  0.35006386  1.0
  F  F14  1  0.22064705  0.77935295  0.50000000  1.0
  F  F15  1  0.72064705  0.72064705  0.00000000  1.0
  F  F16  1  0.77935295  0.22064705  0.50000000  1.0
  F  F17  1  0.27935295  0.27935295  0.00000000  1.0
