# generated using pymatgen
data_LaGaPd
_symmetry_space_group_name_H-M   'P 1'
_cell_length_a   7.28923371
_cell_length_b   4.63352501
_cell_length_c   7.84674406
_cell_angle_alpha   90.00000000
_cell_angle_beta   90.00000000
_cell_angle_gamma   90.00000000
_symmetry_Int_Tables_number   1
_chemical_formula_structural   LaGaPd
_chemical_formula_sum   'La4 Ga4 Pd4'
_cell_volume   265.02257750
_cell_formula_units_Z   4
loop_
 _symmetry_equiv_pos_site_id
 _symmetry_equiv_pos_as_xyz
  1  'x, y, z'
loop_
 _atom_site_type_symbol
 _atom_site_label
 _atom_site_symmetry_multiplicity
 _atom_site_fract_x
 _atom_site_fract_y
 _atom_site_fract_z
 _atom_site_occupancy
  La  La0  1  1.02867321  0.75000000  0.69499565  1.0
  La  La1  1  0.52867321  0.75000000  0.80500435  1.0
  La  La2  1  -0.02867321  0.25000000  0.30500435  1.0
  La  La3  1  0.47132679  0.25000000  0.19499565  1.0
  Ga  Ga4  1  0.66678650  0.75000000  0.42356296  1.0
  Ga  Ga5  1  0.16678650  0.75000000  0.07643704  1.0
  Ga  Ga6  1  0.33321350  0.25000000  0.57643704  1.0
  Ga  Ga7  1  0.83321350  0.25000000  0.92356296  1.0
  Pd  Pd8  1  0.78703058  0.75000000  0.09727696  1.0
  Pd  Pd9  1  0.28703058  0.75000000  0.40272304  1.0
  Pd  Pd10  1  0.21296942  0.25000000  0.90272304  1.0
  Pd  Pd11  1  0.71296942  0.25000000  0.59727696  1.0
