# generated using pymatgen
data_H8C2N2O3
_symmetry_space_group_name_H-M   'P 1'
_cell_length_a   10.23643708
_cell_length_b   10.13990563
_cell_length_c   5.95487246
_cell_angle_alpha   90.00000000
_cell_angle_beta   90.00000000
_cell_angle_gamma   90.00000000
_symmetry_Int_Tables_number   1
_chemical_formula_structural   H8C2N2O3
_chemical_formula_sum   'H32 C8 N8 O12'
_cell_volume   618.09495524
_cell_formula_units_Z   4
loop_
 _symmetry_equiv_pos_site_id
 _symmetry_equiv_pos_as_xyz
  1  'x, y, z'
loop_
 _atom_site_type_symbol
 _atom_site_label
 _atom_site_symmetry_multiplicity
 _atom_site_fract_x
 _atom_site_fract_y
 _atom_site_fract_z
 _atom_site_occupancy
  H  H0  1  0.68144014  0.89064588  0.39408911  1.0
  H  H1  1  0.31855986  0.10935412  0.89408911  1.0
  H  H2  1  0.81855986  0.39064588  0.89408911  1.0
  H  H3  1  0.18144014  0.60935412  0.39408911  1.0
  H  H4  1  0.63358148  0.02847355  0.26638931  1.0
  H  H5  1  0.36641852  0.97152645  0.76638931  1.0
  H  H6  1  0.86641852  0.52847355  0.76638931  1.0
  H  H7  1  0.13358148  0.47152645  0.26638931  1.0
  H  H8  1  0.71510764  0.07931054  0.63103100  1.0
  H  H9  1  0.28489236  0.92068946  0.13103100  1.0
  H  H10  1  0.78489236  0.57931054  0.13103100  1.0
  H  H11  1  0.21510764  0.42068946  0.63103100  1.0
  H  H12  1  0.86792367  0.00377086  0.56032956  1.0
  H  H13  1  0.13207633  0.99622914  0.06032956  1.0
  H  H14  1  0.63207633  0.50377086  0.06032956  1.0
  H  H15  1  0.36792367  0.49622914  0.56032956  1.0
  H  H16  1  0.81570705  0.15120409  0.41712266  1.0
  H  H17  1  0.18429295  0.84879591  0.91712266  1.0
  H  H18  1  0.68429295  0.65120409  0.91712266  1.0
  H  H19  1  0.31570705  0.34879591  0.41712266  1.0
  H  H20  1  0.74468941  0.88981399  0.00454331  1.0
  H  H21  1  0.25531059  0.11018601  0.50454331  1.0
  H  H22  1  0.75531059  0.38981399  0.50454331  1.0
  H  H23  1  0.24468941  0.61018601  0.00454331  1.0
  H  H24  1  0.83793343  0.03661661  0.05328898  1.0
  H  H25  1  0.16206657  0.96338339  0.55328898  1.0
  H  H26  1  0.66206657  0.53661661  0.55328898  1.0
  H  H27  1  0.33793343  0.46338339  0.05328898  1.0
  H  H28  1  0.88416856  0.88444506  0.18744658  1.0
  H  H29  1  0.11583144  0.11555494  0.68744658  1.0
  H  H30  1  0.61583144  0.38444506  0.68744658  1.0
  H  H31  1  0.38416856  0.61555494  0.18744658  1.0
  C  C32  1  0.78422169  0.05883843  0.49533978  1.0
  C  C33  1  0.21577831  0.94116157  0.99533978  1.0
  C  C34  1  0.71577831  0.55883843  0.99533978  1.0
  C  C35  1  0.28422169  0.44116157  0.49533978  1.0
  C  C36  1  0.80222920  0.94468757  0.12824591  1.0
  C  C37  1  0.19777080  0.05531243  0.62824591  1.0
  C  C38  1  0.69777080  0.44468757  0.62824591  1.0
  C  C39  1  0.30222920  0.55531243  0.12824591  1.0
  N  N40  1  0.71742438  0.97752588  0.32293573  1.0
  N  N41  1  0.28257562  0.02247412  0.82293573  1.0
  N  N42  1  0.78257562  0.47752588  0.82293573  1.0
  N  N43  1  0.21742438  0.52247412  0.32293573  1.0
  N  N44  1  0.98099864  0.70288988  0.56411688  1.0
  N  N45  1  0.01900136  0.29711012  0.06411688  1.0
  N  N46  1  0.51900136  0.20288988  0.06411688  1.0
  N  N47  1  0.48099864  0.79711012  0.56411688  1.0
  O  O48  1  0.01034871  0.59589985  0.66595259  1.0
  O  O49  1  0.98965129  0.40410015  0.16595259  1.0
  O  O50  1  0.48965129  0.09589985  0.16595259  1.0
  O  O51  1  0.51034871  0.90410015  0.66595259  1.0
  O  O52  1  0.06339405  0.75251255  0.42975895  1.0
  O  O53  1  0.93660595  0.24748745  0.92975895  1.0
  O  O54  1  0.43660595  0.25251255  0.92975895  1.0
  O  O55  1  0.56339405  0.74748745  0.42975895  1.0
  O  O56  1  0.87245735  0.75635079  0.59740965  1.0
  O  O57  1  0.12754265  0.24364921  0.09740965  1.0
  O  O58  1  0.62754265  0.25635079  0.09740965  1.0
  O  O59  1  0.37245735  0.74364921  0.59740965  1.0
