# generated using pymatgen
data_MgCl2
_symmetry_space_group_name_H-M   'P 1'
_cell_length_a   6.30992040
_cell_length_b   3.66274656
_cell_length_c   6.82559871
_cell_angle_alpha   90.00000000
_cell_angle_beta   90.00000000
_cell_angle_gamma   90.00000000
_symmetry_Int_Tables_number   1
_chemical_formula_structural   MgCl2
_chemical_formula_sum   'Mg2 Cl4'
_cell_volume   157.75077484
_cell_formula_units_Z   2
loop_
 _symmetry_equiv_pos_site_id
 _symmetry_equiv_pos_as_xyz
  1  'x, y, z'
loop_
 _atom_site_type_symbol
 _atom_site_label
 _atom_site_symmetry_multiplicity
 _atom_site_fract_x
 _atom_site_fract_y
 _atom_site_fract_z
 _atom_site_occupancy
  Mg  Mg0  1  0.50000000  0.00000000  0.00000000  1.0
  Mg  Mg1  1  0.00000000  0.00000000  0.00000000  1.0
  Cl  Cl2  1  0.25000000  0.50000000  0.83646061  1.0
  Cl  Cl3  1  0.75000000  0.50000000  0.16353939  1.0
  Cl  Cl4  1  0.25000000  0.00000000  0.25942180  1.0
  Cl  Cl5  1  0.75000000  0.00000000  0.74057820  1.0
