# generated using pymatgen
data_ZnSiO3
_symmetry_space_group_name_H-M   'P 1'
_cell_length_a   5.42782107
_cell_length_b   5.42782107
_cell_length_c   5.42782107
_cell_angle_alpha   52.54980300
_cell_angle_beta   52.54980300
_cell_angle_gamma   52.54980300
_symmetry_Int_Tables_number   1
_chemical_formula_structural   ZnSiO3
_chemical_formula_sum   'Zn2 Si2 O6'
_cell_volume   93.30012277
_cell_formula_units_Z   2
loop_
 _symmetry_equiv_pos_site_id
 _symmetry_equiv_pos_as_xyz
  1  'x, y, z'
loop_
 _atom_site_type_symbol
 _atom_site_label
 _atom_site_symmetry_multiplicity
 _atom_site_fract_x
 _atom_site_fract_y
 _atom_site_fract_z
 _atom_site_occupancy
  Zn  Zn0  1  0.63010572  0.63010572  -0.36989428  1.0
  Zn  Zn1  1  0.36989428  0.36989428  -0.63010572  1.0
  Si  Si2  1  0.83923860  -0.16076140  -0.16076140  1.0
  Si  Si3  1  0.16076140  0.16076140  0.16076140  1.0
  O  O4  1  1.19798875  -0.04616890  -0.43741776  1.0
  O  O5  1  0.95383110  -0.43741776  0.19798875  1.0
  O  O6  1  0.56258224  0.19798875  -0.04616890  1.0
  O  O7  1  0.80201125  0.04616890  -0.56258224  1.0
  O  O8  1  1.04616890  -0.56258224  -0.19798875  1.0
  O  O9  1  0.43741776  -0.19798875  0.04616890  1.0
