# generated using pymatgen
data_Mo9Se11
_symmetry_space_group_name_H-M   'P 1'
_cell_length_a   8.98997806
_cell_length_b   8.98997806
_cell_length_c   11.16655122
_cell_angle_alpha   90.00000000
_cell_angle_beta   90.00000000
_cell_angle_gamma   95.57015679
_symmetry_Int_Tables_number   1
_chemical_formula_structural   Mo9Se11
_chemical_formula_sum   'Mo18 Se22'
_cell_volume   898.21596621
_cell_formula_units_Z   2
loop_
 _symmetry_equiv_pos_site_id
 _symmetry_equiv_pos_as_xyz
  1  'x, y, z'
loop_
 _atom_site_type_symbol
 _atom_site_label
 _atom_site_symmetry_multiplicity
 _atom_site_fract_x
 _atom_site_fract_y
 _atom_site_fract_z
 _atom_site_occupancy
  Mo  Mo0  1  0.10017719  0.51836216  0.37004121  1.0
  Mo  Mo1  1  0.10017719  0.51836216  0.12995879  1.0
  Mo  Mo2  1  -0.48163784  1.10017719  0.87004121  1.0
  Mo  Mo3  1  -0.48163784  1.10017719  0.62995879  1.0
  Mo  Mo4  1  0.48163784  0.89982281  0.37004121  1.0
  Mo  Mo5  1  0.48163784  0.89982281  0.12995879  1.0
  Mo  Mo6  1  -0.10017719  1.48163784  0.87004121  1.0
  Mo  Mo7  1  -0.10017719  1.48163784  0.62995879  1.0
  Mo  Mo8  1  -0.07119606  1.69265899  0.25000000  1.0
  Mo  Mo9  1  0.69265899  0.92880394  0.75000000  1.0
  Mo  Mo10  1  -0.69265899  1.07119606  0.25000000  1.0
  Mo  Mo11  1  0.07119606  0.30734101  0.75000000  1.0
  Mo  Mo12  1  0.17817101  0.82182899  0.37131826  1.0
  Mo  Mo13  1  0.17817101  0.82182899  0.12868174  1.0
  Mo  Mo14  1  -0.17817101  1.17817101  0.87131826  1.0
  Mo  Mo15  1  -0.17817101  1.17817101  0.62868174  1.0
  Mo  Mo16  1  0.35334201  0.64665799  0.25000000  1.0
  Mo  Mo17  1  -0.35334201  1.35334201  0.75000000  1.0
  Se  Se18  1  -0.05539204  1.70822206  0.48183078  1.0
  Se  Se19  1  -0.05539204  1.70822206  0.01816922  1.0
  Se  Se20  1  0.70822206  0.94460796  0.98183078  1.0
  Se  Se21  1  0.70822206  0.94460796  0.51816922  1.0
  Se  Se22  1  -0.70822206  1.05539204  0.48183078  1.0
  Se  Se23  1  -0.70822206  1.05539204  0.01816922  1.0
  Se  Se24  1  0.05539204  0.29177794  0.98183078  1.0
  Se  Se25  1  0.05539204  0.29177794  0.51816922  1.0
  Se  Se26  1  0.28046662  0.36502706  0.25000000  1.0
  Se  Se27  1  -0.63497294  1.28046662  0.75000000  1.0
  Se  Se28  1  0.63497294  0.71953338  0.25000000  1.0
  Se  Se29  1  -0.28046662  1.63497294  0.75000000  1.0
  Se  Se30  1  -0.12643285  1.41252239  0.25000000  1.0
  Se  Se31  1  0.41252239  0.87356715  0.75000000  1.0
  Se  Se32  1  -0.41252239  1.12643285  0.25000000  1.0
  Se  Se33  1  0.12643285  0.58747761  0.75000000  1.0
  Se  Se34  1  0.34667151  0.65332849  0.48213206  1.0
  Se  Se35  1  0.34667151  0.65332849  0.01786794  1.0
  Se  Se36  1  -0.34667151  1.34667151  0.98213206  1.0
  Se  Se37  1  -0.34667151  1.34667151  0.51786794  1.0
  Se  Se38  1  0.01189234  0.98810766  0.25000000  1.0
  Se  Se39  1  -0.01189234  1.01189234  0.75000000  1.0
