# generated using pymatgen
data_CaBePO5
_symmetry_space_group_name_H-M   'P 1'
_cell_length_a   4.93550173
_cell_length_b   7.79226252
_cell_length_c   9.77817744
_cell_angle_alpha   90.00000000
_cell_angle_beta   89.82302347
_cell_angle_gamma   90.00000000
_symmetry_Int_Tables_number   1
_chemical_formula_structural   CaBePO5
_chemical_formula_sum   'Ca4 Be4 P4 O20'
_cell_volume   376.05444485
_cell_formula_units_Z   4
loop_
 _symmetry_equiv_pos_site_id
 _symmetry_equiv_pos_as_xyz
  1  'x, y, z'
loop_
 _atom_site_type_symbol
 _atom_site_label
 _atom_site_symmetry_multiplicity
 _atom_site_fract_x
 _atom_site_fract_y
 _atom_site_fract_z
 _atom_site_occupancy
  P  P0  1  0.46890873  0.76724259  0.58128737  1.0
  P  P1  1  0.46890873  0.73275741  0.08128737  1.0
  P  P2  1  0.53109127  0.26724259  0.91871263  1.0
  P  P3  1  0.53109127  0.23275741  0.41871263  1.0
  Be  Be4  1  0.53496447  0.91265369  0.83302988  1.0
  Be  Be5  1  0.53496447  0.58734631  0.33302988  1.0
  Be  Be6  1  0.46503553  0.41265369  0.66697012  1.0
  Be  Be7  1  0.46503553  0.08734631  0.16697012  1.0
  O  O8  1  0.75983977  0.39474563  0.95465035  1.0
  O  O9  1  0.75983977  0.10525437  0.45465035  1.0
  O  O10  1  0.24016023  0.89474563  0.54534965  1.0
  O  O11  1  0.24016023  0.60525437  0.04534965  1.0
  O  O12  1  0.67176984  0.84364957  0.68874227  1.0
  O  O13  1  0.67176984  0.65635043  0.18874227  1.0
  O  O14  1  0.32823016  0.34364957  0.81125773  1.0
  O  O15  1  0.32823016  0.15635043  0.31125773  1.0
  O  O16  1  0.63736927  0.77976100  0.95155952  1.0
  O  O17  1  0.63736927  0.72023900  0.45155952  1.0
  O  O18  1  0.36263073  0.27976100  0.54844048  1.0
  O  O19  1  0.36263073  0.22023900  0.04844048  1.0
  O  O20  1  0.33728735  0.60242024  0.64394316  1.0
  O  O21  1  0.33728735  0.89757976  0.14394316  1.0
  O  O22  1  0.66271265  0.10242024  0.85605684  1.0
  O  O23  1  0.66271265  0.39757976  0.35605684  1.0
  O  O24  1  0.78984127  0.40638011  0.69042157  1.0
  O  O25  1  0.78984127  0.09361989  0.19042157  1.0
  O  O26  1  0.21015873  0.90638011  0.80957843  1.0
  O  O27  1  0.21015873  0.59361989  0.30957843  1.0
  Ca  Ca28  1  0.99892877  0.61875740  0.82969617  1.0
  Ca  Ca29  1  0.99892877  0.88124260  0.32969617  1.0
  Ca  Ca30  1  0.00107123  0.11875740  0.67030383  1.0
  Ca  Ca31  1  0.00107123  0.38124260  0.17030383  1.0
