# generated using pymatgen
data_NO2
_symmetry_space_group_name_H-M   'P 1'
_cell_length_a   7.73724529
_cell_length_b   7.73724529
_cell_length_c   7.73724529
_cell_angle_alpha   109.47122063
_cell_angle_beta   109.47122063
_cell_angle_gamma   109.47122063
_symmetry_Int_Tables_number   1
_chemical_formula_structural   NO2
_chemical_formula_sum   'N6 O12'
_cell_volume   356.56376323
_cell_formula_units_Z   6
loop_
 _symmetry_equiv_pos_site_id
 _symmetry_equiv_pos_as_xyz
  1  'x, y, z'
loop_
 _atom_site_type_symbol
 _atom_site_label
 _atom_site_symmetry_multiplicity
 _atom_site_fract_x
 _atom_site_fract_y
 _atom_site_fract_z
 _atom_site_occupancy
  N  N0  1  0.89706145  0.39706145  0.50000000  1.0
  N  N1  1  0.50000000  0.10293855  0.60293855  1.0
  N  N2  1  0.50000000  0.89706145  0.39706145  1.0
  N  N3  1  0.39706145  0.50000000  0.89706145  1.0
  N  N4  1  0.60293855  0.50000000  0.10293855  1.0
  N  N5  1  0.10293855  0.60293855  0.50000000  1.0
  O  O6  1  0.62367112  0.15454248  0.77821360  1.0
  O  O7  1  0.62367112  0.84545752  0.46912865  1.0
  O  O8  1  0.37632888  0.15454248  0.53087135  1.0
  O  O9  1  1.37632888  0.84545752  1.22178640  1.0
  O  O10  1  0.46912865  0.62367112  0.84545752  1.0
  O  O11  1  0.77821360  0.62367112  0.15454248  1.0
  O  O12  1  0.84545752  1.22178640  1.37632888  1.0
  O  O13  1  0.84545752  0.46912865  0.62367112  1.0
  O  O14  1  1.22178640  1.37632888  0.84545752  1.0
  O  O15  1  0.53087135  0.37632888  0.15454248  1.0
  O  O16  1  0.15454248  0.53087135  0.37632888  1.0
  O  O17  1  0.15454248  0.77821360  0.62367112  1.0
