# generated using pymatgen
data_Rb3As11
_symmetry_space_group_name_H-M   'P 1'
_cell_length_a   11.70689300
_cell_length_b   15.00953999
_cell_length_c   11.45565651
_cell_angle_alpha   90.00000000
_cell_angle_beta   90.00000000
_cell_angle_gamma   90.00000000
_symmetry_Int_Tables_number   1
_chemical_formula_structural   Rb3As11
_chemical_formula_sum   'Rb12 As44'
_cell_volume   2012.93158439
_cell_formula_units_Z   4
loop_
 _symmetry_equiv_pos_site_id
 _symmetry_equiv_pos_as_xyz
  1  'x, y, z'
loop_
 _atom_site_type_symbol
 _atom_site_label
 _atom_site_symmetry_multiplicity
 _atom_site_fract_x
 _atom_site_fract_y
 _atom_site_fract_z
 _atom_site_occupancy
  Rb  Rb0  1  0.76221956  0.01156511  0.42067344  1.0
  Rb  Rb1  1  0.73778044  0.48843489  0.92067344  1.0
  Rb  Rb2  1  0.26221956  0.48843489  0.57932656  1.0
  Rb  Rb3  1  0.23778044  0.01156511  0.07932656  1.0
  Rb  Rb4  1  0.23778044  0.98843489  0.57932656  1.0
  Rb  Rb5  1  0.26221956  0.51156511  0.07932656  1.0
  Rb  Rb6  1  0.73778044  0.51156511  0.42067344  1.0
  Rb  Rb7  1  0.76221956  0.98843489  0.92067344  1.0
  Rb  Rb8  1  0.00000000  0.28496212  0.25000000  1.0
  Rb  Rb9  1  0.50000000  0.21503788  0.75000000  1.0
  Rb  Rb10  1  0.00000000  0.71503788  0.75000000  1.0
  Rb  Rb11  1  0.50000000  0.78496212  0.25000000  1.0
  As  As12  1  0.68000170  0.24530051  0.23715391  1.0
  As  As13  1  0.81999830  0.25469949  0.73715391  1.0
  As  As14  1  0.18000170  0.25469949  0.76284609  1.0
  As  As15  1  0.31999830  0.24530051  0.26284609  1.0
  As  As16  1  0.31999830  0.75469949  0.76284609  1.0
  As  As17  1  0.18000170  0.74530051  0.26284609  1.0
  As  As18  1  0.81999830  0.74530051  0.23715391  1.0
  As  As19  1  0.68000170  0.75469949  0.73715391  1.0
  As  As20  1  0.59832574  0.21653465  0.43625166  1.0
  As  As21  1  0.90167426  0.28346535  0.93625166  1.0
  As  As22  1  0.09832574  0.28346535  0.56374834  1.0
  As  As23  1  0.40167426  0.21653465  0.06374834  1.0
  As  As24  1  0.40167426  0.78346535  0.56374834  1.0
  As  As25  1  0.09832574  0.71653465  0.06374834  1.0
  As  As26  1  0.90167426  0.71653465  0.43625166  1.0
  As  As27  1  0.59832574  0.78346535  0.93625166  1.0
  As  As28  1  0.57833116  0.13339328  0.11260565  1.0
  As  As29  1  0.92166884  0.36660672  0.61260565  1.0
  As  As30  1  0.07833116  0.36660672  0.88739435  1.0
  As  As31  1  0.42166884  0.13339328  0.38739435  1.0
  As  As32  1  0.42166884  0.86660672  0.88739435  1.0
  As  As33  1  0.07833116  0.63339328  0.38739435  1.0
  As  As34  1  0.92166884  0.63339328  0.11260565  1.0
  As  As35  1  0.57833116  0.86660672  0.61260565  1.0
  As  As36  1  0.58265395  0.38782113  0.18206511  1.0
  As  As37  1  0.91734605  0.11217887  0.68206511  1.0
  As  As38  1  0.08265395  0.11217887  0.81793489  1.0
  As  As39  1  0.41734605  0.38782113  0.31793489  1.0
  As  As40  1  0.41734605  0.61217887  0.81793489  1.0
  As  As41  1  0.08265395  0.88782113  0.31793489  1.0
  As  As42  1  0.91734605  0.88782113  0.18206511  1.0
  As  As43  1  0.58265395  0.61217887  0.68206511  1.0
  As  As44  1  0.48130345  0.35775728  1.00201481  1.0
  As  As45  1  0.01869655  0.14224272  0.50201481  1.0
  As  As46  1  0.98130345  0.14224272  -0.00201481  1.0
  As  As47  1  0.51869655  0.35775728  0.49798519  1.0
  As  As48  1  0.51869655  0.64224272  -0.00201481  1.0
  As  As49  1  0.98130345  0.85775728  0.49798519  1.0
  As  As50  1  0.01869655  0.85775728  1.00201481  1.0
  As  As51  1  0.48130345  0.64224272  0.50201481  1.0
  As  As52  1  0.00000000  0.52659198  0.25000000  1.0
  As  As53  1  0.50000000  -0.02659198  0.75000000  1.0
  As  As54  1  0.00000000  0.47340802  0.75000000  1.0
  As  As55  1  0.50000000  1.02659198  0.25000000  1.0
