# generated using pymatgen
data_Ba(AsPd)2
_symmetry_space_group_name_H-M   'P 1'
_cell_length_a   10.94420333
_cell_length_b   10.94420333
_cell_length_c   10.94420333
_cell_angle_alpha   156.03425404
_cell_angle_beta   156.03425404
_cell_angle_gamma   34.14937222
_symmetry_Int_Tables_number   1
_chemical_formula_structural   Ba(AsPd)2
_chemical_formula_sum   'Ba2 As4 Pd4'
_cell_volume   216.05816942
_cell_formula_units_Z   2
loop_
 _symmetry_equiv_pos_site_id
 _symmetry_equiv_pos_as_xyz
  1  'x, y, z'
loop_
 _atom_site_type_symbol
 _atom_site_label
 _atom_site_symmetry_multiplicity
 _atom_site_fract_x
 _atom_site_fract_y
 _atom_site_fract_z
 _atom_site_occupancy
  Ba  Ba0  1  0.62339791  0.62339791  1.00000000  1.0
  Ba  Ba1  1  0.37660209  0.37660209  -0.00000000  1.0
  As  As2  1  0.93310920  0.93310920  1.00000000  1.0
  As  As3  1  0.06689080  0.06689080  -0.00000000  1.0
  As  As4  1  0.25000000  0.75000000  0.50000000  1.0
  As  As5  1  0.75000000  0.25000000  0.50000000  1.0
  Pd  Pd6  1  0.80701150  0.80701150  1.00000000  1.0
  Pd  Pd7  1  0.19298850  0.19298850  -0.00000000  1.0
  Pd  Pd8  1  0.50000000  -0.00000000  0.50000000  1.0
  Pd  Pd9  1  0.00000000  0.50000000  0.50000000  1.0
