# generated using pymatgen
data_MgH2
_symmetry_space_group_name_H-M   'P 1'
_cell_length_a   4.49833068
_cell_length_b   5.43540607
_cell_length_c   4.92402635
_cell_angle_alpha   90.00000000
_cell_angle_beta   90.00000000
_cell_angle_gamma   90.00000000
_symmetry_Int_Tables_number   1
_chemical_formula_structural   MgH2
_chemical_formula_sum   'Mg4 H8'
_cell_volume   120.39369449
_cell_formula_units_Z   4
loop_
 _symmetry_equiv_pos_site_id
 _symmetry_equiv_pos_as_xyz
  1  'x, y, z'
loop_
 _atom_site_type_symbol
 _atom_site_label
 _atom_site_symmetry_multiplicity
 _atom_site_fract_x
 _atom_site_fract_y
 _atom_site_fract_z
 _atom_site_occupancy
  Mg  Mg0  1  0.50000000  0.16690315  0.25000000  1.0
  Mg  Mg1  1  0.50000000  0.83309685  0.75000000  1.0
  Mg  Mg2  1  0.00000000  0.66690315  0.25000000  1.0
  Mg  Mg3  1  0.00000000  0.33309685  0.75000000  1.0
  H  H4  1  0.22814567  0.39040992  0.08047020  1.0
  H  H5  1  0.22814567  0.60959008  0.58047020  1.0
  H  H6  1  0.72814567  0.89040992  0.41952980  1.0
  H  H7  1  0.72814567  0.10959008  0.91952980  1.0
  H  H8  1  0.77185433  0.39040992  0.41952980  1.0
  H  H9  1  0.77185433  0.60959008  0.91952980  1.0
  H  H10  1  0.27185433  0.89040992  0.08047020  1.0
  H  H11  1  0.27185433  0.10959008  0.58047020  1.0
