# generated using pymatgen
data_V2Ni(PO5)2
_symmetry_space_group_name_H-M   'P 1'
_cell_length_a   7.37563182
_cell_length_b   7.30655194
_cell_length_c   7.57090946
_cell_angle_alpha   90.00000000
_cell_angle_beta   120.90422300
_cell_angle_gamma   90.00000000
_symmetry_Int_Tables_number   1
_chemical_formula_structural   V2Ni(PO5)2
_chemical_formula_sum   'V4 Ni2 P4 O20'
_cell_volume   350.07471083
_cell_formula_units_Z   2
loop_
 _symmetry_equiv_pos_site_id
 _symmetry_equiv_pos_as_xyz
  1  'x, y, z'
loop_
 _atom_site_type_symbol
 _atom_site_label
 _atom_site_symmetry_multiplicity
 _atom_site_fract_x
 _atom_site_fract_y
 _atom_site_fract_z
 _atom_site_occupancy
  V  V0  1  0.74365111  0.27821972  0.04434141  1.0
  V  V1  1  0.74365111  0.22178028  0.54434141  1.0
  V  V2  1  0.25634889  0.77821972  0.45565859  1.0
  V  V3  1  0.25634889  0.72178028  0.95565859  1.0
  Ni  Ni4  1  0.00000000  0.50000000  0.50000000  1.0
  Ni  Ni5  1  0.00000000  0.00000000  0.00000000  1.0
  P  P6  1  0.74747205  0.87982409  0.24871481  1.0
  P  P7  1  0.74747205  0.62017591  0.74871481  1.0
  P  P8  1  0.25252795  0.37982409  0.25128519  1.0
  P  P9  1  0.25252795  0.12017591  0.75128519  1.0
  O  O10  1  0.94515485  0.75013577  0.35618301  1.0
  O  O11  1  0.94515485  0.74986423  0.85618301  1.0
  O  O12  1  0.05484515  0.25013577  0.14381699  1.0
  O  O13  1  0.05484515  0.24986423  0.64381699  1.0
  O  O14  1  0.77927118  0.00611782  0.09831792  1.0
  O  O15  1  0.77927118  0.49388218  0.59831792  1.0
  O  O16  1  0.22072882  0.50611782  0.40168208  1.0
  O  O17  1  0.22072882  0.99388218  0.90168208  1.0
  O  O18  1  0.77177581  0.35013655  0.26379296  1.0
  O  O19  1  0.77177581  0.14986345  0.76379296  1.0
  O  O20  1  0.22822419  0.85013655  0.23620704  1.0
  O  O21  1  0.22822419  0.64986345  0.73620704  1.0
  O  O22  1  0.73175997  0.99712783  0.40826592  1.0
  O  O23  1  0.73175997  0.50287217  0.90826592  1.0
  O  O24  1  0.26824003  0.49712783  0.09173408  1.0
  O  O25  1  0.26824003  0.00287217  0.59173408  1.0
  O  O26  1  0.44563331  0.25438357  0.36754867  1.0
  O  O27  1  0.44563331  0.24561643  0.86754867  1.0
  O  O28  1  0.55436669  0.75438357  0.13245133  1.0
  O  O29  1  0.55436669  0.74561643  0.63245133  1.0
