# generated using pymatgen
data_RbMnBr3
_symmetry_space_group_name_H-M   'P 1'
_cell_length_a   7.64112592
_cell_length_b   7.64112592
_cell_length_c   6.56692434
_cell_angle_alpha   90.00000000
_cell_angle_beta   90.00000000
_cell_angle_gamma   120.00000000
_symmetry_Int_Tables_number   1
_chemical_formula_structural   RbMnBr3
_chemical_formula_sum   'Rb2 Mn2 Br6'
_cell_volume   332.05296146
_cell_formula_units_Z   2
loop_
 _symmetry_equiv_pos_site_id
 _symmetry_equiv_pos_as_xyz
  1  'x, y, z'
loop_
 _atom_site_type_symbol
 _atom_site_label
 _atom_site_symmetry_multiplicity
 _atom_site_fract_x
 _atom_site_fract_y
 _atom_site_fract_z
 _atom_site_occupancy
  Rb  Rb0  1  0.33333333  0.66666667  0.75000000  1.0
  Rb  Rb1  1  0.66666667  0.33333333  0.25000000  1.0
  Mn  Mn2  1  0.00000000  0.00000000  0.50000000  1.0
  Mn  Mn3  1  0.00000000  -0.00000000  0.00000000  1.0
  Br  Br4  1  0.16155440  0.83844560  0.25000000  1.0
  Br  Br5  1  0.16155440  0.32310881  0.25000000  1.0
  Br  Br6  1  0.83844560  0.16155440  0.75000000  1.0
  Br  Br7  1  0.83844560  0.67689119  0.75000000  1.0
  Br  Br8  1  0.67689119  0.83844560  0.25000000  1.0
  Br  Br9  1  0.32310881  0.16155440  0.75000000  1.0
