# generated using pymatgen
data_Cs3CdBr5
_symmetry_space_group_name_H-M   'P 1'
_cell_length_a   10.69079600
_cell_length_b   10.69079600
_cell_length_c   10.69079600
_cell_angle_alpha   125.31262256
_cell_angle_beta   125.31262256
_cell_angle_gamma   81.02086243
_symmetry_Int_Tables_number   1
_chemical_formula_structural   Cs3CdBr5
_chemical_formula_sum   'Cs6 Cd2 Br10'
_cell_volume   783.99274778
_cell_formula_units_Z   2
loop_
 _symmetry_equiv_pos_site_id
 _symmetry_equiv_pos_as_xyz
  1  'x, y, z'
loop_
 _atom_site_type_symbol
 _atom_site_label
 _atom_site_symmetry_multiplicity
 _atom_site_fract_x
 _atom_site_fract_y
 _atom_site_fract_z
 _atom_site_occupancy
  Br  Br0  1  1.20057426  0.70057426  1.20255524  1.0
  Br  Br1  1  0.50198099  1.00198099  1.20255524  1.0
  Br  Br2  1  0.99801901  1.20057426  1.50000000  1.0
  Br  Br3  1  0.29942574  0.50198099  0.50000000  1.0
  Br  Br4  1  0.70057426  0.49801901  0.50000000  1.0
  Br  Br5  1  1.00198099  0.79942574  1.50000000  1.0
  Br  Br6  1  0.49801901  0.99801901  0.79744476  1.0
  Br  Br7  1  0.79942574  0.29942574  0.79744476  1.0
  Br  Br8  1  0.00000000  0.00000000  0.00000000  1.0
  Br  Br9  1  0.50000000  0.50000000  1.00000000  1.0
  Cs  Cs10  1  0.83875264  0.33875264  1.17750528  1.0
  Cs  Cs11  1  0.66124736  0.83875264  1.50000000  1.0
  Cs  Cs12  1  0.33875264  0.16124736  0.50000000  1.0
  Cs  Cs13  1  0.16124736  0.66124736  0.82249472  1.0
  Cs  Cs14  1  0.75000000  0.75000000  1.00000000  1.0
  Cs  Cs15  1  0.25000000  0.25000000  -0.00000000  1.0
  Cd  Cd16  1  0.25000000  0.75000000  0.50000000  1.0
  Cd  Cd17  1  0.75000000  0.25000000  0.50000000  1.0
