# generated using pymatgen
data_Ba2TiO4
_symmetry_space_group_name_H-M   'P 1'
_cell_length_a   6.22028208
_cell_length_b   7.74521917
_cell_length_c   11.97522084
_cell_angle_alpha   90.00000000
_cell_angle_beta   117.41777026
_cell_angle_gamma   90.00000000
_symmetry_Int_Tables_number   1
_chemical_formula_structural   Ba2TiO4
_chemical_formula_sum   'Ba8 Ti4 O16'
_cell_volume   512.12991268
_cell_formula_units_Z   4
loop_
 _symmetry_equiv_pos_site_id
 _symmetry_equiv_pos_as_xyz
  1  'x, y, z'
loop_
 _atom_site_type_symbol
 _atom_site_label
 _atom_site_symmetry_multiplicity
 _atom_site_fract_x
 _atom_site_fract_y
 _atom_site_fract_z
 _atom_site_occupancy
  Ba  Ba0  1  0.97534281  0.49630344  0.19937052  1.0
  Ba  Ba1  1  0.97534281  0.00369656  0.69937052  1.0
  Ba  Ba2  1  0.02465719  0.99630344  0.30062948  1.0
  Ba  Ba3  1  0.02465719  0.50369656  0.80062948  1.0
  Ba  Ba4  1  0.30495068  0.16109288  0.07292899  1.0
  Ba  Ba5  1  0.30495068  0.33890712  0.57292899  1.0
  Ba  Ba6  1  0.69504932  0.66109288  0.42707101  1.0
  Ba  Ba7  1  0.69504932  0.83890712  0.92707101  1.0
  Ti  Ti8  1  0.65528148  0.21963011  0.41633273  1.0
  Ti  Ti9  1  0.65528148  0.28036989  0.91633273  1.0
  Ti  Ti10  1  0.34471852  0.71963011  0.08366727  1.0
  Ti  Ti11  1  0.34471852  0.78036989  0.58366727  1.0
  O  O12  1  0.85724168  0.32403219  0.36294774  1.0
  O  O13  1  0.85724168  0.17596781  0.86294774  1.0
  O  O14  1  0.14275832  0.82403219  0.13705226  1.0
  O  O15  1  0.14275832  0.67596781  0.63705226  1.0
  O  O16  1  0.73325506  0.18046429  0.06975990  1.0
  O  O17  1  0.73325506  0.31953571  0.56975990  1.0
  O  O18  1  0.26674494  0.68046429  0.43024010  1.0
  O  O19  1  0.26674494  0.81953571  0.93024010  1.0
  O  O20  1  0.72450069  0.99234476  0.43723057  1.0
  O  O21  1  0.72450069  0.50765524  0.93723057  1.0
  O  O22  1  0.27549931  0.49234476  0.06276943  1.0
  O  O23  1  0.27549931  0.00765524  0.56276943  1.0
  O  O24  1  0.33330431  0.25448132  0.30798402  1.0
  O  O25  1  0.33330431  0.24551868  0.80798402  1.0
  O  O26  1  0.66669569  0.75448132  0.19201598  1.0
  O  O27  1  0.66669569  0.74551868  0.69201598  1.0
