# generated using pymatgen
data_Sr2LaTa3O11
_symmetry_space_group_name_H-M   'P 1'
_cell_length_a   11.47355599
_cell_length_b   11.47355599
_cell_length_c   11.47355599
_cell_angle_alpha   160.04148892
_cell_angle_beta   151.00618179
_cell_angle_gamma   35.45098000
_symmetry_Int_Tables_number   1
_chemical_formula_structural   Sr2LaTa3O11
_chemical_formula_sum   'Sr2 La1 Ta3 O11'
_cell_volume   249.64195645
_cell_formula_units_Z   1
loop_
 _symmetry_equiv_pos_site_id
 _symmetry_equiv_pos_as_xyz
  1  'x, y, z'
loop_
 _atom_site_type_symbol
 _atom_site_label
 _atom_site_symmetry_multiplicity
 _atom_site_fract_x
 _atom_site_fract_y
 _atom_site_fract_z
 _atom_site_occupancy
  Sr  Sr0  1  0.79448726  0.29448726  0.50000000  1.0
  Sr  Sr1  1  0.20551274  0.70551274  0.50000000  1.0
  La  La2  1  0.50000000  0.50000000  1.00000000  1.0
  Ta  Ta3  1  0.63459468  0.13459468  0.50000000  1.0
  Ta  Ta4  1  0.36540532  0.86540532  0.50000000  1.0
  Ta  Ta5  1  0.00000000  0.00000000  0.00000000  1.0
  O  O6  1  0.67699982  0.94072901  0.73627081  1.0
  O  O7  1  0.79554180  0.05927099  0.73627081  1.0
  O  O8  1  1.20445820  0.94072901  1.26372919  1.0
  O  O9  1  0.32300018  0.05927099  0.26372919  1.0
  O  O10  1  0.54376230  0.80587775  0.73788456  1.0
  O  O11  1  0.93200681  0.19412225  0.73788456  1.0
  O  O12  1  1.06799319  0.80587775  1.26211544  1.0
  O  O13  1  0.45623770  0.19412225  0.26211544  1.0
  O  O14  1  0.62005088  0.62005088  1.00000000  1.0
  O  O15  1  0.37994912  0.37994912  0.00000000  1.0
  O  O16  1  0.00000000  0.50000000  0.50000000  1.0
