# generated using pymatgen
data_Ta4CrTe4
_symmetry_space_group_name_H-M   'P 1'
_cell_length_a   10.97206146
_cell_length_b   19.08835613
_cell_length_c   4.84186359
_cell_angle_alpha   90.00000000
_cell_angle_beta   90.00000000
_cell_angle_gamma   90.00000000
_symmetry_Int_Tables_number   1
_chemical_formula_structural   Ta4CrTe4
_chemical_formula_sum   'Ta16 Cr4 Te16'
_cell_volume   1014.07321144
_cell_formula_units_Z   4
loop_
 _symmetry_equiv_pos_site_id
 _symmetry_equiv_pos_as_xyz
  1  'x, y, z'
loop_
 _atom_site_type_symbol
 _atom_site_label
 _atom_site_symmetry_multiplicity
 _atom_site_fract_x
 _atom_site_fract_y
 _atom_site_fract_z
 _atom_site_occupancy
  Ta  Ta0  1  0.43567676  0.61742187  0.50000000  1.0
  Ta  Ta1  1  0.93567676  0.88257813  0.50000000  1.0
  Ta  Ta2  1  0.56432324  0.38257813  0.50000000  1.0
  Ta  Ta3  1  0.06432324  0.11742187  0.50000000  1.0
  Ta  Ta4  1  0.20507605  0.96320925  0.50000000  1.0
  Ta  Ta5  1  0.70507605  0.53679075  0.50000000  1.0
  Ta  Ta6  1  0.79492395  0.03679075  0.50000000  1.0
  Ta  Ta7  1  0.29492395  0.46320925  0.50000000  1.0
  Ta  Ta8  1  0.30962213  0.55725619  0.00000000  1.0
  Ta  Ta9  1  0.80962213  0.94274381  0.00000000  1.0
  Ta  Ta10  1  0.69037787  0.44274381  0.00000000  1.0
  Ta  Ta11  1  0.19037787  0.05725619  0.00000000  1.0
  Ta  Ta12  1  0.09936338  0.89095139  0.00000000  1.0
  Ta  Ta13  1  0.59936338  0.60904861  0.00000000  1.0
  Ta  Ta14  1  0.90063662  0.10904861  0.00000000  1.0
  Ta  Ta15  1  0.40063662  0.39095139  0.00000000  1.0
  Cr  Cr16  1  0.50000000  0.50000000  0.74999366  1.0
  Cr  Cr17  1  0.50000000  0.50000000  0.25000634  1.0
  Cr  Cr18  1  0.00000000  0.00000000  0.74999366  1.0
  Cr  Cr19  1  0.00000000  0.00000000  0.25000634  1.0
  Te  Te20  1  0.16859777  0.81439074  0.50000000  1.0
  Te  Te21  1  0.66859777  0.68560926  0.50000000  1.0
  Te  Te22  1  0.83140223  0.18560926  0.50000000  1.0
  Te  Te23  1  0.33140223  0.31439074  0.50000000  1.0
  Te  Te24  1  0.17583910  0.59736315  0.50000000  1.0
  Te  Te25  1  0.67583910  0.90263685  0.50000000  1.0
  Te  Te26  1  0.82416090  0.40263685  0.50000000  1.0
  Te  Te27  1  0.32416090  0.09736315  0.50000000  1.0
  Te  Te28  1  0.39131593  0.70013636  0.00000000  1.0
  Te  Te29  1  0.89131593  0.79986364  0.00000000  1.0
  Te  Te30  1  0.60868407  0.29986364  0.00000000  1.0
  Te  Te31  1  0.10868407  0.20013636  0.00000000  1.0
  Te  Te32  1  0.34861651  0.93708194  0.00000000  1.0
  Te  Te33  1  0.84861651  0.56291806  0.00000000  1.0
  Te  Te34  1  0.65138349  0.06291806  0.00000000  1.0
  Te  Te35  1  0.15138349  0.43708194  0.00000000  1.0
