# generated using pymatgen
data_Be13Re
_symmetry_space_group_name_H-M   'P 1'
_cell_length_a   9.55319227
_cell_length_b   9.55319227
_cell_length_c   9.55319227
_cell_angle_alpha   60.00000000
_cell_angle_beta   60.00000000
_cell_angle_gamma   60.00000000
_symmetry_Int_Tables_number   1
_chemical_formula_structural   Be13Re
_chemical_formula_sum   'Be52 Re4'
_cell_volume   616.49641801
_cell_formula_units_Z   4
loop_
 _symmetry_equiv_pos_site_id
 _symmetry_equiv_pos_as_xyz
  1  'x, y, z'
loop_
 _atom_site_type_symbol
 _atom_site_label
 _atom_site_symmetry_multiplicity
 _atom_site_fract_x
 _atom_site_fract_y
 _atom_site_fract_z
 _atom_site_occupancy
  Be  Be0  1  0.74810832  -0.25189168  1.14535469  1.0
  Be  Be1  1  -0.64157132  0.74810832  1.14535469  1.0
  Be  Be2  1  -0.64157132  1.14535469  0.74810832  1.0
  Be  Be3  1  0.74810832  0.14535469  0.74810832  1.0
  Be  Be4  1  0.50189168  0.50189168  -0.10842868  1.0
  Be  Be5  1  0.50189168  -0.10842868  0.50189168  1.0
  Be  Be6  1  0.10464531  -0.10842868  0.50189168  1.0
  Be  Be7  1  0.10464531  0.50189168  -0.10842868  1.0
  Be  Be8  1  0.74810832  -0.64157132  1.14535469  1.0
  Be  Be9  1  -0.25189168  1.14535469  0.35842868  1.0
  Be  Be10  1  -0.10842868  0.50189168  0.50189168  1.0
  Be  Be11  1  0.10464531  0.50189168  0.50189168  1.0
  Be  Be12  1  1.14535469  -0.64157132  0.74810832  1.0
  Be  Be13  1  0.14535469  0.74810832  0.35842868  1.0
  Be  Be14  1  -0.25189168  0.74810832  0.35842868  1.0
  Be  Be15  1  0.74810832  -0.64157132  0.74810832  1.0
  Be  Be16  1  -0.10842868  0.10464531  0.50189168  1.0
  Be  Be17  1  0.50189168  0.10464531  0.50189168  1.0
  Be  Be18  1  0.50189168  0.50189168  0.10464531  1.0
  Be  Be19  1  -0.10842868  0.50189168  0.10464531  1.0
  Be  Be20  1  1.14535469  -0.25189168  0.74810832  1.0
  Be  Be21  1  -0.64157132  0.74810832  0.74810832  1.0
  Be  Be22  1  0.50189168  0.10464531  -0.10842868  1.0
  Be  Be23  1  0.50189168  -0.10842868  0.10464531  1.0
  Be  Be24  1  1.00449082  -0.76035892  0.75137729  1.0
  Be  Be25  1  0.00449082  0.75137729  0.23964108  1.0
  Be  Be26  1  0.01035892  0.24550918  0.24550918  1.0
  Be  Be27  1  0.49862271  0.24550918  0.24550918  1.0
  Be  Be28  1  -0.76035892  1.00449082  0.75137729  1.0
  Be  Be29  1  1.00449082  0.00449082  0.75137729  1.0
  Be  Be30  1  1.00449082  -0.24862271  1.00449082  1.0
  Be  Be31  1  -0.76035892  0.75137729  1.00449082  1.0
  Be  Be32  1  0.24550918  0.01035892  0.24550918  1.0
  Be  Be33  1  0.24550918  0.24550918  0.01035892  1.0
  Be  Be34  1  0.49862271  0.24550918  0.01035892  1.0
  Be  Be35  1  0.49862271  0.01035892  0.24550918  1.0
  Be  Be36  1  0.75137729  0.00449082  1.00449082  1.0
  Be  Be37  1  -0.76035892  1.00449082  1.00449082  1.0
  Be  Be38  1  0.24550918  0.49862271  0.01035892  1.0
  Be  Be39  1  0.24550918  0.01035892  0.49862271  1.0
  Be  Be40  1  -0.24862271  1.00449082  0.23964108  1.0
  Be  Be41  1  0.75137729  -0.76035892  1.00449082  1.0
  Be  Be42  1  1.00449082  -0.76035892  1.00449082  1.0
  Be  Be43  1  0.00449082  1.00449082  0.23964108  1.0
  Be  Be44  1  0.24550918  0.49862271  0.24550918  1.0
  Be  Be45  1  0.01035892  0.49862271  0.24550918  1.0
  Be  Be46  1  0.01035892  0.24550918  0.49862271  1.0
  Be  Be47  1  0.24550918  0.24550918  0.49862271  1.0
  Be  Be48  1  0.00000000  1.00000000  -0.00000000  1.0
  Be  Be49  1  0.25000000  0.25000000  0.25000000  1.0
  Be  Be50  1  0.50000000  0.50000000  -0.50000000  1.0
  Be  Be51  1  0.75000000  -0.25000000  0.75000000  1.0
  Re  Re52  1  0.62500000  -0.37500000  1.12500000  1.0
  Re  Re53  1  0.62500000  0.12500000  0.62500000  1.0
  Re  Re54  1  0.62500000  -0.37500000  0.62500000  1.0
  Re  Re55  1  1.12500000  -0.37500000  0.62500000  1.0
