# generated using pymatgen
data_Co3Mo3N
_symmetry_space_group_name_H-M   'P 1'
_cell_length_a   7.79447696
_cell_length_b   7.79447696
_cell_length_c   7.79447696
_cell_angle_alpha   60.00000000
_cell_angle_beta   60.00000000
_cell_angle_gamma   60.00000000
_symmetry_Int_Tables_number   1
_chemical_formula_structural   Co3Mo3N
_chemical_formula_sum   'Co12 Mo12 N4'
_cell_volume   334.84663178
_cell_formula_units_Z   4
loop_
 _symmetry_equiv_pos_site_id
 _symmetry_equiv_pos_as_xyz
  1  'x, y, z'
loop_
 _atom_site_type_symbol
 _atom_site_label
 _atom_site_symmetry_multiplicity
 _atom_site_fract_x
 _atom_site_fract_y
 _atom_site_fract_z
 _atom_site_occupancy
  Co  Co0  1  0.00839728  1.33053424  0.33053424  1.0
  Co  Co1  1  0.33053424  1.00839728  0.33053424  1.0
  Co  Co2  1  0.33053424  1.33053424  0.00839728  1.0
  Co  Co3  1  0.33053424  1.33053424  0.33053424  1.0
  Co  Co4  1  -0.75839728  0.91946576  0.91946576  1.0
  Co  Co5  1  0.91946576  -0.75839728  0.91946576  1.0
  Co  Co6  1  0.91946576  0.91946576  -0.75839728  1.0
  Co  Co7  1  0.91946576  0.91946576  0.91946576  1.0
  Co  Co8  1  0.62500000  1.12500000  0.12500000  1.0
  Co  Co9  1  0.12500000  1.62500000  0.12500000  1.0
  Co  Co10  1  0.12500000  0.12500000  1.62500000  1.0
  Co  Co11  1  0.12500000  0.12500000  0.12500000  1.0
  Mo  Mo12  1  0.70106428  0.70106428  -0.70106428  1.0
  Mo  Mo13  1  0.29893572  1.29893572  -0.29893572  1.0
  Mo  Mo14  1  0.70106428  -0.70106428  0.70106428  1.0
  Mo  Mo15  1  0.29893572  -0.29893572  0.29893572  1.0
  Mo  Mo16  1  -0.70106428  0.70106428  0.70106428  1.0
  Mo  Mo17  1  -0.29893572  0.29893572  0.29893572  1.0
  Mo  Mo18  1  -0.45106428  0.54893572  0.95106428  1.0
  Mo  Mo19  1  0.95106428  0.95106428  -0.45106428  1.0
  Mo  Mo20  1  0.54893572  0.95106428  0.54893572  1.0
  Mo  Mo21  1  0.95106428  0.54893572  0.95106428  1.0
  Mo  Mo22  1  0.95106428  0.54893572  -0.45106428  1.0
  Mo  Mo23  1  0.54893572  0.95106428  -0.04893572  1.0
  N  N24  1  1.12500000  0.62500000  0.62500000  1.0
  N  N25  1  0.62500000  1.12500000  -0.37500000  1.0
  N  N26  1  -0.37500000  0.62500000  1.12500000  1.0
  N  N27  1  -0.37500000  0.62500000  0.62500000  1.0
