# generated using pymatgen
data_Zn3N2
_symmetry_space_group_name_H-M   'P 1'
_cell_length_a   8.52434156
_cell_length_b   8.52434156
_cell_length_c   8.52434156
_cell_angle_alpha   109.47122063
_cell_angle_beta   109.47122063
_cell_angle_gamma   109.47122063
_symmetry_Int_Tables_number   1
_chemical_formula_structural   Zn3N2
_chemical_formula_sum   'Zn24 N16'
_cell_volume   476.82678018
_cell_formula_units_Z   8
loop_
 _symmetry_equiv_pos_site_id
 _symmetry_equiv_pos_as_xyz
  1  'x, y, z'
loop_
 _atom_site_type_symbol
 _atom_site_label
 _atom_site_symmetry_multiplicity
 _atom_site_fract_x
 _atom_site_fract_y
 _atom_site_fract_z
 _atom_site_occupancy
  Zn  Zn0  1  0.54944787  0.52072701  0.77133910  1.0
  Zn  Zn1  1  1.04944787  1.27810877  1.02872086  1.0
  Zn  Zn2  1  0.24938791  0.77810877  0.72866090  1.0
  Zn  Zn3  1  0.74938791  1.02072701  0.47127914  1.0
  Zn  Zn4  1  0.52872086  1.25061209  0.97927299  1.0
  Zn  Zn5  1  1.02872086  1.04944787  1.27810877  1.0
  Zn  Zn6  1  0.77133910  0.54944787  0.52072701  1.0
  Zn  Zn7  1  1.27133910  0.75061209  1.22189123  1.0
  Zn  Zn8  1  0.77810877  0.72866090  0.24938791  1.0
  Zn  Zn9  1  1.27810877  1.02872086  1.04944787  1.0
  Zn  Zn10  1  0.97927299  1.52872086  1.25061209  1.0
  Zn  Zn11  1  1.47927299  1.22866090  1.45055213  1.0
  Zn  Zn12  1  1.75061209  1.22189123  1.27133910  1.0
  Zn  Zn13  1  1.25061209  0.97927299  1.52872086  1.0
  Zn  Zn14  1  1.45055213  1.47927299  1.22866090  1.0
  Zn  Zn15  1  0.95055213  0.72189123  0.97127914  1.0
  Zn  Zn16  1  1.22866090  1.45055213  1.47927299  1.0
  Zn  Zn17  1  0.72866090  1.24938791  0.77810877  1.0
  Zn  Zn18  1  1.47127914  0.74938791  1.02072701  1.0
  Zn  Zn19  1  0.97127914  0.95055213  0.72189123  1.0
  Zn  Zn20  1  1.02072701  0.47127914  0.74938791  1.0
  Zn  Zn21  1  0.52072701  0.77133910  0.54944787  1.0
  Zn  Zn22  1  1.22189123  1.27133910  1.75061209  1.0
  Zn  Zn23  1  0.72189123  0.97127914  0.95055213  1.0
  N  N24  1  1.73180614  1.48180614  1.25000000  1.0
  N  N25  1  1.23180614  0.98180614  1.25000000  1.0
  N  N26  1  0.75000000  0.76819386  0.01819386  1.0
  N  N27  1  0.25000000  1.23180614  0.98180614  1.0
  N  N28  1  0.25000000  0.73180614  0.48180614  1.0
  N  N29  1  0.75000000  1.26819386  0.51819386  1.0
  N  N30  1  1.48180614  1.25000000  1.73180614  1.0
  N  N31  1  0.98180614  0.25000000  1.23180614  1.0
  N  N32  1  0.01819386  0.75000000  0.76819386  1.0
  N  N33  1  0.51819386  0.75000000  0.26819386  1.0
  N  N34  1  0.26819386  0.51819386  0.75000000  1.0
  N  N35  1  0.76819386  1.01819386  0.75000000  1.0
  N  N36  1  1.00000000  0.50000000  1.00000000  1.0
  N  N37  1  0.50000000  0.50000000  0.50000000  1.0
  N  N38  1  1.00000000  1.00000000  1.50000000  1.0
  N  N39  1  1.50000000  1.00000000  1.00000000  1.0
