# generated using pymatgen
data_Eu3(Cu2Sn)4
_symmetry_space_group_name_H-M   'P 1'
_cell_length_a   9.24812537
_cell_length_b   9.24812537
_cell_length_c   7.80561249
_cell_angle_alpha   90.00000000
_cell_angle_beta   90.00000000
_cell_angle_gamma   120.00000000
_symmetry_Int_Tables_number   1
_chemical_formula_structural   Eu3(Cu2Sn)4
_chemical_formula_sum   'Eu6 Cu16 Sn8'
_cell_volume   578.15599849
_cell_formula_units_Z   2
loop_
 _symmetry_equiv_pos_site_id
 _symmetry_equiv_pos_as_xyz
  1  'x, y, z'
loop_
 _atom_site_type_symbol
 _atom_site_label
 _atom_site_symmetry_multiplicity
 _atom_site_fract_x
 _atom_site_fract_y
 _atom_site_fract_z
 _atom_site_occupancy
  Eu  Eu0  1  0.95000313  0.47500156  0.22170228  1.0
  Eu  Eu1  1  0.47500156  0.95000313  0.72170228  1.0
  Eu  Eu2  1  0.47500156  0.52499844  0.72170228  1.0
  Eu  Eu3  1  0.52499844  0.47500156  0.22170228  1.0
  Eu  Eu4  1  0.52499844  0.04999687  0.22170228  1.0
  Eu  Eu5  1  0.04999687  0.52499844  0.72170228  1.0
  Cu  Cu6  1  0.33333333  0.66666667  0.39348016  1.0
  Cu  Cu7  1  0.66666667  0.33333333  0.89348016  1.0
  Cu  Cu8  1  0.00000000  0.00000000  -0.00590340  1.0
  Cu  Cu9  1  0.00000000  0.00000000  0.49409660  1.0
  Cu  Cu10  1  0.67401001  0.83700501  0.04740517  1.0
  Cu  Cu11  1  0.83700501  0.67401001  0.54740517  1.0
  Cu  Cu12  1  0.83700501  0.16299499  0.54740517  1.0
  Cu  Cu13  1  0.16299499  0.83700501  0.04740517  1.0
  Cu  Cu14  1  0.16299499  0.32598999  0.04740517  1.0
  Cu  Cu15  1  0.32598999  0.16299499  0.54740517  1.0
  Cu  Cu16  1  0.20069199  0.10034600  0.24198576  1.0
  Cu  Cu17  1  0.10034600  0.20069199  0.74198576  1.0
  Cu  Cu18  1  0.10034600  0.89965400  0.74198576  1.0
  Cu  Cu19  1  0.89965400  0.10034600  0.24198576  1.0
  Cu  Cu20  1  0.89965400  0.79930801  0.24198576  1.0
  Cu  Cu21  1  0.79930801  0.89965400  0.74198576  1.0
  Sn  Sn22  1  0.33333333  0.66666667  0.03466451  1.0
  Sn  Sn23  1  0.66666667  0.33333333  0.53466451  1.0
  Sn  Sn24  1  0.66358694  0.83179347  0.42645970  1.0
  Sn  Sn25  1  0.83179347  0.66358694  0.92645970  1.0
  Sn  Sn26  1  0.83179347  0.16820653  0.92645970  1.0
  Sn  Sn27  1  0.16820653  0.83179347  0.42645970  1.0
  Sn  Sn28  1  0.16820653  0.33641306  0.42645970  1.0
  Sn  Sn29  1  0.33641306  0.16820653  0.92645970  1.0
