# generated using pymatgen
data_HfTlCuS3
_symmetry_space_group_name_H-M   'P 1'
_cell_length_a   7.44745244
_cell_length_b   7.44745244
_cell_length_c   9.76833651
_cell_angle_alpha   90.00000000
_cell_angle_beta   90.00000000
_cell_angle_gamma   151.10309923
_symmetry_Int_Tables_number   1
_chemical_formula_structural   HfTlCuS3
_chemical_formula_sum   'Hf2 Tl2 Cu2 S6'
_cell_volume   261.81498264
_cell_formula_units_Z   2
loop_
 _symmetry_equiv_pos_site_id
 _symmetry_equiv_pos_as_xyz
  1  'x, y, z'
loop_
 _atom_site_type_symbol
 _atom_site_label
 _atom_site_symmetry_multiplicity
 _atom_site_fract_x
 _atom_site_fract_y
 _atom_site_fract_z
 _atom_site_occupancy
  Hf  Hf0  1  0.00000000  0.00000000  0.00000000  1.0
  Hf  Hf1  1  0.00000000  0.00000000  0.50000000  1.0
  Tl  Tl2  1  -0.25534697  0.25534697  0.75000000  1.0
  Tl  Tl3  1  0.25534697  0.74465303  0.25000000  1.0
  Cu  Cu4  1  0.46225819  0.53774181  0.75000000  1.0
  Cu  Cu5  1  -0.46225819  0.46225819  0.25000000  1.0
  S  S6  1  0.38040609  0.61959391  0.95136054  1.0
  S  S7  1  0.38040609  0.61959391  0.54863946  1.0
  S  S8  1  -0.38040609  0.38040609  0.45136054  1.0
  S  S9  1  -0.38040609  0.38040609  0.04863946  1.0
  S  S10  1  0.06084634  0.93915366  0.75000000  1.0
  S  S11  1  -0.06084634  0.06084634  0.25000000  1.0
