# generated using pymatgen
data_FeP2H6NO6
_symmetry_space_group_name_H-M   'P 1'
_cell_length_a   5.41257459
_cell_length_b   5.41257459
_cell_length_c   13.20290766
_cell_angle_alpha   90.00000000
_cell_angle_beta   90.00000000
_cell_angle_gamma   120.00000000
_symmetry_Int_Tables_number   1
_chemical_formula_structural   FeP2H6NO6
_chemical_formula_sum   'Fe2 P4 H12 N2 O12'
_cell_volume   334.97161428
_cell_formula_units_Z   2
loop_
 _symmetry_equiv_pos_site_id
 _symmetry_equiv_pos_as_xyz
  1  'x, y, z'
loop_
 _atom_site_type_symbol
 _atom_site_label
 _atom_site_symmetry_multiplicity
 _atom_site_fract_x
 _atom_site_fract_y
 _atom_site_fract_z
 _atom_site_occupancy
  Fe  Fe0  1  0.33333333  0.66666667  0.05246034  1.0
  Fe  Fe1  1  0.66666667  0.33333333  0.55246034  1.0
  P  P2  1  0.33333333  0.66666667  0.67372245  1.0
  P  P3  1  0.66666667  0.33333333  0.17372245  1.0
  P  P4  1  0.00000000  0.00000000  -0.00059372  1.0
  P  P5  1  0.00000000  0.00000000  0.49940628  1.0
  H  H6  1  0.53940413  0.76970206  0.37703053  1.0
  H  H7  1  0.76970206  0.53940413  0.87703053  1.0
  H  H8  1  0.76970206  0.23029794  0.87703053  1.0
  H  H9  1  0.23029794  0.76970206  0.37703053  1.0
  H  H10  1  0.23029794  0.46059587  0.37703053  1.0
  H  H11  1  0.46059587  0.23029794  0.87703053  1.0
  H  H12  1  0.33333333  0.66666667  0.27131996  1.0
  H  H13  1  0.66666667  0.33333333  0.77131996  1.0
  H  H14  1  0.33333333  0.66666667  0.78080380  1.0
  H  H15  1  0.66666667  0.33333333  0.28080380  1.0
  H  H16  1  0.00000000  0.00000000  0.10554048  1.0
  H  H17  1  0.00000000  0.00000000  0.60554048  1.0
  N  N18  1  0.33333333  0.66666667  0.34942727  1.0
  N  N19  1  0.66666667  0.33333333  0.84942727  1.0
  O  O20  1  0.98461308  0.49230654  0.14317946  1.0
  O  O21  1  0.49230654  0.98461308  0.64317946  1.0
  O  O22  1  0.49230654  0.50769346  0.64317946  1.0
  O  O23  1  0.50769346  0.49230654  0.14317946  1.0
  O  O24  1  0.50769346  0.01538692  0.14317946  1.0
  O  O25  1  0.01538692  0.50769346  0.64317946  1.0
  O  O26  1  0.31329628  0.15664814  0.46072981  1.0
  O  O27  1  0.15664814  0.31329628  0.96072981  1.0
  O  O28  1  0.15664814  0.84335186  0.96072981  1.0
  O  O29  1  0.84335186  0.15664814  0.46072981  1.0
  O  O30  1  0.84335186  0.68670372  0.46072981  1.0
  O  O31  1  0.68670372  0.84335186  0.96072981  1.0
