# generated using pymatgen
data_Ba2Cu(HO)6
_symmetry_space_group_name_H-M   'P 1'
_cell_length_a   6.09312257
_cell_length_b   6.59127235
_cell_length_c   10.11380507
_cell_angle_alpha   90.00000000
_cell_angle_beta   123.90266185
_cell_angle_gamma   90.00000000
_symmetry_Int_Tables_number   1
_chemical_formula_structural   Ba2Cu(HO)6
_chemical_formula_sum   'Ba4 Cu2 H12 O12'
_cell_volume   337.12791285
_cell_formula_units_Z   2
loop_
 _symmetry_equiv_pos_site_id
 _symmetry_equiv_pos_as_xyz
  1  'x, y, z'
loop_
 _atom_site_type_symbol
 _atom_site_label
 _atom_site_symmetry_multiplicity
 _atom_site_fract_x
 _atom_site_fract_y
 _atom_site_fract_z
 _atom_site_occupancy
  Ba  Ba0  1  0.71415245  0.07037778  0.25213508  1.0
  Ba  Ba1  1  0.71415245  0.42962222  0.75213508  1.0
  Ba  Ba2  1  0.28584755  0.57037778  0.24786492  1.0
  Ba  Ba3  1  0.28584755  0.92962222  0.74786492  1.0
  Cu  Cu4  1  -0.00000000  0.50000000  0.50000000  1.0
  Cu  Cu5  1  -0.00000000  -0.00000000  -0.00000000  1.0
  H  H6  1  0.64311379  0.35027926  0.01907913  1.0
  H  H7  1  0.64311379  0.14972074  0.51907913  1.0
  H  H8  1  0.35688621  0.85027926  0.48092087  1.0
  H  H9  1  0.35688621  0.64972074  0.98092087  1.0
  H  H10  1  0.27641445  0.23744825  0.48244078  1.0
  H  H11  1  0.27641445  0.26255175  0.98244078  1.0
  H  H12  1  0.72358555  0.73744825  0.01755922  1.0
  H  H13  1  0.72358555  0.76255175  0.51755922  1.0
  H  H14  1  0.26549235  0.07827484  0.29167617  1.0
  H  H15  1  0.26549235  0.42172516  0.79167617  1.0
  H  H16  1  0.73450765  0.57827484  0.20832383  1.0
  H  H17  1  0.73450765  0.92172516  0.70832383  1.0
  O  O18  1  0.86561834  0.47010492  0.27187543  1.0
  O  O19  1  0.86561834  0.02989508  0.77187543  1.0
  O  O20  1  0.13438166  0.97010492  0.22812457  1.0
  O  O21  1  0.13438166  0.52989508  0.72812457  1.0
  O  O22  1  0.81198632  0.76293437  0.45971869  1.0
  O  O23  1  0.81198632  0.73706563  0.95971869  1.0
  O  O24  1  0.18801368  0.26293437  0.04028131  1.0
  O  O25  1  0.18801368  0.23706563  0.54028131  1.0
  O  O26  1  0.53137538  0.24714259  0.43500367  1.0
  O  O27  1  0.53137538  0.25285741  0.93500367  1.0
  O  O28  1  0.46862462  0.74714259  0.06499633  1.0
  O  O29  1  0.46862462  0.75285741  0.56499633  1.0
