# generated using pymatgen
data_Lu5(Si5Ir2)2
_symmetry_space_group_name_H-M   'P 1'
_cell_length_a   12.54761568
_cell_length_b   12.54761568
_cell_length_c   4.19189268
_cell_angle_alpha   90.00000000
_cell_angle_beta   90.00000000
_cell_angle_gamma   90.00000000
_symmetry_Int_Tables_number   1
_chemical_formula_structural   Lu5(Si5Ir2)2
_chemical_formula_sum   'Lu10 Si20 Ir8'
_cell_volume   659.98272979
_cell_formula_units_Z   2
loop_
 _symmetry_equiv_pos_site_id
 _symmetry_equiv_pos_as_xyz
  1  'x, y, z'
loop_
 _atom_site_type_symbol
 _atom_site_label
 _atom_site_symmetry_multiplicity
 _atom_site_fract_x
 _atom_site_fract_y
 _atom_site_fract_z
 _atom_site_occupancy
  Lu  Lu0  1  0.32546383  0.17453617  0.50000000  1.0
  Lu  Lu1  1  0.82546383  0.32546383  0.50000000  1.0
  Lu  Lu2  1  0.67453617  0.82546383  0.50000000  1.0
  Lu  Lu3  1  0.17453617  0.67453617  0.50000000  1.0
  Lu  Lu4  1  0.88417477  0.61582523  0.50000000  1.0
  Lu  Lu5  1  0.38417477  0.88417477  0.50000000  1.0
  Lu  Lu6  1  0.11582523  0.38417477  0.50000000  1.0
  Lu  Lu7  1  0.61582523  0.11582523  0.50000000  1.0
  Lu  Lu8  1  0.50000000  0.50000000  0.00000000  1.0
  Lu  Lu9  1  0.00000000  0.00000000  0.00000000  1.0
  Si  Si10  1  0.34542854  0.50332664  0.50000000  1.0
  Si  Si11  1  0.84542854  0.99667336  0.50000000  1.0
  Si  Si12  1  0.49667336  0.34542854  0.50000000  1.0
  Si  Si13  1  0.99667336  0.15457146  0.50000000  1.0
  Si  Si14  1  0.65457146  0.49667336  0.50000000  1.0
  Si  Si15  1  0.15457146  0.00332664  0.50000000  1.0
  Si  Si16  1  0.50332664  0.65457146  0.50000000  1.0
  Si  Si17  1  0.00332664  0.84542854  0.50000000  1.0
  Si  Si18  1  0.33491765  0.70045624  -0.00000000  1.0
  Si  Si19  1  0.83491765  0.79954376  -0.00000000  1.0
  Si  Si20  1  0.29954376  0.33491765  -0.00000000  1.0
  Si  Si21  1  0.79954376  0.16508235  -0.00000000  1.0
  Si  Si22  1  0.66508235  0.29954376  0.00000000  1.0
  Si  Si23  1  0.16508235  0.20045624  -0.00000000  1.0
  Si  Si24  1  0.70045624  0.66508235  -0.00000000  1.0
  Si  Si25  1  0.20045624  0.83491765  0.00000000  1.0
  Si  Si26  1  0.43395520  0.06604480  -0.00000000  1.0
  Si  Si27  1  0.93395520  0.43395520  0.00000000  1.0
  Si  Si28  1  0.56604480  0.93395520  -0.00000000  1.0
  Si  Si29  1  0.06604480  0.56604480  0.00000000  1.0
  Ir  Ir30  1  0.25446329  0.51912062  -0.00000000  1.0
  Ir  Ir31  1  0.75446329  0.98087938  -0.00000000  1.0
  Ir  Ir32  1  0.48087938  0.25446329  -0.00000000  1.0
  Ir  Ir33  1  0.98087938  0.24553671  0.00000000  1.0
  Ir  Ir34  1  0.74553671  0.48087938  -0.00000000  1.0
  Ir  Ir35  1  0.24553671  0.01912062  -0.00000000  1.0
  Ir  Ir36  1  0.51912062  0.74553671  -0.00000000  1.0
  Ir  Ir37  1  0.01912062  0.75446329  0.00000000  1.0
