# generated using pymatgen
data_LiTiSe2O
_symmetry_space_group_name_H-M   'P 1'
_cell_length_a   3.47744734
_cell_length_b   3.47744734
_cell_length_c   26.15345203
_cell_angle_alpha   90.00000000
_cell_angle_beta   90.00000000
_cell_angle_gamma   120.00000000
_symmetry_Int_Tables_number   1
_chemical_formula_structural   LiTiSe2O
_chemical_formula_sum   'Li3 Ti3 Se6 O3'
_cell_volume   273.89290097
_cell_formula_units_Z   3
loop_
 _symmetry_equiv_pos_site_id
 _symmetry_equiv_pos_as_xyz
  1  'x, y, z'
loop_
 _atom_site_type_symbol
 _atom_site_label
 _atom_site_symmetry_multiplicity
 _atom_site_fract_x
 _atom_site_fract_y
 _atom_site_fract_z
 _atom_site_occupancy
  Ti  Ti0  1  0.00000000  0.00000000  0.83283983  1.0
  Ti  Ti1  1  0.33333333  0.66666667  0.16628446  1.0
  Ti  Ti2  1  0.66666667  0.33333333  0.49989425  1.0
  Li  Li3  1  0.00000000  0.00000000  0.00009833  1.0
  Li  Li4  1  0.66666667  0.33333333  0.66657443  1.0
  Li  Li5  1  0.33333333  0.66666667  0.33340165  1.0
  O  O6  1  0.33333333  0.66666667  0.00075567  1.0
  O  O7  1  0.66666667  0.33333333  0.33401221  1.0
  O  O8  1  0.00000000  0.00000000  0.66717615  1.0
  Se  Se9  1  0.00000000  0.00000000  0.22670682  1.0
  Se  Se10  1  0.66666667  0.33333333  0.10616812  1.0
  Se  Se11  1  0.66666667  0.33333333  0.89326208  1.0
  Se  Se12  1  0.33333333  0.66666667  0.77272744  1.0
  Se  Se13  1  0.00000000  0.00000000  0.43978235  1.0
  Se  Se14  1  0.33333333  0.66666667  0.56031620  1.0
