# generated using pymatgen
data_Nb5(CuSi)4
_symmetry_space_group_name_H-M   'P 1'
_cell_length_a   7.45748828
_cell_length_b   7.45748828
_cell_length_c   7.45748828
_cell_angle_alpha   93.36249032
_cell_angle_beta   93.36249032
_cell_angle_gamma   151.96910402
_symmetry_Int_Tables_number   1
_chemical_formula_structural   Nb5(CuSi)4
_chemical_formula_sum   'Nb5 Cu4 Si4'
_cell_volume   189.10459964
_cell_formula_units_Z   1
loop_
 _symmetry_equiv_pos_site_id
 _symmetry_equiv_pos_as_xyz
  1  'x, y, z'
loop_
 _atom_site_type_symbol
 _atom_site_label
 _atom_site_symmetry_multiplicity
 _atom_site_fract_x
 _atom_site_fract_y
 _atom_site_fract_z
 _atom_site_occupancy
  Nb  Nb0  1  0.62902044  0.69562833  1.32464878  1.0
  Nb  Nb1  1  0.69562833  1.37097956  1.06660789  1.0
  Nb  Nb2  1  0.37097956  0.30437167  0.67535122  1.0
  Nb  Nb3  1  1.30437167  0.62902044  0.93339211  1.0
  Nb  Nb4  1  0.00000000  0.00000000  0.00000000  1.0
  Cu  Cu5  1  0.89597381  0.58235957  0.47833338  1.0
  Cu  Cu6  1  0.58235957  0.10402619  0.68638576  1.0
  Cu  Cu7  1  1.10402619  1.41764043  1.52166662  1.0
  Cu  Cu8  1  0.41764043  0.89597381  1.31361424  1.0
  Si  Si9  1  0.74775823  0.94078635  1.68854457  1.0
  Si  Si10  1  0.94078635  1.25224177  1.19302812  1.0
  Si  Si11  1  0.25224177  0.05921365  0.31145543  1.0
  Si  Si12  1  1.05921365  0.74775823  0.80697188  1.0
