# generated using pymatgen
data_CdGeO3
_symmetry_space_group_name_H-M   'P 1'
_cell_length_a   7.15674602
_cell_length_b   7.15674602
_cell_length_c   5.47969444
_cell_angle_alpha   80.46844126
_cell_angle_beta   99.53155874
_cell_angle_gamma   92.88814442
_symmetry_Int_Tables_number   1
_chemical_formula_structural   CdGeO3
_chemical_formula_sum   'Cd4 Ge4 O12'
_cell_volume   272.89251797
_cell_formula_units_Z   4
loop_
 _symmetry_equiv_pos_site_id
 _symmetry_equiv_pos_as_xyz
  1  'x, y, z'
loop_
 _atom_site_type_symbol
 _atom_site_label
 _atom_site_symmetry_multiplicity
 _atom_site_fract_x
 _atom_site_fract_y
 _atom_site_fract_z
 _atom_site_occupancy
  Cd  Cd0  1  0.40244479  0.40244479  0.75000000  1.0
  Cd  Cd1  1  0.59755521  0.59755521  0.25000000  1.0
  Cd  Cd2  1  0.78712850  0.78712850  0.75000000  1.0
  Cd  Cd3  1  0.21287150  0.21287150  0.25000000  1.0
  Ge  Ge4  1  1.29308980  -0.11682817  0.77197337  1.0
  Ge  Ge5  1  1.11682817  -0.29308980  0.27197337  1.0
  Ge  Ge6  1  0.88317183  0.29308980  0.72802663  1.0
  Ge  Ge7  1  0.70691020  0.11682817  0.22802663  1.0
  O  O8  1  0.79989857  0.09519467  0.94342952  1.0
  O  O9  1  0.90480533  0.20010143  0.44342952  1.0
  O  O10  1  1.09519467  -0.20010143  0.55657048  1.0
  O  O11  1  1.20010143  -0.09519467  0.05657048  1.0
  O  O12  1  1.47168160  -0.28673334  0.84678364  1.0
  O  O13  1  1.28673334  -0.47168160  0.34678364  1.0
  O  O14  1  0.71326666  0.47168160  0.65321636  1.0
  O  O15  1  0.52831840  0.28673334  0.15321636  1.0
  O  O16  1  0.35609827  0.10776789  0.62851462  1.0
  O  O17  1  0.89223211  0.64390173  0.12851462  1.0
  O  O18  1  1.10776789  -0.64390173  0.87148538  1.0
  O  O19  1  1.64390173  -0.10776789  0.37148538  1.0
