# generated using pymatgen
data_B3H5
_symmetry_space_group_name_H-M   'P 1'
_cell_length_a   12.00822103
_cell_length_b   7.36980601
_cell_length_c   13.84966273
_cell_angle_alpha   90.00000000
_cell_angle_beta   123.74375164
_cell_angle_gamma   90.00000000
_symmetry_Int_Tables_number   1
_chemical_formula_structural   B3H5
_chemical_formula_sum   'B36 H60'
_cell_volume   1019.18248427
_cell_formula_units_Z   12
loop_
 _symmetry_equiv_pos_site_id
 _symmetry_equiv_pos_as_xyz
  1  'x, y, z'
loop_
 _atom_site_type_symbol
 _atom_site_label
 _atom_site_symmetry_multiplicity
 _atom_site_fract_x
 _atom_site_fract_y
 _atom_site_fract_z
 _atom_site_occupancy
  B  B0  1  0.88949636  0.28872747  0.07324750  1.0
  B  B1  1  0.88949636  0.21127253  0.57324750  1.0
  B  B2  1  0.11050364  0.78872747  0.42675250  1.0
  B  B3  1  0.11050364  0.71127253  0.92675250  1.0
  B  B4  1  0.82104896  0.36310761  0.14837618  1.0
  B  B5  1  0.82104896  0.13689239  0.64837618  1.0
  B  B6  1  0.17895104  0.86310761  0.35162382  1.0
  B  B7  1  0.17895104  0.63689239  0.85162382  1.0
  B  B8  1  0.78000751  0.13984407  0.42372029  1.0
  B  B9  1  0.78000751  0.36015593  0.92372029  1.0
  B  B10  1  0.21999249  0.63984407  0.07627971  1.0
  B  B11  1  0.21999249  0.86015593  0.57627971  1.0
  B  B12  1  0.78827561  0.13457805  0.09527311  1.0
  B  B13  1  0.78827561  0.36542195  0.59527311  1.0
  B  B14  1  0.21172439  0.63457805  0.40472689  1.0
  B  B15  1  0.21172439  0.86542195  0.90472689  1.0
  B  B16  1  0.77446373  0.36276007  0.46308369  1.0
  B  B17  1  0.77446373  0.13723993  0.96308369  1.0
  B  B18  1  0.22553627  0.86276007  0.03691631  1.0
  B  B19  1  0.22553627  0.63723993  0.53691631  1.0
  B  B20  1  0.62695086  0.42828717  0.44964182  1.0
  B  B21  1  0.62695086  0.07171283  0.94964182  1.0
  B  B22  1  0.37304914  0.92828717  0.05035818  1.0
  B  B23  1  0.37304914  0.57171283  0.55035818  1.0
  B  B24  1  0.62168453  0.28817169  0.34309037  1.0
  B  B25  1  0.62168453  0.21182831  0.84309037  1.0
  B  B26  1  0.37831547  0.78817169  0.15690963  1.0
  B  B27  1  0.37831547  0.71182831  0.65690963  1.0
  B  B28  1  0.49705143  0.25192664  0.37878082  1.0
  B  B29  1  0.49705143  0.24807336  0.87878082  1.0
  B  B30  1  0.50294857  0.75192664  0.12121918  1.0
  B  B31  1  0.50294857  0.74807336  0.62121918  1.0
  B  B32  1  0.18413438  0.00171689  0.45710025  1.0
  B  B33  1  0.18413438  0.49828311  0.95710025  1.0
  B  B34  1  0.81586562  0.50171689  0.04289975  1.0
  B  B35  1  0.81586562  0.99828311  0.54289975  1.0
  H  H36  1  0.99318685  0.76881758  0.38088609  1.0
  H  H37  1  0.99318685  0.73118242  0.88088609  1.0
  H  H38  1  0.00681315  0.26881758  0.11911391  1.0
  H  H39  1  0.00681315  0.23118242  0.61911391  1.0
  H  H40  1  0.83610845  1.01861611  0.16714298  1.0
  H  H41  1  0.83610846  0.48138389  0.66714298  1.0
  H  H42  1  0.16389154  0.51861611  0.33285702  1.0
  H  H43  1  0.16389155  -0.01861611  0.83285702  1.0
  H  H44  1  0.82204366  0.48240231  0.43916442  1.0
  H  H45  1  0.82204366  0.01759769  0.93916442  1.0
  H  H46  1  0.17795634  0.98240231  0.06083558  1.0
  H  H47  1  0.17795634  0.51759769  0.56083558  1.0
  H  H48  1  0.87421178  0.40892921  0.24673079  1.0
  H  H49  1  0.87421178  0.09107079  0.74673079  1.0
  H  H50  1  0.12578822  0.90892921  0.25326921  1.0
  H  H51  1  0.12578822  0.59107079  0.75326921  1.0
  H  H52  1  0.82185307  0.08795670  0.36831207  1.0
  H  H53  1  0.82185307  0.41204330  0.86831207  1.0
  H  H54  1  0.17814693  0.58795670  0.13168793  1.0
  H  H55  1  0.17814693  0.91204330  0.63168793  1.0
  H  H56  1  0.72391835  0.24643478  0.12376482  1.0
  H  H57  1  0.72391835  0.25356522  0.62376482  1.0
  H  H58  1  0.27608165  0.74643478  0.37623518  1.0
  H  H59  1  0.27608165  0.75356522  0.87623518  1.0
  H  H60  1  0.71432307  1.00133244  0.43155321  1.0
  H  H61  1  0.71432307  0.49866756  0.93155321  1.0
  H  H62  1  0.28567693  0.50133244  0.06844679  1.0
  H  H63  1  0.28567693  -0.00133244  0.56844679  1.0
  H  H64  1  0.58693990  0.34662525  0.25007481  1.0
  H  H65  1  0.58693990  0.15337475  0.75007481  1.0
  H  H66  1  0.41306010  0.84662525  0.24992519  1.0
  H  H67  1  0.41306010  0.65337475  0.74992519  1.0
  H  H68  1  0.55983600  0.34879173  0.48326694  1.0
  H  H69  1  0.55983600  0.15120827  0.98326694  1.0
  H  H70  1  0.44016400  0.84879173  0.01673306  1.0
  H  H71  1  0.44016400  0.65120827  0.51673306  1.0
  H  H72  1  0.55140609  0.14863048  0.32976168  1.0
  H  H73  1  0.55140609  0.35136952  0.82976168  1.0
  H  H74  1  0.44859391  0.64863048  0.17023832  1.0
  H  H75  1  0.44859391  0.85136952  0.67023832  1.0
  H  H76  1  0.49831188  0.11804119  0.43052807  1.0
  H  H77  1  0.49831188  0.38195881  0.93052807  1.0
  H  H78  1  0.50168812  0.61804119  0.06947193  1.0
  H  H79  1  0.50168812  0.88195881  0.56947193  1.0
  H  H80  1  0.40460871  0.08408587  0.06953493  1.0
  H  H81  1  0.40460871  0.41591413  0.56953493  1.0
  H  H82  1  0.59539129  0.58408587  0.43046507  1.0
  H  H83  1  0.59539129  0.91591413  0.93046507  1.0
  H  H84  1  0.38850863  0.31017014  0.30761831  1.0
  H  H85  1  0.38850863  0.18982986  0.80761831  1.0
  H  H86  1  0.61149137  0.81017014  0.19238169  1.0
  H  H87  1  0.61149137  0.68982986  0.69238169  1.0
  H  H88  1  0.26483339  -0.00383519  0.41801378  1.0
  H  H89  1  0.26483339  0.50383519  0.91801378  1.0
  H  H90  1  0.73516661  0.49616481  0.08198622  1.0
  H  H91  1  0.73516661  1.00383519  0.58198622  1.0
  H  H92  1  0.13460544  0.14822041  0.43548458  1.0
  H  H93  1  0.13460544  0.35177959  0.93548458  1.0
  H  H94  1  0.86539456  0.64822041  0.06451542  1.0
  H  H95  1  0.86539456  0.85177959  0.56451542  1.0
