# generated using pymatgen
data_NbH10C4S2Cl3O
_symmetry_space_group_name_H-M   'P 1'
_cell_length_a   7.59936414
_cell_length_b   7.32037386
_cell_length_c   7.53930793
_cell_angle_alpha   115.56806081
_cell_angle_beta   108.90402102
_cell_angle_gamma   97.69678836
_symmetry_Int_Tables_number   1
_chemical_formula_structural   NbH10C4S2Cl3O
_chemical_formula_sum   'Nb1 H10 C4 S2 Cl3 O1'
_cell_volume   339.01949798
_cell_formula_units_Z   1
loop_
 _symmetry_equiv_pos_site_id
 _symmetry_equiv_pos_as_xyz
  1  'x, y, z'
loop_
 _atom_site_type_symbol
 _atom_site_label
 _atom_site_symmetry_multiplicity
 _atom_site_fract_x
 _atom_site_fract_y
 _atom_site_fract_z
 _atom_site_occupancy
  Nb  Nb0  1  0.74329885  0.46493933  0.87305744  1.0
  H  H1  1  0.26312465  0.60118396  0.91356073  1.0
  H  H2  1  0.20367172  0.83385094  0.92706336  1.0
  H  H3  1  0.26676622  0.67344698  0.71385271  1.0
  H  H4  1  0.79141379  0.17763892  0.33891680  1.0
  H  H5  1  0.03893353  0.28757521  0.39725005  1.0
  H  H6  1  0.15329834  0.22005454  0.71371897  1.0
  H  H7  1  0.00984321  0.98206216  0.46150216  1.0
  H  H8  1  0.57154089  0.90763701  0.34437362  1.0
  H  H9  1  0.53265687  0.82049971  0.52009183  1.0
  H  H10  1  0.68271754  0.71811938  0.38713035  1.0
  C  C11  1  0.19471593  0.67082714  0.81772078  1.0
  C  C12  1  0.94083118  0.26089994  0.46974565  1.0
  C  C13  1  0.00530281  0.13411718  0.57995960  1.0
  C  C14  1  0.63872280  0.85860039  0.46136165  1.0
  S  S15  1  0.93610337  0.52415388  0.64635171  1.0
  S  S16  1  0.84893133  0.07320756  0.69921918  1.0
  Cl  Cl17  1  0.48970257  0.29844522  0.51257034  1.0
  Cl  Cl18  1  0.56238033  0.29643595  -0.00756886  1.0
  Cl  Cl19  1  0.05941616  0.54970227  0.14575305  1.0
  O  O20  1  0.72722791  0.71876234  0.97097887  1.0
