# generated using pymatgen
data_Tl3BiCl6
_symmetry_space_group_name_H-M   'P 1'
_cell_length_a   9.33413158
_cell_length_b   9.33413158
_cell_length_c   7.71451979
_cell_angle_alpha   90.00000000
_cell_angle_beta   90.00000000
_cell_angle_gamma   90.00000000
_symmetry_Int_Tables_number   1
_chemical_formula_structural   Tl3BiCl6
_chemical_formula_sum   'Tl6 Bi2 Cl12'
_cell_volume   672.13534611
_cell_formula_units_Z   2
loop_
 _symmetry_equiv_pos_site_id
 _symmetry_equiv_pos_as_xyz
  1  'x, y, z'
loop_
 _atom_site_type_symbol
 _atom_site_label
 _atom_site_symmetry_multiplicity
 _atom_site_fract_x
 _atom_site_fract_y
 _atom_site_fract_z
 _atom_site_occupancy
  Tl  Tl0  1  0.50104569  0.77321951  0.00000000  1.0
  Tl  Tl1  1  0.77321951  0.49895431  0.50000000  1.0
  Tl  Tl2  1  0.49895431  0.22678049  0.00000000  1.0
  Tl  Tl3  1  0.22678049  0.50104569  0.50000000  1.0
  Tl  Tl4  1  0.00000000  0.00000000  0.00000000  1.0
  Tl  Tl5  1  0.00000000  0.00000000  0.50000000  1.0
  Bi  Bi6  1  -0.00000000  0.50000000  0.00000000  1.0
  Bi  Bi7  1  0.50000000  0.00000000  0.50000000  1.0
  Cl  Cl8  1  0.99826133  0.70350388  0.74429032  1.0
  Cl  Cl9  1  0.99826133  0.70350388  0.25570968  1.0
  Cl  Cl10  1  0.70350388  0.00173867  0.24429032  1.0
  Cl  Cl11  1  0.70350388  0.00173867  0.75570968  1.0
  Cl  Cl12  1  0.00173867  0.29649612  0.74429032  1.0
  Cl  Cl13  1  0.00173867  0.29649612  0.25570968  1.0
  Cl  Cl14  1  0.29649612  0.99826133  0.24429032  1.0
  Cl  Cl15  1  0.29649612  0.99826133  0.75570968  1.0
  Cl  Cl16  1  0.70690610  0.49839454  0.00000000  1.0
  Cl  Cl17  1  0.49839454  0.29309390  0.50000000  1.0
  Cl  Cl18  1  0.29309390  0.50160546  0.00000000  1.0
  Cl  Cl19  1  0.50160546  0.70690610  0.50000000  1.0
