# generated using pymatgen
data_CrNi2BO5
_symmetry_space_group_name_H-M   'P 1'
_cell_length_a   9.23234644
_cell_length_b   12.17426975
_cell_length_c   3.03656702
_cell_angle_alpha   90.00000000
_cell_angle_beta   90.00000000
_cell_angle_gamma   90.00000000
_symmetry_Int_Tables_number   1
_chemical_formula_structural   CrNi2BO5
_chemical_formula_sum   'Cr4 Ni8 B4 O20'
_cell_volume   341.30125445
_cell_formula_units_Z   4
loop_
 _symmetry_equiv_pos_site_id
 _symmetry_equiv_pos_as_xyz
  1  'x, y, z'
loop_
 _atom_site_type_symbol
 _atom_site_label
 _atom_site_symmetry_multiplicity
 _atom_site_fract_x
 _atom_site_fract_y
 _atom_site_fract_z
 _atom_site_occupancy
  O  O0  1  0.15518820  0.73872808  -0.00000000  1.0
  O  O1  1  0.65518820  0.76127192  0.00000000  1.0
  O  O2  1  0.84481180  0.26127192  -0.00000000  1.0
  O  O3  1  0.34481180  0.23872808  0.00000000  1.0
  O  O4  1  0.11690763  0.92271528  0.50000000  1.0
  O  O5  1  0.61690763  0.57728472  0.50000000  1.0
  O  O6  1  0.88309237  0.07728472  0.50000000  1.0
  O  O7  1  0.38309237  0.42271528  0.50000000  1.0
  O  O8  1  0.37898936  0.64072191  0.00000000  1.0
  O  O9  1  0.87898936  0.85927809  0.00000000  1.0
  O  O10  1  0.62101064  0.35927809  0.00000000  1.0
  O  O11  1  0.12101064  0.14072191  0.00000000  1.0
  O  O12  1  0.38893534  0.85719224  0.50000000  1.0
  O  O13  1  0.88893534  0.64280776  0.50000000  1.0
  O  O14  1  0.61106466  0.14280776  0.50000000  1.0
  O  O15  1  0.11106466  0.35719224  0.50000000  1.0
  O  O16  1  0.15308314  0.54104514  0.00000000  1.0
  O  O17  1  0.65308314  0.95895486  0.00000000  1.0
  O  O18  1  0.84691686  0.45895486  0.00000000  1.0
  O  O19  1  0.34691686  0.04104514  0.00000000  1.0
  Ni  Ni20  1  0.50013519  0.71937827  0.50000000  1.0
  Ni  Ni21  1  1.00013519  0.78062173  0.50000000  1.0
  Ni  Ni22  1  0.49986481  0.28062173  0.50000000  1.0
  Ni  Ni23  1  -0.00013519  0.21937827  0.50000000  1.0
  Ni  Ni24  1  0.50000000  0.00000000  0.50000000  1.0
  Ni  Ni25  1  0.00000000  0.50000000  0.50000000  1.0
  Ni  Ni26  1  0.50000000  0.50000000  0.00000000  1.0
  Ni  Ni27  1  0.00000000  0.00000000  0.00000000  1.0
  Cr  Cr28  1  0.25788460  0.88762484  -0.00000000  1.0
  Cr  Cr29  1  0.75788460  0.61237516  0.00000000  1.0
  Cr  Cr30  1  0.74211540  0.11237516  -0.00000000  1.0
  Cr  Cr31  1  0.24211540  0.38762484  0.00000000  1.0
  B  B32  1  0.22938473  0.63975270  0.00000000  1.0
  B  B33  1  0.72938473  0.86024730  0.00000000  1.0
  B  B34  1  0.77061527  0.36024730  0.00000000  1.0
  B  B35  1  0.27061527  0.13975270  0.00000000  1.0
