# generated using pymatgen
data_MgCr(SiO3)2
_symmetry_space_group_name_H-M   'P 1'
_cell_length_a   9.45749261
_cell_length_b   9.30226415
_cell_length_c   5.42647950
_cell_angle_alpha   90.00000000
_cell_angle_beta   97.56660737
_cell_angle_gamma   90.00000000
_symmetry_Int_Tables_number   1
_chemical_formula_structural   MgCr(SiO3)2
_chemical_formula_sum   'Mg4 Cr4 Si8 O24'
_cell_volume   473.24348565
_cell_formula_units_Z   4
loop_
 _symmetry_equiv_pos_site_id
 _symmetry_equiv_pos_as_xyz
  1  'x, y, z'
loop_
 _atom_site_type_symbol
 _atom_site_label
 _atom_site_symmetry_multiplicity
 _atom_site_fract_x
 _atom_site_fract_y
 _atom_site_fract_z
 _atom_site_occupancy
  Mg  Mg0  1  0.74036580  0.99997974  0.50522431  1.0
  Mg  Mg1  1  0.74036580  0.50002026  1.00522431  1.0
  Mg  Mg2  1  0.25963420  0.49997974  -0.00522431  1.0
  Mg  Mg3  1  0.25963420  0.00002026  0.49477569  1.0
  Cr  Cr4  1  0.74934557  0.36020518  0.50529784  1.0
  Cr  Cr5  1  0.74934557  0.13979482  1.00529784  1.0
  Cr  Cr6  1  0.25065443  0.86020518  -0.00529784  1.0
  Cr  Cr7  1  0.25065443  0.63979482  0.49470216  1.0
  Si  Si8  1  0.95291992  0.84353772  0.23452003  1.0
  Si  Si9  1  0.95291992  0.65646228  0.73452003  1.0
  Si  Si10  1  0.04708008  0.34353772  0.26547997  1.0
  Si  Si11  1  0.04708008  0.15646228  0.76547997  1.0
  Si  Si12  1  0.46606928  0.16838506  0.26809201  1.0
  Si  Si13  1  0.46606928  0.33161494  0.76809201  1.0
  Si  Si14  1  0.53393072  0.66838506  0.23190799  1.0
  Si  Si15  1  0.53393072  0.83161494  0.73190799  1.0
  O  O16  1  0.91488320  0.76748473  0.49668311  1.0
  O  O17  1  0.91488320  0.73251527  0.99668311  1.0
  O  O18  1  0.08511680  0.26748473  0.00331689  1.0
  O  O19  1  0.08511680  0.23251527  0.50331689  1.0
  O  O20  1  0.84383575  -0.02067991  0.21397948  1.0
  O  O21  1  0.84383575  0.52067991  0.71397948  1.0
  O  O22  1  0.15616425  0.47932009  0.28602052  1.0
  O  O23  1  0.15616425  1.02067991  0.78602052  1.0
  O  O24  1  0.87841529  0.38587723  0.23927520  1.0
  O  O25  1  0.87841529  0.11412277  0.73927520  1.0
  O  O26  1  0.12158471  0.88587723  0.26072480  1.0
  O  O27  1  0.12158471  0.61412277  0.76072480  1.0
  O  O28  1  0.64340703  0.17640893  0.30988244  1.0
  O  O29  1  0.64340703  0.32359107  0.80988244  1.0
  O  O30  1  0.35659297  0.67640893  0.19011756  1.0
  O  O31  1  0.35659297  0.82359107  0.69011756  1.0
  O  O32  1  0.60340850  0.51065657  0.25303089  1.0
  O  O33  1  0.60340850  -0.01065657  0.75303089  1.0
  O  O34  1  0.39659150  1.01065657  0.24696911  1.0
  O  O35  1  0.39659150  0.48934343  0.74696911  1.0
  O  O36  1  0.40636719  0.23393576  0.52088697  1.0
  O  O37  1  0.40636719  0.26606424  1.02088697  1.0
  O  O38  1  0.59363281  0.73393576  -0.02088697  1.0
  O  O39  1  0.59363281  0.76606424  0.47911303  1.0
