# generated using pymatgen
data_K2H2RhCl5O
_symmetry_space_group_name_H-M   'P 1'
_cell_length_a   13.80762425
_cell_length_b   9.15140514
_cell_length_c   7.69397693
_cell_angle_alpha   90.00000000
_cell_angle_beta   90.00000000
_cell_angle_gamma   90.00000000
_symmetry_Int_Tables_number   1
_chemical_formula_structural   K2H2RhCl5O
_chemical_formula_sum   'K8 H8 Rh4 Cl20 O4'
_cell_volume   972.20448916
_cell_formula_units_Z   4
loop_
 _symmetry_equiv_pos_site_id
 _symmetry_equiv_pos_as_xyz
  1  'x, y, z'
loop_
 _atom_site_type_symbol
 _atom_site_label
 _atom_site_symmetry_multiplicity
 _atom_site_fract_x
 _atom_site_fract_y
 _atom_site_fract_z
 _atom_site_occupancy
  K  K0  1  0.65534239  0.49811911  0.38356223  1.0
  K  K1  1  0.65534239  0.00188089  0.38356223  1.0
  K  K2  1  0.15534239  0.49811911  0.11643777  1.0
  K  K3  1  0.15534239  0.00188089  0.11643777  1.0
  K  K4  1  0.34465761  0.99811911  0.61643777  1.0
  K  K5  1  0.34465761  0.50188089  0.61643777  1.0
  K  K6  1  0.84465761  0.99811911  0.88356223  1.0
  K  K7  1  0.84465761  0.50188089  0.88356223  1.0
  H  H8  1  0.96122456  0.83673094  0.48021064  1.0
  H  H9  1  0.96122456  0.66326906  0.48021064  1.0
  H  H10  1  0.46122456  0.83673094  0.01978936  1.0
  H  H11  1  0.46122456  0.66326906  0.01978936  1.0
  H  H12  1  0.03877544  0.33673094  0.51978936  1.0
  H  H13  1  0.03877544  0.16326906  0.51978936  1.0
  H  H14  1  0.53877544  0.33673094  0.98021064  1.0
  H  H15  1  0.53877544  0.16326906  0.98021064  1.0
  Rh  Rh16  1  0.89877884  0.25000000  0.30670052  1.0
  Rh  Rh17  1  0.39877884  0.25000000  0.19329948  1.0
  Rh  Rh18  1  0.10122116  0.75000000  0.69329948  1.0
  Rh  Rh19  1  0.60122116  0.75000000  0.80670052  1.0
  Cl  Cl20  1  0.89982866  0.50829405  0.30234541  1.0
  Cl  Cl21  1  0.89982866  -0.00829405  0.30234541  1.0
  Cl  Cl22  1  0.39982866  0.50829405  0.19765459  1.0
  Cl  Cl23  1  0.39982866  -0.00829405  0.19765459  1.0
  Cl  Cl24  1  0.10017134  1.00829405  0.69765459  1.0
  Cl  Cl25  1  0.10017134  0.49170595  0.69765459  1.0
  Cl  Cl26  1  0.60017134  1.00829405  0.80234541  1.0
  Cl  Cl27  1  0.60017134  0.49170595  0.80234541  1.0
  Cl  Cl28  1  0.98998471  0.25000000  0.04649331  1.0
  Cl  Cl29  1  0.48998471  0.25000000  0.45350669  1.0
  Cl  Cl30  1  0.01001529  0.75000000  0.95350669  1.0
  Cl  Cl31  1  0.51001529  0.75000000  0.54649331  1.0
  Cl  Cl32  1  0.80856513  0.25000000  0.56949464  1.0
  Cl  Cl33  1  0.30856513  0.25000000  0.93050536  1.0
  Cl  Cl34  1  0.19143487  0.75000000  0.43050536  1.0
  Cl  Cl35  1  0.69143487  0.75000000  0.06949464  1.0
  Cl  Cl36  1  0.75673456  0.25000000  0.14354646  1.0
  Cl  Cl37  1  0.25673456  0.25000000  0.35645354  1.0
  Cl  Cl38  1  0.24326544  0.75000000  0.85645354  1.0
  Cl  Cl39  1  0.74326544  0.75000000  0.64354646  1.0
  O  O40  1  0.02966614  0.25000000  0.44407147  1.0
  O  O41  1  0.52966614  0.25000000  0.05592853  1.0
  O  O42  1  0.97033386  0.75000000  0.55592853  1.0
  O  O43  1  0.47033386  0.75000000  0.94407147  1.0
