# generated using pymatgen
data_MoO2
_symmetry_space_group_name_H-M   'P 1'
_cell_length_a   4.94281800
_cell_length_b   4.94281800
_cell_length_c   2.73187427
_cell_angle_alpha   90.00000000
_cell_angle_beta   90.00000000
_cell_angle_gamma   90.00000000
_symmetry_Int_Tables_number   1
_chemical_formula_structural   MoO2
_chemical_formula_sum   'Mo2 O4'
_cell_volume   66.74364903
_cell_formula_units_Z   2
loop_
 _symmetry_equiv_pos_site_id
 _symmetry_equiv_pos_as_xyz
  1  'x, y, z'
loop_
 _atom_site_type_symbol
 _atom_site_label
 _atom_site_symmetry_multiplicity
 _atom_site_fract_x
 _atom_site_fract_y
 _atom_site_fract_z
 _atom_site_occupancy
  Mo  Mo0  1  0.50000000  0.50000000  0.50000000  1.0
  Mo  Mo1  1  0.00000000  0.00000000  0.00000000  1.0
  O  O2  1  0.21775107  0.78224893  0.50000000  1.0
  O  O3  1  0.71775107  0.71775107  0.00000000  1.0
  O  O4  1  0.78224893  0.21775107  0.50000000  1.0
  O  O5  1  0.28224893  0.28224893  0.00000000  1.0
