# generated using pymatgen
data_CaCuAs2O7
_symmetry_space_group_name_H-M   'P 1'
_cell_length_a   7.36048274
_cell_length_b   9.08705252
_cell_length_c   9.49295064
_cell_angle_alpha   90.00000000
_cell_angle_beta   109.15293518
_cell_angle_gamma   90.00000000
_symmetry_Int_Tables_number   1
_chemical_formula_structural   CaCuAs2O7
_chemical_formula_sum   'Ca4 Cu4 As8 O28'
_cell_volume   599.79071529
_cell_formula_units_Z   4
loop_
 _symmetry_equiv_pos_site_id
 _symmetry_equiv_pos_as_xyz
  1  'x, y, z'
loop_
 _atom_site_type_symbol
 _atom_site_label
 _atom_site_symmetry_multiplicity
 _atom_site_fract_x
 _atom_site_fract_y
 _atom_site_fract_z
 _atom_site_occupancy
  Ca  Ca0  1  0.74735214  0.43282925  0.43520846  1.0
  Ca  Ca1  1  0.74735214  0.06717075  0.93520846  1.0
  Ca  Ca2  1  0.25264786  0.93282925  0.06479154  1.0
  Ca  Ca3  1  0.25264786  0.56717075  0.56479154  1.0
  Cu  Cu4  1  0.71672260  0.44820483  0.81987173  1.0
  Cu  Cu5  1  0.71672260  0.05179517  0.31987173  1.0
  Cu  Cu6  1  0.28327740  0.94820483  0.68012827  1.0
  Cu  Cu7  1  0.28327740  0.55179517  0.18012827  1.0
  As  As8  1  0.92198577  0.76340740  0.74034906  1.0
  As  As9  1  0.92198577  0.73659260  0.24034906  1.0
  As  As10  1  0.07801423  0.26340740  0.75965094  1.0
  As  As11  1  0.07801423  0.23659260  0.25965094  1.0
  As  As12  1  0.52594292  0.70019417  0.95965673  1.0
  As  As13  1  0.52594292  0.79980583  0.45965673  1.0
  As  As14  1  0.47405708  0.20019417  0.54034327  1.0
  As  As15  1  0.47405708  0.29980583  0.04034327  1.0
  O  O16  1  0.93257223  0.86262048  0.89643089  1.0
  O  O17  1  0.93257223  0.63737952  0.39643089  1.0
  O  O18  1  0.06742777  0.36262048  0.60356911  1.0
  O  O19  1  0.06742777  0.13737952  0.10356911  1.0
  O  O20  1  0.86447739  0.27202370  0.79935451  1.0
  O  O21  1  0.86447739  0.22797630  0.29935451  1.0
  O  O22  1  0.13552261  0.77202370  0.70064549  1.0
  O  O23  1  0.13552261  0.72797630  0.20064549  1.0
  O  O24  1  0.85583913  0.57975017  0.72624253  1.0
  O  O25  1  0.85583913  0.92024983  0.22624253  1.0
  O  O26  1  0.14416087  0.07975017  0.77375747  1.0
  O  O27  1  0.14416087  0.42024983  0.27375747  1.0
  O  O28  1  0.75095602  0.86438755  0.58804600  1.0
  O  O29  1  0.75095602  0.63561245  0.08804600  1.0
  O  O30  1  0.24904398  0.36438755  0.91195400  1.0
  O  O31  1  0.24904398  0.13561245  0.41195400  1.0
  O  O32  1  0.65537378  0.31856706  0.96242074  1.0
  O  O33  1  0.65537378  0.18143294  0.46242074  1.0
  O  O34  1  0.34462622  0.81856706  0.53757926  1.0
  O  O35  1  0.34462622  0.68143294  0.03757926  1.0
  O  O36  1  0.51654948  0.88328085  0.91848437  1.0
  O  O37  1  0.51654948  0.61671915  0.41848437  1.0
  O  O38  1  0.48345052  0.38328085  0.58151563  1.0
  O  O39  1  0.48345052  0.11671915  0.08151563  1.0
  O  O40  1  0.50844764  0.58691473  0.80905168  1.0
  O  O41  1  0.50844764  0.91308527  0.30905168  1.0
  O  O42  1  0.49155236  0.08691473  0.69094832  1.0
  O  O43  1  0.49155236  0.41308527  0.19094832  1.0
