# generated using pymatgen
data_Sr5Mo2N7
_symmetry_space_group_name_H-M   'P 1'
_cell_length_a   9.32691747
_cell_length_b   6.48516706
_cell_length_c   9.35776344
_cell_angle_alpha   96.24747808
_cell_angle_beta   115.46744294
_cell_angle_gamma   89.07303907
_symmetry_Int_Tables_number   1
_chemical_formula_structural   Sr5Mo2N7
_chemical_formula_sum   'Sr10 Mo4 N14'
_cell_volume   507.68867456
_cell_formula_units_Z   2
loop_
 _symmetry_equiv_pos_site_id
 _symmetry_equiv_pos_as_xyz
  1  'x, y, z'
loop_
 _atom_site_type_symbol
 _atom_site_label
 _atom_site_symmetry_multiplicity
 _atom_site_fract_x
 _atom_site_fract_y
 _atom_site_fract_z
 _atom_site_occupancy
  Sr  Sr0  1  0.84633894  0.90179436  -0.23904893  1.0
  Sr  Sr1  1  0.15366106  0.09820564  -0.76095107  1.0
  Sr  Sr2  1  0.59233296  0.84334989  -0.67703651  1.0
  Sr  Sr3  1  0.40766704  0.15665011  -0.32296349  1.0
  Sr  Sr4  1  0.20785336  0.59421286  -0.92519544  1.0
  Sr  Sr5  1  0.79214664  0.40578714  -0.07480456  1.0
  Sr  Sr6  1  0.58302148  0.29407755  -0.85216815  1.0
  Sr  Sr7  1  0.41697852  0.70592245  -0.14783185  1.0
  Sr  Sr8  1  0.98580717  0.26108158  -0.44627299  1.0
  Sr  Sr9  1  0.01419283  0.73891842  -0.55372701  1.0
  Mo  Mo10  1  0.78538450  0.87882143  -0.91494484  1.0
  Mo  Mo11  1  0.21461550  0.12117857  -0.08505516  1.0
  Mo  Mo12  1  0.64468801  0.42219173  -0.47441427  1.0
  Mo  Mo13  1  0.35531199  0.57780827  -0.52558573  1.0
  N  N14  1  0.34691308  0.96599326  -0.92054668  1.0
  N  N15  1  0.65308692  0.03400674  -0.07945332  1.0
  N  N16  1  0.29732582  0.84844047  -0.54276791  1.0
  N  N17  1  0.70267418  0.15155953  -0.45723209  1.0
  N  N18  1  0.94821512  0.76834774  -0.96174247  1.0
  N  N19  1  0.05178488  0.23165226  -0.03825753  1.0
  N  N20  1  0.67373096  0.64839664  -0.90059477  1.0
  N  N21  1  0.32626904  0.35160336  -0.09940523  1.0
  N  N22  1  0.80996323  0.58995912  -0.46003734  1.0
  N  N23  1  0.19003677  0.41004088  -0.53996266  1.0
  N  N24  1  0.45128705  0.47720788  -0.67557505  1.0
  N  N25  1  0.54871295  0.52279212  -0.32442495  1.0
  N  N26  1  0.86664752  0.04510313  -0.71825319  1.0
  N  N27  1  0.13335248  0.95489687  -0.28174681  1.0
