# generated using pymatgen
data_LiAlH4
_symmetry_space_group_name_H-M   'P 1'
_cell_length_a   4.74625559
_cell_length_b   4.21684881
_cell_length_c   5.10568289
_cell_angle_alpha   90.00000000
_cell_angle_beta   90.00000000
_cell_angle_gamma   90.00000000
_symmetry_Int_Tables_number   1
_chemical_formula_structural   LiAlH4
_chemical_formula_sum   'Li2 Al2 H8'
_cell_volume   102.18637400
_cell_formula_units_Z   2
loop_
 _symmetry_equiv_pos_site_id
 _symmetry_equiv_pos_as_xyz
  1  'x, y, z'
loop_
 _atom_site_type_symbol
 _atom_site_label
 _atom_site_symmetry_multiplicity
 _atom_site_fract_x
 _atom_site_fract_y
 _atom_site_fract_z
 _atom_site_occupancy
  Li  Li0  1  0.00000000  0.00000000  -0.00192444  1.0
  Li  Li1  1  0.00000000  0.50000000  0.49807556  1.0
  Al  Al2  1  0.50000000  0.00000000  0.30761935  1.0
  Al  Al3  1  0.50000000  0.50000000  0.80761935  1.0
  H  H4  1  0.80321045  0.79823257  0.28096827  1.0
  H  H5  1  0.80321045  0.70176743  0.78096827  1.0
  H  H6  1  0.19678955  0.29823257  0.78096827  1.0
  H  H7  1  0.19678955  0.20176743  0.28096827  1.0
  H  H8  1  0.35628457  0.75389422  0.04613427  1.0
  H  H9  1  0.35628457  0.74610578  0.54613427  1.0
  H  H10  1  0.64371543  0.25389422  0.54613427  1.0
  H  H11  1  0.64371543  0.24610578  0.04613427  1.0
