# generated using pymatgen
data_Re4Cl8O9
_symmetry_space_group_name_H-M   'P 1'
_cell_length_a   13.13071083
_cell_length_b   6.68042990
_cell_length_c   6.86259599
_cell_angle_alpha   96.05507887
_cell_angle_beta   104.08331464
_cell_angle_gamma   82.27624841
_symmetry_Int_Tables_number   1
_chemical_formula_structural   Re4Cl8O9
_chemical_formula_sum   'Re4 Cl8 O9'
_cell_volume   576.92644638
_cell_formula_units_Z   1
loop_
 _symmetry_equiv_pos_site_id
 _symmetry_equiv_pos_as_xyz
  1  'x, y, z'
loop_
 _atom_site_type_symbol
 _atom_site_label
 _atom_site_symmetry_multiplicity
 _atom_site_fract_x
 _atom_site_fract_y
 _atom_site_fract_z
 _atom_site_occupancy
  Re  Re0  1  -0.89323887  -0.65441070  0.89833402  1.0
  Re  Re1  1  -0.10676113  -0.34558930  0.10166598  1.0
  Re  Re2  1  -0.33518638  -0.62462086  0.68929628  1.0
  Re  Re3  1  -0.66481362  -0.37537914  0.31070372  1.0
  Cl  Cl4  1  -0.84812996  -0.83763185  0.18080936  1.0
  Cl  Cl5  1  -0.15187004  -0.16236815  0.81919064  1.0
  Cl  Cl6  1  -0.42143242  -0.76086677  0.87331414  1.0
  Cl  Cl7  1  -0.57856758  -0.23913323  0.12668586  1.0
  Cl  Cl8  1  -0.72385452  -0.76514469  0.86127161  1.0
  Cl  Cl9  1  -0.27614548  -0.23485531  0.13872839  1.0
  Cl  Cl10  1  -0.88087950  -0.38409241  0.72510689  1.0
  Cl  Cl11  1  -0.11912050  -0.61590759  0.27489311  1.0
  O  O12  1  -0.96261679  -0.80851998  0.72233936  1.0
  O  O13  1  -0.03738321  -0.19148002  0.27766064  1.0
  O  O14  1  -0.32731969  -0.77898622  0.47762509  1.0
  O  O15  1  -0.67268031  -0.22101378  0.52237491  1.0
  O  O16  1  -0.59960299  -0.60513201  0.38133662  1.0
  O  O17  1  -0.40039701  -0.39486799  0.61866338  1.0
  O  O18  1  -0.20872633  -0.59079562  0.82732310  1.0
  O  O19  1  -0.79127367  -0.40920438  0.17267690  1.0
  O  O20  1  -0.00000000  -0.50000000  -0.00000000  1.0
