# generated using pymatgen
data_Mn2ZnO4
_symmetry_space_group_name_H-M   'P 1'
_cell_length_a   6.24765639
_cell_length_b   6.24765639
_cell_length_c   6.24765639
_cell_angle_alpha   125.22443604
_cell_angle_beta   125.22443604
_cell_angle_gamma   81.16662049
_symmetry_Int_Tables_number   1
_chemical_formula_structural   Mn2ZnO4
_chemical_formula_sum   'Mn4 Zn2 O8'
_cell_volume   156.76611134
_cell_formula_units_Z   2
loop_
 _symmetry_equiv_pos_site_id
 _symmetry_equiv_pos_as_xyz
  1  'x, y, z'
loop_
 _atom_site_type_symbol
 _atom_site_label
 _atom_site_symmetry_multiplicity
 _atom_site_fract_x
 _atom_site_fract_y
 _atom_site_fract_z
 _atom_site_occupancy
  Mn  Mn0  1  0.37500000  1.12500000  0.75000000  1.0
  Mn  Mn1  1  0.37500000  0.62500000  0.25000000  1.0
  Mn  Mn2  1  0.87500000  0.62500000  1.25000000  1.0
  Mn  Mn3  1  0.37500000  0.62500000  0.75000000  1.0
  Zn  Zn4  1  0.75000000  0.25000000  0.50000000  1.0
  Zn  Zn5  1  0.00000000  0.00000000  0.00000000  1.0
  O  O6  1  0.12904060  0.85403237  0.72499177  1.0
  O  O7  1  0.12904060  0.40404883  0.27500823  1.0
  O  O8  1  0.62095940  0.84595117  1.22499177  1.0
  O  O9  1  0.62095940  0.39596763  0.77500823  1.0
  O  O10  1  1.14596763  0.87095940  1.27500823  1.0
  O  O11  1  0.59595117  0.87095940  0.72499177  1.0
  O  O12  1  1.15404883  0.37904060  0.77500823  1.0
  O  O13  1  0.60403237  0.37904060  0.22499177  1.0
