# generated using pymatgen
data_LaCrHO5
_symmetry_space_group_name_H-M   'P 1'
_cell_length_a   4.77266679
_cell_length_b   13.28561123
_cell_length_c   7.29126773
_cell_angle_alpha   90.00000000
_cell_angle_beta   111.46643390
_cell_angle_gamma   90.00000000
_symmetry_Int_Tables_number   1
_chemical_formula_structural   LaCrHO5
_chemical_formula_sum   'La4 Cr4 H4 O20'
_cell_volume   430.25283134
_cell_formula_units_Z   4
loop_
 _symmetry_equiv_pos_site_id
 _symmetry_equiv_pos_as_xyz
  1  'x, y, z'
loop_
 _atom_site_type_symbol
 _atom_site_label
 _atom_site_symmetry_multiplicity
 _atom_site_fract_x
 _atom_site_fract_y
 _atom_site_fract_z
 _atom_site_occupancy
  La  La0  1  0.66460143  0.05742591  0.29887038  1.0
  La  La1  1  0.66460143  0.44257409  0.79887038  1.0
  La  La2  1  0.33539857  0.55742591  0.20112962  1.0
  La  La3  1  0.33539857  0.94257409  0.70112962  1.0
  Cr  Cr4  1  0.90993756  0.35149871  0.38392830  1.0
  Cr  Cr5  1  0.90993756  0.14850129  0.88392830  1.0
  Cr  Cr6  1  0.09006244  0.85149871  0.11607170  1.0
  Cr  Cr7  1  0.09006244  0.64850129  0.61607170  1.0
  H  H8  1  0.27852563  0.14647929  0.50343407  1.0
  H  H9  1  0.27852563  0.35352071  1.00343407  1.0
  H  H10  1  0.72147437  0.64647929  -0.00343407  1.0
  H  H11  1  0.72147437  0.85352071  0.49656593  1.0
  O  O12  1  0.02614024  0.90282205  0.30353889  1.0
  O  O13  1  0.02614024  0.59717795  0.80353889  1.0
  O  O14  1  0.97385976  0.40282205  0.19646111  1.0
  O  O15  1  0.97385976  0.09717795  0.69646111  1.0
  O  O16  1  0.75739395  0.23981735  0.32334147  1.0
  O  O17  1  0.75739395  0.26018265  0.82334147  1.0
  O  O18  1  0.24260605  0.73981735  0.17665853  1.0
  O  O19  1  0.24260605  0.76018265  0.67665853  1.0
  O  O20  1  0.77556020  0.65991346  0.42918768  1.0
  O  O21  1  0.77556020  0.84008654  0.92918768  1.0
  O  O22  1  0.22443980  0.15991346  0.07081232  1.0
  O  O23  1  0.22443980  0.34008654  0.57081232  1.0
  O  O24  1  0.67974509  0.42948116  0.44711063  1.0
  O  O25  1  0.67974509  0.07051884  0.94711063  1.0
  O  O26  1  0.32025491  0.92948116  0.05288937  1.0
  O  O27  1  0.32025491  0.57051884  0.55288937  1.0
  O  O28  1  0.26859688  0.42102388  0.94829837  1.0
  O  O29  1  0.26859688  0.07897612  0.44829837  1.0
  O  O30  1  0.73140312  0.92102388  0.55170163  1.0
  O  O31  1  0.73140312  0.57897612  0.05170163  1.0
