# generated using pymatgen
data_Hf13Os4
_symmetry_space_group_name_H-M   'P 1'
_cell_length_a   11.66377121
_cell_length_b   11.66377121
_cell_length_c   11.66377121
_cell_angle_alpha   60.00000000
_cell_angle_beta   60.00000000
_cell_angle_gamma   60.00000000
_symmetry_Int_Tables_number   1
_chemical_formula_structural   Hf13Os4
_chemical_formula_sum   'Hf26 Os8'
_cell_volume   1122.02356621
_cell_formula_units_Z   2
loop_
 _symmetry_equiv_pos_site_id
 _symmetry_equiv_pos_as_xyz
  1  'x, y, z'
loop_
 _atom_site_type_symbol
 _atom_site_label
 _atom_site_symmetry_multiplicity
 _atom_site_fract_x
 _atom_site_fract_y
 _atom_site_fract_z
 _atom_site_occupancy
  Hf  Hf0  1  0.93333861  -0.55024688  0.68356965  1.0
  Hf  Hf1  1  -0.06666139  0.68356965  0.44975312  1.0
  Hf  Hf2  1  -0.19975312  0.31666139  0.31666139  1.0
  Hf  Hf3  1  0.56643035  0.31666139  0.31666139  1.0
  Hf  Hf4  1  -0.55024688  0.93333861  0.68356965  1.0
  Hf  Hf5  1  0.93333861  -0.06666139  0.68356965  1.0
  Hf  Hf6  1  0.93333861  -0.31643035  0.93333861  1.0
  Hf  Hf7  1  -0.55024688  0.68356965  0.93333861  1.0
  Hf  Hf8  1  0.31666139  -0.19975312  0.31666139  1.0
  Hf  Hf9  1  0.31666139  0.31666139  -0.19975312  1.0
  Hf  Hf10  1  0.56643035  0.31666139  -0.19975312  1.0
  Hf  Hf11  1  0.56643035  -0.19975312  0.31666139  1.0
  Hf  Hf12  1  0.68356965  -0.06666139  0.93333861  1.0
  Hf  Hf13  1  -0.55024688  0.93333861  0.93333861  1.0
  Hf  Hf14  1  0.31666139  0.56643035  -0.19975312  1.0
  Hf  Hf15  1  0.31666139  -0.19975312  0.56643035  1.0
  Hf  Hf16  1  -0.31643035  0.93333861  0.44975312  1.0
  Hf  Hf17  1  0.68356965  -0.55024688  0.93333861  1.0
  Hf  Hf18  1  0.93333861  -0.55024688  0.93333861  1.0
  Hf  Hf19  1  -0.06666139  0.93333861  0.44975312  1.0
  Hf  Hf20  1  0.31666139  0.56643035  0.31666139  1.0
  Hf  Hf21  1  -0.19975312  0.56643035  0.31666139  1.0
  Hf  Hf22  1  -0.19975312  0.31666139  0.56643035  1.0
  Hf  Hf23  1  0.31666139  0.31666139  0.56643035  1.0
  Hf  Hf24  1  0.50000000  0.50000000  -0.50000000  1.0
  Hf  Hf25  1  0.75000000  -0.25000000  0.75000000  1.0
  Os  Os26  1  0.66503420  -0.33496580  1.00489741  1.0
  Os  Os27  1  0.66503420  0.00489741  0.66503420  1.0
  Os  Os28  1  0.58496580  -0.41503420  0.58496580  1.0
  Os  Os29  1  1.24510259  -0.41503420  0.58496580  1.0
  Os  Os30  1  1.00489741  -0.33496580  0.66503420  1.0
  Os  Os31  1  0.66503420  -0.33496580  0.66503420  1.0
  Os  Os32  1  0.58496580  0.24510259  0.58496580  1.0
  Os  Os33  1  0.58496580  -0.41503420  1.24510259  1.0
