# generated using pymatgen
data_TaPO5
_symmetry_space_group_name_H-M   'P 1'
_cell_length_a   6.52422687
_cell_length_b   6.52422687
_cell_length_c   4.03827598
_cell_angle_alpha   90.00000000
_cell_angle_beta   90.00000000
_cell_angle_gamma   90.00000000
_symmetry_Int_Tables_number   1
_chemical_formula_structural   TaPO5
_chemical_formula_sum   'Ta2 P2 O10'
_cell_volume   171.89138292
_cell_formula_units_Z   2
loop_
 _symmetry_equiv_pos_site_id
 _symmetry_equiv_pos_as_xyz
  1  'x, y, z'
loop_
 _atom_site_type_symbol
 _atom_site_label
 _atom_site_symmetry_multiplicity
 _atom_site_fract_x
 _atom_site_fract_y
 _atom_site_fract_z
 _atom_site_occupancy
  Ta  Ta0  1  0.00000000  0.50000000  0.76303227  1.0
  Ta  Ta1  1  0.50000000  0.00000000  0.23696773  1.0
  P  P2  1  0.50000000  0.50000000  0.50000000  1.0
  P  P3  1  0.00000000  0.00000000  0.50000000  1.0
  O  O4  1  0.00000000  0.50000000  0.21577806  1.0
  O  O5  1  0.50000000  0.00000000  0.78422194  1.0
  O  O6  1  0.69510222  0.49971715  0.71686107  1.0
  O  O7  1  0.30489778  0.50028285  0.71686107  1.0
  O  O8  1  0.19510222  0.99971715  0.28313893  1.0
  O  O9  1  0.80489778  0.00028285  0.28313893  1.0
  O  O10  1  0.49971715  0.30489778  0.28313893  1.0
  O  O11  1  0.50028285  0.69510222  0.28313893  1.0
  O  O12  1  0.99971715  0.80489778  0.71686107  1.0
  O  O13  1  0.00028285  0.19510222  0.71686107  1.0
