# generated using pymatgen
data_Rb2Ag2GeS4
_symmetry_space_group_name_H-M   'P 1'
_cell_length_a   11.95444882
_cell_length_b   11.95444882
_cell_length_c   6.44099893
_cell_angle_alpha   81.71639942
_cell_angle_beta   98.28360058
_cell_angle_gamma   37.69356986
_symmetry_Int_Tables_number   1
_chemical_formula_structural   Rb2Ag2GeS4
_chemical_formula_sum   'Rb4 Ag4 Ge2 S8'
_cell_volume   503.73907387
_cell_formula_units_Z   2
loop_
 _symmetry_equiv_pos_site_id
 _symmetry_equiv_pos_as_xyz
  1  'x, y, z'
loop_
 _atom_site_type_symbol
 _atom_site_label
 _atom_site_symmetry_multiplicity
 _atom_site_fract_x
 _atom_site_fract_y
 _atom_site_fract_z
 _atom_site_occupancy
  Rb  Rb0  1  0.56229167  0.56229167  0.75000000  1.0
  Rb  Rb1  1  1.43770833  0.43770833  0.25000000  1.0
  Rb  Rb2  1  1.30663080  0.30663080  0.75000000  1.0
  Rb  Rb3  1  0.69336920  0.69336920  0.25000000  1.0
  Ag  Ag4  1  0.96482024  0.96482024  0.75000000  1.0
  Ag  Ag5  1  1.03517976  0.03517976  0.25000000  1.0
  Ag  Ag6  1  0.82391190  0.82391190  0.75000000  1.0
  Ag  Ag7  1  1.17608810  0.17608810  0.25000000  1.0
  Ge  Ge8  1  1.12043190  0.12043190  0.75000000  1.0
  Ge  Ge9  1  0.87956810  0.87956810  0.25000000  1.0
  S  S10  1  1.73487568  0.13685079  0.94900692  1.0
  S  S11  1  0.86314921  0.26512432  0.44900692  1.0
  S  S12  1  1.13685079  0.73487568  0.55099308  1.0
  S  S13  1  1.26512432  -0.13685079  0.05099308  1.0
  S  S14  1  1.37213990  -0.01562944  0.65953856  1.0
  S  S15  1  1.01562944  0.62786010  0.15953856  1.0
  S  S16  1  0.98437056  0.37213990  0.84046144  1.0
  S  S17  1  1.62786010  0.01562944  0.34046144  1.0
