# generated using pymatgen
data_CS3N5Cl
_symmetry_space_group_name_H-M   'P 1'
_cell_length_a   5.07264086
_cell_length_b   10.93560119
_cell_length_c   15.31702601
_cell_angle_alpha   90.00000000
_cell_angle_beta   106.63695071
_cell_angle_gamma   90.00000000
_symmetry_Int_Tables_number   1
_chemical_formula_structural   CS3N5Cl
_chemical_formula_sum   'C4 S12 N20 Cl4'
_cell_volume   814.10299636
_cell_formula_units_Z   4
loop_
 _symmetry_equiv_pos_site_id
 _symmetry_equiv_pos_as_xyz
  1  'x, y, z'
loop_
 _atom_site_type_symbol
 _atom_site_label
 _atom_site_symmetry_multiplicity
 _atom_site_fract_x
 _atom_site_fract_y
 _atom_site_fract_z
 _atom_site_occupancy
  C  C0  1  0.92135410  0.64160149  0.19578493  1.0
  C  C1  1  0.07864590  0.14160149  0.30421507  1.0
  C  C2  1  0.07864590  0.35839851  0.80421507  1.0
  C  C3  1  0.92135410  0.85839851  0.69578493  1.0
  S  S4  1  0.07230857  0.66888251  0.45108350  1.0
  S  S5  1  0.92769143  0.16888251  0.04891650  1.0
  S  S6  1  0.92769143  0.33111749  0.54891650  1.0
  S  S7  1  0.07230857  0.83111749  0.95108350  1.0
  S  S8  1  0.25863252  0.77921763  0.30867526  1.0
  S  S9  1  0.74136748  0.27921763  0.19132474  1.0
  S  S10  1  0.74136748  0.22078237  0.69132474  1.0
  S  S11  1  0.25863252  0.72078237  0.80867526  1.0
  S  S12  1  0.27058862  0.52951473  0.32437557  1.0
  S  S13  1  0.72941138  0.02951473  0.17562443  1.0
  S  S14  1  0.72941138  0.47048527  0.67562443  1.0
  S  S15  1  0.27058862  0.97048527  0.82437557  1.0
  N  N16  1  0.00142395  0.53430702  0.23403421  1.0
  N  N17  1  0.99857605  0.03430702  0.26596579  1.0
  N  N18  1  0.99857605  0.46569298  0.76596579  1.0
  N  N19  1  0.00142395  0.96569298  0.73403421  1.0
  N  N20  1  0.12381241  0.53974882  0.41473659  1.0
  N  N21  1  0.87618759  0.03974882  0.08526341  1.0
  N  N22  1  0.87618759  0.46025118  0.58526341  1.0
  N  N23  1  0.12381241  0.96025118  0.91473659  1.0
  N  N24  1  0.44998199  0.65536672  0.32912290  1.0
  N  N25  1  0.55001801  0.15536672  0.17087710  1.0
  N  N26  1  0.55001801  0.34463328  0.67087710  1.0
  N  N27  1  0.44998199  0.84463328  0.82912290  1.0
  N  N28  1  0.10364025  0.78674110  0.39723398  1.0
  N  N29  1  0.89635975  0.28674110  0.10276602  1.0
  N  N30  1  0.89635975  0.21325890  0.60276602  1.0
  N  N31  1  0.10364025  0.71325890  0.89723398  1.0
  N  N32  1  -0.00287581  0.75591261  0.21777686  1.0
  N  N33  1  1.00287581  0.25591261  0.28222314  1.0
  N  N34  1  1.00287581  0.24408739  0.78222314  1.0
  N  N35  1  -0.00287581  0.74408739  0.71777686  1.0
  Cl  Cl36  1  0.66230723  0.62900452  0.09155671  1.0
  Cl  Cl37  1  0.33769277  0.12900452  0.40844329  1.0
  Cl  Cl38  1  0.33769277  0.37099548  0.90844329  1.0
  Cl  Cl39  1  0.66230723  0.87099548  0.59155671  1.0
