# generated using pymatgen
data_Cu3SnAu
_symmetry_space_group_name_H-M   'P 1'
_cell_length_a   6.88680320
_cell_length_b   6.88680320
_cell_length_c   6.88680320
_cell_angle_alpha   90.00000000
_cell_angle_beta   90.00000000
_cell_angle_gamma   90.00000000
_symmetry_Int_Tables_number   1
_chemical_formula_structural   Cu3SnAu
_chemical_formula_sum   'Cu12 Sn4 Au4'
_cell_volume   326.62770427
_cell_formula_units_Z   4
loop_
 _symmetry_equiv_pos_site_id
 _symmetry_equiv_pos_as_xyz
  1  'x, y, z'
loop_
 _atom_site_type_symbol
 _atom_site_label
 _atom_site_symmetry_multiplicity
 _atom_site_fract_x
 _atom_site_fract_y
 _atom_site_fract_z
 _atom_site_occupancy
  Cu  Cu0  1  0.10998862  0.88176020  0.64595201  1.0
  Cu  Cu1  1  0.35404799  0.60998862  0.61823980  1.0
  Cu  Cu2  1  0.38176020  0.85404799  0.89001138  1.0
  Cu  Cu3  1  0.60998862  0.61823980  0.35404799  1.0
  Cu  Cu4  1  0.85404799  0.89001138  0.38176020  1.0
  Cu  Cu5  1  0.88176020  0.64595201  0.10998862  1.0
  Cu  Cu6  1  0.89001138  0.38176020  0.85404799  1.0
  Cu  Cu7  1  0.64595201  0.10998862  0.88176020  1.0
  Cu  Cu8  1  0.61823980  0.35404799  0.60998862  1.0
  Cu  Cu9  1  0.39001138  0.11823980  0.14595201  1.0
  Cu  Cu10  1  0.14595201  0.39001138  0.11823980  1.0
  Cu  Cu11  1  0.11823980  0.14595201  0.39001138  1.0
  Sn  Sn12  1  0.74388882  0.24388882  0.25611118  1.0
  Sn  Sn13  1  0.24388882  0.25611118  0.74388882  1.0
  Sn  Sn14  1  0.25611118  0.74388882  0.24388882  1.0
  Sn  Sn15  1  0.75611118  0.75611118  0.75611118  1.0
  Au  Au16  1  0.48538752  0.98538752  0.51461248  1.0
  Au  Au17  1  0.98538752  0.51461248  0.48538752  1.0
  Au  Au18  1  0.51461248  0.48538752  0.98538752  1.0
  Au  Au19  1  0.01461248  0.01461248  0.01461248  1.0
