# generated using pymatgen
data_Cu(BrO4)2
_symmetry_space_group_name_H-M   'P 1'
_cell_length_a   6.91677654
_cell_length_b   9.49169470
_cell_length_c   12.70307465
_cell_angle_alpha   90.00000000
_cell_angle_beta   90.00000000
_cell_angle_gamma   90.00000000
_symmetry_Int_Tables_number   1
_chemical_formula_structural   Cu(BrO4)2
_chemical_formula_sum   'Cu4 Br8 O32'
_cell_volume   833.98138306
_cell_formula_units_Z   4
loop_
 _symmetry_equiv_pos_site_id
 _symmetry_equiv_pos_as_xyz
  1  'x, y, z'
loop_
 _atom_site_type_symbol
 _atom_site_label
 _atom_site_symmetry_multiplicity
 _atom_site_fract_x
 _atom_site_fract_y
 _atom_site_fract_z
 _atom_site_occupancy
  O  O0  1  0.24655947  0.89069589  0.62930889  1.0
  O  O1  1  0.24655947  0.60930411  0.12930889  1.0
  O  O2  1  0.74655947  0.89069589  0.87069111  1.0
  O  O3  1  0.74655947  0.60930411  0.37069111  1.0
  O  O4  1  0.75344053  0.39069589  0.87069111  1.0
  O  O5  1  0.75344053  0.10930411  0.37069111  1.0
  O  O6  1  0.25344053  0.39069589  0.62930889  1.0
  O  O7  1  0.25344053  0.10930411  0.12930889  1.0
  O  O8  1  0.07397442  0.68503104  0.52978422  1.0
  O  O9  1  0.07397442  0.81496896  0.02978422  1.0
  O  O10  1  0.57397442  0.68503104  0.97021578  1.0
  O  O11  1  0.57397442  0.81496896  0.47021578  1.0
  O  O12  1  0.92602558  0.18503104  0.97021578  1.0
  O  O13  1  0.92602558  0.31496896  0.47021578  1.0
  O  O14  1  0.42602558  0.18503104  0.52978422  1.0
  O  O15  1  0.42602558  0.31496896  0.02978422  1.0
  O  O16  1  0.18370666  0.97321276  0.90802863  1.0
  O  O17  1  0.18370666  0.52678724  0.40802863  1.0
  O  O18  1  0.68370666  0.97321276  0.59197137  1.0
  O  O19  1  0.68370666  0.52678724  0.09197137  1.0
  O  O20  1  0.81629334  0.47321276  0.59197137  1.0
  O  O21  1  0.81629334  0.02678724  0.09197137  1.0
  O  O22  1  0.31629334  0.47321276  0.90802863  1.0
  O  O23  1  0.31629334  0.02678724  0.40802863  1.0
  O  O24  1  0.09487957  0.68052585  0.74863098  1.0
  O  O25  1  0.09487957  0.81947415  0.24863098  1.0
  O  O26  1  0.59487957  0.68052585  0.75136902  1.0
  O  O27  1  0.59487957  0.81947415  0.25136902  1.0
  O  O28  1  0.90512043  0.18052585  0.75136902  1.0
  O  O29  1  0.90512043  0.31947415  0.25136902  1.0
  O  O30  1  0.40512043  0.18052585  0.74863098  1.0
  O  O31  1  0.40512043  0.31947415  0.24863098  1.0
  Cu  Cu32  1  0.50000000  0.00000000  0.50000000  1.0
  Cu  Cu33  1  0.50000000  0.50000000  0.00000000  1.0
  Cu  Cu34  1  0.00000000  0.00000000  0.00000000  1.0
  Cu  Cu35  1  0.00000000  0.50000000  0.50000000  1.0
  Br  Br36  1  0.23368470  0.71766989  0.64672932  1.0
  Br  Br37  1  0.23368470  0.78233011  0.14672932  1.0
  Br  Br38  1  0.73368470  0.71766989  0.85327068  1.0
  Br  Br39  1  0.73368470  0.78233011  0.35327068  1.0
  Br  Br40  1  0.76631530  0.21766989  0.85327068  1.0
  Br  Br41  1  0.76631530  0.28233011  0.35327068  1.0
  Br  Br42  1  0.26631530  0.21766989  0.64672932  1.0
  Br  Br43  1  0.26631530  0.28233011  0.14672932  1.0
