# generated using pymatgen
data_Ni2W3N
_symmetry_space_group_name_H-M   'P 1'
_cell_length_a   6.67189949
_cell_length_b   6.67189949
_cell_length_c   6.67189949
_cell_angle_alpha   90.00000000
_cell_angle_beta   90.00000000
_cell_angle_gamma   90.00000000
_symmetry_Int_Tables_number   1
_chemical_formula_structural   Ni2W3N
_chemical_formula_sum   'Ni8 W12 N4'
_cell_volume   296.99455340
_cell_formula_units_Z   4
loop_
 _symmetry_equiv_pos_site_id
 _symmetry_equiv_pos_as_xyz
  1  'x, y, z'
loop_
 _atom_site_type_symbol
 _atom_site_label
 _atom_site_symmetry_multiplicity
 _atom_site_fract_x
 _atom_site_fract_y
 _atom_site_fract_z
 _atom_site_occupancy
  Ni  Ni0  1  0.43418545  0.93418545  0.56581455  1.0
  Ni  Ni1  1  0.18418545  0.81581455  0.31581455  1.0
  Ni  Ni2  1  0.68418545  0.68418545  0.68418545  1.0
  Ni  Ni3  1  0.93418545  0.56581455  0.43418545  1.0
  Ni  Ni4  1  0.56581455  0.43418545  0.93418545  1.0
  Ni  Ni5  1  0.31581455  0.18418545  0.81581455  1.0
  Ni  Ni6  1  0.81581455  0.31581455  0.18418545  1.0
  Ni  Ni7  1  0.06581455  0.06581455  0.06581455  1.0
  W  W8  1  0.37500000  0.79976938  0.95023062  1.0
  W  W9  1  0.12500000  0.20023062  0.45023062  1.0
  W  W10  1  0.62500000  0.29976938  0.54976938  1.0
  W  W11  1  0.87500000  0.70023062  0.04976938  1.0
  W  W12  1  0.29976938  0.54976938  0.62500000  1.0
  W  W13  1  0.04976938  0.87500000  0.70023062  1.0
  W  W14  1  0.54976938  0.62500000  0.29976938  1.0
  W  W15  1  0.79976938  0.95023062  0.37500000  1.0
  W  W16  1  0.70023062  0.04976938  0.87500000  1.0
  W  W17  1  0.45023062  0.12500000  0.20023062  1.0
  W  W18  1  0.95023062  0.37500000  0.79976938  1.0
  W  W19  1  0.20023062  0.45023062  0.12500000  1.0
  N  N20  1  0.12500000  0.62500000  0.87500000  1.0
  N  N21  1  0.87500000  0.12500000  0.62500000  1.0
  N  N22  1  0.37500000  0.37500000  0.37500000  1.0
  N  N23  1  0.62500000  0.87500000  0.12500000  1.0
