# generated using pymatgen
data_Ba2Ta6Te2O21
_symmetry_space_group_name_H-M   'P 1'
_cell_length_a   8.92119793
_cell_length_b   8.92119793
_cell_length_c   9.71583466
_cell_angle_alpha   83.68119671
_cell_angle_beta   96.31880329
_cell_angle_gamma   142.44202381
_symmetry_Int_Tables_number   1
_chemical_formula_structural   Ba2Ta6Te2O21
_chemical_formula_sum   'Ba2 Ta6 Te2 O21'
_cell_volume   468.15666775
_cell_formula_units_Z   1
loop_
 _symmetry_equiv_pos_site_id
 _symmetry_equiv_pos_as_xyz
  1  'x, y, z'
loop_
 _atom_site_type_symbol
 _atom_site_label
 _atom_site_symmetry_multiplicity
 _atom_site_fract_x
 _atom_site_fract_y
 _atom_site_fract_z
 _atom_site_occupancy
  Ba  Ba0  1  0.86206477  0.13793523  0.97115971  1.0
  Ba  Ba1  1  0.13793523  -0.13793523  0.02884029  1.0
  Ta  Ta2  1  0.90043135  0.09956865  0.58122335  1.0
  Ta  Ta3  1  0.09956865  -0.09956865  0.41877665  1.0
  Ta  Ta4  1  0.67565117  0.32434883  0.67334943  1.0
  Ta  Ta5  1  0.32434883  -0.32434883  0.32665057  1.0
  Ta  Ta6  1  0.47831062  -0.47831062  0.83598882  1.0
  Ta  Ta7  1  0.52168938  0.47831062  0.16401118  1.0
  Te  Te8  1  0.27388299  -0.27388299  0.74439068  1.0
  Te  Te9  1  0.72611701  0.27388299  0.25560932  1.0
  O  O10  1  0.69181952  -0.17483626  0.72028886  1.0
  O  O11  1  1.17483626  0.30818048  0.72028886  1.0
  O  O12  1  0.82516374  0.69181952  0.27971114  1.0
  O  O13  1  0.30818048  0.17483626  0.27971114  1.0
  O  O14  1  0.46095019  0.02991372  0.83156654  1.0
  O  O15  1  0.97008628  0.53904981  0.83156654  1.0
  O  O16  1  1.02991372  0.46095019  0.16843346  1.0
  O  O17  1  0.53904981  -0.02991372  0.16843346  1.0
  O  O18  1  0.39356825  0.10211139  0.55305766  1.0
  O  O19  1  0.89788861  0.60643175  0.55305766  1.0
  O  O20  1  1.10211139  0.39356825  0.44694234  1.0
  O  O21  1  0.60643175  -0.10211139  0.44694234  1.0
  O  O22  1  0.79020872  0.20979128  0.65145244  1.0
  O  O23  1  0.20979128  -0.20979128  0.34854756  1.0
  O  O24  1  0.57992614  0.42007386  0.77491953  1.0
  O  O25  1  0.42007386  -0.42007386  0.22508047  1.0
  O  O26  1  0.35872198  -0.35872198  0.89925491  1.0
  O  O27  1  0.64127802  0.35872198  0.10074509  1.0
  O  O28  1  0.72068104  0.72068104  0.00000000  1.0
  O  O29  1  0.27931896  0.27931896  0.00000000  1.0
  O  O30  1  0.00000000  -0.00000000  0.50000000  1.0
