# generated using pymatgen
data_Li2SiO3
_symmetry_space_group_name_H-M   'P 1'
_cell_length_a   5.45026385
_cell_length_b   5.45026385
_cell_length_c   4.73199107
_cell_angle_alpha   90.00000000
_cell_angle_beta   90.00000000
_cell_angle_gamma   59.79393225
_symmetry_Int_Tables_number   1
_chemical_formula_structural   Li2SiO3
_chemical_formula_sum   'Li4 Si2 O6'
_cell_volume   121.47979501
_cell_formula_units_Z   2
loop_
 _symmetry_equiv_pos_site_id
 _symmetry_equiv_pos_as_xyz
  1  'x, y, z'
loop_
 _atom_site_type_symbol
 _atom_site_label
 _atom_site_symmetry_multiplicity
 _atom_site_fract_x
 _atom_site_fract_y
 _atom_site_fract_z
 _atom_site_occupancy
  Li  Li0  1  -0.48029425  0.82925652  0.49191505  1.0
  Li  Li1  1  -0.17074348  0.51970575  0.99191505  1.0
  Li  Li2  1  0.17074348  0.48029425  0.49191505  1.0
  Li  Li3  1  -0.51970575  1.17074348  0.99191505  1.0
  Si  Si4  1  -0.17144084  0.17144084  0.50037120  1.0
  Si  Si5  1  -0.82855916  0.82855916  0.00037120  1.0
  O  O6  1  -0.54509496  0.83560929  0.08197469  1.0
  O  O7  1  -0.16439071  0.45490504  0.58197469  1.0
  O  O8  1  0.16439071  0.54509496  0.08197469  1.0
  O  O9  1  -0.45490504  1.16439071  0.58197469  1.0
  O  O10  1  -0.11478532  0.11478532  0.14704933  1.0
  O  O11  1  -0.88521468  0.88521468  0.64704933  1.0
