# generated using pymatgen
data_Ti2Cu3
_symmetry_space_group_name_H-M   'P 1'
_cell_length_a   7.42290074
_cell_length_b   7.42290074
_cell_length_c   7.42290074
_cell_angle_alpha   155.60163549
_cell_angle_beta   155.60163549
_cell_angle_gamma   34.77572800
_symmetry_Int_Tables_number   1
_chemical_formula_structural   Ti2Cu3
_chemical_formula_sum   'Ti2 Cu3'
_cell_volume   69.71257327
_cell_formula_units_Z   1
loop_
 _symmetry_equiv_pos_site_id
 _symmetry_equiv_pos_as_xyz
  1  'x, y, z'
loop_
 _atom_site_type_symbol
 _atom_site_label
 _atom_site_symmetry_multiplicity
 _atom_site_fract_x
 _atom_site_fract_y
 _atom_site_fract_z
 _atom_site_occupancy
  Ti  Ti0  1  0.60453066  0.60453066  1.00000000  1.0
  Ti  Ti1  1  0.39546934  0.39546934  0.00000000  1.0
  Cu  Cu2  1  0.79507633  0.79507633  1.00000000  1.0
  Cu  Cu3  1  0.20492367  0.20492367  0.00000000  1.0
  Cu  Cu4  1  0.00000000  0.00000000  0.00000000  1.0
