# generated using pymatgen
data_Na2MnH4(SeO5)2
_symmetry_space_group_name_H-M   'P 1'
_cell_length_a   5.96003196
_cell_length_b   13.46603431
_cell_length_c   5.82345151
_cell_angle_alpha   90.00000000
_cell_angle_beta   105.96622182
_cell_angle_gamma   90.00000000
_symmetry_Int_Tables_number   1
_chemical_formula_structural   Na2MnH4(SeO5)2
_chemical_formula_sum   'Na4 Mn2 H8 Se4 O20'
_cell_volume   449.34895959
_cell_formula_units_Z   2
loop_
 _symmetry_equiv_pos_site_id
 _symmetry_equiv_pos_as_xyz
  1  'x, y, z'
loop_
 _atom_site_type_symbol
 _atom_site_label
 _atom_site_symmetry_multiplicity
 _atom_site_fract_x
 _atom_site_fract_y
 _atom_site_fract_z
 _atom_site_occupancy
  Na  Na0  1  0.41784703  0.87530219  0.75891020  1.0
  Na  Na1  1  0.41784703  0.62469781  0.25891020  1.0
  Na  Na2  1  0.58215297  0.37530219  0.74108980  1.0
  Na  Na3  1  0.58215297  0.12469781  0.24108980  1.0
  Mn  Mn4  1  0.00000000  0.00000000  0.00000000  1.0
  Mn  Mn5  1  0.00000000  0.50000000  0.50000000  1.0
  H  H6  1  0.90757340  0.20129926  0.99463342  1.0
  H  H7  1  0.90757340  0.29870074  0.49463342  1.0
  H  H8  1  0.09242660  0.70129926  0.50536658  1.0
  H  H9  1  0.09242660  0.79870074  0.00536658  1.0
  H  H10  1  0.30876327  0.65155519  0.68766887  1.0
  H  H11  1  0.30876327  0.84844481  0.18766887  1.0
  H  H12  1  0.69123673  0.15155519  0.81233113  1.0
  H  H13  1  0.69123673  0.34844481  0.31233113  1.0
  Se  Se14  1  0.77144040  0.61905016  0.93496670  1.0
  Se  Se15  1  0.77144040  0.88094984  0.43496670  1.0
  Se  Se16  1  0.22855960  0.11905016  0.56503330  1.0
  Se  Se17  1  0.22855960  0.38094984  0.06503330  1.0
  O  O18  1  0.02459601  0.82194655  0.49610491  1.0
  O  O19  1  0.02459601  0.67805345  0.99610491  1.0
  O  O20  1  0.97540399  0.32194655  0.00389509  1.0
  O  O21  1  0.97540399  0.17805345  0.50389509  1.0
  O  O22  1  0.81508658  0.36159257  0.46432004  1.0
  O  O23  1  0.81508658  0.13840743  0.96432004  1.0
  O  O24  1  0.18491342  0.86159257  0.03567996  1.0
  O  O25  1  0.18491342  0.63840743  0.53567996  1.0
  O  O26  1  0.76106584  0.95576165  0.66467652  1.0
  O  O27  1  0.76106584  0.54423835  0.16467652  1.0
  O  O28  1  0.23893416  0.45576165  0.83532348  1.0
  O  O29  1  0.23893416  0.04423835  0.33532348  1.0
  O  O30  1  0.73393659  0.55002059  0.68549711  1.0
  O  O31  1  0.73393659  0.94997941  0.18549711  1.0
  O  O32  1  0.26606341  0.05002059  0.81450289  1.0
  O  O33  1  0.26606341  0.44997941  0.31450289  1.0
  O  O34  1  0.54483181  0.69622481  0.90157154  1.0
  O  O35  1  0.54483181  0.80377519  0.40157154  1.0
  O  O36  1  0.45516819  0.19622481  0.59842846  1.0
  O  O37  1  0.45516819  0.30377519  0.09842846  1.0
