# generated using pymatgen
data_NaH4CN4O3
_symmetry_space_group_name_H-M   'P 1'
_cell_length_a   5.68817004
_cell_length_b   8.40487431
_cell_length_c   6.62043321
_cell_angle_alpha   101.04596294
_cell_angle_beta   109.42088658
_cell_angle_gamma   98.89171292
_symmetry_Int_Tables_number   1
_chemical_formula_structural   NaH4CN4O3
_chemical_formula_sum   'Na2 H8 C2 N8 O6'
_cell_volume   284.71063972
_cell_formula_units_Z   2
loop_
 _symmetry_equiv_pos_site_id
 _symmetry_equiv_pos_as_xyz
  1  'x, y, z'
loop_
 _atom_site_type_symbol
 _atom_site_label
 _atom_site_symmetry_multiplicity
 _atom_site_fract_x
 _atom_site_fract_y
 _atom_site_fract_z
 _atom_site_occupancy
  Na  Na0  1  -0.81490549  -0.58806246  -0.14064500  1.0
  Na  Na1  1  -0.18509451  -0.41193754  -0.85935500  1.0
  H  H2  1  -0.77740628  -0.57596967  -0.65766910  1.0
  H  H3  1  -0.22259372  -0.42403033  -0.34233090  1.0
  H  H4  1  -0.62259986  -0.41289545  -0.67373442  1.0
  H  H5  1  -0.37740014  -0.58710455  -0.32626558  1.0
  H  H6  1  -0.63376169  -0.22199710  0.02597264  1.0
  H  H7  1  -0.36623831  -0.77800290  -1.02597264  1.0
  H  H8  1  -0.49283309  -0.75395961  -0.85072536  1.0
  H  H9  1  -0.50716691  -0.24604039  -0.14927464  1.0
  C  C10  1  -0.92691791  -0.99776119  -0.56996840  1.0
  C  C11  1  -0.07308209  -0.00223881  -0.43003160  1.0
  N  N12  1  -0.91415418  -0.12798487  -0.71567829  1.0
  N  N13  1  -0.08584582  -0.87201513  -0.28432171  1.0
  N  N14  1  -0.77252399  -0.85808513  -0.57600424  1.0
  N  N15  1  -0.22747601  -0.14191487  -0.42399576  1.0
  N  N16  1  -0.75397309  -0.06757915  -0.80593485  1.0
  N  N17  1  -0.24602691  -0.93242085  -0.19406515  1.0
  N  N18  1  -0.66568972  -0.90545036  -0.72449750  1.0
  N  N19  1  -0.33431028  -0.09454964  -0.27550250  1.0
  O  O20  1  -0.78544475  -0.49781417  -0.75314520  1.0
  O  O21  1  -0.21455525  -0.50218583  -0.24685480  1.0
  O  O22  1  -0.72589052  -0.70312434  -0.46769147  1.0
  O  O23  1  -0.27410948  -0.29687566  -0.53230853  1.0
  O  O24  1  -0.42729272  -0.69399173  -0.94221878  1.0
  O  O25  1  -0.57270728  -0.30600827  -0.05778122  1.0
