# generated using pymatgen
data_K3AlO3
_symmetry_space_group_name_H-M   'P 1'
_cell_length_a   6.60033173
_cell_length_b   6.60033173
_cell_length_c   6.55504114
_cell_angle_alpha   83.39535721
_cell_angle_beta   96.60464279
_cell_angle_gamma   64.22256173
_symmetry_Int_Tables_number   1
_chemical_formula_structural   K3AlO3
_chemical_formula_sum   'K6 Al2 O6'
_cell_volume   251.05780809
_cell_formula_units_Z   2
loop_
 _symmetry_equiv_pos_site_id
 _symmetry_equiv_pos_as_xyz
  1  'x, y, z'
loop_
 _atom_site_type_symbol
 _atom_site_label
 _atom_site_symmetry_multiplicity
 _atom_site_fract_x
 _atom_site_fract_y
 _atom_site_fract_z
 _atom_site_occupancy
  K  K0  1  0.62860722  -0.62860722  0.85208408  1.0
  K  K1  1  0.37139278  -0.37139278  0.14791592  1.0
  K  K2  1  0.73534098  -0.26465902  0.50000000  1.0
  K  K3  1  1.26465902  0.26465902  0.50000000  1.0
  K  K4  1  0.80124005  -0.19875995  0.00000000  1.0
  K  K5  1  1.19875995  0.19875995  0.00000000  1.0
  Al  Al6  1  0.83854562  -0.83854562  0.35357164  1.0
  Al  Al7  1  0.16145438  -0.16145438  0.64642836  1.0
  O  O8  1  0.41252876  -0.15115518  0.76275645  1.0
  O  O9  1  1.15115518  0.58747124  0.76275645  1.0
  O  O10  1  0.84884482  -0.58747124  0.23724355  1.0
  O  O11  1  1.58747124  0.15115518  0.23724355  1.0
  O  O12  1  0.89752679  -0.89752679  0.64283971  1.0
  O  O13  1  0.10247321  -0.10247321  0.35716029  1.0
