# generated using pymatgen
data_LiMoAsO6
_symmetry_space_group_name_H-M   'P 1'
_cell_length_a   9.55130693
_cell_length_b   5.01712576
_cell_length_c   9.09394784
_cell_angle_alpha   90.00000000
_cell_angle_beta   90.00000000
_cell_angle_gamma   90.00000000
_symmetry_Int_Tables_number   1
_chemical_formula_structural   LiMoAsO6
_chemical_formula_sum   'Li4 Mo4 As4 O24'
_cell_volume   435.78296270
_cell_formula_units_Z   4
loop_
 _symmetry_equiv_pos_site_id
 _symmetry_equiv_pos_as_xyz
  1  'x, y, z'
loop_
 _atom_site_type_symbol
 _atom_site_label
 _atom_site_symmetry_multiplicity
 _atom_site_fract_x
 _atom_site_fract_y
 _atom_site_fract_z
 _atom_site_occupancy
  Li  Li0  1  0.37827894  0.89347968  0.17772312  1.0
  Li  Li1  1  0.87827894  0.60652032  0.17772312  1.0
  Li  Li2  1  0.62172106  0.10652032  0.67772312  1.0
  Li  Li3  1  0.12172106  0.39347968  0.67772312  1.0
  Mo  Mo4  1  0.33774582  0.88925789  0.82343646  1.0
  Mo  Mo5  1  0.83774582  0.61074211  0.82343646  1.0
  Mo  Mo6  1  0.66225418  0.11074211  0.32343646  1.0
  Mo  Mo7  1  0.16225418  0.38925789  0.32343646  1.0
  As  As8  1  0.44853629  0.60142021  0.50405421  1.0
  As  As9  1  0.94853629  0.89857979  0.50405421  1.0
  As  As10  1  0.55146371  0.39857979  0.00405421  1.0
  As  As11  1  0.05146371  0.10142021  0.00405421  1.0
  O  O12  1  0.49631265  0.19931615  0.86041071  1.0
  O  O13  1  0.99631265  0.30068385  0.86041071  1.0
  O  O14  1  0.50368735  0.80068385  0.36041071  1.0
  O  O15  1  0.00368735  0.69931615  0.36041071  1.0
  O  O16  1  0.48378836  0.76623278  0.67129020  1.0
  O  O17  1  0.98378836  0.73376722  0.67129020  1.0
  O  O18  1  0.51621164  0.23376722  0.17129020  1.0
  O  O19  1  0.01621164  0.26623278  0.17129020  1.0
  O  O20  1  0.47421847  0.70891609  0.99824560  1.0
  O  O21  1  0.97421847  0.79108391  0.99824560  1.0
  O  O22  1  0.52578153  0.29108391  0.49824560  1.0
  O  O23  1  0.02578153  0.20891609  0.49824560  1.0
  O  O24  1  0.26446959  0.55057251  0.49715182  1.0
  O  O25  1  0.76446959  0.94942749  0.49715182  1.0
  O  O26  1  0.73553041  0.44942749  -0.00284818  1.0
  O  O27  1  0.23553041  0.05057251  -0.00284818  1.0
  O  O28  1  0.24907776  0.08149138  0.69941680  1.0
  O  O29  1  0.74907776  0.41850862  0.69941680  1.0
  O  O30  1  0.75092224  0.91850862  0.19941680  1.0
  O  O31  1  0.25092224  0.58149138  0.19941680  1.0
  O  O32  1  0.24569766  0.59817981  0.81757109  1.0
  O  O33  1  0.74569766  0.90182019  0.81757109  1.0
  O  O34  1  0.75430234  0.40182019  0.31757109  1.0
  O  O35  1  0.25430234  0.09817981  0.31757109  1.0
