# generated using pymatgen
data_Tc2As3
_symmetry_space_group_name_H-M   'P 1'
_cell_length_a   8.05544027
_cell_length_b   6.69179154
_cell_length_c   6.67270339
_cell_angle_alpha   104.48106820
_cell_angle_beta   101.62970325
_cell_angle_gamma   95.76777181
_symmetry_Int_Tables_number   1
_chemical_formula_structural   Tc2As3
_chemical_formula_sum   'Tc8 As12'
_cell_volume   336.77099526
_cell_formula_units_Z   4
loop_
 _symmetry_equiv_pos_site_id
 _symmetry_equiv_pos_as_xyz
  1  'x, y, z'
loop_
 _atom_site_type_symbol
 _atom_site_label
 _atom_site_symmetry_multiplicity
 _atom_site_fract_x
 _atom_site_fract_y
 _atom_site_fract_z
 _atom_site_occupancy
  Tc  Tc0  1  -0.87542280  -0.87658227  -0.58961437  1.0
  Tc  Tc1  1  -0.12457720  -0.12341773  -0.41038563  1.0
  Tc  Tc2  1  -0.63235277  -0.42950296  -0.86748119  1.0
  Tc  Tc3  1  -0.36764723  -0.57049704  -0.13251881  1.0
  Tc  Tc4  1  -0.86493626  -0.86465146  -0.03084013  1.0
  Tc  Tc5  1  -0.13506374  -0.13534854  -0.96915987  1.0
  Tc  Tc6  1  -0.35818634  -0.57319391  -0.58383926  1.0
  Tc  Tc7  1  -0.64181366  -0.42680609  -0.41616074  1.0
  As  As8  1  -0.18630742  -0.87163891  -0.64071228  1.0
  As  As9  1  -0.81369258  -0.12836109  -0.35928772  1.0
  As  As10  1  -0.88587022  -0.56611431  -0.73602829  1.0
  As  As11  1  -0.11412978  -0.43388569  -0.26397171  1.0
  As  As12  1  -0.82006606  -0.15529639  -0.87198575  1.0
  As  As13  1  -0.17993394  -0.84470361  -0.12801425  1.0
  As  As14  1  -0.53565692  -0.79313416  -0.95429621  1.0
  As  As15  1  -0.46434308  -0.20686584  -0.04570379  1.0
  As  As16  1  -0.84639404  -0.59268391  -0.23612672  1.0
  As  As17  1  -0.15360596  -0.40731609  -0.76387328  1.0
  As  As18  1  -0.54987179  -0.80979600  -0.46761785  1.0
  As  As19  1  -0.45012821  -0.19020400  -0.53238215  1.0
