# generated using pymatgen
data_PH10SN3O2
_symmetry_space_group_name_H-M   'P 1'
_cell_length_a   6.96664799
_cell_length_b   6.65108811
_cell_length_c   7.52729816
_cell_angle_alpha   107.05964578
_cell_angle_beta   94.90373398
_cell_angle_gamma   90.12701227
_symmetry_Int_Tables_number   1
_chemical_formula_structural   PH10SN3O2
_chemical_formula_sum   'P2 H20 S2 N6 O4'
_cell_volume   332.07990008
_cell_formula_units_Z   2
loop_
 _symmetry_equiv_pos_site_id
 _symmetry_equiv_pos_as_xyz
  1  'x, y, z'
loop_
 _atom_site_type_symbol
 _atom_site_label
 _atom_site_symmetry_multiplicity
 _atom_site_fract_x
 _atom_site_fract_y
 _atom_site_fract_z
 _atom_site_occupancy
  P  P0  1  -0.69832101  -0.83540040  -0.76346736  1.0
  P  P1  1  -0.30167899  -0.16459960  -0.23653264  1.0
  H  H2  1  -0.19004131  -0.90397322  -0.45069859  1.0
  H  H3  1  -0.80995869  -0.09602678  -0.54930141  1.0
  H  H4  1  -0.36057081  -0.88931356  -0.97722708  1.0
  H  H5  1  -0.63942919  -0.11068644  -0.02277292  1.0
  H  H6  1  -0.28160695  -0.75981691  -0.58893072  1.0
  H  H7  1  -0.71839305  -0.24018309  -0.41106928  1.0
  H  H8  1  -0.66391481  -0.72414733  -0.36128645  1.0
  H  H9  1  -0.33608519  -0.27585267  -0.63871355  1.0
  H  H10  1  -0.44612113  -0.50592440  -0.77172127  1.0
  H  H11  1  -0.55387887  -0.49407560  -0.22827873  1.0
  H  H12  1  -0.30615338  -0.36379148  -0.87331384  1.0
  H  H13  1  -0.69384662  -0.63620852  -0.12668616  1.0
  H  H14  1  -0.83976650  -0.36518026  -0.62453405  1.0
  H  H15  1  -0.16023350  -0.63481974  -0.37546595  1.0
  H  H16  1  -0.52070078  -0.26990227  -0.80447996  1.0
  H  H17  1  -0.47929922  -0.73009773  -0.19552004  1.0
  H  H18  1  -0.96636437  -0.21781379  -0.45101236  1.0
  H  H19  1  -0.03363563  -0.78218621  -0.54898764  1.0
  H  H20  1  -0.83916418  -0.15516007  -0.93633454  1.0
  H  H21  1  -0.16083582  -0.84483993  -0.06366546  1.0
  S  S22  1  -0.86877387  -0.65121281  -0.88276202  1.0
  S  S23  1  -0.13122613  -0.34878719  -0.11723798  1.0
  N  N24  1  -0.40265808  -0.35463016  -0.77211439  1.0
  N  N25  1  -0.59734192  -0.64536984  -0.22788561  1.0
  N  N26  1  -0.83361413  -0.23137365  -0.50790235  1.0
  N  N27  1  -0.16638587  -0.76862635  -0.49209765  1.0
  N  N28  1  -0.70130830  -0.09081622  -0.89928961  1.0
  N  N29  1  -0.29869170  -0.90918378  -0.10071039  1.0
  O  O30  1  -0.77905282  -0.84749860  -0.58051862  1.0
  O  O31  1  -0.22094718  -0.15250140  -0.41948138  1.0
  O  O32  1  -0.48538216  -0.75901638  -0.74009894  1.0
  O  O33  1  -0.51461784  -0.24098362  -0.25990106  1.0
