# generated using pymatgen
data_SiO2
_symmetry_space_group_name_H-M   'P 1'
_cell_length_a   5.13131735
_cell_length_b   5.13131735
_cell_length_c   5.13131735
_cell_angle_alpha   121.17499498
_cell_angle_beta   121.17499498
_cell_angle_gamma   87.97661881
_symmetry_Int_Tables_number   1
_chemical_formula_structural   SiO2
_chemical_formula_sum   'Si2 O4'
_cell_volume   93.77676560
_cell_formula_units_Z   2
loop_
 _symmetry_equiv_pos_site_id
 _symmetry_equiv_pos_as_xyz
  1  'x, y, z'
loop_
 _atom_site_type_symbol
 _atom_site_label
 _atom_site_symmetry_multiplicity
 _atom_site_fract_x
 _atom_site_fract_y
 _atom_site_fract_z
 _atom_site_occupancy
  Si  Si0  1  0.75000000  0.25000000  0.50000000  1.0
  Si  Si1  1  1.00000000  1.00000000  1.00000000  1.0
  O  O2  1  0.87500000  1.21543913  0.84043913  1.0
  O  O3  1  0.96543913  1.12500000  1.34043913  1.0
  O  O4  1  0.78456087  0.62500000  0.65956087  1.0
  O  O5  1  1.37500000  1.03456087  1.15956087  1.0
