# generated using pymatgen
data_NaCaAlOF6
_symmetry_space_group_name_H-M   'P 1'
_cell_length_a   5.65513309
_cell_length_b   5.72704086
_cell_length_c   16.52530776
_cell_angle_alpha   90.00000000
_cell_angle_beta   92.42596554
_cell_angle_gamma   90.00000000
_symmetry_Int_Tables_number   1
_chemical_formula_structural   NaCaAlOF6
_chemical_formula_sum   'Na4 Ca4 Al4 O4 F24'
_cell_volume   534.72840832
_cell_formula_units_Z   4
loop_
 _symmetry_equiv_pos_site_id
 _symmetry_equiv_pos_as_xyz
  1  'x, y, z'
loop_
 _atom_site_type_symbol
 _atom_site_label
 _atom_site_symmetry_multiplicity
 _atom_site_fract_x
 _atom_site_fract_y
 _atom_site_fract_z
 _atom_site_occupancy
  Na  Na0  1  0.26135965  0.30989378  0.24815369  1.0
  Na  Na1  1  0.26135965  0.19010622  0.74815369  1.0
  Na  Na2  1  0.73864035  0.80989378  0.25184631  1.0
  Na  Na3  1  0.73864035  0.69010622  0.75184631  1.0
  Ca  Ca4  1  0.25632485  0.76377449  0.38924158  1.0
  Ca  Ca5  1  0.25632485  0.73622551  0.88924158  1.0
  Ca  Ca6  1  0.74367515  0.26377449  0.11075842  1.0
  Ca  Ca7  1  0.74367515  0.23622551  0.61075842  1.0
  Al  Al8  1  0.22972070  0.78082214  0.13641893  1.0
  Al  Al9  1  0.22972070  0.71917786  0.63641893  1.0
  Al  Al10  1  0.77027930  0.28082214  0.36358107  1.0
  Al  Al11  1  0.77027930  0.21917786  0.86358107  1.0
  O  O12  1  0.41986134  0.42855645  0.00291883  1.0
  O  O13  1  0.41986134  0.07144355  0.50291883  1.0
  O  O14  1  0.58013866  0.92855645  0.49708117  1.0
  O  O15  1  0.58013866  0.57144355  0.99708117  1.0
  F  F16  1  0.05554983  0.50788166  0.12945377  1.0
  F  F17  1  0.05554983  0.99211834  0.62945377  1.0
  F  F18  1  0.94445017  0.00788166  0.37054623  1.0
  F  F19  1  0.94445017  0.49211834  0.87054623  1.0
  F  F20  1  0.04250147  0.45114076  0.35962948  1.0
  F  F21  1  0.04250147  0.04885924  0.85962948  1.0
  F  F22  1  0.95749853  0.95114076  0.14037052  1.0
  F  F23  1  0.95749853  0.54885924  0.64037052  1.0
  F  F24  1  0.21223693  0.76364647  0.24899993  1.0
  F  F25  1  0.21223693  0.73635353  0.74899993  1.0
  F  F26  1  0.78776307  0.26364647  0.25100007  1.0
  F  F27  1  0.78776307  0.23635353  0.75100007  1.0
  F  F28  1  0.22569311  0.81853161  0.02764171  1.0
  F  F29  1  0.22569311  0.68146839  0.52764171  1.0
  F  F30  1  0.77430689  0.31853161  0.47235829  1.0
  F  F31  1  0.77430689  0.18146839  0.97235829  1.0
  F  F32  1  0.49896469  0.59471223  0.15125983  1.0
  F  F33  1  0.49896469  0.90528777  0.65125983  1.0
  F  F34  1  0.50103531  0.09471223  0.34874017  1.0
  F  F35  1  0.50103531  0.40528777  0.84874017  1.0
  F  F36  1  0.58011270  0.54331818  0.34938447  1.0
  F  F37  1  0.58011270  0.95668182  0.84938447  1.0
  F  F38  1  0.41988730  0.04331818  0.15061553  1.0
  F  F39  1  0.41988730  0.45668182  0.65061553  1.0
