# generated using pymatgen
data_LaSi3Ir
_symmetry_space_group_name_H-M   'P 1'
_cell_length_a   5.80858186
_cell_length_b   5.80858186
_cell_length_c   5.80858186
_cell_angle_alpha   136.57136117
_cell_angle_beta   136.57136117
_cell_angle_gamma   63.09822798
_symmetry_Int_Tables_number   1
_chemical_formula_structural   LaSi3Ir
_chemical_formula_sum   'La1 Si3 Ir1'
_cell_volume   91.44538922
_cell_formula_units_Z   1
loop_
 _symmetry_equiv_pos_site_id
 _symmetry_equiv_pos_as_xyz
  1  'x, y, z'
loop_
 _atom_site_type_symbol
 _atom_site_label
 _atom_site_symmetry_multiplicity
 _atom_site_fract_x
 _atom_site_fract_y
 _atom_site_fract_z
 _atom_site_occupancy
  La  La0  1  0.58740889  0.58740889  1.00000000  1.0
  Si  Si1  1  0.85118215  0.35118215  0.50000000  1.0
  Si  Si2  1  0.35118215  0.85118215  0.50000000  1.0
  Si  Si3  1  0.00092632  0.00092632  0.00000000  1.0
  Ir  Ir4  1  0.24280048  0.24280048  0.00000000  1.0
