# generated using pymatgen
data_YInO3
_symmetry_space_group_name_H-M   'P 1'
_cell_length_a   6.34772385
_cell_length_b   6.34772385
_cell_length_c   12.35860759
_cell_angle_alpha   90.00000000
_cell_angle_beta   90.00000000
_cell_angle_gamma   120.00000000
_symmetry_Int_Tables_number   1
_chemical_formula_structural   YInO3
_chemical_formula_sum   'Y6 In6 O18'
_cell_volume   431.25706691
_cell_formula_units_Z   6
loop_
 _symmetry_equiv_pos_site_id
 _symmetry_equiv_pos_as_xyz
  1  'x, y, z'
loop_
 _atom_site_type_symbol
 _atom_site_label
 _atom_site_symmetry_multiplicity
 _atom_site_fract_x
 _atom_site_fract_y
 _atom_site_fract_z
 _atom_site_occupancy
  Y  Y0  1  0.33333333  0.66666667  0.03886713  1.0
  Y  Y1  1  0.33333333  0.66666667  0.53886713  1.0
  Y  Y2  1  0.66666667  0.33333333  0.03886713  1.0
  Y  Y3  1  0.66666667  0.33333333  0.53886713  1.0
  Y  Y4  1  0.00000000  0.00000000  0.00429341  1.0
  Y  Y5  1  0.00000000  0.00000000  0.50429341  1.0
  In  In6  1  0.66655819  0.66655819  0.27374136  1.0
  In  In7  1  0.66655819  -0.00000000  0.77374136  1.0
  In  In8  1  0.00000000  0.66655819  0.77374136  1.0
  In  In9  1  0.00000000  0.33344181  0.27374136  1.0
  In  In10  1  0.33344181  0.33344181  0.77374136  1.0
  In  In11  1  0.33344181  0.00000000  0.27374136  1.0
  O  O12  1  0.69384471  0.69384471  0.10158431  1.0
  O  O13  1  0.69384471  -0.00000000  0.60158431  1.0
  O  O14  1  0.00000000  0.69384471  0.60158431  1.0
  O  O15  1  -0.00000000  0.30615529  0.10158431  1.0
  O  O16  1  0.30615529  0.30615529  0.60158431  1.0
  O  O17  1  0.30615529  0.00000000  0.10158431  1.0
  O  O18  1  0.63770849  0.63770849  0.44380760  1.0
  O  O19  1  0.63770849  -0.00000000  0.94380760  1.0
  O  O20  1  0.00000000  0.63770849  0.94380760  1.0
  O  O21  1  0.00000000  0.36229151  0.44380760  1.0
  O  O22  1  0.36229151  0.36229151  0.94380760  1.0
  O  O23  1  0.36229151  0.00000000  0.44380760  1.0
  O  O24  1  0.33333333  0.66666667  0.24354773  1.0
  O  O25  1  0.33333333  0.66666667  0.74354773  1.0
  O  O26  1  0.66666667  0.33333333  0.24354773  1.0
  O  O27  1  0.66666667  0.33333333  0.74354773  1.0
  O  O28  1  -0.00000000  -0.00000000  0.30727705  1.0
  O  O29  1  0.00000000  -0.00000000  0.80727705  1.0
