# generated using pymatgen
data_B2PdO4
_symmetry_space_group_name_H-M   'P 1'
_cell_length_a   8.81027616
_cell_length_b   8.81027616
_cell_length_c   8.81027616
_cell_angle_alpha   96.13801015
_cell_angle_beta   96.13801015
_cell_angle_gamma   141.82740680
_symmetry_Int_Tables_number   1
_chemical_formula_structural   B2PdO4
_chemical_formula_sum   'B12 Pd6 O24'
_cell_volume   399.41475642
_cell_formula_units_Z   6
loop_
 _symmetry_equiv_pos_site_id
 _symmetry_equiv_pos_as_xyz
  1  'x, y, z'
loop_
 _atom_site_type_symbol
 _atom_site_label
 _atom_site_symmetry_multiplicity
 _atom_site_fract_x
 _atom_site_fract_y
 _atom_site_fract_z
 _atom_site_occupancy
  B  B0  1  1.61852006  1.65506675  1.66696230  1.0
  B  B1  1  0.76189555  0.59493325  0.46345331  1.0
  B  B2  1  0.40506675  0.86852006  1.16696230  1.0
  B  B3  1  1.04844224  1.38147994  1.03654669  1.0
  B  B4  1  1.13147994  1.29844224  1.53654669  1.0
  B  B5  1  0.98810445  0.95155776  0.33303770  1.0
  B  B6  1  1.34493325  1.01189555  0.96345331  1.0
  B  B7  1  0.70155776  0.23810445  0.83303770  1.0
  B  B8  1  0.87537255  0.62500000  0.75037255  1.0
  B  B9  1  0.37500000  1.12537255  1.25037255  1.0
  B  B10  1  0.87500000  0.12462745  0.74962745  1.0
  B  B11  1  0.87462745  1.12500000  1.24962745  1.0
  Pd  Pd12  1  1.45543427  1.62500000  1.33043427  1.0
  Pd  Pd13  1  1.37500000  0.70543427  0.83043427  1.0
  Pd  Pd14  1  0.87500000  1.54456573  1.16956573  1.0
  Pd  Pd15  1  1.29456573  1.12500000  0.66956573  1.0
  Pd  Pd16  1  0.00000000  0.00000000  0.00000000  1.0
  Pd  Pd17  1  0.75000000  0.25000000  0.50000000  1.0
  O  O18  1  0.63565038  0.52257490  0.73948998  1.0
  O  O19  1  0.96691508  0.72742510  0.61307548  1.0
  O  O20  1  1.27257490  1.88565038  1.23948998  1.0
  O  O21  1  1.10383960  0.36434962  0.88692452  1.0
  O  O22  1  1.11434962  1.35383960  1.38692452  1.0
  O  O23  1  0.78308492  0.89616040  1.26051002  1.0
  O  O24  1  0.47742510  1.21691508  1.11307548  1.0
  O  O25  1  1.64616040  1.03308492  0.76051002  1.0
  O  O26  1  0.58538214  0.31794723  0.40653642  1.0
  O  O27  1  0.83858919  0.93205277  1.76743492  1.0
  O  O28  1  1.06794723  0.83538214  0.90653642  1.0
  O  O29  1  0.82115428  0.41461786  0.73256508  1.0
  O  O30  1  0.16461786  0.07115428  0.23256508  1.0
  O  O31  1  0.91141081  1.17884572  1.59346358  1.0
  O  O32  1  0.68205277  1.08858919  1.26743492  1.0
  O  O33  1  0.92884572  1.16141081  1.09346358  1.0
  O  O34  1  1.62636036  1.62500000  1.50136036  1.0
  O  O35  1  1.37500000  0.87636036  1.00136036  1.0
  O  O36  1  0.87500000  1.37363964  0.99863964  1.0
  O  O37  1  1.12363964  1.12500000  0.49863964  1.0
  O  O38  1  1.28550985  1.62500000  1.16050985  1.0
  O  O39  1  1.37500000  1.53550985  1.66050985  1.0
  O  O40  1  0.87500000  0.71449015  0.33949015  1.0
  O  O41  1  1.46449015  1.12500000  0.83949015  1.0
