# generated using pymatgen
data_Cr4PN3O16
_symmetry_space_group_name_H-M   'P 1'
_cell_length_a   7.71972582
_cell_length_b   7.71972582
_cell_length_c   7.71972582
_cell_angle_alpha   84.57363375
_cell_angle_beta   84.57363375
_cell_angle_gamma   84.57363375
_symmetry_Int_Tables_number   1
_chemical_formula_structural   Cr4PN3O16
_chemical_formula_sum   'Cr4 P1 N3 O16'
_cell_volume   454.23166842
_cell_formula_units_Z   1
loop_
 _symmetry_equiv_pos_site_id
 _symmetry_equiv_pos_as_xyz
  1  'x, y, z'
loop_
 _atom_site_type_symbol
 _atom_site_label
 _atom_site_symmetry_multiplicity
 _atom_site_fract_x
 _atom_site_fract_y
 _atom_site_fract_z
 _atom_site_occupancy
  P  P0  1  -0.06500569  -0.06500569  -0.06500569  1.0
  N  N1  1  0.70020496  0.46529341  0.46529341  1.0
  N  N2  1  1.46529341  -0.29979504  0.46529341  1.0
  N  N3  1  1.46529341  0.46529341  -0.29979504  1.0
  Cr  Cr4  1  1.50729626  0.96263576  -0.03736424  1.0
  Cr  Cr5  1  0.96263576  1.50729626  -0.03736424  1.0
  Cr  Cr6  1  0.96263576  0.96263576  0.50729626  1.0
  Cr  Cr7  1  0.16912209  0.16912209  0.16912209  1.0
  O  O8  1  0.73789509  -0.01630162  -0.01630162  1.0
  O  O9  1  0.98369838  -0.26210491  -0.01630162  1.0
  O  O10  1  0.98369838  -0.01630162  -0.26210491  1.0
  O  O11  1  0.03967216  0.03967216  0.03967216  1.0
  O  O12  1  0.38566335  0.10430519  0.10430519  1.0
  O  O13  1  1.10430519  -0.61433665  0.10430519  1.0
  O  O14  1  1.10430519  0.10430519  -0.61433665  1.0
  O  O15  1  0.76832877  1.01754664  0.46314027  1.0
  O  O16  1  0.76832877  1.46314027  0.01754664  1.0
  O  O17  1  1.01754664  0.76832877  0.46314027  1.0
  O  O18  1  1.01754664  1.46314027  -0.23167123  1.0
  O  O19  1  1.46314027  1.01754664  -0.23167123  1.0
  O  O20  1  1.46314027  0.76832877  0.01754664  1.0
  O  O21  1  1.39619077  0.61803209  -0.38196791  1.0
  O  O22  1  0.61803209  1.39619077  -0.38196791  1.0
  O  O23  1  0.61803209  0.61803209  0.39619077  1.0
