# generated using pymatgen
data_BaBr2
_symmetry_space_group_name_H-M   'P 1'
_cell_length_a   10.06472781
_cell_length_b   5.07118479
_cell_length_c   16.72218110
_cell_angle_alpha   90.00000000
_cell_angle_beta   90.06624985
_cell_angle_gamma   90.00000000
_symmetry_Int_Tables_number   1
_chemical_formula_structural   BaBr2
_chemical_formula_sum   'Ba8 Br16'
_cell_volume   853.50113455
_cell_formula_units_Z   8
loop_
 _symmetry_equiv_pos_site_id
 _symmetry_equiv_pos_as_xyz
  1  'x, y, z'
loop_
 _atom_site_type_symbol
 _atom_site_label
 _atom_site_symmetry_multiplicity
 _atom_site_fract_x
 _atom_site_fract_y
 _atom_site_fract_z
 _atom_site_occupancy
  Ba  Ba0  1  0.61076791  0.25015244  0.37735562  1.0
  Ba  Ba1  1  0.61076791  0.24984756  0.87735562  1.0
  Ba  Ba2  1  0.38923209  0.75015244  0.12264438  1.0
  Ba  Ba3  1  0.38923209  0.74984756  0.62264438  1.0
  Ba  Ba4  1  0.88915585  0.25055990  0.12729889  1.0
  Ba  Ba5  1  0.88915585  0.24944010  0.62729889  1.0
  Ba  Ba6  1  0.11084415  0.75055990  0.37270111  1.0
  Ba  Ba7  1  0.11084415  0.74944010  0.87270111  1.0
  Br  Br8  1  0.33475079  0.24982431  0.48939538  1.0
  Br  Br9  1  0.33475079  0.25017569  0.98939538  1.0
  Br  Br10  1  0.66524921  0.74982431  0.01060462  1.0
  Br  Br11  1  0.66524921  0.75017569  0.51060462  1.0
  Br  Br12  1  0.57478767  0.25020355  0.17908210  1.0
  Br  Br13  1  0.57478767  0.24979645  0.67908210  1.0
  Br  Br14  1  0.42521233  0.75020355  0.32091790  1.0
  Br  Br15  1  0.42521233  0.74979645  0.82091790  1.0
  Br  Br16  1  0.83489493  0.75059641  0.26043180  1.0
  Br  Br17  1  0.83489493  0.74940359  0.76043180  1.0
  Br  Br18  1  0.16510507  0.25059641  0.23956820  1.0
  Br  Br19  1  0.16510507  0.24940359  0.73956820  1.0
  Br  Br20  1  0.92514495  0.25036790  0.42905194  1.0
  Br  Br21  1  0.92514495  0.24963210  0.92905194  1.0
  Br  Br22  1  0.07485505  0.75036790  0.07094806  1.0
  Br  Br23  1  0.07485505  0.74963210  0.57094806  1.0
