# generated using pymatgen
data_NaSn5
_symmetry_space_group_name_H-M   'P 1'
_cell_length_a   6.39646834
_cell_length_b   6.39646834
_cell_length_c   9.05283404
_cell_angle_alpha   90.00000000
_cell_angle_beta   90.00000000
_cell_angle_gamma   90.00000000
_symmetry_Int_Tables_number   1
_chemical_formula_structural   NaSn5
_chemical_formula_sum   'Na2 Sn10'
_cell_volume   370.39495897
_cell_formula_units_Z   2
loop_
 _symmetry_equiv_pos_site_id
 _symmetry_equiv_pos_as_xyz
  1  'x, y, z'
loop_
 _atom_site_type_symbol
 _atom_site_label
 _atom_site_symmetry_multiplicity
 _atom_site_fract_x
 _atom_site_fract_y
 _atom_site_fract_z
 _atom_site_occupancy
  Na  Na0  1  0.00000000  0.50000000  0.79229699  1.0
  Na  Na1  1  0.50000000  0.00000000  0.20770301  1.0
  Sn  Sn2  1  0.34215829  0.84215829  0.81797754  1.0
  Sn  Sn3  1  0.15784171  0.34215829  0.18202246  1.0
  Sn  Sn4  1  0.65784171  0.15784171  0.81797754  1.0
  Sn  Sn5  1  0.84215829  0.65784171  0.18202246  1.0
  Sn  Sn6  1  0.25065844  0.75065844  0.50400865  1.0
  Sn  Sn7  1  0.24934156  0.25065844  0.49599135  1.0
  Sn  Sn8  1  0.74934156  0.24934156  0.50400865  1.0
  Sn  Sn9  1  0.75065844  0.74934156  0.49599135  1.0
  Sn  Sn10  1  0.50000000  0.50000000  0.00000000  1.0
  Sn  Sn11  1  0.00000000  0.00000000  0.00000000  1.0
