# generated using pymatgen
data_Gd4Cd3Au10
_symmetry_space_group_name_H-M   'P 1'
_cell_length_a   8.64609381
_cell_length_b   8.64609381
_cell_length_c   10.20521848
_cell_angle_alpha   90.00000000
_cell_angle_beta   90.00000000
_cell_angle_gamma   71.83266717
_symmetry_Int_Tables_number   1
_chemical_formula_structural   Gd4Cd3Au10
_chemical_formula_sum   'Gd8 Cd6 Au20'
_cell_volume   724.86036621
_cell_formula_units_Z   2
loop_
 _symmetry_equiv_pos_site_id
 _symmetry_equiv_pos_as_xyz
  1  'x, y, z'
loop_
 _atom_site_type_symbol
 _atom_site_label
 _atom_site_symmetry_multiplicity
 _atom_site_fract_x
 _atom_site_fract_y
 _atom_site_fract_z
 _atom_site_occupancy
  Gd  Gd0  1  -0.19729679  1.19729679  0.29635844  1.0
  Gd  Gd1  1  0.30270321  0.69729679  0.20364156  1.0
  Gd  Gd2  1  0.19729679  0.80270321  0.70364156  1.0
  Gd  Gd3  1  -0.30270321  1.30270321  0.79635844  1.0
  Gd  Gd4  1  0.19929576  1.19929576  0.50000000  1.0
  Gd  Gd5  1  -0.30070424  0.69929576  0.00000000  1.0
  Gd  Gd6  1  -0.19929576  0.80070424  0.50000000  1.0
  Gd  Gd7  1  0.30070424  1.30070424  0.00000000  1.0
  Cd  Cd8  1  -0.48036880  0.98036880  0.25000000  1.0
  Cd  Cd9  1  0.01963120  1.48036880  0.25000000  1.0
  Cd  Cd10  1  -0.01963120  0.51963120  0.75000000  1.0
  Cd  Cd11  1  0.48036880  1.01963120  0.75000000  1.0
  Cd  Cd12  1  -0.50000000  0.50000000  0.50000000  1.0
  Cd  Cd13  1  0.00000000  1.00000000  0.00000000  1.0
  Au  Au14  1  0.38335404  1.33626709  0.29086619  1.0
  Au  Au15  1  -0.11664596  0.83626709  0.20913381  1.0
  Au  Au16  1  0.33626709  1.38335404  0.70913381  1.0
  Au  Au17  1  -0.16373291  0.88335404  0.79086619  1.0
  Au  Au18  1  -0.33626709  0.61664596  0.29086619  1.0
  Au  Au19  1  0.16373291  1.11664596  0.20913381  1.0
  Au  Au20  1  -0.38335404  0.66373291  0.70913381  1.0
  Au  Au21  1  0.11664596  1.16373291  0.79086619  1.0
  Au  Au22  1  0.43076100  0.84952729  0.48721462  1.0
  Au  Au23  1  -0.06923900  1.34952729  0.01278538  1.0
  Au  Au24  1  -0.15047271  1.43076100  0.51278538  1.0
  Au  Au25  1  0.34952729  0.93076100  0.98721462  1.0
  Au  Au26  1  0.15047271  0.56923900  0.48721462  1.0
  Au  Au27  1  -0.34952729  1.06923900  0.01278538  1.0
  Au  Au28  1  -0.43076100  1.15047271  0.51278538  1.0
  Au  Au29  1  0.06923900  0.65047271  0.98721462  1.0
  Au  Au30  1  -0.40242332  1.40242332  0.09513937  1.0
  Au  Au31  1  0.09757668  0.90242332  0.40486063  1.0
  Au  Au32  1  0.40242332  0.59757668  0.90486063  1.0
  Au  Au33  1  -0.09757668  1.09757668  0.59513937  1.0
