# generated using pymatgen
data_Y3CuSnS7
_symmetry_space_group_name_H-M   'P 1'
_cell_length_a   9.76111284
_cell_length_b   9.76111284
_cell_length_c   6.27086386
_cell_angle_alpha   90.00000000
_cell_angle_beta   90.00000000
_cell_angle_gamma   120.00000000
_symmetry_Int_Tables_number   1
_chemical_formula_structural   Y3CuSnS7
_chemical_formula_sum   'Y6 Cu2 Sn2 S14'
_cell_volume   517.43603495
_cell_formula_units_Z   2
loop_
 _symmetry_equiv_pos_site_id
 _symmetry_equiv_pos_as_xyz
  1  'x, y, z'
loop_
 _atom_site_type_symbol
 _atom_site_label
 _atom_site_symmetry_multiplicity
 _atom_site_fract_x
 _atom_site_fract_y
 _atom_site_fract_z
 _atom_site_occupancy
  Y  Y0  1  0.20944191  0.84996045  0.05324714  1.0
  Y  Y1  1  0.84996045  0.64051854  0.55324714  1.0
  Y  Y2  1  0.64051854  0.79055809  0.05324714  1.0
  Y  Y3  1  0.15003955  0.35948146  0.05324714  1.0
  Y  Y4  1  0.79055809  0.15003955  0.55324714  1.0
  Y  Y5  1  0.35948146  0.20944191  0.55324714  1.0
  Cu  Cu6  1  0.00000000  0.00000000  -0.06143242  1.0
  Cu  Cu7  1  0.00000000  0.00000000  0.43856758  1.0
  Sn  Sn8  1  0.33333333  0.66666667  0.61769250  1.0
  Sn  Sn9  1  0.66666667  0.33333333  0.11769250  1.0
  S  S10  1  0.88463698  0.73796052  -0.02850868  1.0
  S  S11  1  0.73796052  0.85332354  0.47149132  1.0
  S  S12  1  0.85332354  0.11536302  -0.02850868  1.0
  S  S13  1  0.26203948  0.14667646  -0.02850868  1.0
  S  S14  1  0.11536302  0.26203948  0.47149132  1.0
  S  S15  1  0.14667646  0.88463698  0.47149132  1.0
  S  S16  1  0.56307383  0.48087440  0.30125446  1.0
  S  S17  1  0.48087440  0.91780057  0.80125446  1.0
  S  S18  1  0.91780057  0.43692617  0.30125446  1.0
  S  S19  1  0.51912560  0.08219943  0.30125446  1.0
  S  S20  1  0.43692617  0.51912560  0.80125446  1.0
  S  S21  1  0.08219943  0.56307383  0.80125446  1.0
  S  S22  1  0.33333333  0.66666667  0.23376117  1.0
  S  S23  1  0.66666667  0.33333333  0.73376117  1.0
