# generated using pymatgen
data_Ba(MgP)2
_symmetry_space_group_name_H-M   'P 1'
_cell_length_a   4.38190179
_cell_length_b   4.38190179
_cell_length_c   7.60414022
_cell_angle_alpha   90.00000000
_cell_angle_beta   90.00000000
_cell_angle_gamma   120.00000000
_symmetry_Int_Tables_number   1
_chemical_formula_structural   Ba(MgP)2
_chemical_formula_sum   'Ba1 Mg2 P2'
_cell_volume   126.44627138
_cell_formula_units_Z   1
loop_
 _symmetry_equiv_pos_site_id
 _symmetry_equiv_pos_as_xyz
  1  'x, y, z'
loop_
 _atom_site_type_symbol
 _atom_site_label
 _atom_site_symmetry_multiplicity
 _atom_site_fract_x
 _atom_site_fract_y
 _atom_site_fract_z
 _atom_site_occupancy
  Ba  Ba0  1  0.00000000  0.00000000  0.00000000  1.0
  Mg  Mg1  1  0.33333333  0.66666667  0.62299762  1.0
  Mg  Mg2  1  0.66666667  0.33333333  0.37700238  1.0
  P  P3  1  0.33333333  0.66666667  0.27634582  1.0
  P  P4  1  0.66666667  0.33333333  0.72365418  1.0
