# generated using pymatgen
data_Mg2CrB2Ir5
_symmetry_space_group_name_H-M   'P 1'
_cell_length_a   9.47373152
_cell_length_b   9.47373152
_cell_length_c   2.89253819
_cell_angle_alpha   90.00000000
_cell_angle_beta   90.00000000
_cell_angle_gamma   90.00000000
_symmetry_Int_Tables_number   1
_chemical_formula_structural   Mg2CrB2Ir5
_chemical_formula_sum   'Mg4 Cr2 B4 Ir10'
_cell_volume   259.60989869
_cell_formula_units_Z   2
loop_
 _symmetry_equiv_pos_site_id
 _symmetry_equiv_pos_as_xyz
  1  'x, y, z'
loop_
 _atom_site_type_symbol
 _atom_site_label
 _atom_site_symmetry_multiplicity
 _atom_site_fract_x
 _atom_site_fract_y
 _atom_site_fract_z
 _atom_site_occupancy
  Mg  Mg0  1  0.32315339  0.17684661  0.00000000  1.0
  Mg  Mg1  1  0.82315339  0.32315339  0.00000000  1.0
  Mg  Mg2  1  0.67684661  0.82315339  0.00000000  1.0
  Mg  Mg3  1  0.17684661  0.67684661  0.00000000  1.0
  Cr  Cr4  1  0.50000000  0.50000000  0.00000000  1.0
  Cr  Cr5  1  0.00000000  0.00000000  0.00000000  1.0
  B  B6  1  0.87536969  0.62463031  0.00000000  1.0
  B  B7  1  0.37536969  0.87536969  0.00000000  1.0
  B  B8  1  0.12463031  0.37536969  0.00000000  1.0
  B  B9  1  0.62463031  0.12463031  0.00000000  1.0
  Ir  Ir10  1  0.42877209  0.71427646  0.50000000  1.0
  Ir  Ir11  1  0.92877209  0.78572354  0.50000000  1.0
  Ir  Ir12  1  0.28572354  0.42877209  0.50000000  1.0
  Ir  Ir13  1  0.78572354  0.07122791  0.50000000  1.0
  Ir  Ir14  1  0.57122791  0.28572354  0.50000000  1.0
  Ir  Ir15  1  0.07122791  0.21427646  0.50000000  1.0
  Ir  Ir16  1  0.71427646  0.57122791  0.50000000  1.0
  Ir  Ir17  1  0.21427646  0.92877209  0.50000000  1.0
  Ir  Ir18  1  0.50000000  0.00000000  0.50000000  1.0
  Ir  Ir19  1  0.00000000  0.50000000  0.50000000  1.0
