# generated using pymatgen
data_LaLuO3
_symmetry_space_group_name_H-M   'P 1'
_cell_length_a   6.05344633
_cell_length_b   8.45754422
_cell_length_c   5.85479233
_cell_angle_alpha   90.00000000
_cell_angle_beta   90.00000000
_cell_angle_gamma   90.00000000
_symmetry_Int_Tables_number   1
_chemical_formula_structural   LaLuO3
_chemical_formula_sum   'La4 Lu4 O12'
_cell_volume   299.74950083
_cell_formula_units_Z   4
loop_
 _symmetry_equiv_pos_site_id
 _symmetry_equiv_pos_as_xyz
  1  'x, y, z'
loop_
 _atom_site_type_symbol
 _atom_site_label
 _atom_site_symmetry_multiplicity
 _atom_site_fract_x
 _atom_site_fract_y
 _atom_site_fract_z
 _atom_site_occupancy
  La  La0  1  0.04881808  0.75000000  0.51532790  1.0
  La  La1  1  0.54881808  0.75000000  0.98467210  1.0
  La  La2  1  0.95118192  0.25000000  0.48467210  1.0
  La  La3  1  0.45118192  0.25000000  0.01532790  1.0
  Lu  Lu4  1  0.50000000  0.00000000  0.50000000  1.0
  Lu  Lu5  1  0.50000000  0.50000000  0.50000000  1.0
  Lu  Lu6  1  0.00000000  0.00000000  0.00000000  1.0
  Lu  Lu7  1  0.00000000  0.50000000  0.00000000  1.0
  O  O8  1  0.30359343  0.93432671  0.80523669  1.0
  O  O9  1  0.30359343  0.56567329  0.80523669  1.0
  O  O10  1  0.80359343  0.93432671  0.69476331  1.0
  O  O11  1  0.80359343  0.56567329  0.69476331  1.0
  O  O12  1  0.69640657  0.43432671  0.19476331  1.0
  O  O13  1  0.69640657  0.06567329  0.19476331  1.0
  O  O14  1  0.19640657  0.43432671  0.30523669  1.0
  O  O15  1  0.19640657  0.06567329  0.30523669  1.0
  O  O16  1  0.94661476  0.75000000  0.12318933  1.0
  O  O17  1  0.44661476  0.75000000  0.37681067  1.0
  O  O18  1  0.05338524  0.25000000  0.87681067  1.0
  O  O19  1  0.55338524  0.25000000  0.62318933  1.0
