# generated using pymatgen
data_H14PbC5Br3N2OF
_symmetry_space_group_name_H-M   'P 1'
_cell_length_a   14.07473869
_cell_length_b   11.88646314
_cell_length_c   4.53972946
_cell_angle_alpha   84.88559768
_cell_angle_beta   81.44859080
_cell_angle_gamma   84.83963929
_symmetry_Int_Tables_number   1
_chemical_formula_structural   H14PbC5Br3N2OF
_chemical_formula_sum   'H28 Pb2 C10 Br6 N4 O2 F2'
_cell_volume   745.78714309
_cell_formula_units_Z   2
loop_
 _symmetry_equiv_pos_site_id
 _symmetry_equiv_pos_as_xyz
  1  'x, y, z'
loop_
 _atom_site_type_symbol
 _atom_site_label
 _atom_site_symmetry_multiplicity
 _atom_site_fract_x
 _atom_site_fract_y
 _atom_site_fract_z
 _atom_site_occupancy
  H  H0  1  -0.89124133  -0.27548960  -0.08801094  1.0
  H  H1  1  -0.10875867  -0.72451040  -0.91198906  1.0
  H  H2  1  -0.99686328  -0.32850290  -0.19019891  1.0
  H  H3  1  -0.00313672  -0.67149710  -0.80980109  1.0
  H  H4  1  -0.99179096  -0.13466259  -0.78393237  1.0
  H  H5  1  -0.00820904  -0.86533741  -0.21606763  1.0
  H  H6  1  -0.00967937  -0.11545270  -0.16430168  1.0
  H  H7  1  -0.99032063  -0.88454730  -0.83569833  1.0
  H  H8  1  -0.66152766  -0.72395858  -0.80716187  1.0
  H  H9  1  -0.33847234  -0.27604142  -0.19283813  1.0
  H  H10  1  -0.77845768  -0.49723606  -0.22232740  1.0
  H  H11  1  -0.22154232  -0.50276394  -0.77767260  1.0
  H  H12  1  -0.77336062  -0.41459601  -0.57043857  1.0
  H  H13  1  -0.22663938  -0.58540399  -0.42956143  1.0
  H  H14  1  -0.85292517  -0.52677739  -0.49008157  1.0
  H  H15  1  -0.14707483  -0.47322261  -0.50991843  1.0
  H  H16  1  -0.55717456  -0.61669821  -0.70277238  1.0
  H  H17  1  -0.44282544  -0.38330179  -0.29722762  1.0
  H  H18  1  -0.59706106  -0.46831987  -0.72760453  1.0
  H  H19  1  -0.40293894  -0.53168013  -0.27239547  1.0
  H  H20  1  -0.59341045  -0.54404674  -0.37171615  1.0
  H  H21  1  -0.40658955  -0.45595326  -0.62828385  1.0
  H  H22  1  -0.14127514  -0.23000245  -0.67163748  1.0
  H  H23  1  -0.85872486  -0.76999755  -0.32836252  1.0
  H  H24  1  -0.15857247  -0.09944820  -0.82684014  1.0
  H  H25  1  -0.84142753  -0.90055180  -0.17315986  1.0
  H  H26  1  -0.15857230  -0.21171126  -0.03629118  1.0
  H  H27  1  -0.84142770  -0.78828874  -0.96370882  1.0
  Pb  Pb28  1  -0.37228789  -0.91174927  -0.33626840  1.0
  Pb  Pb29  1  -0.62771211  -0.08825073  -0.66373160  1.0
  C  C30  1  -0.96830564  -0.28633304  -0.02010023  1.0
  C  C31  1  -0.03169436  -0.71366696  -0.97989977  1.0
  C  C32  1  -0.02063070  -0.17262543  -0.96049897  1.0
  C  C33  1  -0.97936930  -0.82737457  -0.03950103  1.0
  C  C34  1  -0.72572831  -0.67350294  -0.70473203  1.0
  C  C35  1  -0.27427169  -0.32649706  -0.29526797  1.0
  C  C36  1  -0.78276892  -0.49994186  -0.46142425  1.0
  C  C37  1  -0.21723108  -0.50005814  -0.53857575  1.0
  C  C38  1  -0.60769332  -0.55058382  -0.60092518  1.0
  C  C39  1  -0.39230668  -0.44941618  -0.39907482  1.0
  Br  Br40  1  -0.39058701  -0.09369582  -0.78366926  1.0
  Br  Br41  1  -0.60941299  -0.90630418  -0.21633074  1.0
  Br  Br42  1  -0.16485776  -0.95717694  -0.43775015  1.0
  Br  Br43  1  -0.83514224  -0.04282306  -0.56224985  1.0
  Br  Br44  1  -0.36792022  -0.74009478  -0.88037079  1.0
  Br  Br45  1  -0.63207978  -0.25990522  -0.11962921  1.0
  N  N46  1  -0.12639046  -0.17939820  -0.87009247  1.0
  N  N47  1  -0.87360954  -0.82060180  -0.12990753  1.0
  N  N48  1  -0.70655547  -0.57884423  -0.59502653  1.0
  N  N49  1  -0.29344453  -0.42115577  -0.40497347  1.0
  O  O50  1  -0.80914333  -0.70515787  -0.69689361  1.0
  O  O51  1  -0.19085667  -0.29484213  -0.30310639  1.0
  F  F52  1  -0.97809127  -0.35983975  -0.75378347  1.0
  F  F53  1  -0.02190873  -0.64016025  -0.24621653  1.0
