# generated using pymatgen
data_Al3Co(W3C)3
_symmetry_space_group_name_H-M   'P 1'
_cell_length_a   7.92282606
_cell_length_b   7.92282606
_cell_length_c   7.83951387
_cell_angle_alpha   90.00000000
_cell_angle_beta   90.00000000
_cell_angle_gamma   120.00000000
_symmetry_Int_Tables_number   1
_chemical_formula_structural   Al3Co(W3C)3
_chemical_formula_sum   'Al6 Co2 W18 C6'
_cell_volume   426.16718642
_cell_formula_units_Z   2
loop_
 _symmetry_equiv_pos_site_id
 _symmetry_equiv_pos_as_xyz
  1  'x, y, z'
loop_
 _atom_site_type_symbol
 _atom_site_label
 _atom_site_symmetry_multiplicity
 _atom_site_fract_x
 _atom_site_fract_y
 _atom_site_fract_z
 _atom_site_occupancy
  Al  Al0  1  0.11009346  0.88990654  0.25000000  1.0
  Al  Al1  1  0.11009346  0.22018692  0.25000000  1.0
  Al  Al2  1  0.77981308  0.88990654  0.25000000  1.0
  Al  Al3  1  0.88990654  0.11009346  0.75000000  1.0
  Al  Al4  1  0.88990654  0.77981308  0.75000000  1.0
  Al  Al5  1  0.22018692  0.11009346  0.75000000  1.0
  Co  Co6  1  0.00000000  0.00000000  0.50000000  1.0
  Co  Co7  1  -0.00000000  -0.00000000  -0.00000000  1.0
  W  W8  1  0.79578759  0.20421241  0.42935582  1.0
  W  W9  1  0.79578759  0.59157518  0.42935582  1.0
  W  W10  1  0.40842482  0.20421241  0.42935582  1.0
  W  W11  1  0.20421241  0.79578759  0.57064418  1.0
  W  W12  1  0.20421241  0.40842482  0.57064418  1.0
  W  W13  1  0.59157518  0.79578759  0.57064418  1.0
  W  W14  1  0.20421241  0.79578759  0.92935582  1.0
  W  W15  1  0.20421241  0.40842482  0.92935582  1.0
  W  W16  1  0.59157518  0.79578759  0.92935582  1.0
  W  W17  1  0.79578759  0.20421241  0.07064418  1.0
  W  W18  1  0.79578759  0.59157518  0.07064418  1.0
  W  W19  1  0.40842482  0.20421241  0.07064418  1.0
  W  W20  1  0.55137879  0.44862121  0.75000000  1.0
  W  W21  1  0.55137879  0.10275758  0.75000000  1.0
  W  W22  1  0.89724242  0.44862121  0.75000000  1.0
  W  W23  1  0.44862121  0.55137879  0.25000000  1.0
  W  W24  1  0.44862121  0.89724242  0.25000000  1.0
  W  W25  1  0.10275758  0.55137879  0.25000000  1.0
  C  C26  1  -0.00000000  0.50000000  0.50000000  1.0
  C  C27  1  0.50000000  0.50000000  0.50000000  1.0
  C  C28  1  0.50000000  0.00000000  0.50000000  1.0
  C  C29  1  -0.00000000  0.50000000  0.00000000  1.0
  C  C30  1  0.50000000  0.50000000  -0.00000000  1.0
  C  C31  1  0.50000000  -0.00000000  0.00000000  1.0
