# generated using pymatgen
data_PbC2(SN)2
_symmetry_space_group_name_H-M   'P 1'
_cell_length_a   6.01285748
_cell_length_b   6.01285748
_cell_length_c   8.37501050
_cell_angle_alpha   90.70551005
_cell_angle_beta   89.29448995
_cell_angle_gamma   113.67599772
_symmetry_Int_Tables_number   1
_chemical_formula_structural   PbC2(SN)2
_chemical_formula_sum   'Pb2 C4 S4 N4'
_cell_volume   277.27804687
_cell_formula_units_Z   2
loop_
 _symmetry_equiv_pos_site_id
 _symmetry_equiv_pos_as_xyz
  1  'x, y, z'
loop_
 _atom_site_type_symbol
 _atom_site_label
 _atom_site_symmetry_multiplicity
 _atom_site_fract_x
 _atom_site_fract_y
 _atom_site_fract_z
 _atom_site_occupancy
  Pb  Pb0  1  0.90207686  -0.09792314  0.25000000  1.0
  Pb  Pb1  1  1.09792314  0.09792314  0.75000000  1.0
  C  C2  1  1.47929709  0.24026049  0.39541336  1.0
  C  C3  1  0.75973951  -0.47929709  0.89541336  1.0
  C  C4  1  1.24026049  0.47929709  0.10458664  1.0
  C  C5  1  0.52070291  -0.24026049  0.60458664  1.0
  S  S6  1  0.35121215  -0.24156614  0.17046679  1.0
  S  S7  1  1.24156614  0.64878785  0.67046679  1.0
  S  S8  1  0.75843386  -0.64878785  0.32953321  1.0
  S  S9  1  1.64878785  0.24156614  0.82953321  1.0
  N  N10  1  1.27471830  0.15585689  0.44232185  1.0
  N  N11  1  0.84414311  -0.27471830  0.94232185  1.0
  N  N12  1  1.15585689  0.27471830  0.05767815  1.0
  N  N13  1  0.72528170  -0.15585689  0.55767815  1.0
