# generated using pymatgen
data_KBF4
_symmetry_space_group_name_H-M   'P 1'
_cell_length_a   8.81116784
_cell_length_b   5.62695841
_cell_length_c   7.17131590
_cell_angle_alpha   90.00000000
_cell_angle_beta   90.00000000
_cell_angle_gamma   90.00000000
_symmetry_Int_Tables_number   1
_chemical_formula_structural   KBF4
_chemical_formula_sum   'K4 B4 F16'
_cell_volume   355.55437966
_cell_formula_units_Z   4
loop_
 _symmetry_equiv_pos_site_id
 _symmetry_equiv_pos_as_xyz
  1  'x, y, z'
loop_
 _atom_site_type_symbol
 _atom_site_label
 _atom_site_symmetry_multiplicity
 _atom_site_fract_x
 _atom_site_fract_y
 _atom_site_fract_z
 _atom_site_occupancy
  K  K0  1  0.31506534  0.75000000  0.15937482  1.0
  K  K1  1  0.81506534  0.75000000  0.34062518  1.0
  K  K2  1  0.68493466  0.25000000  0.84062518  1.0
  K  K3  1  0.18493466  0.25000000  0.65937482  1.0
  B  B4  1  0.43924051  0.75000000  0.68803893  1.0
  B  B5  1  0.93924051  0.75000000  0.81196107  1.0
  B  B6  1  0.56075949  0.25000000  0.31196107  1.0
  B  B7  1  0.06075949  0.25000000  0.18803893  1.0
  F  F8  1  0.42349235  0.95560291  0.80280505  1.0
  F  F9  1  0.42349235  0.54439709  0.80280505  1.0
  F  F10  1  0.92349235  0.95560291  0.69719495  1.0
  F  F11  1  0.92349235  0.54439709  0.69719495  1.0
  F  F12  1  0.57650765  0.45560291  0.19719495  1.0
  F  F13  1  0.57650765  0.04439709  0.19719495  1.0
  F  F14  1  0.07650765  0.45560291  0.30280505  1.0
  F  F15  1  0.07650765  0.04439709  0.30280505  1.0
  F  F16  1  0.32337791  0.75000000  0.55183702  1.0
  F  F17  1  0.82337791  0.75000000  0.94816298  1.0
  F  F18  1  0.67662209  0.25000000  0.44816298  1.0
  F  F19  1  0.17662209  0.25000000  0.05183702  1.0
  F  F20  1  0.08361343  0.75000000  0.89545925  1.0
  F  F21  1  0.58361343  0.75000000  0.60454075  1.0
  F  F22  1  0.91638657  0.25000000  0.10454075  1.0
  F  F23  1  0.41638657  0.25000000  0.39545925  1.0
