# generated using pymatgen
data_BaMg2V2O8
_symmetry_space_group_name_H-M   'P 1'
_cell_length_a   9.84780160
_cell_length_b   9.84780160
_cell_length_c   9.84780160
_cell_angle_alpha   100.94862532
_cell_angle_beta   100.94862532
_cell_angle_gamma   128.32654344
_symmetry_Int_Tables_number   1
_chemical_formula_structural   BaMg2V2O8
_chemical_formula_sum   'Ba4 Mg8 V8 O32'
_cell_volume   674.32060724
_cell_formula_units_Z   4
loop_
 _symmetry_equiv_pos_site_id
 _symmetry_equiv_pos_as_xyz
  1  'x, y, z'
loop_
 _atom_site_type_symbol
 _atom_site_label
 _atom_site_symmetry_multiplicity
 _atom_site_fract_x
 _atom_site_fract_y
 _atom_site_fract_z
 _atom_site_occupancy
  Ba  Ba0  1  0.50000000  0.50000000  1.00000000  1.0
  Ba  Ba1  1  1.00000000  1.00000000  1.00000000  1.0
  Ba  Ba2  1  0.75000000  1.25000000  0.50000000  1.0
  Ba  Ba3  1  0.25000000  0.75000000  0.50000000  1.0
  Mg  Mg4  1  0.91820595  0.91820595  1.33641190  1.0
  Mg  Mg5  1  1.41820595  1.08179405  1.00000000  1.0
  Mg  Mg6  1  1.16820595  0.66820595  0.83641190  1.0
  Mg  Mg7  1  0.66820595  0.83179405  1.50000000  1.0
  Mg  Mg8  1  0.83179405  0.33179405  1.16358810  1.0
  Mg  Mg9  1  1.33179405  1.16820595  1.50000000  1.0
  Mg  Mg10  1  1.58179405  1.58179405  1.66358810  1.0
  Mg  Mg11  1  1.08179405  0.41820595  1.00000000  1.0
  V  V12  1  0.70571415  0.37500000  0.83071415  1.0
  V  V13  1  1.20571415  1.37500000  1.33071415  1.0
  V  V14  1  1.62500000  1.45571415  1.33071415  1.0
  V  V15  1  1.12500000  0.79428585  1.16928585  1.0
  V  V16  1  1.04428585  0.87500000  1.66928585  1.0
  V  V17  1  1.54428585  0.87500000  1.16928585  1.0
  V  V18  1  1.62500000  0.95571415  0.83071415  1.0
  V  V19  1  1.12500000  1.29428585  1.66928585  1.0
  O  O20  1  1.64939208  1.31294030  0.97957446  1.0
  O  O21  1  1.14939208  1.16981762  1.33645178  1.0
  O  O22  1  1.56294030  1.39939208  1.47957446  1.0
  O  O23  1  1.06294030  0.58336584  1.16354822  1.0
  O  O24  1  1.10060792  0.93705970  1.52042554  1.0
  O  O25  1  1.60060792  1.08018238  1.16354822  1.0
  O  O26  1  1.18705970  0.85060792  1.02042554  1.0
  O  O27  1  0.68705970  0.66663416  1.33645178  1.0
  O  O28  1  1.83336584  1.81294030  1.66354822  1.0
  O  O29  1  1.33336584  0.66981762  1.02042554  1.0
  O  O30  1  1.41981762  0.89939208  0.83645178  1.0
  O  O31  1  0.91981762  1.08336584  1.52042554  1.0
  O  O32  1  0.91663416  0.43705970  0.83645178  1.0
  O  O33  1  1.41663416  1.58018238  1.47957446  1.0
  O  O34  1  1.33018238  1.35060792  1.66354822  1.0
  O  O35  1  0.83018238  0.16663416  0.97957446  1.0
  O  O36  1  1.02996121  0.36961508  1.33544094  1.0
  O  O37  1  1.52996121  1.19452027  1.66034613  1.0
  O  O38  1  0.61961508  0.77996121  0.83544094  1.0
  O  O39  1  1.11961508  1.28417414  0.83965387  1.0
  O  O40  1  0.72003879  0.88038492  1.16455906  1.0
  O  O41  1  1.22003879  1.05547973  0.83965387  1.0
  O  O42  1  1.13038492  1.47003879  0.66455906  1.0
  O  O43  1  0.63038492  0.96582586  0.66034613  1.0
  O  O44  1  0.53417414  0.86961508  0.33965387  1.0
  O  O45  1  0.03417414  0.69452027  0.66455906  1.0
  O  O46  1  1.44452027  1.27996121  1.16034613  1.0
  O  O47  1  0.94452027  0.78417414  1.16455906  1.0
  O  O48  1  1.21582586  1.38038492  1.16034613  1.0
  O  O49  1  0.71582586  0.55547973  0.83544094  1.0
  O  O50  1  1.30547973  0.97003879  1.33965387  1.0
  O  O51  1  1.80547973  1.46582586  1.33544094  1.0
