# generated using pymatgen
data_Bi2S3
_symmetry_space_group_name_H-M   'P 1'
_cell_length_a   11.79010911
_cell_length_b   4.01385450
_cell_length_c   11.16642870
_cell_angle_alpha   90.00000000
_cell_angle_beta   90.00000000
_cell_angle_gamma   90.00000000
_symmetry_Int_Tables_number   1
_chemical_formula_structural   Bi2S3
_chemical_formula_sum   'Bi8 S12'
_cell_volume   528.43764275
_cell_formula_units_Z   4
loop_
 _symmetry_equiv_pos_site_id
 _symmetry_equiv_pos_as_xyz
  1  'x, y, z'
loop_
 _atom_site_type_symbol
 _atom_site_label
 _atom_site_symmetry_multiplicity
 _atom_site_fract_x
 _atom_site_fract_y
 _atom_site_fract_z
 _atom_site_occupancy
  Bi  Bi0  1  0.15522576  0.75000000  0.96768124  1.0
  Bi  Bi1  1  0.65522576  0.75000000  0.53231876  1.0
  Bi  Bi2  1  0.84477424  0.25000000  0.03231876  1.0
  Bi  Bi3  1  0.34477424  0.25000000  0.46768124  1.0
  Bi  Bi4  1  0.47990369  0.75000000  0.17314702  1.0
  Bi  Bi5  1  0.97990369  0.75000000  0.32685298  1.0
  Bi  Bi6  1  0.52009631  0.25000000  0.82685298  1.0
  Bi  Bi7  1  0.02009631  0.25000000  0.67314702  1.0
  S  S8  1  0.45294041  0.75000000  0.63008415  1.0
  S  S9  1  0.95294041  0.75000000  0.86991585  1.0
  S  S10  1  0.54705959  0.25000000  0.36991585  1.0
  S  S11  1  0.04705959  0.25000000  0.13008415  1.0
  S  S12  1  0.12257180  0.75000000  0.55379676  1.0
  S  S13  1  0.62257180  0.75000000  0.94620324  1.0
  S  S14  1  0.87742820  0.25000000  0.44620324  1.0
  S  S15  1  0.37742820  0.25000000  0.05379676  1.0
  S  S16  1  0.28927158  0.75000000  0.30923777  1.0
  S  S17  1  0.78927158  0.75000000  0.19076223  1.0
  S  S18  1  0.71072842  0.25000000  0.69076223  1.0
  S  S19  1  0.21072842  0.25000000  0.80923777  1.0
