# generated using pymatgen
data_Ga5Ni
_symmetry_space_group_name_H-M   'P 1'
_cell_length_a   6.64038523
_cell_length_b   6.64038523
_cell_length_c   6.64038523
_cell_angle_alpha   122.76669010
_cell_angle_beta   122.76669010
_cell_angle_gamma   85.27123342
_symmetry_Int_Tables_number   1
_chemical_formula_structural   Ga5Ni
_chemical_formula_sum   'Ga10 Ni2'
_cell_volume   197.65213975
_cell_formula_units_Z   2
loop_
 _symmetry_equiv_pos_site_id
 _symmetry_equiv_pos_as_xyz
  1  'x, y, z'
loop_
 _atom_site_type_symbol
 _atom_site_label
 _atom_site_symmetry_multiplicity
 _atom_site_fract_x
 _atom_site_fract_y
 _atom_site_fract_z
 _atom_site_occupancy
  Ga  Ga0  1  1.20650907  0.70650907  1.19854889  1.0
  Ga  Ga1  1  0.49203982  0.99203982  1.19854889  1.0
  Ga  Ga2  1  1.00796018  1.20650907  1.50000000  1.0
  Ga  Ga3  1  0.29349093  0.49203982  0.50000000  1.0
  Ga  Ga4  1  0.70650907  0.50796018  0.50000000  1.0
  Ga  Ga5  1  0.99203982  0.79349093  1.50000000  1.0
  Ga  Ga6  1  0.50796018  1.00796018  0.80145111  1.0
  Ga  Ga7  1  0.79349093  0.29349093  0.80145111  1.0
  Ga  Ga8  1  0.00000000  0.00000000  0.00000000  1.0
  Ga  Ga9  1  0.50000000  0.50000000  1.00000000  1.0
  Ni  Ni10  1  0.75000000  0.75000000  1.00000000  1.0
  Ni  Ni11  1  0.25000000  0.25000000  -0.00000000  1.0
