# generated using pymatgen
data_Mg2NF
_symmetry_space_group_name_H-M   'P 1'
_cell_length_a   5.89986927
_cell_length_b   5.89986927
_cell_length_c   5.89986927
_cell_angle_alpha   138.18993457
_cell_angle_beta   138.18993457
_cell_angle_gamma   60.61222922
_symmetry_Int_Tables_number   1
_chemical_formula_structural   Mg2NF
_chemical_formula_sum   'Mg4 N2 F2'
_cell_volume   90.29597465
_cell_formula_units_Z   2
loop_
 _symmetry_equiv_pos_site_id
 _symmetry_equiv_pos_as_xyz
  1  'x, y, z'
loop_
 _atom_site_type_symbol
 _atom_site_label
 _atom_site_symmetry_multiplicity
 _atom_site_fract_x
 _atom_site_fract_y
 _atom_site_fract_z
 _atom_site_occupancy
  Mg  Mg0  1  1.03818719  0.53818719  0.50000000  1.0
  Mg  Mg1  1  0.71181281  0.71181281  1.00000000  1.0
  Mg  Mg2  1  0.46181281  -0.03818719  0.50000000  1.0
  Mg  Mg3  1  0.28818719  0.28818719  0.00000000  1.0
  N  N4  1  0.25000000  0.75000000  0.50000000  1.0
  N  N5  1  0.50000000  0.50000000  1.00000000  1.0
  F  F6  1  0.75000000  0.25000000  0.50000000  1.0
  F  F7  1  0.00000000  0.00000000  0.00000000  1.0
