# generated using pymatgen
data_Y11(In3Ge2)2
_symmetry_space_group_name_H-M   'P 1'
_cell_length_a   11.54499073
_cell_length_b   11.54499073
_cell_length_c   11.54499073
_cell_angle_alpha   120.09177343
_cell_angle_beta   120.09177343
_cell_angle_gamma   89.84111712
_symmetry_Int_Tables_number   1
_chemical_formula_structural   Y11(In3Ge2)2
_chemical_formula_sum   'Y22 In12 Ge8'
_cell_volume   1086.57849787
_cell_formula_units_Z   2
loop_
 _symmetry_equiv_pos_site_id
 _symmetry_equiv_pos_as_xyz
  1  'x, y, z'
loop_
 _atom_site_type_symbol
 _atom_site_label
 _atom_site_symmetry_multiplicity
 _atom_site_fract_x
 _atom_site_fract_y
 _atom_site_fract_z
 _atom_site_occupancy
  Y  Y0  1  0.43657939  0.68635342  0.75022596  1.0
  Y  Y1  1  1.06387254  0.31364658  0.75022596  1.0
  Y  Y2  1  0.93612746  0.68635342  1.24977404  1.0
  Y  Y3  1  0.56342061  0.31364658  0.24977404  1.0
  Y  Y4  1  0.68635342  0.43657939  0.75022596  1.0
  Y  Y5  1  0.31364658  1.06387254  0.75022596  1.0
  Y  Y6  1  0.68635342  0.93612746  1.24977404  1.0
  Y  Y7  1  0.31364658  0.56342061  0.24977404  1.0
  Y  Y8  1  0.55312099  0.89854409  0.65457690  1.0
  Y  Y9  1  0.75603281  0.10145591  0.65457690  1.0
  Y  Y10  1  1.24396719  0.89854409  1.34542310  1.0
  Y  Y11  1  0.44687901  0.10145591  0.34542310  1.0
  Y  Y12  1  0.89854409  0.55312099  0.65457690  1.0
  Y  Y13  1  0.10145591  0.75603281  0.65457690  1.0
  Y  Y14  1  0.89854409  1.24396719  1.34542310  1.0
  Y  Y15  1  0.10145591  0.44687901  0.34542310  1.0
  Y  Y16  1  0.66856566  0.66856566  1.33713132  1.0
  Y  Y17  1  0.33143434  0.66856566  1.00000000  1.0
  Y  Y18  1  0.66856566  0.33143434  1.00000000  1.0
  Y  Y19  1  0.33143434  0.33143434  0.66286868  1.0
  Y  Y20  1  0.83261185  0.83261185  1.00000000  1.0
  Y  Y21  1  0.16738815  0.16738815  0.00000000  1.0
  In  In22  1  0.62271696  0.62271696  0.58756163  1.0
  In  In23  1  0.96484466  0.96484466  1.58756163  1.0
  In  In24  1  1.03515534  0.62271696  1.00000000  1.0
  In  In25  1  0.37728304  0.96484466  1.00000000  1.0
  In  In26  1  0.62271696  1.03515534  1.00000000  1.0
  In  In27  1  0.96484466  0.37728304  1.00000000  1.0
  In  In28  1  1.03515534  1.03515534  1.41243837  1.0
  In  In29  1  0.37728304  0.37728304  0.41243837  1.0
  In  In30  1  0.87119402  0.87119402  1.74238804  1.0
  In  In31  1  0.12880598  0.87119402  1.00000000  1.0
  In  In32  1  0.87119402  0.12880598  1.00000000  1.0
  In  In33  1  0.12880598  0.12880598  0.25761196  1.0
  Ge  Ge34  1  0.50000000  0.84732538  1.34732538  1.0
  Ge  Ge35  1  0.84732538  0.50000000  1.34732538  1.0
  Ge  Ge36  1  0.15267462  0.50000000  0.65267462  1.0
  Ge  Ge37  1  0.50000000  0.15267462  0.65267462  1.0
  Ge  Ge38  1  0.62016344  0.62016344  1.00000000  1.0
  Ge  Ge39  1  0.37983656  0.37983656  0.00000000  1.0
  Ge  Ge40  1  0.25000000  0.75000000  0.50000000  1.0
  Ge  Ge41  1  0.75000000  0.25000000  0.50000000  1.0
