# generated using pymatgen
data_ReCl5
_symmetry_space_group_name_H-M   'P 1'
_cell_length_a   9.63737288
_cell_length_b   12.39207722
_cell_length_c   13.11287773
_cell_angle_alpha   90.00000000
_cell_angle_beta   110.04207017
_cell_angle_gamma   90.00000000
_symmetry_Int_Tables_number   1
_chemical_formula_structural   ReCl5
_chemical_formula_sum   'Re8 Cl40'
_cell_volume   1471.19555400
_cell_formula_units_Z   8
loop_
 _symmetry_equiv_pos_site_id
 _symmetry_equiv_pos_as_xyz
  1  'x, y, z'
loop_
 _atom_site_type_symbol
 _atom_site_label
 _atom_site_symmetry_multiplicity
 _atom_site_fract_x
 _atom_site_fract_y
 _atom_site_fract_z
 _atom_site_occupancy
  Re  Re0  1  0.80122849  0.87944070  0.79494620  1.0
  Re  Re1  1  0.80122849  0.62055930  0.29494620  1.0
  Re  Re2  1  0.19877151  0.37944070  0.70505380  1.0
  Re  Re3  1  0.19877151  0.12055930  0.20505380  1.0
  Re  Re4  1  0.38642621  0.87298995  0.68959219  1.0
  Re  Re5  1  0.38642621  0.62701005  0.18959219  1.0
  Re  Re6  1  0.61357379  0.37298995  0.81040781  1.0
  Re  Re7  1  0.61357379  0.12701005  0.31040781  1.0
  Cl  Cl8  1  0.41046412  0.76252106  0.55794910  1.0
  Cl  Cl9  1  0.41046412  0.73747894  0.05794910  1.0
  Cl  Cl10  1  0.58953588  0.26252106  0.94205090  1.0
  Cl  Cl11  1  0.58953588  0.23747894  0.44205090  1.0
  Cl  Cl12  1  0.40368052  0.98427620  0.83163432  1.0
  Cl  Cl13  1  0.40368052  0.51572380  0.33163432  1.0
  Cl  Cl14  1  0.59631948  0.48427620  0.66836568  1.0
  Cl  Cl15  1  0.59631948  0.01572380  0.16836568  1.0
  Cl  Cl16  1  0.97130744  0.77409870  0.91536712  1.0
  Cl  Cl17  1  0.97130744  0.72590130  0.41536712  1.0
  Cl  Cl18  1  0.02869256  0.27409870  0.58463288  1.0
  Cl  Cl19  1  0.02869256  0.22590130  0.08463288  1.0
  Cl  Cl20  1  0.96542714  0.99002282  0.75979394  1.0
  Cl  Cl21  1  0.96542714  0.50997718  0.25979394  1.0
  Cl  Cl22  1  0.03457286  0.49002282  0.74020606  1.0
  Cl  Cl23  1  0.03457286  0.00997718  0.24020606  1.0
  Cl  Cl24  1  0.78486435  0.76726265  0.65357087  1.0
  Cl  Cl25  1  0.78486435  0.73273735  0.15357087  1.0
  Cl  Cl26  1  0.21513565  0.26726265  0.84642913  1.0
  Cl  Cl27  1  0.21513565  0.23273735  0.34642913  1.0
  Cl  Cl28  1  0.77823329  0.26309905  0.77497330  1.0
  Cl  Cl29  1  0.77823329  0.23690095  0.27497330  1.0
  Cl  Cl30  1  0.22176671  0.76309905  0.72502670  1.0
  Cl  Cl31  1  0.22176671  0.73690095  0.22502670  1.0
  Cl  Cl32  1  0.77703719  0.98936590  0.92687377  1.0
  Cl  Cl33  1  0.77703719  0.51063410  0.42687377  1.0
  Cl  Cl34  1  0.22296281  0.48936590  0.57312623  1.0
  Cl  Cl35  1  0.22296281  0.01063410  0.07312623  1.0
  Cl  Cl36  1  0.59647029  0.77110429  0.81840400  1.0
  Cl  Cl37  1  0.59647029  0.72889571  0.31840400  1.0
  Cl  Cl38  1  0.40352971  0.27110429  0.68159600  1.0
  Cl  Cl39  1  0.40352971  0.22889571  0.18159600  1.0
  Cl  Cl40  1  0.59117826  0.98084906  0.66571097  1.0
  Cl  Cl41  1  0.59117826  0.51915094  0.16571097  1.0
  Cl  Cl42  1  0.40882174  0.48084906  0.83428903  1.0
  Cl  Cl43  1  0.40882174  0.01915094  0.33428903  1.0
  Cl  Cl44  1  0.78381902  0.47877392  0.93041786  1.0
  Cl  Cl45  1  0.78381902  0.02122608  0.43041786  1.0
  Cl  Cl46  1  0.21618098  0.97877392  0.56958214  1.0
  Cl  Cl47  1  0.21618098  0.52122608  0.06958214  1.0
