# generated using pymatgen
data_EuCuSn2
_symmetry_space_group_name_H-M   'P 1'
_cell_length_a   9.89969501
_cell_length_b   9.89969501
_cell_length_c   4.58998980
_cell_angle_alpha   90.00000000
_cell_angle_beta   90.00000000
_cell_angle_gamma   153.89694931
_symmetry_Int_Tables_number   1
_chemical_formula_structural   EuCuSn2
_chemical_formula_sum   'Eu2 Cu2 Sn4'
_cell_volume   197.92250547
_cell_formula_units_Z   2
loop_
 _symmetry_equiv_pos_site_id
 _symmetry_equiv_pos_as_xyz
  1  'x, y, z'
loop_
 _atom_site_type_symbol
 _atom_site_label
 _atom_site_symmetry_multiplicity
 _atom_site_fract_x
 _atom_site_fract_y
 _atom_site_fract_z
 _atom_site_occupancy
  Eu  Eu0  1  -0.60769254  0.60769254  0.25000000  1.0
  Eu  Eu1  1  -0.39230746  1.39230746  0.75000000  1.0
  Cu  Cu2  1  -0.82535707  0.82535707  0.25000000  1.0
  Cu  Cu3  1  -0.17464293  1.17464293  0.75000000  1.0
  Sn  Sn4  1  -0.95686040  0.95686040  0.25000000  1.0
  Sn  Sn5  1  -0.04313960  1.04313960  0.75000000  1.0
  Sn  Sn6  1  -0.24814913  1.24814913  0.25000000  1.0
  Sn  Sn7  1  -0.75185087  0.75185087  0.75000000  1.0
