# generated using pymatgen
data_SrMoO2
_symmetry_space_group_name_H-M   'P 1'
_cell_length_a   7.44640313
_cell_length_b   7.44640313
_cell_length_c   7.44640313
_cell_angle_alpha   124.55644988
_cell_angle_beta   124.55644988
_cell_angle_gamma   82.27400138
_symmetry_Int_Tables_number   1
_chemical_formula_structural   SrMoO2
_chemical_formula_sum   'Sr4 Mo4 O8'
_cell_volume   269.16207555
_cell_formula_units_Z   4
loop_
 _symmetry_equiv_pos_site_id
 _symmetry_equiv_pos_as_xyz
  1  'x, y, z'
loop_
 _atom_site_type_symbol
 _atom_site_label
 _atom_site_symmetry_multiplicity
 _atom_site_fract_x
 _atom_site_fract_y
 _atom_site_fract_z
 _atom_site_occupancy
  Sr  Sr0  1  0.87500000  0.62500000  1.25000000  1.0
  Sr  Sr1  1  0.37500000  0.62500000  0.25000000  1.0
  Sr  Sr2  1  0.37500000  1.12500000  0.75000000  1.0
  Sr  Sr3  1  0.37500000  0.62500000  0.75000000  1.0
  Mo  Mo4  1  0.37500000  0.12500000  0.25000000  1.0
  Mo  Mo5  1  0.87500000  1.12500000  1.25000000  1.0
  Mo  Mo6  1  0.87500000  0.62500000  0.75000000  1.0
  Mo  Mo7  1  0.87500000  0.12500000  0.75000000  1.0
  O  O8  1  0.55569182  0.44430661  0.49999674  1.0
  O  O9  1  1.19430661  1.19430987  1.38861480  1.0
  O  O10  1  0.80569508  0.80569182  0.61138520  1.0
  O  O11  1  0.94430987  1.05569508  1.50000326  1.0
  O  O12  1  1.19430818  0.80569339  1.00000326  1.0
  O  O13  1  0.55569339  1.05569013  1.11138520  1.0
  O  O14  1  0.94430492  0.44430818  0.88861480  1.0
  O  O15  1  0.80569013  1.19430492  0.99999674  1.0
