# generated using pymatgen
data_RbMnP2O7
_symmetry_space_group_name_H-M   'P 1'
_cell_length_a   7.49960108
_cell_length_b   9.78714153
_cell_length_c   8.88444307
_cell_angle_alpha   90.00000000
_cell_angle_beta   105.48911826
_cell_angle_gamma   90.00000000
_symmetry_Int_Tables_number   1
_chemical_formula_structural   RbMnP2O7
_chemical_formula_sum   'Rb4 Mn4 P8 O28'
_cell_volume   628.43103171
_cell_formula_units_Z   4
loop_
 _symmetry_equiv_pos_site_id
 _symmetry_equiv_pos_as_xyz
  1  'x, y, z'
loop_
 _atom_site_type_symbol
 _atom_site_label
 _atom_site_symmetry_multiplicity
 _atom_site_fract_x
 _atom_site_fract_y
 _atom_site_fract_z
 _atom_site_occupancy
  Rb  Rb0  1  0.81577126  0.81111088  0.45786648  1.0
  Rb  Rb1  1  0.81577126  0.68888912  0.95786648  1.0
  Rb  Rb2  1  0.18422874  0.31111088  0.04213352  1.0
  Rb  Rb3  1  0.18422874  0.18888912  0.54213352  1.0
  Mn  Mn4  1  0.76307146  0.39874056  0.24655795  1.0
  Mn  Mn5  1  0.76307146  0.10125944  0.74655795  1.0
  Mn  Mn6  1  0.23692854  0.89874056  0.25344205  1.0
  Mn  Mn7  1  0.23692854  0.60125944  0.75344205  1.0
  P  P8  1  0.87154535  0.09609491  0.16843025  1.0
  P  P9  1  0.87154535  0.40390509  0.66843025  1.0
  P  P10  1  0.12845465  0.59609491  0.33156975  1.0
  P  P11  1  0.12845465  0.90390509  0.83156975  1.0
  P  P12  1  0.56926962  0.12813563  0.30937726  1.0
  P  P13  1  0.56926962  0.37186437  0.80937726  1.0
  P  P14  1  0.43073038  0.62813563  0.19062274  1.0
  P  P15  1  0.43073038  0.87186437  0.69062274  1.0
  O  O16  1  0.98169527  0.49955970  0.22851574  1.0
  O  O17  1  0.98169527  0.00044030  0.72851574  1.0
  O  O18  1  0.01830473  0.99955970  0.27148426  1.0
  O  O19  1  0.01830473  0.50044030  0.77148426  1.0
  O  O20  1  0.91339445  0.24010675  0.24500021  1.0
  O  O21  1  0.91339445  0.25989325  0.74500021  1.0
  O  O22  1  0.08660555  0.74010675  0.25499979  1.0
  O  O23  1  0.08660555  0.75989325  0.75499979  1.0
  O  O24  1  0.85691633  0.40641589  0.49678694  1.0
  O  O25  1  0.85691633  0.09358411  0.99678694  1.0
  O  O26  1  0.14308367  0.90641589  0.00321306  1.0
  O  O27  1  0.14308367  0.59358411  0.50321306  1.0
  O  O28  1  0.67379584  0.10045397  0.47672850  1.0
  O  O29  1  0.67379584  0.39954603  0.97672850  1.0
  O  O30  1  0.32620416  0.60045397  0.02327150  1.0
  O  O31  1  0.32620416  0.89954603  0.52327150  1.0
  O  O32  1  0.67538012  0.04649607  0.19587085  1.0
  O  O33  1  0.67538012  0.45350393  0.69587085  1.0
  O  O34  1  0.32461988  0.54649607  0.30412915  1.0
  O  O35  1  0.32461988  0.95350393  0.80412915  1.0
  O  O36  1  0.55859645  0.28092366  0.25538601  1.0
  O  O37  1  0.55859645  0.21907634  0.75538601  1.0
  O  O38  1  0.44140355  0.78092366  0.24461399  1.0
  O  O39  1  0.44140355  0.71907634  0.74461399  1.0
  O  O40  1  0.36884131  0.07272783  0.25807487  1.0
  O  O41  1  0.36884131  0.42727217  0.75807487  1.0
  O  O42  1  0.63115869  0.57272783  0.24192513  1.0
  O  O43  1  0.63115869  0.92727217  0.74192513  1.0
