# generated using pymatgen
data_Co8RuS8
_symmetry_space_group_name_H-M   'P 1'
_cell_length_a   6.96143169
_cell_length_b   6.96143169
_cell_length_c   6.96143169
_cell_angle_alpha   60.00000000
_cell_angle_beta   60.00000000
_cell_angle_gamma   60.00000000
_symmetry_Int_Tables_number   1
_chemical_formula_structural   Co8RuS8
_chemical_formula_sum   'Co8 Ru1 S8'
_cell_volume   238.55070244
_cell_formula_units_Z   1
loop_
 _symmetry_equiv_pos_site_id
 _symmetry_equiv_pos_as_xyz
  1  'x, y, z'
loop_
 _atom_site_type_symbol
 _atom_site_label
 _atom_site_symmetry_multiplicity
 _atom_site_fract_x
 _atom_site_fract_y
 _atom_site_fract_z
 _atom_site_occupancy
  Co  Co0  1  0.87411035  0.87411035  -0.62233106  1.0
  Co  Co1  1  0.87411035  0.37766894  -0.12588965  1.0
  Co  Co2  1  0.37766894  0.87411035  -0.12588965  1.0
  Co  Co3  1  0.87411035  0.87411035  -0.12588965  1.0
  Co  Co4  1  1.12588965  0.12588965  0.62233106  1.0
  Co  Co5  1  1.12588965  0.62233106  0.12588965  1.0
  Co  Co6  1  1.62233106  0.12588965  0.12588965  1.0
  Co  Co7  1  1.12588965  0.12588965  0.12588965  1.0
  Ru  Ru8  1  -0.50000000  0.50000000  0.50000000  1.0
  S  S9  1  0.75000000  0.75000000  -0.25000000  1.0
  S  S10  1  1.25000000  0.25000000  0.25000000  1.0
  S  S11  1  0.74017928  0.74017928  -0.74017928  1.0
  S  S12  1  0.25982072  -0.25982072  1.25982072  1.0
  S  S13  1  -0.25982072  0.25982072  0.25982072  1.0
  S  S14  1  0.25982072  1.25982072  -0.25982072  1.0
  S  S15  1  -0.25982072  0.25982072  0.74017928  1.0
  S  S16  1  -0.74017928  0.74017928  0.74017928  1.0
