# generated using pymatgen
data_TlSnI3
_symmetry_space_group_name_H-M   'P 1'
_cell_length_a   7.96711176
_cell_length_b   7.96711176
_cell_length_c   11.88691432
_cell_angle_alpha   90.00000000
_cell_angle_beta   90.00000000
_cell_angle_gamma   146.25241406
_symmetry_Int_Tables_number   1
_chemical_formula_structural   TlSnI3
_chemical_formula_sum   'Tl2 Sn2 I6'
_cell_volume   419.16260726
_cell_formula_units_Z   2
loop_
 _symmetry_equiv_pos_site_id
 _symmetry_equiv_pos_as_xyz
  1  'x, y, z'
loop_
 _atom_site_type_symbol
 _atom_site_label
 _atom_site_symmetry_multiplicity
 _atom_site_fract_x
 _atom_site_fract_y
 _atom_site_fract_z
 _atom_site_occupancy
  Tl  Tl0  1  -0.25241932  0.25241932  0.75000000  1.0
  Tl  Tl1  1  0.25241932  0.74758068  0.25000000  1.0
  Sn  Sn2  1  0.00000000  0.00000000  0.00000000  1.0
  Sn  Sn3  1  0.00000000  0.00000000  0.50000000  1.0
  I  I4  1  0.36047317  0.63952683  0.94377418  1.0
  I  I5  1  0.36047317  0.63952683  0.55622582  1.0
  I  I6  1  -0.36047317  0.36047317  0.44377418  1.0
  I  I7  1  -0.36047317  0.36047317  0.05622582  1.0
  I  I8  1  0.07585197  0.92414803  0.75000000  1.0
  I  I9  1  -0.07585197  0.07585197  0.25000000  1.0
