# generated using pymatgen
data_YZn3
_symmetry_space_group_name_H-M   'P 1'
_cell_length_a   6.70546211
_cell_length_b   4.38576990
_cell_length_c   10.07664790
_cell_angle_alpha   90.00000000
_cell_angle_beta   90.00000000
_cell_angle_gamma   90.00000000
_symmetry_Int_Tables_number   1
_chemical_formula_structural   YZn3
_chemical_formula_sum   'Y4 Zn12'
_cell_volume   296.34024738
_cell_formula_units_Z   4
loop_
 _symmetry_equiv_pos_site_id
 _symmetry_equiv_pos_as_xyz
  1  'x, y, z'
loop_
 _atom_site_type_symbol
 _atom_site_label
 _atom_site_symmetry_multiplicity
 _atom_site_fract_x
 _atom_site_fract_y
 _atom_site_fract_z
 _atom_site_occupancy
  Y  Y0  1  0.71944118  0.75000000  0.33901385  1.0
  Y  Y1  1  0.21944118  0.75000000  0.16098615  1.0
  Y  Y2  1  0.28055882  0.25000000  0.66098615  1.0
  Y  Y3  1  0.78055882  0.25000000  0.83901385  1.0
  Zn  Zn4  1  0.96382135  0.75000000  0.60528503  1.0
  Zn  Zn5  1  0.46382135  0.75000000  0.89471497  1.0
  Zn  Zn6  1  0.03617865  0.25000000  0.39471497  1.0
  Zn  Zn7  1  0.53617865  0.25000000  0.10528503  1.0
  Zn  Zn8  1  0.78041975  0.75000000  0.04387977  1.0
  Zn  Zn9  1  0.28041975  0.75000000  0.45612023  1.0
  Zn  Zn10  1  0.21958025  0.25000000  0.95612023  1.0
  Zn  Zn11  1  0.71958025  0.25000000  0.54387977  1.0
  Zn  Zn12  1  0.58350482  0.75000000  0.64725842  1.0
  Zn  Zn13  1  0.08350482  0.75000000  0.85274158  1.0
  Zn  Zn14  1  0.41649518  0.25000000  0.35274158  1.0
  Zn  Zn15  1  0.91649518  0.25000000  0.14725842  1.0
