# generated using pymatgen
data_K2AgF4
_symmetry_space_group_name_H-M   'P 1'
_cell_length_a   3.85132890
_cell_length_b   10.39937843
_cell_length_c   6.52308980
_cell_angle_alpha   90.00000000
_cell_angle_beta   92.73617625
_cell_angle_gamma   90.00000000
_symmetry_Int_Tables_number   1
_chemical_formula_structural   K2AgF4
_chemical_formula_sum   'K4 Ag2 F8'
_cell_volume   260.96120021
_cell_formula_units_Z   2
loop_
 _symmetry_equiv_pos_site_id
 _symmetry_equiv_pos_as_xyz
  1  'x, y, z'
loop_
 _atom_site_type_symbol
 _atom_site_label
 _atom_site_symmetry_multiplicity
 _atom_site_fract_x
 _atom_site_fract_y
 _atom_site_fract_z
 _atom_site_occupancy
  K  K0  1  0.47726261  0.31735326  0.08564957  1.0
  K  K1  1  0.47726261  0.18264674  0.58564957  1.0
  K  K2  1  0.52273739  0.81735326  0.41435043  1.0
  K  K3  1  0.52273739  0.68264674  0.91435043  1.0
  Ag  Ag4  1  0.00000000  0.50000000  0.50000000  1.0
  Ag  Ag5  1  0.00000000  0.00000000  0.00000000  1.0
  F  F6  1  0.98325863  0.31123131  0.37663768  1.0
  F  F7  1  0.98325863  0.18876869  0.87663768  1.0
  F  F8  1  0.01674137  0.81123131  0.12336232  1.0
  F  F9  1  0.01674137  0.68876869  0.62336232  1.0
  F  F10  1  0.39479430  0.05292229  0.22579739  1.0
  F  F11  1  0.39479430  0.44707771  0.72579739  1.0
  F  F12  1  0.60520570  0.55292229  0.27420261  1.0
  F  F13  1  0.60520570  0.94707771  0.77420261  1.0
