# generated using pymatgen
data_DyZnPO
_symmetry_space_group_name_H-M   'P 1'
_cell_length_a   10.48280342
_cell_length_b   10.48280342
_cell_length_c   10.48280342
_cell_angle_alpha   21.43179795
_cell_angle_beta   21.43179795
_cell_angle_gamma   21.43179795
_symmetry_Int_Tables_number   1
_chemical_formula_structural   DyZnPO
_chemical_formula_sum   'Dy2 Zn2 P2 O2'
_cell_volume   134.74638142
_cell_formula_units_Z   2
loop_
 _symmetry_equiv_pos_site_id
 _symmetry_equiv_pos_as_xyz
  1  'x, y, z'
loop_
 _atom_site_type_symbol
 _atom_site_label
 _atom_site_symmetry_multiplicity
 _atom_site_fract_x
 _atom_site_fract_y
 _atom_site_fract_z
 _atom_site_occupancy
  Dy  Dy0  1  1.62094114  0.62094114  0.62094114  1.0
  Dy  Dy1  1  1.37905886  0.37905886  0.37905886  1.0
  Zn  Zn2  1  0.80414619  0.80414619  0.80414619  1.0
  Zn  Zn3  1  1.19585381  1.19585381  0.19585381  1.0
  P  P4  1  0.88753411  0.88753411  0.88753411  1.0
  P  P5  1  1.11246589  1.11246589  0.11246589  1.0
  O  O6  1  0.69492759  0.69492759  0.69492759  1.0
  O  O7  1  1.30507241  1.30507241  0.30507241  1.0
