# generated using pymatgen
data_Co5As2
_symmetry_space_group_name_H-M   'P 1'
_cell_length_a   6.79638438
_cell_length_b   6.79638438
_cell_length_c   12.38368451
_cell_angle_alpha   90.00000000
_cell_angle_beta   90.00000000
_cell_angle_gamma   120.00000000
_symmetry_Int_Tables_number   1
_chemical_formula_structural   Co5As2
_chemical_formula_sum   'Co30 As12'
_cell_volume   495.37761410
_cell_formula_units_Z   6
loop_
 _symmetry_equiv_pos_site_id
 _symmetry_equiv_pos_as_xyz
  1  'x, y, z'
loop_
 _atom_site_type_symbol
 _atom_site_label
 _atom_site_symmetry_multiplicity
 _atom_site_fract_x
 _atom_site_fract_y
 _atom_site_fract_z
 _atom_site_occupancy
  Co  Co0  1  0.73079779  0.73079779  0.61767948  1.0
  Co  Co1  1  0.73079779  0.00000000  0.11767948  1.0
  Co  Co2  1  -0.00000000  0.73079779  0.11767948  1.0
  Co  Co3  1  0.00000000  0.26920221  0.61767948  1.0
  Co  Co4  1  0.26920221  0.26920221  0.11767948  1.0
  Co  Co5  1  0.26920221  0.00000000  0.61767948  1.0
  Co  Co6  1  0.69232189  0.69232189  0.41309552  1.0
  Co  Co7  1  0.69232189  0.00000000  0.91309552  1.0
  Co  Co8  1  -0.00000000  0.69232189  0.91309552  1.0
  Co  Co9  1  0.00000000  0.30767811  0.41309552  1.0
  Co  Co10  1  0.30767811  0.30767811  0.91309552  1.0
  Co  Co11  1  0.30767811  0.00000000  0.41309552  1.0
  Co  Co12  1  0.62669225  0.62669225  0.02241671  1.0
  Co  Co13  1  0.62669225  0.00000000  0.52241671  1.0
  Co  Co14  1  -0.00000000  0.62669225  0.52241671  1.0
  Co  Co15  1  0.00000000  0.37330775  0.02241671  1.0
  Co  Co16  1  0.37330775  0.37330775  0.52241671  1.0
  Co  Co17  1  0.37330775  0.00000000  0.02241671  1.0
  Co  Co18  1  0.36909024  0.36909024  0.31257119  1.0
  Co  Co19  1  0.36909024  0.00000000  0.81257119  1.0
  Co  Co20  1  -0.00000000  0.36909024  0.81257119  1.0
  Co  Co21  1  0.00000000  0.63090976  0.31257119  1.0
  Co  Co22  1  0.63090976  0.63090976  0.81257119  1.0
  Co  Co23  1  0.63090976  0.00000000  0.31257119  1.0
  Co  Co24  1  0.33333333  0.66666667  0.14818251  1.0
  Co  Co25  1  0.33333333  0.66666667  0.64818251  1.0
  Co  Co26  1  0.66666667  0.33333333  0.14818251  1.0
  Co  Co27  1  0.66666667  0.33333333  0.64818251  1.0
  Co  Co28  1  0.00000000  0.00000000  0.28811588  1.0
  Co  Co29  1  0.00000000  0.00000000  0.78811588  1.0
  As  As30  1  0.66982295  0.66982295  0.21910700  1.0
  As  As31  1  0.66982295  0.00000000  0.71910700  1.0
  As  As32  1  0.00000000  0.66982295  0.71910700  1.0
  As  As33  1  0.00000000  0.33017705  0.21910700  1.0
  As  As34  1  0.33017705  0.33017705  0.71910700  1.0
  As  As35  1  0.33017705  0.00000000  0.21910700  1.0
  As  As36  1  0.33333333  0.66666667  0.44449775  1.0
  As  As37  1  0.33333333  0.66666667  0.94449775  1.0
  As  As38  1  0.66666667  0.33333333  0.44449775  1.0
  As  As39  1  0.66666667  0.33333333  0.94449775  1.0
  As  As40  1  0.00000000  0.00000000  -0.01108612  1.0
  As  As41  1  0.00000000  0.00000000  0.48891388  1.0
