# generated using pymatgen
data_LiLa2HO3
_symmetry_space_group_name_H-M   'P 1'
_cell_length_a   6.98127843
_cell_length_b   6.98127843
_cell_length_c   6.98127843
_cell_angle_alpha   150.23957354
_cell_angle_beta   148.50353917
_cell_angle_gamma   43.88100617
_symmetry_Int_Tables_number   1
_chemical_formula_structural   LiLa2HO3
_chemical_formula_sum   'Li1 La2 H1 O3'
_cell_volume   87.98995047
_cell_formula_units_Z   1
loop_
 _symmetry_equiv_pos_site_id
 _symmetry_equiv_pos_as_xyz
  1  'x, y, z'
loop_
 _atom_site_type_symbol
 _atom_site_label
 _atom_site_symmetry_multiplicity
 _atom_site_fract_x
 _atom_site_fract_y
 _atom_site_fract_z
 _atom_site_occupancy
  Li  Li0  1  0.00000000  0.00000000  0.00000000  1.0
  La  La1  1  0.63651843  0.63651843  1.00000000  1.0
  La  La2  1  0.36348157  0.36348157  0.00000000  1.0
  H  H3  1  -0.00000000  0.50000000  0.50000000  1.0
  O  O4  1  0.50000000  0.00000000  0.50000000  1.0
  O  O5  1  0.82306512  0.82306512  1.00000000  1.0
  O  O6  1  0.17693488  0.17693488  0.00000000  1.0
