# generated using pymatgen
data_Zr(PO4)2
_symmetry_space_group_name_H-M   'P 1'
_cell_length_a   9.77522541
_cell_length_b   9.77522541
_cell_length_c   9.77522541
_cell_angle_alpha   108.45054945
_cell_angle_beta   108.45054945
_cell_angle_gamma   111.53243481
_symmetry_Int_Tables_number   1
_chemical_formula_structural   Zr(PO4)2
_chemical_formula_sum   'Zr4 P8 O32'
_cell_volume   718.34819855
_cell_formula_units_Z   4
loop_
 _symmetry_equiv_pos_site_id
 _symmetry_equiv_pos_as_xyz
  1  'x, y, z'
loop_
 _atom_site_type_symbol
 _atom_site_label
 _atom_site_symmetry_multiplicity
 _atom_site_fract_x
 _atom_site_fract_y
 _atom_site_fract_z
 _atom_site_occupancy
  Zr  Zr0  1  0.50795778  0.00795778  0.50000000  1.0
  Zr  Zr1  1  1.00795778  0.50795778  0.50000000  1.0
  Zr  Zr2  1  0.25795778  0.25795778  0.00000000  1.0
  Zr  Zr3  1  0.75795778  0.75795778  1.00000000  1.0
  O  O4  1  1.01914945  0.89642544  1.13430877  1.0
  O  O5  1  1.26211667  0.39642544  0.87727599  1.0
  O  O6  1  1.13484067  1.51211667  1.36569123  1.0
  O  O7  1  0.64642544  1.01211667  1.37727599  1.0
  O  O8  1  1.51914945  1.38484067  1.12272401  1.0
  O  O9  1  0.76211667  0.88484067  0.86569123  1.0
  O  O10  1  1.63484067  1.26914945  1.62272401  1.0
  O  O11  1  0.14642544  0.76914945  0.63430877  1.0
  O  O12  1  1.37987710  1.00030904  1.63784391  1.0
  O  O13  1  0.86246513  1.50030904  0.62043194  1.0
  O  O14  1  0.99203320  0.11246513  0.86215609  1.0
  O  O15  1  0.75030904  0.61246513  1.12043194  1.0
  O  O16  1  0.87987710  1.24203320  1.37956806  1.0
  O  O17  1  0.36246513  0.74203320  0.36215609  1.0
  O  O18  1  1.49203320  1.62987710  1.87956806  1.0
  O  O19  1  0.25030904  1.12987710  1.13784391  1.0
  O  O20  1  1.25924258  1.07319086  1.82586681  1.0
  O  O21  1  0.74732404  0.57319086  0.81394827  1.0
  O  O22  1  0.68337577  0.99732404  0.67413319  1.0
  O  O23  1  0.82319086  0.49732404  1.31394827  1.0
  O  O24  1  0.75924258  0.93337577  1.18605173  1.0
  O  O25  1  0.24732404  0.43337577  0.17413319  1.0
  O  O26  1  1.18337577  1.50924258  1.68605173  1.0
  O  O27  1  0.32319086  1.00924258  1.32586681  1.0
  O  O28  1  0.94668312  1.07072717  1.49779460  1.0
  O  O29  1  1.07293257  1.57072717  1.12404404  1.0
  O  O30  1  0.69888852  0.32293257  1.00220540  1.0
  O  O31  1  0.82072717  0.82293257  1.62404404  1.0
  O  O32  1  0.44668312  0.94888852  0.87595596  1.0
  O  O33  1  1.57293257  1.44888852  1.50220540  1.0
  O  O34  1  1.19888852  1.19668312  1.37595596  1.0
  O  O35  1  1.32072717  0.69668312  0.99779460  1.0
  P  P36  1  1.19776421  1.05590797  1.24342063  1.0
  P  P37  1  1.31248734  0.55590797  0.85814376  1.0
  P  P38  1  1.20434358  1.56248734  1.25657937  1.0
  P  P39  1  0.80590797  1.06248734  1.35814376  1.0
  P  P40  1  0.69776421  0.45434358  1.14185624  1.0
  P  P41  1  0.81248734  0.95434358  1.75657937  1.0
  P  P42  1  1.70434358  1.44776421  1.64185624  1.0
  P  P43  1  0.30590797  0.94776421  0.74342063  1.0
