# generated using pymatgen
data_Bi3Se4
_symmetry_space_group_name_H-M   'P 1'
_cell_length_a   13.58824894
_cell_length_b   13.58824894
_cell_length_c   13.58824894
_cell_angle_alpha   18.39975722
_cell_angle_beta   18.39975722
_cell_angle_gamma   18.39975722
_symmetry_Int_Tables_number   1
_chemical_formula_structural   Bi3Se4
_chemical_formula_sum   'Bi3 Se4'
_cell_volume   218.34068001
_cell_formula_units_Z   1
loop_
 _symmetry_equiv_pos_site_id
 _symmetry_equiv_pos_as_xyz
  1  'x, y, z'
loop_
 _atom_site_type_symbol
 _atom_site_label
 _atom_site_symmetry_multiplicity
 _atom_site_fract_x
 _atom_site_fract_y
 _atom_site_fract_z
 _atom_site_occupancy
  Bi  Bi0  1  1.57560219  0.57560219  0.57560219  1.0
  Bi  Bi1  1  1.42439781  0.42439781  0.42439781  1.0
  Bi  Bi2  1  0.00000000  0.00000000  -0.00000000  1.0
  Se  Se3  1  0.87395397  0.87395397  0.87395397  1.0
  Se  Se4  1  1.12604603  1.12604603  0.12604603  1.0
  Se  Se5  1  0.70779077  0.70779077  0.70779077  1.0
  Se  Se6  1  1.29220923  1.29220923  0.29220923  1.0
