# generated using pymatgen
data_Na2Fe2Se2O
_symmetry_space_group_name_H-M   'P 1'
_cell_length_a   7.98792531
_cell_length_b   7.98792531
_cell_length_c   7.98792531
_cell_angle_alpha   150.29416930
_cell_angle_beta   150.29416930
_cell_angle_gamma   42.50976543
_symmetry_Int_Tables_number   1
_chemical_formula_structural   Na2Fe2Se2O
_chemical_formula_sum   'Na2 Fe2 Se2 O1'
_cell_volume   124.85186334
_cell_formula_units_Z   1
loop_
 _symmetry_equiv_pos_site_id
 _symmetry_equiv_pos_as_xyz
  1  'x, y, z'
loop_
 _atom_site_type_symbol
 _atom_site_label
 _atom_site_symmetry_multiplicity
 _atom_site_fract_x
 _atom_site_fract_y
 _atom_site_fract_z
 _atom_site_occupancy
  Na  Na0  1  0.82788813  0.82788813  1.00000000  1.0
  Na  Na1  1  0.17211187  0.17211187  -0.00000000  1.0
  Fe  Fe2  1  0.50000000  0.00000000  0.50000000  1.0
  Fe  Fe3  1  -0.00000000  0.50000000  0.50000000  1.0
  Se  Se4  1  0.62330634  0.62330634  1.00000000  1.0
  Se  Se5  1  0.37669366  0.37669366  -0.00000000  1.0
  O  O6  1  0.00000000  0.00000000  0.00000000  1.0
