# generated using pymatgen
data_BaSi4O9
_symmetry_space_group_name_H-M   'P 1'
_cell_length_a   6.57565059
_cell_length_b   6.57565059
_cell_length_c   9.47225921
_cell_angle_alpha   90.00000000
_cell_angle_beta   90.00000000
_cell_angle_gamma   120.00000000
_symmetry_Int_Tables_number   1
_chemical_formula_structural   BaSi4O9
_chemical_formula_sum   'Ba2 Si8 O18'
_cell_volume   354.70038668
_cell_formula_units_Z   2
loop_
 _symmetry_equiv_pos_site_id
 _symmetry_equiv_pos_as_xyz
  1  'x, y, z'
loop_
 _atom_site_type_symbol
 _atom_site_label
 _atom_site_symmetry_multiplicity
 _atom_site_fract_x
 _atom_site_fract_y
 _atom_site_fract_z
 _atom_site_occupancy
  Ba  Ba0  1  0.00000000  0.00000000  0.50000000  1.0
  Ba  Ba1  1  0.00000000  0.00000000  0.00000000  1.0
  Si  Si2  1  0.57780597  0.54494349  0.25000000  1.0
  Si  Si3  1  0.57780597  0.03286248  0.75000000  1.0
  Si  Si4  1  0.96713752  0.54494349  0.75000000  1.0
  Si  Si5  1  0.96713752  0.42219403  0.25000000  1.0
  Si  Si6  1  0.45505651  0.42219403  0.75000000  1.0
  Si  Si7  1  0.45505651  0.03286248  0.25000000  1.0
  Si  Si8  1  0.33333333  0.66666667  0.50000000  1.0
  Si  Si9  1  0.33333333  0.66666667  0.00000000  1.0
  O  O10  1  0.10972291  0.43880882  0.39313278  1.0
  O  O11  1  0.10972291  0.43880882  0.10686722  1.0
  O  O12  1  0.10972291  0.67091409  0.89313278  1.0
  O  O13  1  0.10972291  0.67091409  0.60686722  1.0
  O  O14  1  0.32908591  0.43880882  0.89313278  1.0
  O  O15  1  0.32908591  0.43880882  0.60686722  1.0
  O  O16  1  0.32908591  0.89027709  0.39313278  1.0
  O  O17  1  0.32908591  0.89027709  0.10686722  1.0
  O  O18  1  0.56119118  0.89027709  0.89313278  1.0
  O  O19  1  0.56119118  0.89027709  0.60686722  1.0
  O  O20  1  0.56119118  0.67091409  0.39313278  1.0
  O  O21  1  0.56119118  0.67091409  0.10686722  1.0
  O  O22  1  0.85418448  0.59805743  0.25000000  1.0
  O  O23  1  0.85418448  0.25612705  0.75000000  1.0
  O  O24  1  0.74387295  0.59805743  0.75000000  1.0
  O  O25  1  0.74387295  0.14581552  0.25000000  1.0
  O  O26  1  0.40194257  0.14581552  0.75000000  1.0
  O  O27  1  0.40194257  0.25612705  0.25000000  1.0
