# generated using pymatgen
data_NaBrF4
_symmetry_space_group_name_H-M   'P 1'
_cell_length_a   6.75697582
_cell_length_b   6.75697582
_cell_length_c   6.75697582
_cell_angle_alpha   128.08131579
_cell_angle_beta   128.08131579
_cell_angle_gamma   76.49333678
_symmetry_Int_Tables_number   1
_chemical_formula_structural   NaBrF4
_chemical_formula_sum   'Na2 Br2 F8'
_cell_volume   185.69534041
_cell_formula_units_Z   2
loop_
 _symmetry_equiv_pos_site_id
 _symmetry_equiv_pos_as_xyz
  1  'x, y, z'
loop_
 _atom_site_type_symbol
 _atom_site_label
 _atom_site_symmetry_multiplicity
 _atom_site_fract_x
 _atom_site_fract_y
 _atom_site_fract_z
 _atom_site_occupancy
  Na  Na0  1  0.75000000  0.75000000  1.00000000  1.0
  Na  Na1  1  0.25000000  0.25000000  -0.00000000  1.0
  Br  Br2  1  0.50000000  -0.00000000  0.50000000  1.0
  Br  Br3  1  -0.00000000  0.50000000  0.50000000  1.0
  F  F4  1  1.20615119  0.70615119  1.17300920  1.0
  F  F5  1  0.46685801  0.96685801  1.17300920  1.0
  F  F6  1  1.03314199  1.20615119  1.50000000  1.0
  F  F7  1  0.29384881  0.46685801  0.50000000  1.0
  F  F8  1  0.70615119  0.53314199  0.50000000  1.0
  F  F9  1  0.96685801  0.79384881  1.50000000  1.0
  F  F10  1  0.53314199  1.03314199  0.82699080  1.0
  F  F11  1  0.79384881  0.29384881  0.82699080  1.0
