# generated using pymatgen
data_Gd2NCl3
_symmetry_space_group_name_H-M   'P 1'
_cell_length_a   8.50632311
_cell_length_b   8.50632311
_cell_length_c   10.83637556
_cell_angle_alpha   59.58995525
_cell_angle_beta   120.41004475
_cell_angle_gamma   153.42545259
_symmetry_Int_Tables_number   1
_chemical_formula_structural   Gd2NCl3
_chemical_formula_sum   'Gd4 N2 Cl6'
_cell_volume   299.59572615
_cell_formula_units_Z   2
loop_
 _symmetry_equiv_pos_site_id
 _symmetry_equiv_pos_as_xyz
  1  'x, y, z'
loop_
 _atom_site_type_symbol
 _atom_site_label
 _atom_site_symmetry_multiplicity
 _atom_site_fract_x
 _atom_site_fract_y
 _atom_site_fract_z
 _atom_site_occupancy
  Gd  Gd0  1  0.91529696  -0.91529696  0.54561761  1.0
  Gd  Gd1  1  0.08470304  -0.08470304  0.45438239  1.0
  Gd  Gd2  1  0.63715455  0.36284545  0.79195489  1.0
  Gd  Gd3  1  1.36284545  -0.36284545  0.20804511  1.0
  N  N4  1  0.92472610  -0.92472610  0.34445699  1.0
  N  N5  1  0.07527390  -0.07527390  0.65554301  1.0
  Cl  Cl6  1  0.83364972  0.16635028  0.98874475  1.0
  Cl  Cl7  1  1.16635028  -0.16635028  0.01125525  1.0
  Cl  Cl8  1  0.72032514  0.27967486  0.61460761  1.0
  Cl  Cl9  1  1.27967486  -0.27967486  0.38539239  1.0
  Cl  Cl10  1  1.45455486  -0.45455486  0.75174223  1.0
  Cl  Cl11  1  0.54544514  0.45455486  0.24825777  1.0
