# generated using pymatgen
data_NaFePO4
_symmetry_space_group_name_H-M   'P 1'
_cell_length_a   9.11124456
_cell_length_b   6.96900651
_cell_length_c   5.10249991
_cell_angle_alpha   90.00000000
_cell_angle_beta   90.00000000
_cell_angle_gamma   90.00000000
_symmetry_Int_Tables_number   1
_chemical_formula_structural   NaFePO4
_chemical_formula_sum   'Na4 Fe4 P4 O16'
_cell_volume   323.98998045
_cell_formula_units_Z   4
loop_
 _symmetry_equiv_pos_site_id
 _symmetry_equiv_pos_as_xyz
  1  'x, y, z'
loop_
 _atom_site_type_symbol
 _atom_site_label
 _atom_site_symmetry_multiplicity
 _atom_site_fract_x
 _atom_site_fract_y
 _atom_site_fract_z
 _atom_site_occupancy
  Na  Na0  1  0.84771656  0.25000000  0.53669585  1.0
  Na  Na1  1  0.34771656  0.25000000  0.96330415  1.0
  Na  Na2  1  0.15228344  0.75000000  0.46330415  1.0
  Na  Na3  1  0.65228344  0.75000000  0.03669585  1.0
  Fe  Fe4  1  0.00000000  0.50000000  0.00000000  1.0
  Fe  Fe5  1  0.00000000  0.00000000  0.00000000  1.0
  Fe  Fe6  1  0.50000000  0.50000000  0.50000000  1.0
  Fe  Fe7  1  0.50000000  0.00000000  0.50000000  1.0
  P  P8  1  0.67406538  0.25000000  0.04187954  1.0
  P  P9  1  0.17406538  0.25000000  0.45812046  1.0
  P  P10  1  0.32593462  0.75000000  0.95812046  1.0
  P  P11  1  0.82593462  0.75000000  0.54187954  1.0
  O  O12  1  0.61943269  0.43182469  0.19015271  1.0
  O  O13  1  0.61943269  0.06817531  0.19015271  1.0
  O  O14  1  0.11943269  0.43182469  0.30984729  1.0
  O  O15  1  0.11943269  0.06817531  0.30984729  1.0
  O  O16  1  0.38056731  0.93182469  0.80984729  1.0
  O  O17  1  0.38056731  0.56817531  0.80984729  1.0
  O  O18  1  0.88056731  0.93182469  0.69015271  1.0
  O  O19  1  0.88056731  0.56817531  0.69015271  1.0
  O  O20  1  0.84669647  0.25000000  0.04944352  1.0
  O  O21  1  0.34669647  0.25000000  0.45055648  1.0
  O  O22  1  0.15330353  0.75000000  0.95055648  1.0
  O  O23  1  0.65330353  0.75000000  0.54944352  1.0
  O  O24  1  0.61301250  0.25000000  0.75622006  1.0
  O  O25  1  0.11301250  0.25000000  0.74377994  1.0
  O  O26  1  0.38698750  0.75000000  0.24377994  1.0
  O  O27  1  0.88698750  0.75000000  0.25622006  1.0
