# generated using pymatgen
data_RbP(HO)2
_symmetry_space_group_name_H-M   'P 1'
_cell_length_a   8.23176642
_cell_length_b   6.46612990
_cell_length_c   7.80335593
_cell_angle_alpha   90.00000000
_cell_angle_beta   90.00000000
_cell_angle_gamma   90.00000000
_symmetry_Int_Tables_number   1
_chemical_formula_structural   RbP(HO)2
_chemical_formula_sum   'Rb4 P4 H8 O8'
_cell_volume   415.35446163
_cell_formula_units_Z   4
loop_
 _symmetry_equiv_pos_site_id
 _symmetry_equiv_pos_as_xyz
  1  'x, y, z'
loop_
 _atom_site_type_symbol
 _atom_site_label
 _atom_site_symmetry_multiplicity
 _atom_site_fract_x
 _atom_site_fract_y
 _atom_site_fract_z
 _atom_site_occupancy
  Rb  Rb0  1  0.36762881  0.75000000  0.14173692  1.0
  Rb  Rb1  1  0.86762881  0.75000000  0.35826308  1.0
  Rb  Rb2  1  0.63237119  0.25000000  0.85826308  1.0
  Rb  Rb3  1  0.13237119  0.25000000  0.64173692  1.0
  P  P4  1  0.38365616  0.75000000  0.68127511  1.0
  P  P5  1  0.88365616  0.75000000  0.81872489  1.0
  P  P6  1  0.61634384  0.25000000  0.31872489  1.0
  P  P7  1  0.11634384  0.25000000  0.18127511  1.0
  H  H8  1  0.52469664  0.75000000  0.57353132  1.0
  H  H9  1  1.02469664  0.75000000  0.92646868  1.0
  H  H10  1  0.47530336  0.25000000  0.42646868  1.0
  H  H11  1  -0.02469664  0.25000000  0.07353132  1.0
  H  H12  1  0.25553172  0.75000000  0.55669079  1.0
  H  H13  1  0.75553172  0.75000000  0.94330921  1.0
  H  H14  1  0.74446828  0.25000000  0.44330921  1.0
  H  H15  1  0.24446828  0.25000000  0.05669079  1.0
  O  O16  1  0.37766269  0.95316506  0.77999928  1.0
  O  O17  1  0.37766269  0.54683494  0.77999928  1.0
  O  O18  1  0.87766269  0.95316506  0.72000072  1.0
  O  O19  1  0.87766269  0.54683494  0.72000072  1.0
  O  O20  1  0.62233731  0.45316506  0.22000072  1.0
  O  O21  1  0.62233731  0.04683494  0.22000072  1.0
  O  O22  1  0.12233731  0.45316506  0.27999928  1.0
  O  O23  1  0.12233731  0.04683494  0.27999928  1.0
