# generated using pymatgen
data_Na2Y2B2TeO10
_symmetry_space_group_name_H-M   'P 1'
_cell_length_a   6.37084745
_cell_length_b   10.11478683
_cell_length_c   6.82414804
_cell_angle_alpha   90.00000000
_cell_angle_beta   103.62310426
_cell_angle_gamma   90.00000000
_symmetry_Int_Tables_number   1
_chemical_formula_structural   Na2Y2B2TeO10
_chemical_formula_sum   'Na4 Y4 B4 Te2 O20'
_cell_volume   427.37470545
_cell_formula_units_Z   2
loop_
 _symmetry_equiv_pos_site_id
 _symmetry_equiv_pos_as_xyz
  1  'x, y, z'
loop_
 _atom_site_type_symbol
 _atom_site_label
 _atom_site_symmetry_multiplicity
 _atom_site_fract_x
 _atom_site_fract_y
 _atom_site_fract_z
 _atom_site_occupancy
  Na  Na0  1  0.58567444  0.11337057  0.16927203  1.0
  Na  Na1  1  0.58567444  0.38662943  0.66927203  1.0
  Na  Na2  1  0.41432556  0.61337057  0.33072797  1.0
  Na  Na3  1  0.41432556  0.88662943  0.83072797  1.0
  Y  Y4  1  0.87258392  0.83456499  0.47688717  1.0
  Y  Y5  1  0.87258392  0.66543501  0.97688717  1.0
  Y  Y6  1  0.12741608  0.33456499  0.02311283  1.0
  Y  Y7  1  0.12741608  0.16543501  0.52311283  1.0
  B  B8  1  0.66253106  0.40109518  0.12869768  1.0
  B  B9  1  0.66253106  0.09890482  0.62869768  1.0
  B  B10  1  0.33746894  0.90109518  0.37130232  1.0
  B  B11  1  0.33746894  0.59890482  0.87130232  1.0
  Te  Te12  1  -0.00000000  0.50000000  0.50000000  1.0
  Te  Te13  1  0.00000000  0.00000000  0.00000000  1.0
  O  O14  1  0.99210560  0.15390973  0.17949196  1.0
  O  O15  1  0.99210560  0.34609027  0.67949196  1.0
  O  O16  1  0.00789440  0.65390973  0.32050804  1.0
  O  O17  1  0.00789440  0.84609027  0.82050804  1.0
  O  O18  1  0.83253810  0.88083504  0.13614191  1.0
  O  O19  1  0.83253810  0.61916496  0.63614191  1.0
  O  O20  1  0.16746190  0.38083504  0.36385809  1.0
  O  O21  1  0.16746190  0.11916496  0.86385809  1.0
  O  O22  1  0.80303782  0.43911550  0.01369143  1.0
  O  O23  1  0.80303782  0.06088450  0.51369143  1.0
  O  O24  1  0.19696218  0.93911550  0.48630857  1.0
  O  O25  1  0.19696218  0.56088450  0.98630857  1.0
  O  O26  1  0.70219767  0.43807801  0.33544218  1.0
  O  O27  1  0.70219767  0.06192199  0.83544218  1.0
  O  O28  1  0.29780233  0.93807801  0.16455782  1.0
  O  O29  1  0.29780233  0.56192199  0.66455782  1.0
  O  O30  1  0.48126116  0.32944668  0.05527238  1.0
  O  O31  1  0.48126116  0.17055332  0.55527238  1.0
  O  O32  1  0.51873884  0.82944668  0.44472762  1.0
  O  O33  1  0.51873884  0.67055332  0.94472762  1.0
