# generated using pymatgen
data_Cs3SbSe3
_symmetry_space_group_name_H-M   'P 1'
_cell_length_a   10.83584876
_cell_length_b   10.83584876
_cell_length_c   10.83584876
_cell_angle_alpha   90.00000000
_cell_angle_beta   90.00000000
_cell_angle_gamma   90.00000000
_symmetry_Int_Tables_number   1
_chemical_formula_structural   Cs3SbSe3
_chemical_formula_sum   'Cs12 Sb4 Se12'
_cell_volume   1272.29788363
_cell_formula_units_Z   4
loop_
 _symmetry_equiv_pos_site_id
 _symmetry_equiv_pos_as_xyz
  1  'x, y, z'
loop_
 _atom_site_type_symbol
 _atom_site_label
 _atom_site_symmetry_multiplicity
 _atom_site_fract_x
 _atom_site_fract_y
 _atom_site_fract_z
 _atom_site_occupancy
  Cs  Cs0  1  0.43945110  0.93945110  0.56054890  1.0
  Cs  Cs1  1  0.93945110  0.56054890  0.43945110  1.0
  Cs  Cs2  1  0.56054890  0.43945110  0.93945110  1.0
  Cs  Cs3  1  0.06054890  0.06054890  0.06054890  1.0
  Cs  Cs4  1  0.93559622  0.43559622  0.06440378  1.0
  Cs  Cs5  1  0.43559622  0.06440378  0.93559622  1.0
  Cs  Cs6  1  0.06440378  0.93559622  0.43559622  1.0
  Cs  Cs7  1  0.56440378  0.56440378  0.56440378  1.0
  Cs  Cs8  1  0.67285391  0.17285391  0.32714609  1.0
  Cs  Cs9  1  0.17285391  0.32714609  0.67285391  1.0
  Cs  Cs10  1  0.32714609  0.67285391  0.17285391  1.0
  Cs  Cs11  1  0.82714609  0.82714609  0.82714609  1.0
  Sb  Sb12  1  0.22608605  0.72608605  0.77391395  1.0
  Sb  Sb13  1  0.72608605  0.77391395  0.22608605  1.0
  Sb  Sb14  1  0.77391395  0.22608605  0.72608605  1.0
  Sb  Sb15  1  0.27391395  0.27391395  0.27391395  1.0
  Se  Se16  1  0.45453563  0.74392773  0.84554259  1.0
  Se  Se17  1  0.95453563  0.75607227  0.15445741  1.0
  Se  Se18  1  0.24392773  0.65445741  0.54546437  1.0
  Se  Se19  1  0.74392773  0.84554259  0.45453563  1.0
  Se  Se20  1  0.15445741  0.95453563  0.75607227  1.0
  Se  Se21  1  0.65445741  0.54546437  0.24392773  1.0
  Se  Se22  1  0.54546437  0.24392773  0.65445741  1.0
  Se  Se23  1  0.04546437  0.25607227  0.34554259  1.0
  Se  Se24  1  0.75607227  0.15445741  0.95453563  1.0
  Se  Se25  1  0.25607227  0.34554259  0.04546437  1.0
  Se  Se26  1  0.84554259  0.45453563  0.74392773  1.0
  Se  Se27  1  0.34554259  0.04546437  0.25607227  1.0
