# generated using pymatgen
data_Lu10Al3Pd
_symmetry_space_group_name_H-M   'P 1'
_cell_length_a   9.35832932
_cell_length_b   9.35832932
_cell_length_c   9.35212650
_cell_angle_alpha   90.00000000
_cell_angle_beta   90.00000000
_cell_angle_gamma   120.00000000
_symmetry_Int_Tables_number   1
_chemical_formula_structural   Lu10Al3Pd
_chemical_formula_sum   'Lu20 Al6 Pd2'
_cell_volume   709.31256394
_cell_formula_units_Z   2
loop_
 _symmetry_equiv_pos_site_id
 _symmetry_equiv_pos_as_xyz
  1  'x, y, z'
loop_
 _atom_site_type_symbol
 _atom_site_label
 _atom_site_symmetry_multiplicity
 _atom_site_fract_x
 _atom_site_fract_y
 _atom_site_fract_z
 _atom_site_occupancy
  Lu  Lu0  1  0.20481828  0.79518172  0.44544751  1.0
  Lu  Lu1  1  0.20481828  0.40963657  0.44544751  1.0
  Lu  Lu2  1  0.59036343  0.79518172  0.44544751  1.0
  Lu  Lu3  1  0.79518172  0.20481828  0.55455249  1.0
  Lu  Lu4  1  0.79518172  0.59036343  0.55455249  1.0
  Lu  Lu5  1  0.40963657  0.20481828  0.55455249  1.0
  Lu  Lu6  1  0.79518172  0.20481828  0.94544751  1.0
  Lu  Lu7  1  0.79518172  0.59036343  0.94544751  1.0
  Lu  Lu8  1  0.40963657  0.20481828  0.94544751  1.0
  Lu  Lu9  1  0.20481828  0.79518172  0.05455249  1.0
  Lu  Lu10  1  0.20481828  0.40963657  0.05455249  1.0
  Lu  Lu11  1  0.59036343  0.79518172  0.05455249  1.0
  Lu  Lu12  1  0.54266339  0.45733661  0.25000000  1.0
  Lu  Lu13  1  0.54266339  0.08532679  0.25000000  1.0
  Lu  Lu14  1  0.91467321  0.45733661  0.25000000  1.0
  Lu  Lu15  1  0.45733661  0.54266339  0.75000000  1.0
  Lu  Lu16  1  0.45733661  0.91467321  0.75000000  1.0
  Lu  Lu17  1  0.08532679  0.54266339  0.75000000  1.0
  Lu  Lu18  1  -0.00000000  -0.00000000  0.50000000  1.0
  Lu  Lu19  1  0.00000000  0.00000000  0.00000000  1.0
  Al  Al20  1  0.22497832  0.11248916  0.25000000  1.0
  Al  Al21  1  0.88751084  0.11248916  0.25000000  1.0
  Al  Al22  1  0.88751084  0.77502168  0.25000000  1.0
  Al  Al23  1  0.77502168  0.88751084  0.75000000  1.0
  Al  Al24  1  0.11248916  0.88751084  0.75000000  1.0
  Al  Al25  1  0.11248916  0.22497832  0.75000000  1.0
  Pd  Pd26  1  0.33333333  0.66666667  0.25000000  1.0
  Pd  Pd27  1  0.66666667  0.33333333  0.75000000  1.0
