# generated using pymatgen
data_Cu3Sn
_symmetry_space_group_name_H-M   'P 1'
_cell_length_a   5.55205997
_cell_length_b   4.30919489
_cell_length_c   4.90022767
_cell_angle_alpha   90.00000000
_cell_angle_beta   90.00000000
_cell_angle_gamma   90.00000000
_symmetry_Int_Tables_number   1
_chemical_formula_structural   Cu3Sn
_chemical_formula_sum   'Cu6 Sn2'
_cell_volume   117.23749828
_cell_formula_units_Z   2
loop_
 _symmetry_equiv_pos_site_id
 _symmetry_equiv_pos_as_xyz
  1  'x, y, z'
loop_
 _atom_site_type_symbol
 _atom_site_label
 _atom_site_symmetry_multiplicity
 _atom_site_fract_x
 _atom_site_fract_y
 _atom_site_fract_z
 _atom_site_occupancy
  Cu  Cu0  1  0.50000000  0.00000000  0.70639457  1.0
  Cu  Cu1  1  0.00000000  0.50000000  0.29360543  1.0
  Cu  Cu2  1  0.74590811  0.50000000  0.84673896  1.0
  Cu  Cu3  1  0.24590811  0.00000000  0.15326104  1.0
  Cu  Cu4  1  0.75409189  0.00000000  0.15326104  1.0
  Cu  Cu5  1  0.25409189  0.50000000  0.84673896  1.0
  Sn  Sn6  1  0.50000000  0.50000000  0.34665898  1.0
  Sn  Sn7  1  0.00000000  0.00000000  0.65334102  1.0
