# generated using pymatgen
data_TeCF3
_symmetry_space_group_name_H-M   'P 1'
_cell_length_a   7.23174902
_cell_length_b   12.48679605
_cell_length_c   10.73366485
_cell_angle_alpha   90.00000000
_cell_angle_beta   97.62687305
_cell_angle_gamma   90.00000000
_symmetry_Int_Tables_number   1
_chemical_formula_structural   TeCF3
_chemical_formula_sum   'Te8 C8 F24'
_cell_volume   960.68999850
_cell_formula_units_Z   8
loop_
 _symmetry_equiv_pos_site_id
 _symmetry_equiv_pos_as_xyz
  1  'x, y, z'
loop_
 _atom_site_type_symbol
 _atom_site_label
 _atom_site_symmetry_multiplicity
 _atom_site_fract_x
 _atom_site_fract_y
 _atom_site_fract_z
 _atom_site_occupancy
  Te  Te0  1  0.98537733  0.08685754  0.18662652  1.0
  Te  Te1  1  0.98537733  0.41314246  0.68662652  1.0
  Te  Te2  1  0.01462267  0.58685754  0.31337348  1.0
  Te  Te3  1  0.01462267  0.91314246  0.81337348  1.0
  Te  Te4  1  0.75581705  0.37234304  0.47179440  1.0
  Te  Te5  1  0.75581705  0.12765696  0.97179440  1.0
  Te  Te6  1  0.24418295  0.87234304  0.02820560  1.0
  Te  Te7  1  0.24418295  0.62765696  0.52820560  1.0
  C  C8  1  0.80734978  0.96576965  0.26855864  1.0
  C  C9  1  0.80734978  0.53423035  0.76855864  1.0
  C  C10  1  0.19265022  0.46576965  0.23144136  1.0
  C  C11  1  0.19265022  0.03423035  0.73144136  1.0
  C  C12  1  0.59194502  0.25885651  0.04999539  1.0
  C  C13  1  0.59194502  0.24114349  0.54999539  1.0
  C  C14  1  0.40805498  0.75885651  0.45000461  1.0
  C  C15  1  0.40805498  0.74114349  0.95000461  1.0
  F  F16  1  0.90048602  0.93332592  0.38079992  1.0
  F  F17  1  0.90048602  0.56667408  0.88079992  1.0
  F  F18  1  0.09951398  0.43332592  0.11920008  1.0
  F  F19  1  0.09951398  0.06667408  0.61920008  1.0
  F  F20  1  0.77214286  0.87772720  0.19487632  1.0
  F  F21  1  0.77214286  0.62227280  0.69487632  1.0
  F  F22  1  0.22785714  0.37772720  0.30512368  1.0
  F  F23  1  0.22785714  0.12227280  0.80512368  1.0
  F  F24  1  0.70034852  0.33927512  0.10515775  1.0
  F  F25  1  0.70034852  0.16072488  0.60515775  1.0
  F  F26  1  0.29965148  0.83927512  0.39484225  1.0
  F  F27  1  0.29965148  0.66072488  0.89484225  1.0
  F  F28  1  0.64044231  0.00632557  0.28980506  1.0
  F  F29  1  0.64044231  0.49367443  0.78980506  1.0
  F  F30  1  0.35955769  0.50632557  0.21019494  1.0
  F  F31  1  0.35955769  0.99367443  0.71019494  1.0
  F  F32  1  0.48417546  0.22354236  0.13649264  1.0
  F  F33  1  0.48417546  0.27645764  0.63649264  1.0
  F  F34  1  0.51582454  0.72354236  0.36350736  1.0
  F  F35  1  0.51582454  0.77645764  0.86350736  1.0
  F  F36  1  0.47576360  0.19816201  0.45241138  1.0
  F  F37  1  0.47576360  0.30183799  0.95241138  1.0
  F  F38  1  0.52423640  0.69816201  0.04758862  1.0
  F  F39  1  0.52423640  0.80183799  0.54758862  1.0
