# generated using pymatgen
data_Ge3Ir2Se3
_symmetry_space_group_name_H-M   'P 1'
_cell_length_a   8.67490377
_cell_length_b   8.67490377
_cell_length_c   8.67490377
_cell_angle_alpha   89.81188374
_cell_angle_beta   89.81188374
_cell_angle_gamma   89.81188374
_symmetry_Int_Tables_number   1
_chemical_formula_structural   Ge3Ir2Se3
_chemical_formula_sum   'Ge12 Ir8 Se12'
_cell_volume   652.81028826
_cell_formula_units_Z   4
loop_
 _symmetry_equiv_pos_site_id
 _symmetry_equiv_pos_as_xyz
  1  'x, y, z'
loop_
 _atom_site_type_symbol
 _atom_site_label
 _atom_site_symmetry_multiplicity
 _atom_site_fract_x
 _atom_site_fract_y
 _atom_site_fract_z
 _atom_site_occupancy
  Ge  Ge0  1  0.65151018  0.50183861  -0.83167475  1.0
  Ge  Ge1  1  0.49816139  0.83167475  -0.65151018  1.0
  Ge  Ge2  1  0.83167475  0.34848982  -0.50183861  1.0
  Ge  Ge3  1  0.34848982  0.49816139  -0.16832525  1.0
  Ge  Ge4  1  0.50183861  0.16832525  -0.34848982  1.0
  Ge  Ge5  1  0.16832525  0.65151018  -0.49816139  1.0
  Ge  Ge6  1  0.66846520  -0.15100300  0.00171939  1.0
  Ge  Ge7  1  1.15100300  -0.00171939  -0.66846520  1.0
  Ge  Ge8  1  0.99828061  -0.66846520  0.15100300  1.0
  Ge  Ge9  1  0.33153480  0.15100300  -0.00171939  1.0
  Ge  Ge10  1  0.84899700  0.00171939  -0.33153480  1.0
  Ge  Ge11  1  1.00171939  -0.33153480  -0.15100300  1.0
  Ir  Ir12  1  0.75215685  0.75215685  -0.24784315  1.0
  Ir  Ir13  1  1.24784315  1.24784315  0.24784315  1.0
  Ir  Ir14  1  0.74655930  0.75177778  -0.74957672  1.0
  Ir  Ir15  1  0.24822222  0.74957672  -0.74655930  1.0
  Ir  Ir16  1  0.74957672  0.25344070  -0.75177778  1.0
  Ir  Ir17  1  0.25344070  0.24822222  -0.25042328  1.0
  Ir  Ir18  1  0.75177778  0.25042328  -0.25344070  1.0
  Ir  Ir19  1  0.25042328  0.74655930  -0.24822222  1.0
  Se  Se20  1  0.64744734  0.14275997  0.00017233  1.0
  Se  Se21  1  0.85724003  -0.00017233  -0.64744734  1.0
  Se  Se22  1  0.99982767  -0.64744734  -0.14275997  1.0
  Se  Se23  1  0.35255266  -0.14275997  -0.00017233  1.0
  Se  Se24  1  1.14275997  0.00017233  -0.35255266  1.0
  Se  Se25  1  1.00017233  -0.35255266  0.14275997  1.0
  Se  Se26  1  0.64208275  0.50238034  -0.14728632  1.0
  Se  Se27  1  1.49761966  1.14728632  0.35791725  1.0
  Se  Se28  1  1.14728632  1.35791725  0.49761966  1.0
  Se  Se29  1  1.35791725  1.49761966  0.14728632  1.0
  Se  Se30  1  0.50238034  0.85271368  -0.35791725  1.0
  Se  Se31  1  0.85271368  0.64208275  -0.49761966  1.0
