# generated using pymatgen
data_LiClO4
_symmetry_space_group_name_H-M   'P 1'
_cell_length_a   8.77381823
_cell_length_b   7.04208832
_cell_length_c   4.95377106
_cell_angle_alpha   90.00000000
_cell_angle_beta   90.00000000
_cell_angle_gamma   90.00000000
_symmetry_Int_Tables_number   1
_chemical_formula_structural   LiClO4
_chemical_formula_sum   'Li4 Cl4 O16'
_cell_volume   306.07371310
_cell_formula_units_Z   4
loop_
 _symmetry_equiv_pos_site_id
 _symmetry_equiv_pos_as_xyz
  1  'x, y, z'
loop_
 _atom_site_type_symbol
 _atom_site_label
 _atom_site_symmetry_multiplicity
 _atom_site_fract_x
 _atom_site_fract_y
 _atom_site_fract_z
 _atom_site_occupancy
  Li  Li0  1  0.00000000  0.50000000  0.00000000  1.0
  Li  Li1  1  0.00000000  0.00000000  0.00000000  1.0
  Li  Li2  1  0.50000000  0.50000000  0.50000000  1.0
  Li  Li3  1  0.50000000  0.00000000  0.50000000  1.0
  Cl  Cl4  1  0.68111370  0.25000000  0.04396267  1.0
  Cl  Cl5  1  0.18111370  0.25000000  0.45603733  1.0
  Cl  Cl6  1  0.31888630  0.75000000  0.95603733  1.0
  Cl  Cl7  1  0.81888630  0.75000000  0.54396267  1.0
  O  O8  1  0.62877935  0.42115852  0.18191052  1.0
  O  O9  1  0.62877935  0.07884148  0.18191052  1.0
  O  O10  1  0.12877935  0.42115852  0.31808948  1.0
  O  O11  1  0.12877935  0.07884148  0.31808948  1.0
  O  O12  1  0.37122065  0.92115852  0.81808948  1.0
  O  O13  1  0.37122065  0.57884148  0.81808948  1.0
  O  O14  1  0.87122065  0.92115852  0.68191052  1.0
  O  O15  1  0.87122065  0.57884148  0.68191052  1.0
  O  O16  1  0.84966836  0.25000000  0.04542451  1.0
  O  O17  1  0.34966836  0.25000000  0.45457549  1.0
  O  O18  1  0.15033164  0.75000000  0.95457549  1.0
  O  O19  1  0.65033164  0.75000000  0.54542451  1.0
  O  O20  1  0.62513789  0.25000000  0.76580936  1.0
  O  O21  1  0.12513789  0.25000000  0.73419064  1.0
  O  O22  1  0.37486211  0.75000000  0.23419064  1.0
  O  O23  1  0.87486211  0.75000000  0.26580936  1.0
