# generated using pymatgen
data_VNCl3
_symmetry_space_group_name_H-M   'P 1'
_cell_length_a   7.57997246
_cell_length_b   7.57997246
_cell_length_c   5.93027282
_cell_angle_alpha   90.00000000
_cell_angle_beta   90.00000000
_cell_angle_gamma   120.00000000
_symmetry_Int_Tables_number   1
_chemical_formula_structural   VNCl3
_chemical_formula_sum   'V2 N2 Cl6'
_cell_volume   295.08053404
_cell_formula_units_Z   2
loop_
 _symmetry_equiv_pos_site_id
 _symmetry_equiv_pos_as_xyz
  1  'x, y, z'
loop_
 _atom_site_type_symbol
 _atom_site_label
 _atom_site_symmetry_multiplicity
 _atom_site_fract_x
 _atom_site_fract_y
 _atom_site_fract_z
 _atom_site_occupancy
  V  V0  1  0.00000000  0.00000000  0.50000000  1.0
  V  V1  1  0.00000000  0.00000000  0.00000000  1.0
  N  N2  1  0.33333333  0.66666667  0.75000000  1.0
  N  N3  1  0.66666667  0.33333333  0.25000000  1.0
  Cl  Cl4  1  0.14143792  0.85856208  0.25000000  1.0
  Cl  Cl5  1  0.14143792  0.28287583  0.25000000  1.0
  Cl  Cl6  1  0.85856208  0.14143792  0.75000000  1.0
  Cl  Cl7  1  0.85856208  0.71712417  0.75000000  1.0
  Cl  Cl8  1  0.71712417  0.85856208  0.25000000  1.0
  Cl  Cl9  1  0.28287583  0.14143792  0.75000000  1.0
