# generated using pymatgen
data_Cd(BrN)2
_symmetry_space_group_name_H-M   'P 1'
_cell_length_a   6.08337425
_cell_length_b   6.08337425
_cell_length_c   3.90391150
_cell_angle_alpha   90.00000000
_cell_angle_beta   90.00000000
_cell_angle_gamma   83.41954310
_symmetry_Int_Tables_number   1
_chemical_formula_structural   Cd(BrN)2
_chemical_formula_sum   'Cd1 Br2 N2'
_cell_volume   143.52197333
_cell_formula_units_Z   1
loop_
 _symmetry_equiv_pos_site_id
 _symmetry_equiv_pos_as_xyz
  1  'x, y, z'
loop_
 _atom_site_type_symbol
 _atom_site_label
 _atom_site_symmetry_multiplicity
 _atom_site_fract_x
 _atom_site_fract_y
 _atom_site_fract_z
 _atom_site_occupancy
  Cd  Cd0  1  0.00000000  0.00000000  0.00000000  1.0
  Br  Br1  1  -0.23325504  0.23325504  0.50000000  1.0
  Br  Br2  1  -0.76674496  0.76674496  0.50000000  1.0
  N  N3  1  0.28761098  1.28761098  0.00000000  1.0
  N  N4  1  -0.28761098  0.71238902  0.00000000  1.0
