# generated using pymatgen
data_Rb2Pd(NO2)4
_symmetry_space_group_name_H-M   'P 1'
_cell_length_a   4.76123011
_cell_length_b   8.14057278
_cell_length_c   13.15003520
_cell_angle_alpha   90.00000000
_cell_angle_beta   97.98720738
_cell_angle_gamma   90.00000000
_symmetry_Int_Tables_number   1
_chemical_formula_structural   Rb2Pd(NO2)4
_chemical_formula_sum   'Rb4 Pd2 N8 O16'
_cell_volume   504.73967390
_cell_formula_units_Z   2
loop_
 _symmetry_equiv_pos_site_id
 _symmetry_equiv_pos_as_xyz
  1  'x, y, z'
loop_
 _atom_site_type_symbol
 _atom_site_label
 _atom_site_symmetry_multiplicity
 _atom_site_fract_x
 _atom_site_fract_y
 _atom_site_fract_z
 _atom_site_occupancy
  Rb  Rb0  1  0.64811462  0.48543667  0.83900743  1.0
  Rb  Rb1  1  0.64811462  0.01456333  0.33900743  1.0
  Rb  Rb2  1  0.35188538  0.98543667  0.66099257  1.0
  Rb  Rb3  1  0.35188538  0.51456333  0.16099257  1.0
  Pd  Pd4  1  0.00000000  0.00000000  0.00000000  1.0
  Pd  Pd5  1  -0.00000000  0.50000000  0.50000000  1.0
  N  N6  1  0.95316250  0.34899823  0.62096623  1.0
  N  N7  1  0.95316250  0.15100177  0.12096623  1.0
  N  N8  1  0.04683750  0.84899823  0.87903377  1.0
  N  N9  1  0.04683750  0.65100177  0.37903377  1.0
  N  N10  1  0.76931618  0.67876390  0.56481865  1.0
  N  N11  1  0.76931618  0.82123610  0.06481865  1.0
  N  N12  1  0.23068382  0.17876390  0.93518135  1.0
  N  N13  1  0.23068382  0.32123610  0.43518135  1.0
  O  O14  1  0.90548512  0.87594044  0.79332720  1.0
  O  O15  1  0.90548512  0.62405956  0.29332720  1.0
  O  O16  1  0.09451488  0.37594044  0.70667280  1.0
  O  O17  1  0.09451488  0.12405956  0.20667280  1.0
  O  O18  1  0.80215014  0.82754530  0.54562559  1.0
  O  O19  1  0.80215014  0.67245470  0.04562559  1.0
  O  O20  1  0.19784986  0.32754530  0.95437441  1.0
  O  O21  1  0.19784986  0.17245470  0.45437441  1.0
  O  O22  1  0.59423815  0.63748009  0.62197227  1.0
  O  O23  1  0.59423815  0.86251991  0.12197227  1.0
  O  O24  1  0.40576185  0.13748009  0.87802773  1.0
  O  O25  1  0.40576185  0.36251991  0.37802773  1.0
  O  O26  1  0.21928512  0.73383221  0.89046246  1.0
  O  O27  1  0.21928512  0.76616779  0.39046246  1.0
  O  O28  1  0.78071488  0.23383221  0.60953754  1.0
  O  O29  1  0.78071488  0.26616779  0.10953754  1.0
