# generated using pymatgen
data_K2Ni(PO3)4
_symmetry_space_group_name_H-M   'P 1'
_cell_length_a   8.49199940
_cell_length_b   8.49199940
_cell_length_c   7.73162393
_cell_angle_alpha   81.45878907
_cell_angle_beta   98.54121093
_cell_angle_gamma   82.81050636
_symmetry_Int_Tables_number   1
_chemical_formula_structural   K2Ni(PO3)4
_chemical_formula_sum   'K4 Ni2 P8 O24'
_cell_volume   539.04687449
_cell_formula_units_Z   2
loop_
 _symmetry_equiv_pos_site_id
 _symmetry_equiv_pos_as_xyz
  1  'x, y, z'
loop_
 _atom_site_type_symbol
 _atom_site_label
 _atom_site_symmetry_multiplicity
 _atom_site_fract_x
 _atom_site_fract_y
 _atom_site_fract_z
 _atom_site_occupancy
  K  K0  1  0.86841023  -0.12051159  0.48113175  1.0
  K  K1  1  1.12051159  0.13158977  -0.01886825  1.0
  K  K2  1  1.56113546  0.16877244  0.81687487  1.0
  K  K3  1  0.83122756  -0.56113546  0.31687487  1.0
  Ni  Ni4  1  0.51457823  -0.21343179  0.15534310  1.0
  Ni  Ni5  1  1.21343179  0.48542177  0.65534310  1.0
  P  P6  1  1.18193978  0.66813048  0.24281490  1.0
  P  P7  1  0.33186952  -0.18193978  0.74281490  1.0
  P  P8  1  1.49076456  0.12524032  0.32317091  1.0
  P  P9  1  0.87475968  -0.49076456  0.82317091  1.0
  P  P10  1  1.18726997  0.13575653  0.48192526  1.0
  P  P11  1  0.86424347  -0.18726997  0.98192526  1.0
  P  P12  1  1.39741390  0.44746364  0.08332497  1.0
  P  P13  1  0.55253636  -0.39741390  0.58332497  1.0
  O  O14  1  0.63054155  -0.33558751  0.42793657  1.0
  O  O15  1  1.33558751  0.36945845  0.92793657  1.0
  O  O16  1  0.75693283  -0.23566328  0.11390984  1.0
  O  O17  1  1.23566328  0.24306717  0.61390984  1.0
  O  O18  1  0.50421268  -0.42429700  0.06175156  1.0
  O  O19  1  1.42429700  0.49578732  0.56175156  1.0
  O  O20  1  0.84814431  -0.01686904  0.88869966  1.0
  O  O21  1  1.01686904  0.15185569  0.38869966  1.0
  O  O22  1  1.24425569  0.50480019  0.17273650  1.0
  O  O23  1  0.49519981  -0.24425569  0.67273650  1.0
  O  O24  1  0.31006914  -0.22464103  0.26181631  1.0
  O  O25  1  1.22464103  0.68993086  0.76181631  1.0
  O  O26  1  1.52523351  0.02068453  0.18631824  1.0
  O  O27  1  0.97931547  -0.52523351  0.68631824  1.0
  O  O28  1  1.59172873  0.08793023  0.50352452  1.0
  O  O29  1  0.91206977  -0.59172873  1.00352452  1.0
  O  O30  1  1.09770030  0.61866806  0.39715248  1.0
  O  O31  1  0.38133194  -0.09770030  0.89715248  1.0
  O  O32  1  1.05077438  0.76498956  0.07721408  1.0
  O  O33  1  0.23501044  -0.05077438  0.57721408  1.0
  O  O34  1  1.50670921  0.30917632  0.23764936  1.0
  O  O35  1  0.69082368  -0.50670921  0.73764936  1.0
  O  O36  1  1.29768650  0.14228989  0.32570513  1.0
  O  O37  1  0.85771011  -0.29768650  0.82570513  1.0
