# generated using pymatgen
data_Si4O9
_symmetry_space_group_name_H-M   'P 1'
_cell_length_a   15.32082505
_cell_length_b   15.32082505
_cell_length_c   15.32082505
_cell_angle_alpha   151.84748286
_cell_angle_beta   151.84748286
_cell_angle_gamma   40.23607007
_symmetry_Int_Tables_number   1
_chemical_formula_structural   Si4O9
_chemical_formula_sum   'Si16 O36'
_cell_volume   798.98668261
_cell_formula_units_Z   4
loop_
 _symmetry_equiv_pos_site_id
 _symmetry_equiv_pos_as_xyz
  1  'x, y, z'
loop_
 _atom_site_type_symbol
 _atom_site_label
 _atom_site_symmetry_multiplicity
 _atom_site_fract_x
 _atom_site_fract_y
 _atom_site_fract_z
 _atom_site_occupancy
  Si  Si0  1  0.95962397  1.04037603  1.50000000  1.0
  Si  Si1  1  0.54037603  0.45962397  0.50000000  1.0
  Si  Si2  1  0.20962397  0.79037603  1.00000000  1.0
  Si  Si3  1  0.79037603  0.20962397  1.00000000  1.0
  Si  Si4  1  0.95962397  0.45962397  0.91924795  1.0
  Si  Si5  1  0.54037603  1.04037603  1.08075205  1.0
  Si  Si6  1  0.20962397  0.20962397  0.41924795  1.0
  Si  Si7  1  0.79037603  0.79037603  1.58075205  1.0
  Si  Si8  1  0.17283614  0.46942121  0.29658507  1.0
  Si  Si9  1  0.17283614  0.87625106  0.70341493  1.0
  Si  Si10  1  0.57716386  0.37374894  0.79658507  1.0
  Si  Si11  1  0.57716386  0.78057879  1.20341493  1.0
  Si  Si12  1  0.53057879  0.82716386  0.70341493  1.0
  Si  Si13  1  1.12374894  0.82716386  1.29658507  1.0
  Si  Si14  1  0.62625106  0.42283614  0.20341493  1.0
  Si  Si15  1  1.21942121  0.42283614  0.79658507  1.0
  O  O16  1  1.22916389  0.63346314  0.95357263  1.0
  O  O17  1  0.67989051  1.27559126  1.04642737  1.0
  O  O18  1  1.07010949  0.97440874  1.45357263  1.0
  O  O19  1  0.52083611  0.61653686  0.54642737  1.0
  O  O20  1  1.22916389  1.27559126  1.59570075  1.0
  O  O21  1  0.67989051  0.63346314  0.40429925  1.0
  O  O22  1  1.07010949  0.61653686  1.09570075  1.0
  O  O23  1  0.52083611  0.97440874  0.90429925  1.0
  O  O24  1  0.36653686  0.77083611  1.04642737  1.0
  O  O25  1  0.72440874  0.32010949  0.95357263  1.0
  O  O26  1  1.02559126  0.92989051  1.54642737  1.0
  O  O27  1  0.38346314  0.47916389  0.45357263  1.0
  O  O28  1  0.36653686  0.32010949  0.59570075  1.0
  O  O29  1  0.72440874  0.77083611  1.40429925  1.0
  O  O30  1  1.02559126  0.47916389  1.09570075  1.0
  O  O31  1  0.38346314  0.92989051  0.90429925  1.0
  O  O32  1  0.34940777  0.84940777  0.50000000  1.0
  O  O33  1  0.40059223  0.40059223  -0.00000000  1.0
  O  O34  1  0.15059223  0.65059223  0.50000000  1.0
  O  O35  1  0.59940777  0.59940777  1.00000000  1.0
  O  O36  1  0.01044806  0.25882186  0.24837379  1.0
  O  O37  1  0.01044806  0.76207427  0.75162621  1.0
  O  O38  1  0.73955194  0.48792573  0.74837379  1.0
  O  O39  1  0.73955194  0.99117814  1.25162621  1.0
  O  O40  1  0.74117814  0.98955194  0.75162621  1.0
  O  O41  1  1.23792573  0.98955194  1.24837379  1.0
  O  O42  1  0.51207427  0.26044806  0.25162621  1.0
  O  O43  1  1.00882186  0.26044806  0.74837379  1.0
  O  O44  1  0.12976750  0.27531695  0.14554945  1.0
  O  O45  1  0.12976750  0.98421805  0.85445055  1.0
  O  O46  1  0.62023250  0.26578195  0.64554945  1.0
  O  O47  1  0.62023250  0.97468305  1.35445055  1.0
  O  O48  1  0.72468305  0.87023250  0.85445055  1.0
  O  O49  1  1.01578195  0.87023250  1.14554945  1.0
  O  O50  1  0.73421805  0.37976750  0.35445055  1.0
  O  O51  1  1.02531695  0.37976750  0.64554945  1.0
