# generated using pymatgen
data_SnP2O9
_symmetry_space_group_name_H-M   'P 1'
_cell_length_a   8.60728734
_cell_length_b   5.09248363
_cell_length_c   15.82806844
_cell_angle_alpha   90.00000000
_cell_angle_beta   108.53161996
_cell_angle_gamma   90.00000000
_symmetry_Int_Tables_number   1
_chemical_formula_structural   SnP2O9
_chemical_formula_sum   'Sn4 P8 O36'
_cell_volume   657.80955597
_cell_formula_units_Z   4
loop_
 _symmetry_equiv_pos_site_id
 _symmetry_equiv_pos_as_xyz
  1  'x, y, z'
loop_
 _atom_site_type_symbol
 _atom_site_label
 _atom_site_symmetry_multiplicity
 _atom_site_fract_x
 _atom_site_fract_y
 _atom_site_fract_z
 _atom_site_occupancy
  Sn  Sn0  1  0.76285989  0.26358198  0.02573473  1.0
  Sn  Sn1  1  0.76285989  0.23641802  0.52573473  1.0
  Sn  Sn2  1  0.23714011  0.76358198  0.47426527  1.0
  Sn  Sn3  1  0.23714011  0.73641802  0.97426527  1.0
  O  O4  1  0.57798958  0.44756631  0.43513439  1.0
  O  O5  1  0.57798958  0.05243369  0.93513439  1.0
  O  O6  1  0.42201042  0.94756631  0.06486561  1.0
  O  O7  1  0.42201042  0.55243369  0.56486561  1.0
  O  O8  1  0.60726987  0.35045822  0.09675890  1.0
  O  O9  1  0.60726987  0.14954178  0.59675890  1.0
  O  O10  1  0.39273013  0.85045822  0.40324110  1.0
  O  O11  1  0.39273013  0.64954178  0.90324110  1.0
  O  O12  1  0.70261439  0.90771175  0.44600597  1.0
  O  O13  1  0.70261439  0.59228825  0.94600597  1.0
  O  O14  1  0.29738561  0.40771175  0.05399403  1.0
  O  O15  1  0.29738561  0.09228825  0.55399403  1.0
  O  O16  1  0.85179743  0.93963331  0.10454411  1.0
  O  O17  1  0.85179743  0.56036669  0.60454411  1.0
  O  O18  1  0.14820257  0.43963331  0.39545589  1.0
  O  O19  1  0.14820257  0.06036669  0.89545589  1.0
  O  O20  1  0.90270938  0.34421071  0.44590742  1.0
  O  O21  1  0.90270938  0.15578929  0.94590742  1.0
  O  O22  1  0.09729062  0.84421071  0.05409258  1.0
  O  O23  1  0.09729062  0.65578929  0.55409258  1.0
  O  O24  1  0.95440967  0.47048454  0.11166011  1.0
  O  O25  1  0.95440967  0.02951546  0.61166011  1.0
  O  O26  1  0.04559033  0.97048454  0.38833989  1.0
  O  O27  1  0.04559033  0.52951546  0.88833989  1.0
  O  O28  1  0.22485764  0.19708660  0.22483196  1.0
  O  O29  1  0.22485764  0.30291340  0.72483196  1.0
  O  O30  1  0.77514236  0.69708660  0.27516804  1.0
  O  O31  1  0.77514236  0.80291340  0.77516804  1.0
  O  O32  1  0.45875165  0.21115034  0.20422571  1.0
  O  O33  1  0.45875165  0.28884966  0.70422571  1.0
  O  O34  1  0.54124835  0.71115034  0.29577429  1.0
  O  O35  1  0.54124835  0.78884966  0.79577429  1.0
  O  O36  1  0.86853560  0.30224833  0.28487753  1.0
  O  O37  1  0.86853560  0.19775167  0.78487753  1.0
  O  O38  1  0.13146440  0.80224833  0.21512247  1.0
  O  O39  1  0.13146440  0.69775167  0.71512247  1.0
  P  P40  1  0.44508855  0.23141417  0.10251787  1.0
  P  P41  1  0.44508855  0.26858583  0.60251787  1.0
  P  P42  1  0.55491145  0.73141417  0.39748213  1.0
  P  P43  1  0.55491145  0.76858583  0.89748213  1.0
  P  P44  1  0.99440522  0.26429098  0.38016177  1.0
  P  P45  1  0.99440522  0.23570902  0.88016177  1.0
  P  P46  1  0.00559478  0.76429098  0.11983823  1.0
  P  P47  1  0.00559478  0.73570902  0.61983823  1.0
