# generated using pymatgen
data_SrYSi4N7
_symmetry_space_group_name_H-M   'P 1'
_cell_length_a   6.05242893
_cell_length_b   6.05242893
_cell_length_c   9.87710377
_cell_angle_alpha   90.00000000
_cell_angle_beta   90.00000000
_cell_angle_gamma   120.00000000
_symmetry_Int_Tables_number   1
_chemical_formula_structural   SrYSi4N7
_chemical_formula_sum   'Sr2 Y2 Si8 N14'
_cell_volume   313.34274588
_cell_formula_units_Z   2
loop_
 _symmetry_equiv_pos_site_id
 _symmetry_equiv_pos_as_xyz
  1  'x, y, z'
loop_
 _atom_site_type_symbol
 _atom_site_label
 _atom_site_symmetry_multiplicity
 _atom_site_fract_x
 _atom_site_fract_y
 _atom_site_fract_z
 _atom_site_occupancy
  Sr  Sr0  1  0.33333333  0.66666667  0.44453997  1.0
  Sr  Sr1  1  0.66666667  0.33333333  0.94453997  1.0
  Y  Y2  1  0.33333333  0.66666667  0.07555720  1.0
  Y  Y3  1  0.66666667  0.33333333  0.57555720  1.0
  Si  Si4  1  0.34773232  0.17386616  0.26612579  1.0
  Si  Si5  1  0.17386616  0.34773232  0.76612579  1.0
  Si  Si6  1  0.17386616  0.82613384  0.76612579  1.0
  Si  Si7  1  0.82613384  0.17386616  0.26612579  1.0
  Si  Si8  1  0.82613384  0.65226768  0.26612579  1.0
  Si  Si9  1  0.65226768  0.82613384  0.76612579  1.0
  Si  Si10  1  -0.00000000  0.00000000  -0.00123007  1.0
  Si  Si11  1  -0.00000000  -0.00000000  0.49876993  1.0
  N  N12  1  0.97757354  0.48878677  0.21392476  1.0
  N  N13  1  0.48878677  0.97757354  0.71392476  1.0
  N  N14  1  0.48878677  0.51121323  0.71392476  1.0
  N  N15  1  0.51121323  0.48878677  0.21392476  1.0
  N  N16  1  0.51121323  0.02242646  0.21392476  1.0
  N  N17  1  0.02242646  0.51121323  0.71392476  1.0
  N  N18  1  0.30654980  0.15327490  0.43904859  1.0
  N  N19  1  0.15327490  0.30654980  0.93904859  1.0
  N  N20  1  0.15327490  0.84672510  0.93904859  1.0
  N  N21  1  0.84672510  0.15327490  0.43904859  1.0
  N  N22  1  0.84672510  0.69345020  0.43904859  1.0
  N  N23  1  0.69345020  0.84672510  0.93904859  1.0
  N  N24  1  -0.00000000  0.00000000  0.18963547  1.0
  N  N25  1  0.00000000  -0.00000000  0.68963547  1.0
