# generated using pymatgen
data_Re3(NiMo2)4
_symmetry_space_group_name_H-M   'P 1'
_cell_length_a   9.35321441
_cell_length_b   9.35321441
_cell_length_c   4.87999458
_cell_angle_alpha   90.00000000
_cell_angle_beta   90.00000000
_cell_angle_gamma   90.00000000
_symmetry_Int_Tables_number   1
_chemical_formula_structural   Re3(NiMo2)4
_chemical_formula_sum   'Re6 Ni8 Mo16'
_cell_volume   426.91471066
_cell_formula_units_Z   2
loop_
 _symmetry_equiv_pos_site_id
 _symmetry_equiv_pos_as_xyz
  1  'x, y, z'
loop_
 _atom_site_type_symbol
 _atom_site_label
 _atom_site_symmetry_multiplicity
 _atom_site_fract_x
 _atom_site_fract_y
 _atom_site_fract_z
 _atom_site_occupancy
  Re  Re0  1  0.50000000  0.50000000  0.50000000  1.0
  Re  Re1  1  0.00000000  0.00000000  0.00000000  1.0
  Re  Re2  1  0.10472522  0.89527478  0.50000000  1.0
  Re  Re3  1  0.89527478  0.10472522  0.50000000  1.0
  Re  Re4  1  0.39527478  0.39527478  0.00000000  1.0
  Re  Re5  1  0.60472522  0.60472522  0.00000000  1.0
  Ni  Ni6  1  0.43000812  0.24285110  0.50000000  1.0
  Ni  Ni7  1  0.56999188  0.75714890  0.50000000  1.0
  Ni  Ni8  1  0.06999188  0.74285110  0.00000000  1.0
  Ni  Ni9  1  0.93000812  0.25714890  0.00000000  1.0
  Ni  Ni10  1  0.24285110  0.43000812  0.50000000  1.0
  Ni  Ni11  1  0.75714890  0.56999188  0.50000000  1.0
  Ni  Ni12  1  0.74285110  0.06999188  0.00000000  1.0
  Ni  Ni13  1  0.25714890  0.93000812  0.00000000  1.0
  Mo  Mo14  1  0.37068765  0.96261301  0.50000000  1.0
  Mo  Mo15  1  0.62931235  0.03738699  0.50000000  1.0
  Mo  Mo16  1  0.12931235  0.46261301  0.00000000  1.0
  Mo  Mo17  1  0.87068765  0.53738699  0.00000000  1.0
  Mo  Mo18  1  0.96261301  0.37068765  0.50000000  1.0
  Mo  Mo19  1  0.03738699  0.62931235  0.50000000  1.0
  Mo  Mo20  1  0.46261301  0.12931235  0.00000000  1.0
  Mo  Mo21  1  0.53738699  0.87068765  0.00000000  1.0
  Mo  Mo22  1  0.31642030  0.68357970  0.25130619  1.0
  Mo  Mo23  1  0.68357970  0.31642030  0.25130619  1.0
  Mo  Mo24  1  0.18357970  0.18357970  0.75130619  1.0
  Mo  Mo25  1  0.81642030  0.81642030  0.75130619  1.0
  Mo  Mo26  1  0.68357970  0.31642030  0.74869381  1.0
  Mo  Mo27  1  0.31642030  0.68357970  0.74869381  1.0
  Mo  Mo28  1  0.81642030  0.81642030  0.24869381  1.0
  Mo  Mo29  1  0.18357970  0.18357970  0.24869381  1.0
