# generated using pymatgen
data_YSeF
_symmetry_space_group_name_H-M   'P 1'
_cell_length_a   10.03516310
_cell_length_b   4.10513759
_cell_length_c   13.10274970
_cell_angle_alpha   90.00000000
_cell_angle_beta   104.74188742
_cell_angle_gamma   90.00000000
_symmetry_Int_Tables_number   1
_chemical_formula_structural   YSeF
_chemical_formula_sum   'Y8 Se8 F8'
_cell_volume   522.00887696
_cell_formula_units_Z   8
loop_
 _symmetry_equiv_pos_site_id
 _symmetry_equiv_pos_as_xyz
  1  'x, y, z'
loop_
 _atom_site_type_symbol
 _atom_site_label
 _atom_site_symmetry_multiplicity
 _atom_site_fract_x
 _atom_site_fract_y
 _atom_site_fract_z
 _atom_site_occupancy
  Y  Y0  1  0.88341560  0.25000000  0.86156403  1.0
  Y  Y1  1  0.11658440  0.75000000  0.13843597  1.0
  Y  Y2  1  0.54408429  0.25000000  0.37281679  1.0
  Y  Y3  1  0.45591571  0.75000000  0.62718321  1.0
  Y  Y4  1  0.37699737  0.25000000  0.88570024  1.0
  Y  Y5  1  0.62300263  0.75000000  0.11429976  1.0
  Y  Y6  1  0.03884949  0.25000000  0.37994903  1.0
  Y  Y7  1  0.96115051  0.75000000  0.62005097  1.0
  Se  Se8  1  0.75738740  0.25000000  0.26442029  1.0
  Se  Se9  1  0.24261260  0.75000000  0.73557971  1.0
  Se  Se10  1  0.58638455  0.25000000  0.77060568  1.0
  Se  Se11  1  0.41361545  0.75000000  0.22939432  1.0
  Se  Se12  1  0.32963650  0.25000000  0.48204469  1.0
  Se  Se13  1  0.67036350  0.75000000  0.51795531  1.0
  Se  Se14  1  0.15993418  0.25000000  0.98840064  1.0
  Se  Se15  1  0.84006582  0.75000000  0.01159936  1.0
  F  F16  1  1.02224764  0.25000000  0.55061618  1.0
  F  F17  1  -0.02224764  0.75000000  0.44938382  1.0
  F  F18  1  0.91157416  0.25000000  0.69265314  1.0
  F  F19  1  0.08842584  0.75000000  0.30734686  1.0
  F  F20  1  0.55200103  0.25000000  0.04418582  1.0
  F  F21  1  0.44799897  0.75000000  0.95581418  1.0
  F  F22  1  0.08486780  0.25000000  0.20508808  1.0
  F  F23  1  0.91513220  0.75000000  0.79491192  1.0
