# generated using pymatgen
data_SiAs2
_symmetry_space_group_name_H-M   'P 1'
_cell_length_a   10.52158740
_cell_length_b   15.88390563
_cell_length_c   3.68336710
_cell_angle_alpha   90.00000000
_cell_angle_beta   90.00000000
_cell_angle_gamma   90.00000000
_symmetry_Int_Tables_number   1
_chemical_formula_structural   SiAs2
_chemical_formula_sum   'Si8 As16'
_cell_volume   615.57867980
_cell_formula_units_Z   8
loop_
 _symmetry_equiv_pos_site_id
 _symmetry_equiv_pos_as_xyz
  1  'x, y, z'
loop_
 _atom_site_type_symbol
 _atom_site_label
 _atom_site_symmetry_multiplicity
 _atom_site_fract_x
 _atom_site_fract_y
 _atom_site_fract_z
 _atom_site_occupancy
  Si  Si0  1  0.08391328  0.65848095  0.50000000  1.0
  Si  Si1  1  0.58391328  0.84151905  0.50000000  1.0
  Si  Si2  1  0.91608672  0.34151905  0.50000000  1.0
  Si  Si3  1  0.41608672  0.15848095  0.50000000  1.0
  Si  Si4  1  0.29994280  0.76782975  0.00000000  1.0
  Si  Si5  1  0.79994280  0.73217025  0.00000000  1.0
  Si  Si6  1  0.70005720  0.23217025  0.00000000  1.0
  Si  Si7  1  0.20005720  0.26782975  0.00000000  1.0
  As  As8  1  0.45102159  0.88182000  0.00000000  1.0
  As  As9  1  0.95102159  0.61818000  0.00000000  1.0
  As  As10  1  0.54897841  0.11818000  0.00000000  1.0
  As  As11  1  0.04897841  0.38182000  0.00000000  1.0
  As  As12  1  0.38553538  0.62434057  0.00000000  1.0
  As  As13  1  0.88553538  0.87565943  0.00000000  1.0
  As  As14  1  0.61446462  0.37565943  0.00000000  1.0
  As  As15  1  0.11446462  0.12434057  0.00000000  1.0
  As  As16  1  0.25701438  0.55962630  0.50000000  1.0
  As  As17  1  0.75701438  0.94037370  0.50000000  1.0
  As  As18  1  0.74298562  0.44037370  0.50000000  1.0
  As  As19  1  0.24298562  0.05962630  0.50000000  1.0
  As  As20  1  0.16078333  0.79985422  0.50000000  1.0
  As  As21  1  0.66078333  0.70014578  0.50000000  1.0
  As  As22  1  0.83921667  0.20014578  0.50000000  1.0
  As  As23  1  0.33921667  0.29985422  0.50000000  1.0
