# generated using pymatgen
data_FeH24C6(IO3)2
_symmetry_space_group_name_H-M   'P 1'
_cell_length_a   8.49118705
_cell_length_b   8.49118705
_cell_length_c   7.58711052
_cell_angle_alpha   90.00000000
_cell_angle_beta   90.00000000
_cell_angle_gamma   120.00000000
_symmetry_Int_Tables_number   1
_chemical_formula_structural   FeH24C6(IO3)2
_chemical_formula_sum   'Fe1 H24 C6 I2 O6'
_cell_volume   473.74414792
_cell_formula_units_Z   1
loop_
 _symmetry_equiv_pos_site_id
 _symmetry_equiv_pos_as_xyz
  1  'x, y, z'
loop_
 _atom_site_type_symbol
 _atom_site_label
 _atom_site_symmetry_multiplicity
 _atom_site_fract_x
 _atom_site_fract_y
 _atom_site_fract_z
 _atom_site_occupancy
  Fe  Fe0  1  0.00000000  0.00000000  0.00000000  1.0
  H  H1  1  0.89219739  0.23246606  0.84855363  1.0
  H  H2  1  0.34026867  0.10780261  0.84855363  1.0
  H  H3  1  0.76753394  0.65973133  0.84855363  1.0
  H  H4  1  0.10780261  0.76753394  0.15144637  1.0
  H  H5  1  0.65973133  0.89219739  0.15144637  1.0
  H  H6  1  0.23246606  0.34026867  0.15144637  1.0
  H  H7  1  0.08096050  0.38084601  0.62368537  1.0
  H  H8  1  0.29988551  0.91903950  0.62368537  1.0
  H  H9  1  0.61915399  0.70011449  0.62368537  1.0
  H  H10  1  0.91903950  0.61915399  0.37631463  1.0
  H  H11  1  0.70011449  0.08096050  0.37631463  1.0
  H  H12  1  0.38084601  0.29988551  0.37631463  1.0
  H  H13  1  0.21770783  0.46638711  0.81917912  1.0
  H  H14  1  0.24867928  0.78229217  0.81917912  1.0
  H  H15  1  0.53361289  0.75132072  0.81917912  1.0
  H  H16  1  0.78229217  0.53361289  0.18082088  1.0
  H  H17  1  0.75132072  0.21770783  0.18082088  1.0
  H  H18  1  0.46638711  0.24867928  0.18082088  1.0
  H  H19  1  0.22378386  0.29214184  0.69096648  1.0
  H  H20  1  0.06835798  0.77621614  0.69096648  1.0
  H  H21  1  0.70785816  0.93164202  0.69096648  1.0
  H  H22  1  0.77621614  0.70785816  0.30903352  1.0
  H  H23  1  0.93164202  0.22378386  0.30903352  1.0
  H  H24  1  0.29214184  0.06835798  0.30903352  1.0
  C  C25  1  0.13722804  0.34522831  0.73717600  1.0
  C  C26  1  0.20800027  0.86277196  0.73717600  1.0
  C  C27  1  0.65477169  0.79199973  0.73717600  1.0
  C  C28  1  0.86277196  0.65477169  0.26282400  1.0
  C  C29  1  0.79199973  0.13722804  0.26282400  1.0
  C  C30  1  0.34522831  0.20800027  0.26282400  1.0
  I  I31  1  0.66666667  0.33333333  0.79476810  1.0
  I  I32  1  0.33333333  0.66666667  0.20523190  1.0
  O  O33  1  -0.00827819  0.20357778  0.83907485  1.0
  O  O34  1  0.21185597  1.00827819  0.83907485  1.0
  O  O35  1  0.79642222  0.78814403  0.83907485  1.0
  O  O36  1  1.00827819  0.79642222  0.16092515  1.0
  O  O37  1  0.78814403  -0.00827819  0.16092515  1.0
  O  O38  1  0.20357778  0.21185597  0.16092515  1.0
