# generated using pymatgen
data_Gd3Si2Cl5O6
_symmetry_space_group_name_H-M   'P 1'
_cell_length_a   7.53122095
_cell_length_b   7.53122095
_cell_length_c   11.88037732
_cell_angle_alpha   80.63941844
_cell_angle_beta   99.36058156
_cell_angle_gamma   90.87116724
_symmetry_Int_Tables_number   1
_chemical_formula_structural   Gd3Si2Cl5O6
_chemical_formula_sum   'Gd6 Si4 Cl10 O12'
_cell_volume   655.97674458
_cell_formula_units_Z   2
loop_
 _symmetry_equiv_pos_site_id
 _symmetry_equiv_pos_as_xyz
  1  'x, y, z'
loop_
 _atom_site_type_symbol
 _atom_site_label
 _atom_site_symmetry_multiplicity
 _atom_site_fract_x
 _atom_site_fract_y
 _atom_site_fract_z
 _atom_site_occupancy
  Gd  Gd0  1  0.41558381  0.08271364  0.66883014  1.0
  Gd  Gd1  1  0.91728636  0.58441619  0.66883014  1.0
  Gd  Gd2  1  1.08271364  -0.58441619  0.33116986  1.0
  Gd  Gd3  1  1.58441619  -0.08271364  0.33116986  1.0
  Gd  Gd4  1  1.50000000  -0.00000000  0.00000000  1.0
  Gd  Gd5  1  1.00000000  0.50000000  0.00000000  1.0
  Si  Si6  1  1.81871518  -0.10901791  0.85682536  1.0
  Si  Si7  1  1.10901791  -0.81871518  0.85682536  1.0
  Si  Si8  1  0.89098209  0.81871518  0.14317464  1.0
  Si  Si9  1  0.18128482  0.10901791  0.14317464  1.0
  Cl  Cl10  1  1.67416578  -0.11418855  0.57913253  1.0
  Cl  Cl11  1  1.11418855  -0.67416578  0.57913253  1.0
  Cl  Cl12  1  0.88581145  0.67416578  0.42086747  1.0
  Cl  Cl13  1  0.32583422  0.11418855  0.42086747  1.0
  Cl  Cl14  1  0.77890875  0.22109125  0.33567027  1.0
  Cl  Cl15  1  1.22109125  -0.22109125  0.66432973  1.0
  Cl  Cl16  1  0.68633558  0.31366442  0.99856778  1.0
  Cl  Cl17  1  1.31366442  -0.31366442  0.00143222  1.0
  Cl  Cl18  1  0.61998466  0.38001534  0.64227093  1.0
  Cl  Cl19  1  1.38001534  -0.38001534  0.35772907  1.0
  O  O20  1  1.60929450  -0.04231357  0.82778062  1.0
  O  O21  1  1.04231357  -0.60929450  0.82778062  1.0
  O  O22  1  0.95768643  0.60929450  0.17221938  1.0
  O  O23  1  0.39070550  0.04231357  0.17221938  1.0
  O  O24  1  0.30442783  0.13141124  0.82775092  1.0
  O  O25  1  0.86858876  0.69557217  0.82775092  1.0
  O  O26  1  1.13141124  -0.69557217  0.17224908  1.0
  O  O27  1  1.69557217  -0.13141124  0.17224908  1.0
  O  O28  1  0.95280413  0.04719587  0.80927486  1.0
  O  O29  1  1.04719587  -0.04719587  0.19072514  1.0
  O  O30  1  0.85513563  0.85513563  -0.00000000  1.0
  O  O31  1  0.14486437  0.14486437  -0.00000000  1.0
