# generated using pymatgen
data_LiTi2O4
_symmetry_space_group_name_H-M   'P 1'
_cell_length_a   8.21257422
_cell_length_b   3.82618517
_cell_length_c   9.07860218
_cell_angle_alpha   90.00000000
_cell_angle_beta   89.89748911
_cell_angle_gamma   90.00000000
_symmetry_Int_Tables_number   1
_chemical_formula_structural   LiTi2O4
_chemical_formula_sum   'Li4 Ti8 O16'
_cell_volume   285.27491350
_cell_formula_units_Z   4
loop_
 _symmetry_equiv_pos_site_id
 _symmetry_equiv_pos_as_xyz
  1  'x, y, z'
loop_
 _atom_site_type_symbol
 _atom_site_label
 _atom_site_symmetry_multiplicity
 _atom_site_fract_x
 _atom_site_fract_y
 _atom_site_fract_z
 _atom_site_occupancy
  O  O0  1  0.00101460  0.25000000  0.64539330  1.0
  O  O1  1  0.50261981  0.25000000  0.64146575  1.0
  O  O2  1  0.24861108  0.75000000  0.13521393  1.0
  O  O3  1  0.75066536  0.75000000  0.15902124  1.0
  O  O4  1  0.00867576  0.75000000  0.90068046  1.0
  O  O5  1  0.49089726  0.75000000  0.90273695  1.0
  O  O6  1  0.24040615  0.25000000  0.39998559  1.0
  O  O7  1  0.75414675  0.25000000  0.40552873  1.0
  O  O8  1  0.24933464  0.25000000  0.84097876  1.0
  O  O9  1  0.75138892  0.25000000  0.86478607  1.0
  O  O10  1  0.99898540  0.75000000  0.35460670  1.0
  O  O11  1  0.49738019  0.75000000  0.35853425  1.0
  O  O12  1  0.24585325  0.75000000  0.59447127  1.0
  O  O13  1  0.75959385  0.75000000  0.60001441  1.0
  O  O14  1  0.99132424  0.25000000  0.09931954  1.0
  O  O15  1  0.50910274  0.25000000  0.09726305  1.0
  Li  Li16  1  -0.00382406  0.25000000  0.40310269  1.0
  Li  Li17  1  0.25054952  0.75000000  0.90936253  1.0
  Li  Li18  1  1.00382406  0.75000000  0.59689731  1.0
  Li  Li19  1  0.74945048  0.25000000  0.09063747  1.0
  Ti  Ti20  1  0.51004228  0.25000000  0.86236071  1.0
  Ti  Ti21  1  0.72406474  0.75000000  0.36966306  1.0
  Ti  Ti22  1  0.48995772  0.75000000  0.13763929  1.0
  Ti  Ti23  1  0.27593526  0.25000000  0.63033694  1.0
  Ti  Ti24  1  0.98664452  0.25000000  0.85930303  1.0
  Ti  Ti25  1  0.01335548  0.75000000  0.14069697  1.0
  Ti  Ti26  1  0.26072230  0.75000000  0.35716826  1.0
  Ti  Ti27  1  0.73927770  0.25000000  0.64283174  1.0
