# generated using pymatgen
data_Hf5AlSn2
_symmetry_space_group_name_H-M   'P 1'
_cell_length_a   8.31440779
_cell_length_b   8.31440779
_cell_length_c   8.31440779
_cell_angle_alpha   96.37795190
_cell_angle_beta   96.37795190
_cell_angle_gamma   141.06204403
_symmetry_Int_Tables_number   1
_chemical_formula_structural   Hf5AlSn2
_chemical_formula_sum   'Hf10 Al2 Sn4'
_cell_volume   340.57606082
_cell_formula_units_Z   2
loop_
 _symmetry_equiv_pos_site_id
 _symmetry_equiv_pos_as_xyz
  1  'x, y, z'
loop_
 _atom_site_type_symbol
 _atom_site_label
 _atom_site_symmetry_multiplicity
 _atom_site_fract_x
 _atom_site_fract_y
 _atom_site_fract_z
 _atom_site_occupancy
  Hf  Hf0  1  0.28394701  0.42438143  0.70832844  1.0
  Hf  Hf1  1  1.21605299  0.92438143  1.14043442  1.0
  Hf  Hf2  1  0.92438143  0.78394701  1.70832844  1.0
  Hf  Hf3  1  0.57561857  1.28394701  0.85956558  1.0
  Hf  Hf4  1  0.78394701  1.07561857  0.85956558  1.0
  Hf  Hf5  1  0.71605299  0.57561857  1.29167156  1.0
  Hf  Hf6  1  1.42438143  0.71605299  1.14043442  1.0
  Hf  Hf7  1  0.07561857  0.21605299  0.29167156  1.0
  Hf  Hf8  1  0.75000000  1.25000000  0.50000000  1.0
  Hf  Hf9  1  0.25000000  0.75000000  0.50000000  1.0
  Al  Al10  1  0.25000000  0.25000000  0.00000000  1.0
  Al  Al11  1  0.75000000  0.75000000  0.00000000  1.0
  Sn  Sn12  1  0.83492846  0.33492846  1.16985693  1.0
  Sn  Sn13  1  0.66507154  0.83492846  0.50000000  1.0
  Sn  Sn14  1  1.33492846  1.16507154  1.50000000  1.0
  Sn  Sn15  1  0.16507154  0.66507154  0.83014307  1.0
