# generated using pymatgen
data_Cs3LiCl4
_symmetry_space_group_name_H-M   'P 1'
_cell_length_a   6.90620304
_cell_length_b   6.90620304
_cell_length_c   10.10073354
_cell_angle_alpha   90.00000000
_cell_angle_beta   90.00000000
_cell_angle_gamma   143.18517293
_symmetry_Int_Tables_number   1
_chemical_formula_structural   Cs3LiCl4
_chemical_formula_sum   'Cs3 Li1 Cl4'
_cell_volume   288.68599928
_cell_formula_units_Z   1
loop_
 _symmetry_equiv_pos_site_id
 _symmetry_equiv_pos_as_xyz
  1  'x, y, z'
loop_
 _atom_site_type_symbol
 _atom_site_label
 _atom_site_symmetry_multiplicity
 _atom_site_fract_x
 _atom_site_fract_y
 _atom_site_fract_z
 _atom_site_occupancy
  Cs  Cs0  1  -0.08971904  0.08971904  0.00000000  1.0
  Cs  Cs1  1  -0.32078534  0.32078534  0.27097454  1.0
  Cs  Cs2  1  -0.32078534  0.32078534  0.72902546  1.0
  Li  Li3  1  0.45779883  0.54220117  0.50000000  1.0
  Cl  Cl4  1  0.39330596  0.60669404  0.71918899  1.0
  Cl  Cl5  1  0.39330596  0.60669404  0.28081101  1.0
  Cl  Cl6  1  0.06742900  0.93257100  0.50000000  1.0
  Cl  Cl7  1  0.17252997  0.82747003  0.00000000  1.0
