# generated using pymatgen
data_GdSnPd
_symmetry_space_group_name_H-M   'P 1'
_cell_length_a   7.32076740
_cell_length_b   4.67800675
_cell_length_c   8.01296537
_cell_angle_alpha   90.00000000
_cell_angle_beta   90.00000000
_cell_angle_gamma   90.00000000
_symmetry_Int_Tables_number   1
_chemical_formula_structural   GdSnPd
_chemical_formula_sum   'Gd4 Sn4 Pd4'
_cell_volume   274.41681418
_cell_formula_units_Z   4
loop_
 _symmetry_equiv_pos_site_id
 _symmetry_equiv_pos_as_xyz
  1  'x, y, z'
loop_
 _atom_site_type_symbol
 _atom_site_label
 _atom_site_symmetry_multiplicity
 _atom_site_fract_x
 _atom_site_fract_y
 _atom_site_fract_z
 _atom_site_occupancy
  Gd  Gd0  1  1.01038209  0.75000000  0.70460941  1.0
  Gd  Gd1  1  0.51038209  0.75000000  0.79539059  1.0
  Gd  Gd2  1  -0.01038209  0.25000000  0.29539059  1.0
  Gd  Gd3  1  0.48961791  0.25000000  0.20460941  1.0
  Sn  Sn4  1  0.69131974  0.75000000  0.41310691  1.0
  Sn  Sn5  1  0.19131974  0.75000000  0.08689309  1.0
  Sn  Sn6  1  0.30868026  0.25000000  0.58689309  1.0
  Sn  Sn7  1  0.80868026  0.25000000  0.91310691  1.0
  Pd  Pd8  1  0.79448656  0.75000000  0.08465953  1.0
  Pd  Pd9  1  0.29448656  0.75000000  0.41534047  1.0
  Pd  Pd10  1  0.20551344  0.25000000  0.91534047  1.0
  Pd  Pd11  1  0.70551344  0.25000000  0.58465953  1.0
