# generated using pymatgen
data_YbVO2
_symmetry_space_group_name_H-M   'P 1'
_cell_length_a   7.05480050
_cell_length_b   7.05480050
_cell_length_c   7.05480050
_cell_angle_alpha   129.77037025
_cell_angle_beta   129.77037025
_cell_angle_gamma   73.77413319
_symmetry_Int_Tables_number   1
_chemical_formula_structural   YbVO2
_chemical_formula_sum   'Yb4 V4 O8'
_cell_volume   202.36061336
_cell_formula_units_Z   4
loop_
 _symmetry_equiv_pos_site_id
 _symmetry_equiv_pos_as_xyz
  1  'x, y, z'
loop_
 _atom_site_type_symbol
 _atom_site_label
 _atom_site_symmetry_multiplicity
 _atom_site_fract_x
 _atom_site_fract_y
 _atom_site_fract_z
 _atom_site_occupancy
  Yb  Yb0  1  0.37500000  0.62500000  0.75000000  1.0
  Yb  Yb1  1  0.87500000  0.62500000  1.25000000  1.0
  Yb  Yb2  1  0.37500000  1.12500000  0.75000000  1.0
  Yb  Yb3  1  0.37500000  0.62500000  0.25000000  1.0
  V  V4  1  0.87500000  0.12500000  0.75000000  1.0
  V  V5  1  0.37500000  0.12500000  0.25000000  1.0
  V  V6  1  0.87500000  0.62500000  0.75000000  1.0
  V  V7  1  0.87500000  1.12500000  1.25000000  1.0
  O  O8  1  1.16786671  0.95181329  1.78394426  1.0
  O  O9  1  0.58213097  0.86607755  1.28394426  1.0
  O  O10  1  1.04818671  0.83213097  1.21605342  1.0
  O  O11  1  1.13392245  1.41786671  1.71605342  1.0
  O  O12  1  0.16786903  0.38392245  0.21605574  1.0
  O  O13  1  0.58213329  0.29818671  0.71605574  1.0
  O  O14  1  0.61607755  0.83213329  0.78394658  1.0
  O  O15  1  0.70181329  0.41786903  0.28394658  1.0
