# generated using pymatgen
data_C
_symmetry_space_group_name_H-M   'P 1'
_cell_length_a   4.93344665
_cell_length_b   8.19986771
_cell_length_c   4.27272284
_cell_angle_alpha   90.00000000
_cell_angle_beta   90.00000000
_cell_angle_gamma   89.99999890
_symmetry_Int_Tables_number   1
_chemical_formula_structural   C
_chemical_formula_sum   C16
_cell_volume   172.84706305
_cell_formula_units_Z   16
loop_
 _symmetry_equiv_pos_site_id
 _symmetry_equiv_pos_as_xyz
  1  'x, y, z'
loop_
 _atom_site_type_symbol
 _atom_site_label
 _atom_site_symmetry_multiplicity
 _atom_site_fract_x
 _atom_site_fract_y
 _atom_site_fract_z
 _atom_site_occupancy
  C  C0  1  0.37499890  0.74999256  0.66668390  1.0
  C  C1  1  0.12500108  0.25000704  0.66668363  1.0
  C  C2  1  0.87499884  0.25000705  0.83331727  1.0
  C  C3  1  0.62500112  0.74999256  0.83331720  1.0
  C  C4  1  0.62500110  0.25000744  0.33331610  1.0
  C  C5  1  0.87499892  0.74999296  0.33331637  1.0
  C  C6  1  0.12500116  0.74999295  0.16668273  1.0
  C  C7  1  0.37499888  0.25000744  0.16668280  1.0
  C  C8  1  0.12499893  0.74999236  0.83331695  1.0
  C  C9  1  0.37500111  0.25000803  0.83331688  1.0
  C  C10  1  0.62499886  0.25000804  0.66668421  1.0
  C  C11  1  0.87500116  0.74999237  0.66668395  1.0
  C  C12  1  0.87500107  0.25000764  0.16668305  1.0
  C  C13  1  0.62499889  0.74999197  0.16668312  1.0
  C  C14  1  0.37500114  0.74999196  0.33331579  1.0
  C  C15  1  0.12499884  0.25000763  0.33331605  1.0
