# generated using pymatgen
data_KPPbS4
_symmetry_space_group_name_H-M   'P 1'
_cell_length_a   16.94194220
_cell_length_b   6.70378465
_cell_length_c   6.76143904
_cell_angle_alpha   90.00000000
_cell_angle_beta   90.00000000
_cell_angle_gamma   90.00000000
_symmetry_Int_Tables_number   1
_chemical_formula_structural   KPPbS4
_chemical_formula_sum   'K4 P4 Pb4 S16'
_cell_volume   767.93133127
_cell_formula_units_Z   4
loop_
 _symmetry_equiv_pos_site_id
 _symmetry_equiv_pos_as_xyz
  1  'x, y, z'
loop_
 _atom_site_type_symbol
 _atom_site_label
 _atom_site_symmetry_multiplicity
 _atom_site_fract_x
 _atom_site_fract_y
 _atom_site_fract_z
 _atom_site_occupancy
  K  K0  1  0.71480829  0.25000000  -0.04132501  1.0
  K  K1  1  0.21480829  0.25000000  0.54132501  1.0
  K  K2  1  0.28519171  0.75000000  1.04132501  1.0
  K  K3  1  0.78519171  0.75000000  0.45867499  1.0
  P  P4  1  0.90556019  0.25000000  0.27816158  1.0
  P  P5  1  0.40556019  0.25000000  0.22183842  1.0
  P  P6  1  0.09443981  0.75000000  0.72183842  1.0
  P  P7  1  0.59443981  0.75000000  0.77816158  1.0
  Pb  Pb8  1  0.97690492  0.25000000  0.77619205  1.0
  Pb  Pb9  1  0.47690492  0.25000000  0.72380795  1.0
  Pb  Pb10  1  0.02309508  0.75000000  0.22380795  1.0
  Pb  Pb11  1  0.52309508  0.75000000  0.27619205  1.0
  S  S12  1  0.88253196  0.00479590  0.10375366  1.0
  S  S13  1  0.88253196  0.49520410  0.10375366  1.0
  S  S14  1  0.38253196  0.00479590  0.39624634  1.0
  S  S15  1  0.38253196  0.49520410  0.39624634  1.0
  S  S16  1  0.11746804  0.50479590  0.89624634  1.0
  S  S17  1  0.11746804  0.99520410  0.89624634  1.0
  S  S18  1  0.61746804  0.50479590  0.60375366  1.0
  S  S19  1  0.61746804  0.99520410  0.60375366  1.0
  S  S20  1  0.83302141  0.25000000  0.52125477  1.0
  S  S21  1  0.33302141  0.25000000  0.97874523  1.0
  S  S22  1  0.16697859  0.75000000  0.47874523  1.0
  S  S23  1  0.66697859  0.75000000  0.02125477  1.0
  S  S24  1  0.52366335  0.25000000  0.14294742  1.0
  S  S25  1  0.02366335  0.25000000  0.35705258  1.0
  S  S26  1  0.47633665  0.75000000  0.85705258  1.0
  S  S27  1  0.97633665  0.75000000  0.64294742  1.0
