# generated using pymatgen
data_CaRuO3
_symmetry_space_group_name_H-M   'P 1'
_cell_length_a   5.59064404
_cell_length_b   7.72205668
_cell_length_c   5.38669913
_cell_angle_alpha   90.00000000
_cell_angle_beta   90.00000000
_cell_angle_gamma   90.00000000
_symmetry_Int_Tables_number   1
_chemical_formula_structural   CaRuO3
_chemical_formula_sum   'Ca4 Ru4 O12'
_cell_volume   232.55064361
_cell_formula_units_Z   4
loop_
 _symmetry_equiv_pos_site_id
 _symmetry_equiv_pos_as_xyz
  1  'x, y, z'
loop_
 _atom_site_type_symbol
 _atom_site_label
 _atom_site_symmetry_multiplicity
 _atom_site_fract_x
 _atom_site_fract_y
 _atom_site_fract_z
 _atom_site_occupancy
  Ca  Ca0  1  0.05975305  0.75000000  0.51561121  1.0
  Ca  Ca1  1  0.55975305  0.75000000  0.98438879  1.0
  Ca  Ca2  1  0.94024695  0.25000000  0.48438879  1.0
  Ca  Ca3  1  0.44024695  0.25000000  0.01561121  1.0
  Ru  Ru4  1  0.50000000  0.00000000  0.50000000  1.0
  Ru  Ru5  1  0.50000000  0.50000000  0.50000000  1.0
  Ru  Ru6  1  0.00000000  0.00000000  0.00000000  1.0
  Ru  Ru7  1  0.00000000  0.50000000  0.00000000  1.0
  O  O8  1  0.29825874  0.95063438  0.80291058  1.0
  O  O9  1  0.29825874  0.54936562  0.80291058  1.0
  O  O10  1  0.79825874  0.95063438  0.69708942  1.0
  O  O11  1  0.79825874  0.54936562  0.69708942  1.0
  O  O12  1  0.70174126  0.45063438  0.19708942  1.0
  O  O13  1  0.70174126  0.04936562  0.19708942  1.0
  O  O14  1  0.20174126  0.45063438  0.30291058  1.0
  O  O15  1  0.20174126  0.04936562  0.30291058  1.0
  O  O16  1  0.97210728  0.75000000  0.09703418  1.0
  O  O17  1  0.47210728  0.75000000  0.40296582  1.0
  O  O18  1  0.02789272  0.25000000  0.90296582  1.0
  O  O19  1  0.52789272  0.25000000  0.59703418  1.0
