# generated using pymatgen
data_Cd(Mo3S4)2
_symmetry_space_group_name_H-M   'P 1'
_cell_length_a   6.54494201
_cell_length_b   6.54494201
_cell_length_c   6.54494201
_cell_angle_alpha   92.33960850
_cell_angle_beta   92.33960850
_cell_angle_gamma   92.33960850
_symmetry_Int_Tables_number   1
_chemical_formula_structural   Cd(Mo3S4)2
_chemical_formula_sum   'Cd1 Mo6 S8'
_cell_volume   279.64005325
_cell_formula_units_Z   1
loop_
 _symmetry_equiv_pos_site_id
 _symmetry_equiv_pos_as_xyz
  1  'x, y, z'
loop_
 _atom_site_type_symbol
 _atom_site_label
 _atom_site_symmetry_multiplicity
 _atom_site_fract_x
 _atom_site_fract_y
 _atom_site_fract_z
 _atom_site_occupancy
  Cd  Cd0  1  0.00000000  0.00000000  0.00000000  1.0
  Mo  Mo1  1  1.58933230  -0.22100701  0.44640823  1.0
  Mo  Mo2  1  0.77899299  0.44640823  0.58933230  1.0
  Mo  Mo3  1  1.44640823  0.58933230  -0.22100701  1.0
  Mo  Mo4  1  0.41066770  1.22100701  -0.44640823  1.0
  Mo  Mo5  1  1.22100701  0.55359177  -0.58933230  1.0
  Mo  Mo6  1  0.55359177  0.41066770  0.22100701  1.0
  S  S7  1  0.77311091  0.77311091  0.77311091  1.0
  S  S8  1  0.22688909  0.22688909  0.22688909  1.0
  S  S9  1  0.62067764  1.27163444  -0.13147673  1.0
  S  S10  1  1.27163444  0.86852327  -0.37932236  1.0
  S  S11  1  0.86852327  0.62067764  0.27163444  1.0
  S  S12  1  1.37932236  -0.27163444  0.13147673  1.0
  S  S13  1  0.72836556  0.13147673  0.37932236  1.0
  S  S14  1  1.13147673  0.37932236  -0.27163444  1.0
