# generated using pymatgen
data_LiBeH5(NF2)2
_symmetry_space_group_name_H-M   'P 1'
_cell_length_a   9.98724831
_cell_length_b   9.09594809
_cell_length_c   5.06908172
_cell_angle_alpha   90.00000000
_cell_angle_beta   90.00000000
_cell_angle_gamma   90.00000000
_symmetry_Int_Tables_number   1
_chemical_formula_structural   LiBeH5(NF2)2
_chemical_formula_sum   'Li4 Be4 H20 N8 F16'
_cell_volume   460.49308548
_cell_formula_units_Z   4
loop_
 _symmetry_equiv_pos_site_id
 _symmetry_equiv_pos_as_xyz
  1  'x, y, z'
loop_
 _atom_site_type_symbol
 _atom_site_label
 _atom_site_symmetry_multiplicity
 _atom_site_fract_x
 _atom_site_fract_y
 _atom_site_fract_z
 _atom_site_occupancy
  Li  Li0  1  0.17666362  0.06689708  0.38485833  1.0
  Li  Li1  1  0.67666362  0.43310292  0.38485833  1.0
  Li  Li2  1  0.82333638  0.93310292  0.88485833  1.0
  Li  Li3  1  0.32333638  0.56689708  0.88485833  1.0
  Be  Be4  1  0.34068484  0.37139566  0.38385378  1.0
  Be  Be5  1  0.84068484  0.12860434  0.38385378  1.0
  Be  Be6  1  0.65931516  0.62860434  0.88385378  1.0
  Be  Be7  1  0.15931516  0.87139566  0.88385378  1.0
  H  H8  1  0.49039401  0.03138786  0.07549349  1.0
  H  H9  1  0.99039401  0.46861214  0.07549349  1.0
  H  H10  1  0.50960599  0.96861214  0.57549349  1.0
  H  H11  1  0.00960599  0.53138786  0.57549349  1.0
  H  H12  1  0.45283398  0.73248358  0.21663538  1.0
  H  H13  1  0.95283398  0.76751642  0.21663538  1.0
  H  H14  1  0.54716602  0.26751642  0.71663538  1.0
  H  H15  1  0.04716602  0.23248358  0.71663538  1.0
  H  H16  1  0.37870714  0.11408919  0.88257432  1.0
  H  H17  1  0.87870714  0.38591081  0.88257432  1.0
  H  H18  1  0.62129286  0.88591081  0.38257432  1.0
  H  H19  1  0.12129286  0.61408919  0.38257432  1.0
  H  H20  1  0.15616338  0.31238594  0.92987607  1.0
  H  H21  1  0.65616338  0.18761406  0.92987607  1.0
  H  H22  1  0.84383662  0.68761406  0.42987607  1.0
  H  H23  1  0.34383662  0.81238594  0.42987607  1.0
  H  H24  1  0.02810811  0.21260558  0.04833394  1.0
  H  H25  1  0.52810811  0.28739442  0.04833394  1.0
  H  H26  1  0.97189189  0.78739442  0.54833394  1.0
  H  H27  1  0.47189189  0.71260558  0.54833394  1.0
  N  N28  1  0.47724722  0.08299794  0.89401278  1.0
  N  N29  1  0.97724722  0.41700206  0.89401278  1.0
  N  N30  1  0.52275278  0.91700206  0.39401278  1.0
  N  N31  1  0.02275278  0.58299794  0.39401278  1.0
  N  N32  1  0.44374819  0.78428140  0.39878444  1.0
  N  N33  1  0.94374819  0.71571860  0.39878444  1.0
  N  N34  1  0.55625181  0.21571860  0.89878444  1.0
  N  N35  1  0.05625181  0.28428140  0.89878444  1.0
  F  F36  1  0.19930298  0.01363538  0.03563149  1.0
  F  F37  1  0.69930298  0.48636462  0.03563149  1.0
  F  F38  1  0.80069702  0.98636462  0.53563149  1.0
  F  F39  1  0.30069702  0.51363538  0.53563149  1.0
  F  F40  1  0.49944054  0.35089462  0.40445836  1.0
  F  F41  1  0.99944054  0.14910538  0.40445836  1.0
  F  F42  1  0.50055946  0.64910538  0.90445836  1.0
  F  F43  1  0.00055946  0.85089462  0.90445836  1.0
  F  F44  1  0.30470227  0.39167226  0.08106555  1.0
  F  F45  1  0.80470227  0.10832774  0.08106555  1.0
  F  F46  1  0.69529773  0.60832774  0.58106555  1.0
  F  F47  1  0.19529773  0.89167226  0.58106555  1.0
  F  F48  1  0.27219180  0.23144205  0.49492206  1.0
  F  F49  1  0.77219180  0.26855795  0.49492206  1.0
  F  F50  1  0.72780820  0.76855795  -0.00507794  1.0
  F  F51  1  0.22780820  0.73144205  -0.00507794  1.0
