# generated using pymatgen
data_La2O3
_symmetry_space_group_name_H-M   'P 1'
_cell_length_a   7.64544489
_cell_length_b   7.64544489
_cell_length_c   9.24404413
_cell_angle_alpha   79.92799331
_cell_angle_beta   100.07200669
_cell_angle_gamma   151.21637797
_symmetry_Int_Tables_number   1
_chemical_formula_structural   La2O3
_chemical_formula_sum   'La6 O9'
_cell_volume   255.89981247
_cell_formula_units_Z   3
loop_
 _symmetry_equiv_pos_site_id
 _symmetry_equiv_pos_as_xyz
  1  'x, y, z'
loop_
 _atom_site_type_symbol
 _atom_site_label
 _atom_site_symmetry_multiplicity
 _atom_site_fract_x
 _atom_site_fract_y
 _atom_site_fract_z
 _atom_site_occupancy
  La  La0  1  0.86615323  0.13384677  0.50700563  1.0
  La  La1  1  0.13384677  -0.13384677  0.49299437  1.0
  La  La2  1  0.80890982  0.19109018  0.86123249  1.0
  La  La3  1  0.19109018  -0.19109018  0.13876751  1.0
  La  La4  1  0.53254490  0.46745510  0.81281752  1.0
  La  La5  1  0.46745510  -0.46745510  0.18718248  1.0
  O  O6  1  0.97493926  0.02506074  0.34365892  1.0
  O  O7  1  0.02506074  -0.02506074  0.65634108  1.0
  O  O8  1  0.69855805  0.30144195  0.62963079  1.0
  O  O9  1  0.30144195  -0.30144195  0.37036921  1.0
  O  O10  1  0.67565081  0.32434919  0.97531898  1.0
  O  O11  1  0.32434919  -0.32434919  0.02468102  1.0
  O  O12  1  0.37105113  -0.37105113  0.71173481  1.0
  O  O13  1  0.62894887  0.37105113  0.28826519  1.0
  O  O14  1  0.00000000  0.00000000  0.00000000  1.0
