# generated using pymatgen
data_Na(RuO2)2
_symmetry_space_group_name_H-M   'P 1'
_cell_length_a   9.49527358
_cell_length_b   2.81588379
_cell_length_c   11.24985587
_cell_angle_alpha   90.00000000
_cell_angle_beta   90.00000000
_cell_angle_gamma   90.00000000
_symmetry_Int_Tables_number   1
_chemical_formula_structural   Na(RuO2)2
_chemical_formula_sum   'Na4 Ru8 O16'
_cell_volume   300.79399947
_cell_formula_units_Z   4
loop_
 _symmetry_equiv_pos_site_id
 _symmetry_equiv_pos_as_xyz
  1  'x, y, z'
loop_
 _atom_site_type_symbol
 _atom_site_label
 _atom_site_symmetry_multiplicity
 _atom_site_fract_x
 _atom_site_fract_y
 _atom_site_fract_z
 _atom_site_occupancy
  Na  Na0  1  0.75881866  0.75000000  0.65565354  1.0
  Na  Na1  1  0.25881866  0.75000000  0.84434646  1.0
  Na  Na2  1  0.24118134  0.25000000  0.34434646  1.0
  Na  Na3  1  0.74118134  0.25000000  0.15565354  1.0
  Ru  Ru4  1  0.43959383  0.75000000  0.61675849  1.0
  Ru  Ru5  1  0.93959383  0.75000000  0.88324151  1.0
  Ru  Ru6  1  0.56040617  0.25000000  0.38324151  1.0
  Ru  Ru7  1  0.06040617  0.25000000  0.11675849  1.0
  Ru  Ru8  1  0.91487456  0.75000000  0.39457268  1.0
  Ru  Ru9  1  0.41487456  0.75000000  0.10542732  1.0
  Ru  Ru10  1  0.08512544  0.25000000  0.60542732  1.0
  Ru  Ru11  1  0.58512544  0.25000000  0.89457268  1.0
  O  O12  1  0.70855618  0.75000000  0.34140177  1.0
  O  O13  1  0.20855618  0.75000000  0.15859823  1.0
  O  O14  1  0.29144382  0.25000000  0.65859823  1.0
  O  O15  1  0.79144382  0.25000000  0.84140177  1.0
  O  O16  1  0.60948458  0.75000000  0.02671161  1.0
  O  O17  1  0.10948458  0.75000000  0.47328839  1.0
  O  O18  1  0.39051542  0.25000000  0.97328839  1.0
  O  O19  1  0.89051542  0.25000000  0.52671161  1.0
  O  O20  1  0.91526725  0.75000000  0.06257009  1.0
  O  O21  1  0.41526725  0.75000000  0.43742991  1.0
  O  O22  1  0.08473275  0.25000000  0.93742991  1.0
  O  O23  1  0.58473275  0.25000000  0.56257009  1.0
  O  O24  1  0.52736994  0.75000000  0.77788926  1.0
  O  O25  1  0.02736994  0.75000000  0.72211074  1.0
  O  O26  1  0.47263006  0.25000000  0.22211074  1.0
  O  O27  1  0.97263006  0.25000000  0.27788926  1.0
