# generated using pymatgen
data_H6OF4
_symmetry_space_group_name_H-M   'P 1'
_cell_length_a   7.04539590
_cell_length_b   5.79475047
_cell_length_c   8.19956069
_cell_angle_alpha   58.79541254
_cell_angle_beta   56.17383649
_cell_angle_gamma   65.17864949
_symmetry_Int_Tables_number   1
_chemical_formula_structural   H6OF4
_chemical_formula_sum   'H12 O2 F8'
_cell_volume   233.75834364
_cell_formula_units_Z   2
loop_
 _symmetry_equiv_pos_site_id
 _symmetry_equiv_pos_as_xyz
  1  'x, y, z'
loop_
 _atom_site_type_symbol
 _atom_site_label
 _atom_site_symmetry_multiplicity
 _atom_site_fract_x
 _atom_site_fract_y
 _atom_site_fract_z
 _atom_site_occupancy
  H  H0  1  -0.26859589  -0.95629808  0.98936747  1.0
  H  H1  1  0.26859589  -0.04370192  0.01063253  1.0
  H  H2  1  0.18715270  -0.22188869  0.61589080  1.0
  H  H3  1  -0.18715270  -0.77811131  0.38410920  1.0
  H  H4  1  -0.26029558  -0.62287251  0.82776961  1.0
  H  H5  1  0.26029558  -0.37712749  0.17223039  1.0
  H  H6  1  -0.68488072  -0.63504298  0.76272106  1.0
  H  H7  1  0.68488072  -0.36495702  0.23727894  1.0
  H  H8  1  0.29014141  -0.79634085  0.39550349  1.0
  H  H9  1  -0.29014141  -0.20365915  0.60449651  1.0
  H  H10  1  -0.03544500  -0.87170577  0.75745162  1.0
  H  H11  1  0.03544500  -0.12829423  0.24254838  1.0
  O  O12  1  -0.16664040  -0.81159524  0.88103776  1.0
  O  O13  1  0.16664040  -0.18840476  0.11896225  1.0
  F  F14  1  0.20142537  -0.42273543  0.64042918  1.0
  F  F15  1  -0.20142537  -0.57726457  0.35957082  1.0
  F  F16  1  0.38526538  -0.66428062  0.25313645  1.0
  F  F17  1  -0.38526538  -0.33571938  0.74686355  1.0
  F  F18  1  -0.60934123  -0.79669418  0.85305442  1.0
  F  F19  1  0.60934123  -0.20330582  0.14694558  1.0
  F  F20  1  0.15963293  -0.96970703  0.58840182  1.0
  F  F21  1  -0.15963293  -0.03029297  0.41159818  1.0
