# generated using pymatgen
data_As3Pb5O12F
_symmetry_space_group_name_H-M   'P 1'
_cell_length_a   10.36712999
_cell_length_b   10.36712999
_cell_length_c   7.59984324
_cell_angle_alpha   90.00000000
_cell_angle_beta   90.00000000
_cell_angle_gamma   120.00000000
_symmetry_Int_Tables_number   1
_chemical_formula_structural   As3Pb5O12F
_chemical_formula_sum   'As6 Pb10 O24 F2'
_cell_volume   707.37931166
_cell_formula_units_Z   2
loop_
 _symmetry_equiv_pos_site_id
 _symmetry_equiv_pos_as_xyz
  1  'x, y, z'
loop_
 _atom_site_type_symbol
 _atom_site_label
 _atom_site_symmetry_multiplicity
 _atom_site_fract_x
 _atom_site_fract_y
 _atom_site_fract_z
 _atom_site_occupancy
  As  As0  1  0.62597670  0.59819358  0.25000000  1.0
  As  As1  1  0.59819358  0.97221688  0.75000000  1.0
  As  As2  1  0.97221688  0.37402330  0.25000000  1.0
  As  As3  1  0.40180642  0.02778312  0.25000000  1.0
  As  As4  1  0.37402330  0.40180642  0.75000000  1.0
  As  As5  1  0.02778312  0.62597670  0.75000000  1.0
  Pb  Pb6  1  0.33333333  0.66666667  0.49605655  1.0
  Pb  Pb7  1  0.33333333  0.66666667  0.00394345  1.0
  Pb  Pb8  1  0.66666667  0.33333333  0.99605655  1.0
  Pb  Pb9  1  0.66666667  0.33333333  0.50394345  1.0
  Pb  Pb10  1  -0.01080110  0.75060375  0.25000000  1.0
  Pb  Pb11  1  0.75060375  0.76140484  0.75000000  1.0
  Pb  Pb12  1  0.76140484  1.01080110  0.25000000  1.0
  Pb  Pb13  1  0.24939625  0.23859516  0.25000000  1.0
  Pb  Pb14  1  1.01080110  0.24939625  0.75000000  1.0
  Pb  Pb15  1  0.23859516  -0.01080110  0.75000000  1.0
  O  O16  1  0.74549379  0.65489271  0.43109610  1.0
  O  O17  1  0.74549379  0.65489271  0.06890390  1.0
  O  O18  1  0.65489271  0.90939892  0.93109610  1.0
  O  O19  1  0.65489271  0.90939892  0.56890390  1.0
  O  O20  1  0.90939892  0.25450621  0.43109610  1.0
  O  O21  1  0.90939892  0.25450621  0.06890390  1.0
  O  O22  1  0.34510729  0.09060108  0.43109610  1.0
  O  O23  1  0.34510729  0.09060108  0.06890390  1.0
  O  O24  1  0.25450621  0.34510729  0.93109610  1.0
  O  O25  1  0.25450621  0.34510729  0.56890390  1.0
  O  O26  1  0.09060108  0.74549379  0.93109610  1.0
  O  O27  1  0.09060108  0.74549379  0.56890390  1.0
  O  O28  1  0.33089083  0.83695418  0.25000000  1.0
  O  O29  1  0.83695418  0.50606334  0.75000000  1.0
  O  O30  1  0.50606334  0.66910917  0.25000000  1.0
  O  O31  1  0.16304582  0.49393666  0.25000000  1.0
  O  O32  1  0.66910917  0.16304582  0.75000000  1.0
  O  O33  1  0.49393666  0.33089083  0.75000000  1.0
  O  O34  1  0.52717530  0.40284557  0.25000000  1.0
  O  O35  1  0.40284557  0.87567027  0.75000000  1.0
  O  O36  1  0.87567027  0.47282470  0.25000000  1.0
  O  O37  1  0.59715443  0.12432973  0.25000000  1.0
  O  O38  1  0.47282470  0.59715443  0.75000000  1.0
  O  O39  1  0.12432973  0.52717530  0.75000000  1.0
  F  F40  1  0.00000000  0.00000000  0.25000000  1.0
  F  F41  1  0.00000000  0.00000000  0.75000000  1.0
