# generated using pymatgen
data_Cs3Mo2(O2F)3
_symmetry_space_group_name_H-M   'P 1'
_cell_length_a   6.51007746
_cell_length_b   6.51007746
_cell_length_c   15.75061211
_cell_angle_alpha   90.00000000
_cell_angle_beta   90.00000000
_cell_angle_gamma   120.00000000
_symmetry_Int_Tables_number   1
_chemical_formula_structural   Cs3Mo2(O2F)3
_chemical_formula_sum   'Cs6 Mo4 O12 F6'
_cell_volume   578.09655272
_cell_formula_units_Z   2
loop_
 _symmetry_equiv_pos_site_id
 _symmetry_equiv_pos_as_xyz
  1  'x, y, z'
loop_
 _atom_site_type_symbol
 _atom_site_label
 _atom_site_symmetry_multiplicity
 _atom_site_fract_x
 _atom_site_fract_y
 _atom_site_fract_z
 _atom_site_occupancy
  Cs  Cs0  1  0.33333333  0.66666667  0.44354972  1.0
  Cs  Cs1  1  0.33333333  0.66666667  0.05645028  1.0
  Cs  Cs2  1  0.66666667  0.33333333  0.94354972  1.0
  Cs  Cs3  1  0.66666667  0.33333333  0.55645028  1.0
  Cs  Cs4  1  0.33333333  0.66666667  0.75000000  1.0
  Cs  Cs5  1  0.66666667  0.33333333  0.25000000  1.0
  Mo  Mo6  1  -0.00000000  -0.00000000  0.35700695  1.0
  Mo  Mo7  1  -0.00000000  0.00000000  0.14299305  1.0
  Mo  Mo8  1  0.00000000  -0.00000000  0.85700695  1.0
  Mo  Mo9  1  -0.00000000  -0.00000000  0.64299305  1.0
  O  O10  1  0.14252638  0.85747362  0.90118281  1.0
  O  O11  1  0.14252638  0.85747362  0.59881719  1.0
  O  O12  1  0.14252638  0.28505276  0.90118281  1.0
  O  O13  1  0.14252638  0.28505276  0.59881719  1.0
  O  O14  1  0.85747362  0.14252638  0.40118281  1.0
  O  O15  1  0.85747362  0.14252638  0.09881719  1.0
  O  O16  1  0.85747362  0.71494724  0.40118281  1.0
  O  O17  1  0.85747362  0.71494724  0.09881719  1.0
  O  O18  1  0.71494724  0.85747362  0.90118281  1.0
  O  O19  1  0.71494724  0.85747362  0.59881719  1.0
  O  O20  1  0.28505276  0.14252638  0.40118281  1.0
  O  O21  1  0.28505276  0.14252638  0.09881719  1.0
  F  F22  1  0.12757797  0.87242203  0.25000000  1.0
  F  F23  1  0.12757797  0.25515594  0.25000000  1.0
  F  F24  1  0.87242203  0.12757797  0.75000000  1.0
  F  F25  1  0.87242203  0.74484406  0.75000000  1.0
  F  F26  1  0.74484406  0.87242203  0.25000000  1.0
  F  F27  1  0.25515594  0.12757797  0.75000000  1.0
