# generated using pymatgen
data_Cs2MnBi2S5
_symmetry_space_group_name_H-M   'P 1'
_cell_length_a   16.01922234
_cell_length_b   4.19007710
_cell_length_c   18.48255865
_cell_angle_alpha   90.00000000
_cell_angle_beta   90.00000000
_cell_angle_gamma   90.00000000
_symmetry_Int_Tables_number   1
_chemical_formula_structural   Cs2MnBi2S5
_chemical_formula_sum   'Cs8 Mn4 Bi8 S20'
_cell_volume   1240.58217451
_cell_formula_units_Z   4
loop_
 _symmetry_equiv_pos_site_id
 _symmetry_equiv_pos_as_xyz
  1  'x, y, z'
loop_
 _atom_site_type_symbol
 _atom_site_label
 _atom_site_symmetry_multiplicity
 _atom_site_fract_x
 _atom_site_fract_y
 _atom_site_fract_z
 _atom_site_occupancy
  Cs  Cs0  1  0.99380975  0.75000000  0.62226323  1.0
  Cs  Cs1  1  0.49380975  0.75000000  0.87773677  1.0
  Cs  Cs2  1  0.00619025  0.25000000  0.37773677  1.0
  Cs  Cs3  1  0.50619025  0.25000000  0.12226323  1.0
  Cs  Cs4  1  0.53555323  0.75000000  0.38160775  1.0
  Cs  Cs5  1  0.03555323  0.75000000  0.11839225  1.0
  Cs  Cs6  1  0.46444677  0.25000000  0.61839225  1.0
  Cs  Cs7  1  0.96444677  0.25000000  0.88160775  1.0
  S  S8  1  0.88959734  0.75000000  0.25733649  1.0
  S  S9  1  0.38959734  0.75000000  0.24266351  1.0
  S  S10  1  0.11040266  0.25000000  0.74266351  1.0
  S  S11  1  0.61040266  0.25000000  0.75733649  1.0
  S  S12  1  0.85819488  0.75000000  0.47136561  1.0
  S  S13  1  0.35819488  0.75000000  0.02863439  1.0
  S  S14  1  0.14180512  0.25000000  0.52863439  1.0
  S  S15  1  0.64180512  0.25000000  0.97136561  1.0
  S  S16  1  0.68106165  0.75000000  0.14899603  1.0
  S  S17  1  0.18106165  0.75000000  0.35100397  1.0
  S  S18  1  0.31893835  0.25000000  0.85100397  1.0
  S  S19  1  0.81893835  0.25000000  0.64899603  1.0
  S  S20  1  0.63630318  0.75000000  0.56312227  1.0
  S  S21  1  0.13630318  0.75000000  0.93687773  1.0
  S  S22  1  0.36369682  0.25000000  0.43687773  1.0
  S  S23  1  0.86369682  0.25000000  0.06312227  1.0
  S  S24  1  0.78896794  0.75000000  0.84560744  1.0
  S  S25  1  0.28896794  0.75000000  0.65439256  1.0
  S  S26  1  0.21103206  0.25000000  0.15439256  1.0
  S  S27  1  0.71103206  0.25000000  0.34560744  1.0
  Bi  Bi28  1  0.74820150  0.75000000  0.01767630  1.0
  Bi  Bi29  1  0.24820150  0.75000000  0.48232370  1.0
  Bi  Bi30  1  0.25179850  0.25000000  0.98232370  1.0
  Bi  Bi31  1  0.75179850  0.25000000  0.51767630  1.0
  Bi  Bi32  1  0.71024445  0.75000000  0.69888292  1.0
  Bi  Bi33  1  0.21024445  0.75000000  0.80111708  1.0
  Bi  Bi34  1  0.28975555  0.25000000  0.30111708  1.0
  Bi  Bi35  1  0.78975555  0.25000000  0.19888292  1.0
  Mn  Mn36  1  0.79028315  0.75000000  0.35579631  1.0
  Mn  Mn37  1  0.29028315  0.75000000  0.14420369  1.0
  Mn  Mn38  1  0.20971685  0.25000000  0.64420369  1.0
  Mn  Mn39  1  0.70971685  0.25000000  0.85579631  1.0
