# generated using pymatgen
data_YCu(WO4)2
_symmetry_space_group_name_H-M   'P 1'
_cell_length_a   5.02309314
_cell_length_b   6.03442985
_cell_length_c   11.00169157
_cell_angle_alpha   90.00000000
_cell_angle_beta   114.47781780
_cell_angle_gamma   90.00000000
_symmetry_Int_Tables_number   1
_chemical_formula_structural   YCu(WO4)2
_chemical_formula_sum   'Y2 Cu2 W4 O16'
_cell_volume   303.50540815
_cell_formula_units_Z   2
loop_
 _symmetry_equiv_pos_site_id
 _symmetry_equiv_pos_as_xyz
  1  'x, y, z'
loop_
 _atom_site_type_symbol
 _atom_site_label
 _atom_site_symmetry_multiplicity
 _atom_site_fract_x
 _atom_site_fract_y
 _atom_site_fract_z
 _atom_site_occupancy
  Y  Y0  1  0.50000000  0.32521751  0.25000000  1.0
  Y  Y1  1  0.50000000  0.67478249  0.75000000  1.0
  Cu  Cu2  1  -0.00000000  0.72603535  0.25000000  1.0
  Cu  Cu3  1  0.00000000  0.27396465  0.75000000  1.0
  W  W4  1  0.73567488  0.82763639  0.48414115  1.0
  W  W5  1  0.73567488  0.17236361  0.98414115  1.0
  W  W6  1  0.26432512  0.82763639  0.01585885  1.0
  W  W7  1  0.26432512  0.17236361  0.51585885  1.0
  O  O8  1  0.84258197  0.88800723  0.90497960  1.0
  O  O9  1  0.84258197  0.11199277  0.40497960  1.0
  O  O10  1  0.15741803  0.88800723  0.59502040  1.0
  O  O11  1  0.15741803  0.11199277  0.09502040  1.0
  O  O12  1  0.77258258  0.63980369  0.36238328  1.0
  O  O13  1  0.77258258  0.36019631  0.86238328  1.0
  O  O14  1  0.22741742  0.63980369  0.13761672  1.0
  O  O15  1  0.22741742  0.36019631  0.63761672  1.0
  O  O16  1  0.71589978  0.35883978  0.10888085  1.0
  O  O17  1  0.71589978  0.64116022  0.60888085  1.0
  O  O18  1  0.28410022  0.35883978  0.39111915  1.0
  O  O19  1  0.28410022  0.64116022  0.89111915  1.0
  O  O20  1  0.65609619  0.91062424  0.11141921  1.0
  O  O21  1  0.65609619  0.08937576  0.61141921  1.0
  O  O22  1  0.34390381  0.91062424  0.38858079  1.0
  O  O23  1  0.34390381  0.08937576  0.88858079  1.0
