# generated using pymatgen
data_BaTi(GeO3)3
_symmetry_space_group_name_H-M   'P 1'
_cell_length_a   6.90017444
_cell_length_b   6.90017444
_cell_length_c   10.29460702
_cell_angle_alpha   90.00000000
_cell_angle_beta   90.00000000
_cell_angle_gamma   120.00000000
_symmetry_Int_Tables_number   1
_chemical_formula_structural   BaTi(GeO3)3
_chemical_formula_sum   'Ba2 Ti2 Ge6 O18'
_cell_volume   424.48323701
_cell_formula_units_Z   2
loop_
 _symmetry_equiv_pos_site_id
 _symmetry_equiv_pos_as_xyz
  1  'x, y, z'
loop_
 _atom_site_type_symbol
 _atom_site_label
 _atom_site_symmetry_multiplicity
 _atom_site_fract_x
 _atom_site_fract_y
 _atom_site_fract_z
 _atom_site_occupancy
  Ba  Ba0  1  0.00000000  0.00000000  0.50000000  1.0
  Ba  Ba1  1  -0.00000000  -0.00000000  -0.00000000  1.0
  Ti  Ti2  1  0.33333333  0.66666667  0.50000000  1.0
  Ti  Ti3  1  0.33333333  0.66666667  0.00000000  1.0
  Ge  Ge4  1  0.58752082  0.55453103  0.25000000  1.0
  Ge  Ge5  1  0.58752082  0.03298979  0.75000000  1.0
  Ge  Ge6  1  0.96701021  0.55453103  0.75000000  1.0
  Ge  Ge7  1  0.96701021  0.41247918  0.25000000  1.0
  Ge  Ge8  1  0.44546897  0.41247918  0.75000000  1.0
  Ge  Ge9  1  0.44546897  0.03298979  0.25000000  1.0
  O  O10  1  0.10881397  0.42003076  0.39269140  1.0
  O  O11  1  0.10881397  0.42003076  0.10730860  1.0
  O  O12  1  0.10881397  0.68878321  0.89269140  1.0
  O  O13  1  0.10881397  0.68878321  0.60730860  1.0
  O  O14  1  0.31121679  0.42003076  0.89269140  1.0
  O  O15  1  0.31121679  0.42003076  0.60730860  1.0
  O  O16  1  0.31121679  0.89118603  0.39269140  1.0
  O  O17  1  0.31121679  0.89118603  0.10730860  1.0
  O  O18  1  0.57996924  0.89118603  0.89269140  1.0
  O  O19  1  0.57996924  0.89118603  0.60730860  1.0
  O  O20  1  0.57996924  0.68878321  0.39269140  1.0
  O  O21  1  0.57996924  0.68878321  0.10730860  1.0
  O  O22  1  0.87118981  0.60892627  0.25000000  1.0
  O  O23  1  0.87118981  0.26226354  0.75000000  1.0
  O  O24  1  0.73773646  0.60892627  0.75000000  1.0
  O  O25  1  0.73773646  0.12881019  0.25000000  1.0
  O  O26  1  0.39107373  0.12881019  0.75000000  1.0
  O  O27  1  0.39107373  0.26226354  0.25000000  1.0
