# generated using pymatgen
data_Li2CaN2
_symmetry_space_group_name_H-M   'P 1'
_cell_length_a   3.45744212
_cell_length_b   3.45744212
_cell_length_c   5.82320579
_cell_angle_alpha   90.00000000
_cell_angle_beta   90.00000000
_cell_angle_gamma   120.00000000
_symmetry_Int_Tables_number   1
_chemical_formula_structural   Li2CaN2
_chemical_formula_sum   'Li2 Ca1 N2'
_cell_volume   60.28407569
_cell_formula_units_Z   1
loop_
 _symmetry_equiv_pos_site_id
 _symmetry_equiv_pos_as_xyz
  1  'x, y, z'
loop_
 _atom_site_type_symbol
 _atom_site_label
 _atom_site_symmetry_multiplicity
 _atom_site_fract_x
 _atom_site_fract_y
 _atom_site_fract_z
 _atom_site_occupancy
  Li  Li0  1  0.33333333  0.66666667  0.61447308  1.0
  Li  Li1  1  0.66666667  0.33333333  0.38552692  1.0
  Ca  Ca2  1  0.00000000  0.00000000  0.00000000  1.0
  N  N3  1  0.33333333  0.66666667  0.25579236  1.0
  N  N4  1  0.66666667  0.33333333  0.74420764  1.0
