# generated using pymatgen
data_CsLiH4SO5
_symmetry_space_group_name_H-M   'P 1'
_cell_length_a   6.71258583
_cell_length_b   6.71258583
_cell_length_c   4.79481164
_cell_angle_alpha   74.03237331
_cell_angle_beta   105.96762669
_cell_angle_gamma   129.31493181
_symmetry_Int_Tables_number   1
_chemical_formula_structural   CsLiH4SO5
_chemical_formula_sum   'Cs1 Li1 H4 S1 O5'
_cell_volume   159.21976724
_cell_formula_units_Z   1
loop_
 _symmetry_equiv_pos_site_id
 _symmetry_equiv_pos_as_xyz
  1  'x, y, z'
loop_
 _atom_site_type_symbol
 _atom_site_label
 _atom_site_symmetry_multiplicity
 _atom_site_fract_x
 _atom_site_fract_y
 _atom_site_fract_z
 _atom_site_occupancy
  Cs  Cs0  1  0.00060850  -0.00060850  0.00102432  1.0
  Li  Li1  1  0.67833873  -0.67833873  0.62440899  1.0
  H  H2  1  1.62700680  0.10486874  0.21325915  1.0
  H  H3  1  0.89513126  -0.62700680  0.21325915  1.0
  H  H4  1  1.46095331  -0.46095331  0.57033088  1.0
  H  H5  1  1.45955457  -0.45955457  0.23376890  1.0
  S  S6  1  1.26209120  -0.26209120  0.73138754  1.0
  O  O7  1  1.43733986  -0.00687919  0.87052554  1.0
  O  O8  1  1.00687919  -0.43733986  0.87052554  1.0
  O  O9  1  0.77267025  -0.77267025  0.35012672  1.0
  O  O10  1  0.51096982  -0.51096982  0.44004568  1.0
  O  O11  1  1.39655649  -0.39655649  0.85533759  1.0
