# generated using pymatgen
data_Ta3C
_symmetry_space_group_name_H-M   'P 1'
_cell_length_a   4.61667003
_cell_length_b   8.68628238
_cell_length_c   3.03171232
_cell_angle_alpha   90.00000000
_cell_angle_beta   90.00000000
_cell_angle_gamma   90.00000000
_symmetry_Int_Tables_number   1
_chemical_formula_structural   Ta3C
_chemical_formula_sum   'Ta6 C2'
_cell_volume   121.57681668
_cell_formula_units_Z   2
loop_
 _symmetry_equiv_pos_site_id
 _symmetry_equiv_pos_as_xyz
  1  'x, y, z'
loop_
 _atom_site_type_symbol
 _atom_site_label
 _atom_site_symmetry_multiplicity
 _atom_site_fract_x
 _atom_site_fract_y
 _atom_site_fract_z
 _atom_site_occupancy
  Ta  Ta0  1  0.50000000  0.00000000  0.56599885  1.0
  Ta  Ta1  1  0.00000000  0.50000000  0.43400115  1.0
  Ta  Ta2  1  0.00000000  0.82791799  0.12019159  1.0
  Ta  Ta3  1  0.00000000  0.17208201  0.12019159  1.0
  Ta  Ta4  1  0.50000000  0.32791799  0.87980841  1.0
  Ta  Ta5  1  0.50000000  0.67208201  0.87980841  1.0
  C  C6  1  0.00000000  0.00000000  0.62303113  1.0
  C  C7  1  0.50000000  0.50000000  0.37696887  1.0
