# generated using pymatgen
data_Lu2SnAu2
_symmetry_space_group_name_H-M   'P 1'
_cell_length_a   7.84006812
_cell_length_b   7.84006812
_cell_length_c   7.33950527
_cell_angle_alpha   90.00000000
_cell_angle_beta   90.00000000
_cell_angle_gamma   90.00000000
_symmetry_Int_Tables_number   1
_chemical_formula_structural   Lu2SnAu2
_chemical_formula_sum   'Lu8 Sn4 Au8'
_cell_volume   451.13493417
_cell_formula_units_Z   4
loop_
 _symmetry_equiv_pos_site_id
 _symmetry_equiv_pos_as_xyz
  1  'x, y, z'
loop_
 _atom_site_type_symbol
 _atom_site_label
 _atom_site_symmetry_multiplicity
 _atom_site_fract_x
 _atom_site_fract_y
 _atom_site_fract_z
 _atom_site_occupancy
  Lu  Lu0  1  0.18515938  0.18515938  0.50000000  1.0
  Lu  Lu1  1  0.68515938  0.31484062  0.00000000  1.0
  Lu  Lu2  1  0.81484062  0.81484062  0.50000000  1.0
  Lu  Lu3  1  0.31484062  0.68515938  0.00000000  1.0
  Lu  Lu4  1  0.34653578  0.65346422  0.50000000  1.0
  Lu  Lu5  1  0.84653578  0.84653578  0.00000000  1.0
  Lu  Lu6  1  0.65346422  0.34653578  0.50000000  1.0
  Lu  Lu7  1  0.15346422  0.15346422  0.00000000  1.0
  Sn  Sn8  1  0.50000000  0.00000000  0.25000000  1.0
  Sn  Sn9  1  0.50000000  0.00000000  0.75000000  1.0
  Sn  Sn10  1  0.00000000  0.50000000  0.75000000  1.0
  Sn  Sn11  1  0.00000000  0.50000000  0.25000000  1.0
  Au  Au12  1  0.12850718  0.87149282  0.28239185  1.0
  Au  Au13  1  0.12850718  0.87149282  0.71760815  1.0
  Au  Au14  1  0.62850718  0.62850718  0.78239185  1.0
  Au  Au15  1  0.62850718  0.62850718  0.21760815  1.0
  Au  Au16  1  0.87149282  0.12850718  0.28239185  1.0
  Au  Au17  1  0.87149282  0.12850718  0.71760815  1.0
  Au  Au18  1  0.37149282  0.37149282  0.78239185  1.0
  Au  Au19  1  0.37149282  0.37149282  0.21760815  1.0
