# generated using pymatgen
data_Sc2FeB2Ir5
_symmetry_space_group_name_H-M   'P 1'
_cell_length_a   9.38073925
_cell_length_b   9.38073925
_cell_length_c   3.06195154
_cell_angle_alpha   90.00000000
_cell_angle_beta   90.00000000
_cell_angle_gamma   90.00000000
_symmetry_Int_Tables_number   1
_chemical_formula_structural   Sc2FeB2Ir5
_chemical_formula_sum   'Sc4 Fe2 B4 Ir10'
_cell_volume   269.44643526
_cell_formula_units_Z   2
loop_
 _symmetry_equiv_pos_site_id
 _symmetry_equiv_pos_as_xyz
  1  'x, y, z'
loop_
 _atom_site_type_symbol
 _atom_site_label
 _atom_site_symmetry_multiplicity
 _atom_site_fract_x
 _atom_site_fract_y
 _atom_site_fract_z
 _atom_site_occupancy
  B  B0  1  0.87527410  0.62472590  0.00000000  1.0
  B  B1  1  0.37527410  0.87527410  0.00000000  1.0
  B  B2  1  0.12472590  0.37527410  0.00000000  1.0
  B  B3  1  0.62472590  0.12472590  0.00000000  1.0
  Fe  Fe4  1  0.50000000  0.50000000  0.00000000  1.0
  Fe  Fe5  1  0.00000000  0.00000000  0.00000000  1.0
  Ir  Ir6  1  0.50000000  0.00000000  0.50000000  1.0
  Ir  Ir7  1  0.00000000  0.50000000  0.50000000  1.0
  Ir  Ir8  1  0.43059766  0.71578165  0.50000000  1.0
  Ir  Ir9  1  0.93059766  0.78421835  0.50000000  1.0
  Ir  Ir10  1  0.28421835  0.43059766  0.50000000  1.0
  Ir  Ir11  1  0.78421835  0.06940234  0.50000000  1.0
  Ir  Ir12  1  0.56940234  0.28421835  0.50000000  1.0
  Ir  Ir13  1  0.06940234  0.21578165  0.50000000  1.0
  Ir  Ir14  1  0.71578165  0.56940234  0.50000000  1.0
  Ir  Ir15  1  0.21578165  0.93059766  0.50000000  1.0
  Sc  Sc16  1  0.32359583  0.17640417  0.00000000  1.0
  Sc  Sc17  1  0.82359583  0.32359583  0.00000000  1.0
  Sc  Sc18  1  0.67640417  0.82359583  0.00000000  1.0
  Sc  Sc19  1  0.17640417  0.67640417  0.00000000  1.0
