# generated using pymatgen
data_Ca2As3
_symmetry_space_group_name_H-M   'P 1'
_cell_length_a   12.01058106
_cell_length_b   5.85599499
_cell_length_c   18.14216198
_cell_angle_alpha   90.00000000
_cell_angle_beta   130.66946573
_cell_angle_gamma   90.00000000
_symmetry_Int_Tables_number   1
_chemical_formula_structural   Ca2As3
_chemical_formula_sum   'Ca16 As24'
_cell_volume   967.82957545
_cell_formula_units_Z   8
loop_
 _symmetry_equiv_pos_site_id
 _symmetry_equiv_pos_as_xyz
  1  'x, y, z'
loop_
 _atom_site_type_symbol
 _atom_site_label
 _atom_site_symmetry_multiplicity
 _atom_site_fract_x
 _atom_site_fract_y
 _atom_site_fract_z
 _atom_site_occupancy
  Ca  Ca0  1  0.86710620  0.74158356  0.99134856  1.0
  Ca  Ca1  1  0.86710620  0.25841644  0.49134856  1.0
  Ca  Ca2  1  0.13289380  0.74158356  0.50865144  1.0
  Ca  Ca3  1  0.13289380  0.25841644  0.00865144  1.0
  Ca  Ca4  1  0.75887777  0.54832368  0.25119203  1.0
  Ca  Ca5  1  0.75887777  0.45167632  0.75119203  1.0
  Ca  Ca6  1  0.24112223  0.54832368  0.24880797  1.0
  Ca  Ca7  1  0.24112223  0.45167632  0.74880797  1.0
  Ca  Ca8  1  0.62417208  0.75422169  0.49892890  1.0
  Ca  Ca9  1  0.62417208  0.24577831  0.99892890  1.0
  Ca  Ca10  1  0.37582792  0.75422169  0.00107110  1.0
  Ca  Ca11  1  0.37582792  0.24577831  0.50107110  1.0
  Ca  Ca12  1  0.50000000  0.91286050  0.25000000  1.0
  Ca  Ca13  1  0.50000000  0.08713950  0.75000000  1.0
  Ca  Ca14  1  -0.00000000  0.96076882  0.25000000  1.0
  Ca  Ca15  1  -0.00000000  0.03923118  0.75000000  1.0
  As  As16  1  0.92502960  0.45385941  0.15798014  1.0
  As  As17  1  0.92502960  0.54614059  0.65798014  1.0
  As  As18  1  0.07497040  0.45385941  0.34201986  1.0
  As  As19  1  0.07497040  0.54614059  0.84201986  1.0
  As  As20  1  0.84288410  0.95001071  0.82918129  1.0
  As  As21  1  0.84288410  0.04998929  0.32918129  1.0
  As  As22  1  0.15711590  0.95001071  0.67081871  1.0
  As  As23  1  0.15711590  0.04998929  0.17081871  1.0
  As  As24  1  0.81116434  0.77355498  0.42234629  1.0
  As  As25  1  0.81116434  0.22644502  0.92234629  1.0
  As  As26  1  0.18883566  0.77355498  0.07765371  1.0
  As  As27  1  0.18883566  0.22644502  0.57765371  1.0
  As  As28  1  0.71318001  0.73238582  0.07739597  1.0
  As  As29  1  0.71318001  0.26761418  0.57739597  1.0
  As  As30  1  0.28681999  0.73238582  0.42260403  1.0
  As  As31  1  0.28681999  0.26761418  0.92260403  1.0
  As  As32  1  0.54886007  0.39990662  0.33589854  1.0
  As  As33  1  0.54886007  0.60009338  0.83589854  1.0
  As  As34  1  0.45113993  0.39990662  0.16410146  1.0
  As  As35  1  0.45113993  0.60009338  0.66410146  1.0
  As  As36  1  0.39451983  0.90164787  0.84550671  1.0
  As  As37  1  0.39451983  0.09835213  0.34550671  1.0
  As  As38  1  0.60548017  0.90164787  0.65449329  1.0
  As  As39  1  0.60548017  0.09835213  0.15449329  1.0
