# generated using pymatgen
data_Lu2Pt2Pb
_symmetry_space_group_name_H-M   'P 1'
_cell_length_a   7.89330505
_cell_length_b   7.89330505
_cell_length_c   3.51270896
_cell_angle_alpha   90.00000000
_cell_angle_beta   90.00000000
_cell_angle_gamma   90.00000000
_symmetry_Int_Tables_number   1
_chemical_formula_structural   Lu2Pt2Pb
_chemical_formula_sum   'Lu4 Pt4 Pb2'
_cell_volume   218.85674819
_cell_formula_units_Z   2
loop_
 _symmetry_equiv_pos_site_id
 _symmetry_equiv_pos_as_xyz
  1  'x, y, z'
loop_
 _atom_site_type_symbol
 _atom_site_label
 _atom_site_symmetry_multiplicity
 _atom_site_fract_x
 _atom_site_fract_y
 _atom_site_fract_z
 _atom_site_occupancy
  Lu  Lu0  1  0.33398161  0.16601839  0.50000000  1.0
  Lu  Lu1  1  0.83398161  0.33398161  0.50000000  1.0
  Lu  Lu2  1  0.66601839  0.83398161  0.50000000  1.0
  Lu  Lu3  1  0.16601839  0.66601839  0.50000000  1.0
  Pt  Pt4  1  0.87165454  0.62834546  0.00000000  1.0
  Pt  Pt5  1  0.37165454  0.87165454  0.00000000  1.0
  Pt  Pt6  1  0.12834546  0.37165454  0.00000000  1.0
  Pt  Pt7  1  0.62834546  0.12834546  0.00000000  1.0
  Pb  Pb8  1  0.50000000  0.50000000  0.00000000  1.0
  Pb  Pb9  1  0.00000000  0.00000000  0.00000000  1.0
