# generated using pymatgen
data_NaY(Te2O5)2
_symmetry_space_group_name_H-M   'P 1'
_cell_length_a   9.20431273
_cell_length_b   9.20431273
_cell_length_c   13.63646736
_cell_angle_alpha   90.00000000
_cell_angle_beta   90.00000000
_cell_angle_gamma   90.00000000
_symmetry_Int_Tables_number   1
_chemical_formula_structural   NaY(Te2O5)2
_chemical_formula_sum   'Na4 Y4 Te16 O40'
_cell_volume   1155.27296083
_cell_formula_units_Z   4
loop_
 _symmetry_equiv_pos_site_id
 _symmetry_equiv_pos_as_xyz
  1  'x, y, z'
loop_
 _atom_site_type_symbol
 _atom_site_label
 _atom_site_symmetry_multiplicity
 _atom_site_fract_x
 _atom_site_fract_y
 _atom_site_fract_z
 _atom_site_occupancy
  Na  Na0  1  0.50000000  0.00000000  -0.00000000  1.0
  Na  Na1  1  0.00000000  0.50000000  0.00000000  1.0
  Na  Na2  1  0.00000000  0.50000000  0.50000000  1.0
  Na  Na3  1  0.50000000  0.00000000  0.50000000  1.0
  Y  Y4  1  0.50000000  0.00000000  0.25000000  1.0
  Y  Y5  1  0.00000000  0.50000000  0.25000000  1.0
  Y  Y6  1  0.00000000  0.50000000  0.75000000  1.0
  Y  Y7  1  0.50000000  0.00000000  0.75000000  1.0
  Te  Te8  1  0.30904217  0.72050048  0.13217678  1.0
  Te  Te9  1  0.19095783  0.22050048  0.13217678  1.0
  Te  Te10  1  0.80904217  0.77949952  0.13217678  1.0
  Te  Te11  1  0.69095783  0.27949952  0.13217678  1.0
  Te  Te12  1  0.72050048  0.30904217  0.63217678  1.0
  Te  Te13  1  0.77949952  0.80904217  0.63217678  1.0
  Te  Te14  1  0.22050048  0.19095783  0.63217678  1.0
  Te  Te15  1  0.27949952  0.69095783  0.63217678  1.0
  Te  Te16  1  0.19095783  0.77949952  0.36782322  1.0
  Te  Te17  1  0.30904217  0.27949952  0.36782322  1.0
  Te  Te18  1  0.69095783  0.72050048  0.36782322  1.0
  Te  Te19  1  0.80904217  0.22050048  0.36782322  1.0
  Te  Te20  1  0.77949952  0.19095783  0.86782322  1.0
  Te  Te21  1  0.72050048  0.69095783  0.86782322  1.0
  Te  Te22  1  0.27949952  0.30904217  0.86782322  1.0
  Te  Te23  1  0.22050048  0.80904217  0.86782322  1.0
  O  O24  1  0.34574340  0.92732497  0.12376002  1.0
  O  O25  1  0.15425660  0.42732497  0.12376002  1.0
  O  O26  1  0.84574340  0.57267503  0.12376002  1.0
  O  O27  1  0.65425660  0.07267503  0.12376002  1.0
  O  O28  1  0.92732497  0.34574340  0.62376002  1.0
  O  O29  1  0.57267503  0.84574340  0.62376002  1.0
  O  O30  1  0.42732497  0.15425660  0.62376002  1.0
  O  O31  1  0.07267503  0.65425660  0.62376002  1.0
  O  O32  1  0.15425660  0.57267503  0.37623998  1.0
  O  O33  1  0.34574340  0.07267503  0.37623998  1.0
  O  O34  1  0.65425660  0.92732497  0.37623998  1.0
  O  O35  1  0.84574340  0.42732497  0.37623998  1.0
  O  O36  1  0.57267503  0.15425660  0.87623998  1.0
  O  O37  1  0.92732497  0.65425660  0.87623998  1.0
  O  O38  1  0.07267503  0.34574340  0.87623998  1.0
  O  O39  1  0.42732497  0.84574340  0.87623998  1.0
  O  O40  1  0.12196669  0.72440346  0.20166693  1.0
  O  O41  1  0.37803331  0.22440346  0.20166693  1.0
  O  O42  1  0.62196669  0.77559654  0.20166693  1.0
  O  O43  1  0.87803331  0.27559654  0.20166693  1.0
  O  O44  1  0.72440346  0.12196669  0.70166693  1.0
  O  O45  1  0.77559654  0.62196669  0.70166693  1.0
  O  O46  1  0.22440346  0.37803331  0.70166693  1.0
  O  O47  1  0.27559654  0.87803331  0.70166693  1.0
  O  O48  1  0.37803331  0.77559654  0.29833307  1.0
  O  O49  1  0.12196669  0.27559654  0.29833307  1.0
  O  O50  1  0.87803331  0.72440346  0.29833307  1.0
  O  O51  1  0.62196669  0.22440346  0.29833307  1.0
  O  O52  1  0.77559654  0.37803331  0.79833307  1.0
  O  O53  1  0.72440346  0.87803331  0.79833307  1.0
  O  O54  1  0.27559654  0.12196669  0.79833307  1.0
  O  O55  1  0.22440346  0.62196669  0.79833307  1.0
  O  O56  1  0.20379089  0.70379089  -0.00000000  1.0
  O  O57  1  0.29620911  0.20379089  0.00000000  1.0
  O  O58  1  0.70379089  0.79620911  0.00000000  1.0
  O  O59  1  0.79620911  0.29620911  -0.00000000  1.0
  O  O60  1  0.70379089  0.20379089  0.50000000  1.0
  O  O61  1  0.79620911  0.70379089  0.50000000  1.0
  O  O62  1  0.20379089  0.29620911  0.50000000  1.0
  O  O63  1  0.29620911  0.79620911  0.50000000  1.0
