# generated using pymatgen
data_La7Pt3
_symmetry_space_group_name_H-M   'P 1'
_cell_length_a   10.38256841
_cell_length_b   10.38256841
_cell_length_c   6.59508332
_cell_angle_alpha   90.00000000
_cell_angle_beta   90.00000000
_cell_angle_gamma   120.00000000
_symmetry_Int_Tables_number   1
_chemical_formula_structural   La7Pt3
_chemical_formula_sum   'La14 Pt6'
_cell_volume   615.68776165
_cell_formula_units_Z   2
loop_
 _symmetry_equiv_pos_site_id
 _symmetry_equiv_pos_as_xyz
  1  'x, y, z'
loop_
 _atom_site_type_symbol
 _atom_site_label
 _atom_site_symmetry_multiplicity
 _atom_site_fract_x
 _atom_site_fract_y
 _atom_site_fract_z
 _atom_site_occupancy
  La  La0  1  0.92560370  0.46280185  0.00668457  1.0
  La  La1  1  0.46280185  0.92560370  0.50668457  1.0
  La  La2  1  0.46280185  0.53719815  0.50668457  1.0
  La  La3  1  0.53719815  0.46280185  0.00668457  1.0
  La  La4  1  0.53719815  0.07439630  0.00668457  1.0
  La  La5  1  0.07439630  0.53719815  0.50668457  1.0
  La  La6  1  0.25313888  0.12656944  0.31204617  1.0
  La  La7  1  0.12656944  0.25313888  0.81204617  1.0
  La  La8  1  0.12656944  0.87343056  0.81204617  1.0
  La  La9  1  0.87343056  0.12656944  0.31204617  1.0
  La  La10  1  0.87343056  0.74686112  0.31204617  1.0
  La  La11  1  0.74686112  0.87343056  0.81204617  1.0
  La  La12  1  0.33333333  0.66666667  0.02790550  1.0
  La  La13  1  0.66666667  0.33333333  0.52790550  1.0
  Pt  Pt14  1  0.62362669  0.81181334  0.26196743  1.0
  Pt  Pt15  1  0.81181334  0.62362669  0.76196743  1.0
  Pt  Pt16  1  0.81181334  0.18818666  0.76196743  1.0
  Pt  Pt17  1  0.18818666  0.81181334  0.26196743  1.0
  Pt  Pt18  1  0.18818666  0.37637331  0.26196743  1.0
  Pt  Pt19  1  0.37637331  0.18818666  0.76196743  1.0
