# generated using pymatgen
data_RbW3Br7
_symmetry_space_group_name_H-M   'P 1'
_cell_length_a   13.20699095
_cell_length_b   13.20699095
_cell_length_c   10.17672580
_cell_angle_alpha   70.01490312
_cell_angle_beta   109.98509688
_cell_angle_gamma   105.06330581
_symmetry_Int_Tables_number   1
_chemical_formula_structural   RbW3Br7
_chemical_formula_sum   'Rb4 W12 Br28'
_cell_volume   1547.01610161
_cell_formula_units_Z   4
loop_
 _symmetry_equiv_pos_site_id
 _symmetry_equiv_pos_as_xyz
  1  'x, y, z'
loop_
 _atom_site_type_symbol
 _atom_site_label
 _atom_site_symmetry_multiplicity
 _atom_site_fract_x
 _atom_site_fract_y
 _atom_site_fract_z
 _atom_site_occupancy
  Rb  Rb0  1  1.56897511  0.56897511  0.75000000  1.0
  Rb  Rb1  1  0.43102489  -0.56897511  0.25000000  1.0
  Rb  Rb2  1  0.00000000  0.00000000  0.00000000  1.0
  Rb  Rb3  1  -0.00000000  0.00000000  0.50000000  1.0
  W  W4  1  1.48428673  0.06768360  0.12542302  1.0
  W  W5  1  1.06768360  0.48428673  0.37457698  1.0
  W  W6  1  0.51571327  -0.06768360  0.87457698  1.0
  W  W7  1  0.93231640  -0.48428673  0.62542302  1.0
  W  W8  1  1.65134298  0.04154972  0.05891580  1.0
  W  W9  1  1.04154972  0.65134298  0.44108420  1.0
  W  W10  1  0.34865702  -0.04154972  0.94108420  1.0
  W  W11  1  0.95845028  -0.65134298  0.55891580  1.0
  W  W12  1  0.51121173  -0.13114019  0.14998376  1.0
  W  W13  1  0.86885981  -0.48878827  0.35001624  1.0
  W  W14  1  1.48878827  0.13114019  0.85001624  1.0
  W  W15  1  1.13114019  0.48878827  0.64998376  1.0
  Br  Br16  1  0.64734516  -0.02236562  0.33565272  1.0
  Br  Br17  1  0.97763438  -0.35265484  0.16434728  1.0
  Br  Br18  1  1.35265484  0.02236562  0.66434728  1.0
  Br  Br19  1  1.02236562  0.35265484  0.83565272  1.0
  Br  Br20  1  1.62520603  0.24047258  0.03461856  1.0
  Br  Br21  1  1.24047258  0.62520603  0.46538144  1.0
  Br  Br22  1  0.37479397  -0.24047258  0.96538144  1.0
  Br  Br23  1  0.75952742  -0.62520603  0.53461856  1.0
  Br  Br24  1  1.46067703  0.16171269  0.29865743  1.0
  Br  Br25  1  1.16171269  0.46067703  0.20134257  1.0
  Br  Br26  1  0.53932297  -0.16171269  0.70134257  1.0
  Br  Br27  1  0.83828731  -0.46067703  0.79865743  1.0
  Br  Br28  1  1.86657715  0.10272946  0.14181736  1.0
  Br  Br29  1  1.10272946  0.86657715  0.35818264  1.0
  Br  Br30  1  0.13342285  -0.10272946  0.85818264  1.0
  Br  Br31  1  0.89727054  -0.86657715  0.64181736  1.0
  Br  Br32  1  0.52678494  -0.31745581  0.35876272  1.0
  Br  Br33  1  0.68254419  -0.47321506  0.14123728  1.0
  Br  Br34  1  1.47321506  0.31745581  0.64123728  1.0
  Br  Br35  1  1.31745581  0.47321506  0.85876272  1.0
  Br  Br36  1  0.67940727  -0.15669607  0.08254498  1.0
  Br  Br37  1  0.84330393  -0.32059273  0.41745502  1.0
  Br  Br38  1  1.32059273  0.15669607  0.91745502  1.0
  Br  Br39  1  1.15669607  0.32059273  0.58254498  1.0
  Br  Br40  1  0.34419717  -0.10523681  0.21653574  1.0
  Br  Br41  1  0.89476319  -0.65580283  0.28346426  1.0
  Br  Br42  1  1.65580283  0.10523681  0.78346426  1.0
  Br  Br43  1  1.10523681  0.65580283  0.71653574  1.0
