# generated using pymatgen
data_Tl4GeSe4
_symmetry_space_group_name_H-M   'P 1'
_cell_length_a   7.22019757
_cell_length_b   7.22019757
_cell_length_c   26.04663767
_cell_angle_alpha   75.05148855
_cell_angle_beta   104.94851145
_cell_angle_gamma   117.16826730
_symmetry_Int_Tables_number   1
_chemical_formula_structural   Tl4GeSe4
_chemical_formula_sum   'Tl16 Ge4 Se16'
_cell_volume   1151.52692710
_cell_formula_units_Z   4
loop_
 _symmetry_equiv_pos_site_id
 _symmetry_equiv_pos_as_xyz
  1  'x, y, z'
loop_
 _atom_site_type_symbol
 _atom_site_label
 _atom_site_symmetry_multiplicity
 _atom_site_fract_x
 _atom_site_fract_y
 _atom_site_fract_z
 _atom_site_occupancy
  Tl  Tl0  1  1.72107447  -0.14942003  1.00025703  1.0
  Tl  Tl1  1  1.14942003  0.27892553  0.50025703  1.0
  Tl  Tl2  1  0.85057997  -0.27892553  0.49974297  1.0
  Tl  Tl3  1  0.27892553  0.14942003  -0.00025703  1.0
  Tl  Tl4  1  1.31432459  -0.11242140  0.66326073  1.0
  Tl  Tl5  1  1.11242140  0.68567541  0.16326073  1.0
  Tl  Tl6  1  0.88757860  -0.68567541  0.83673927  1.0
  Tl  Tl7  1  0.68567541  0.11242140  0.33673927  1.0
  Tl  Tl8  1  0.50968564  -0.42149935  0.82638262  1.0
  Tl  Tl9  1  1.42149935  0.49031436  0.32638262  1.0
  Tl  Tl10  1  0.57850065  -0.49031436  0.67361738  1.0
  Tl  Tl11  1  1.49031436  0.42149935  0.17361738  1.0
  Tl  Tl12  1  0.92938626  0.92938626  0.75000000  1.0
  Tl  Tl13  1  0.07061374  0.07061374  0.25000000  1.0
  Tl  Tl14  1  1.00000000  0.50000000  -0.00000000  1.0
  Tl  Tl15  1  1.50000000  -0.00000000  0.50000000  1.0
  Ge  Ge16  1  1.31500798  -0.06725864  0.87616314  1.0
  Ge  Ge17  1  1.06725864  0.68499202  0.37616314  1.0
  Ge  Ge18  1  0.93274136  -0.68499202  0.62383686  1.0
  Ge  Ge19  1  0.68499202  0.06725864  0.12383686  1.0
  Se  Se20  1  1.90505228  -0.02158991  0.61679212  1.0
  Se  Se21  1  1.02158991  -0.90505228  0.11679212  1.0
  Se  Se22  1  0.97841009  0.90505228  0.88320788  1.0
  Se  Se23  1  0.09494772  0.02158991  0.38320788  1.0
  Se  Se24  1  1.39422151  0.01527105  0.78731402  1.0
  Se  Se25  1  0.98472895  -0.39422151  0.28731402  1.0
  Se  Se26  1  1.01527105  0.39422151  0.71268598  1.0
  Se  Se27  1  0.60577849  -0.01527105  0.21268598  1.0
  Se  Se28  1  1.32857905  -0.39881424  0.91825248  1.0
  Se  Se29  1  0.39881424  -0.32857905  0.41825248  1.0
  Se  Se30  1  1.60118576  0.32857905  0.58174752  1.0
  Se  Se31  1  0.67142095  0.39881424  0.08174752  1.0
  Se  Se32  1  1.58947816  0.20836122  0.92397927  1.0
  Se  Se33  1  0.79163878  -0.58947816  0.42397927  1.0
  Se  Se34  1  1.20836122  0.58947816  0.57602073  1.0
  Se  Se35  1  0.41052184  -0.20836122  0.07602073  1.0
