# generated using pymatgen
data_GdAlRh
_symmetry_space_group_name_H-M   'P 1'
_cell_length_a   6.95245637
_cell_length_b   4.22049154
_cell_length_c   8.01701449
_cell_angle_alpha   90.00000000
_cell_angle_beta   90.00000000
_cell_angle_gamma   90.00000000
_symmetry_Int_Tables_number   1
_chemical_formula_structural   GdAlRh
_chemical_formula_sum   'Gd4 Al4 Rh4'
_cell_volume   235.24151864
_cell_formula_units_Z   4
loop_
 _symmetry_equiv_pos_site_id
 _symmetry_equiv_pos_as_xyz
  1  'x, y, z'
loop_
 _atom_site_type_symbol
 _atom_site_label
 _atom_site_symmetry_multiplicity
 _atom_site_fract_x
 _atom_site_fract_y
 _atom_site_fract_z
 _atom_site_occupancy
  Gd  Gd0  1  0.96282999  0.75000000  0.68091496  1.0
  Gd  Gd1  1  0.46282999  0.75000000  0.81908504  1.0
  Gd  Gd2  1  0.03717001  0.25000000  0.31908504  1.0
  Gd  Gd3  1  0.53717001  0.25000000  0.18091496  1.0
  Al  Al4  1  0.86412289  0.75000000  0.06102148  1.0
  Al  Al5  1  0.36412289  0.75000000  0.43897852  1.0
  Al  Al6  1  0.13587711  0.25000000  0.93897852  1.0
  Al  Al7  1  0.63587711  0.25000000  0.56102148  1.0
  Rh  Rh8  1  0.73259175  0.75000000  0.38169645  1.0
  Rh  Rh9  1  0.23259175  0.75000000  0.11830355  1.0
  Rh  Rh10  1  0.26740825  0.25000000  0.61830355  1.0
  Rh  Rh11  1  0.76740825  0.25000000  0.88169645  1.0
