# generated using pymatgen
data_H6C(SN)2
_symmetry_space_group_name_H-M   'P 1'
_cell_length_a   8.65566934
_cell_length_b   5.70937114
_cell_length_c   10.94453237
_cell_angle_alpha   90.00000000
_cell_angle_beta   90.00000000
_cell_angle_gamma   90.00000000
_symmetry_Int_Tables_number   1
_chemical_formula_structural   H6C(SN)2
_chemical_formula_sum   'H24 C4 S8 N8'
_cell_volume   540.86159264
_cell_formula_units_Z   4
loop_
 _symmetry_equiv_pos_site_id
 _symmetry_equiv_pos_as_xyz
  1  'x, y, z'
loop_
 _atom_site_type_symbol
 _atom_site_label
 _atom_site_symmetry_multiplicity
 _atom_site_fract_x
 _atom_site_fract_y
 _atom_site_fract_z
 _atom_site_occupancy
  H  H0  1  0.27878517  0.39898940  0.25499258  1.0
  H  H1  1  0.77878517  0.60101060  0.25499258  1.0
  H  H2  1  0.72121483  0.60101060  0.75499258  1.0
  H  H3  1  0.22121483  0.39898940  0.75499258  1.0
  H  H4  1  0.26890858  0.69822928  0.26456156  1.0
  H  H5  1  0.76890858  0.30177072  0.26456156  1.0
  H  H6  1  0.73109142  0.30177072  0.76456156  1.0
  H  H7  1  0.23109142  0.69822928  0.76456156  1.0
  H  H8  1  0.21348272  0.06473444  0.41449679  1.0
  H  H9  1  0.71348272  0.93526556  0.41449679  1.0
  H  H10  1  0.78651728  0.93526556  0.91449679  1.0
  H  H11  1  0.28651728  0.06473444  0.91449679  1.0
  H  H12  1  0.14551264  0.52158181  0.34824321  1.0
  H  H13  1  0.64551264  0.47841819  0.34824321  1.0
  H  H14  1  0.85448736  0.47841819  0.84824321  1.0
  H  H15  1  0.35448736  0.52158181  0.84824321  1.0
  H  H16  1  0.12635734  0.54989307  0.19338540  1.0
  H  H17  1  0.62635734  0.45010693  0.19338540  1.0
  H  H18  1  0.87364266  0.45010693  0.69338540  1.0
  H  H19  1  0.37364266  0.54989307  0.69338540  1.0
  H  H20  1  0.72602233  0.11469756  0.03399674  1.0
  H  H21  1  0.22602233  0.88530244  0.03399674  1.0
  H  H22  1  0.27397767  0.88530244  0.53399674  1.0
  H  H23  1  0.77397767  0.11469756  0.53399674  1.0
  C  C24  1  0.38797156  0.13657554  0.08008372  1.0
  C  C25  1  0.88797156  0.86342446  0.08008372  1.0
  C  C26  1  0.61202844  0.86342446  0.58008372  1.0
  C  C27  1  0.11202844  0.13657554  0.58008372  1.0
  S  S28  1  0.48649589  0.37755304  0.02488571  1.0
  S  S29  1  0.98649589  0.62244696  0.02488571  1.0
  S  S30  1  0.51350411  0.62244696  0.52488571  1.0
  S  S31  1  0.01350411  0.37755304  0.52488571  1.0
  S  S32  1  0.40517491  0.04834685  0.23013137  1.0
  S  S33  1  0.90517491  0.95165315  0.23013137  1.0
  S  S34  1  0.59482509  0.95165315  0.73013137  1.0
  S  S35  1  0.09482509  0.04834685  0.73013137  1.0
  N  N36  1  0.29569999  0.01801080  0.00410221  1.0
  N  N37  1  0.79569999  0.98198920  0.00410221  1.0
  N  N38  1  0.70430001  0.98198920  0.50410221  1.0
  N  N39  1  0.20430001  0.01801080  0.50410221  1.0
  N  N40  1  0.20529569  0.54244701  0.26632072  1.0
  N  N41  1  0.70529569  0.45755299  0.26632072  1.0
  N  N42  1  0.79470431  0.45755299  0.76632072  1.0
  N  N43  1  0.29470431  0.54244701  0.76632072  1.0
