# generated using pymatgen
data_Tl2V8O21
_symmetry_space_group_name_H-M   'P 1'
_cell_length_a   8.01131965
_cell_length_b   8.01131965
_cell_length_c   15.24245091
_cell_angle_alpha   90.47050656
_cell_angle_beta   89.52949344
_cell_angle_gamma   154.24999582
_symmetry_Int_Tables_number   1
_chemical_formula_structural   Tl2V8O21
_chemical_formula_sum   'Tl2 V8 O21'
_cell_volume   424.99384807
_cell_formula_units_Z   1
loop_
 _symmetry_equiv_pos_site_id
 _symmetry_equiv_pos_as_xyz
  1  'x, y, z'
loop_
 _atom_site_type_symbol
 _atom_site_label
 _atom_site_symmetry_multiplicity
 _atom_site_fract_x
 _atom_site_fract_y
 _atom_site_fract_z
 _atom_site_occupancy
  Tl  Tl0  1  0.52694286  0.47305714  0.68742689  1.0
  Tl  Tl1  1  0.47305714  -0.47305714  0.31257311  1.0
  V  V2  1  0.90925625  0.09074375  0.92938573  1.0
  V  V3  1  0.09074375  -0.09074375  0.07061427  1.0
  V  V4  1  0.82871911  0.17128089  0.52498923  1.0
  V  V5  1  0.17128089  -0.17128089  0.47501077  1.0
  V  V6  1  0.80767912  0.19232088  0.73319009  1.0
  V  V7  1  0.19232088  -0.19232088  0.26680991  1.0
  V  V8  1  0.69033026  0.30966974  0.92666478  1.0
  V  V9  1  0.30966974  -0.30966974  0.07333522  1.0
  O  O10  1  0.95112141  0.04887859  0.83213349  1.0
  O  O11  1  0.04887859  -0.04887859  0.16786651  1.0
  O  O12  1  0.90354232  0.09645768  0.45141741  1.0
  O  O13  1  0.09645768  -0.09645768  0.54858259  1.0
  O  O14  1  0.87920943  0.12079057  0.62663014  1.0
  O  O15  1  0.12079057  -0.12079057  0.37336986  1.0
  O  O16  1  0.78510950  0.21489050  0.86040689  1.0
  O  O17  1  0.21489050  -0.21489050  0.13959311  1.0
  O  O18  1  0.71133766  0.28866234  0.47089914  1.0
  O  O19  1  0.28866234  -0.28866234  0.52910086  1.0
  O  O20  1  0.71369603  0.28630397  0.69269599  1.0
  O  O21  1  0.28630397  -0.28630397  0.30730401  1.0
  O  O22  1  0.61551811  0.38448189  0.85620945  1.0
  O  O23  1  0.38448189  -0.38448189  0.14379055  1.0
  O  O24  1  0.38182172  -0.38182172  0.95433819  1.0
  O  O25  1  0.61817828  0.38182172  0.04566181  1.0
  O  O26  1  0.33528642  -0.33528642  0.74248738  1.0
  O  O27  1  0.66471358  0.33528642  0.25751262  1.0
  O  O28  1  0.19441657  -0.19441657  0.96571362  1.0
  O  O29  1  0.80558343  0.19441657  0.03428638  1.0
  O  O30  1  0.00000000  0.00000000  0.00000000  1.0
