# generated using pymatgen
data_Ge3Ru2
_symmetry_space_group_name_H-M   'P 1'
_cell_length_a   11.76100710
_cell_length_b   10.98560841
_cell_length_c   5.43548754
_cell_angle_alpha   90.00000000
_cell_angle_beta   90.00000000
_cell_angle_gamma   90.00000000
_symmetry_Int_Tables_number   1
_chemical_formula_structural   Ge3Ru2
_chemical_formula_sum   'Ge24 Ru16'
_cell_volume   702.27487418
_cell_formula_units_Z   8
loop_
 _symmetry_equiv_pos_site_id
 _symmetry_equiv_pos_as_xyz
  1  'x, y, z'
loop_
 _atom_site_type_symbol
 _atom_site_label
 _atom_site_symmetry_multiplicity
 _atom_site_fract_x
 _atom_site_fract_y
 _atom_site_fract_z
 _atom_site_occupancy
  Ge  Ge0  1  0.67398193  0.70764422  0.25013531  1.0
  Ge  Ge1  1  0.82601807  0.79235578  0.75013531  1.0
  Ge  Ge2  1  0.17398193  0.79235578  0.74986469  1.0
  Ge  Ge3  1  0.32601807  0.70764422  0.24986469  1.0
  Ge  Ge4  1  0.32601807  0.29235578  0.74986469  1.0
  Ge  Ge5  1  0.17398193  0.20764422  0.24986469  1.0
  Ge  Ge6  1  0.82601807  0.20764422  0.25013531  1.0
  Ge  Ge7  1  0.67398193  0.29235578  0.75013531  1.0
  Ge  Ge8  1  0.66591303  0.38473695  0.24966431  1.0
  Ge  Ge9  1  0.83408697  0.11526305  0.74966431  1.0
  Ge  Ge10  1  0.16591303  0.11526305  0.75033569  1.0
  Ge  Ge11  1  0.33408697  0.38473695  0.25033569  1.0
  Ge  Ge12  1  0.33408697  0.61526305  0.75033569  1.0
  Ge  Ge13  1  0.16591303  0.88473695  0.25033569  1.0
  Ge  Ge14  1  0.83408697  0.88473695  0.24966431  1.0
  Ge  Ge15  1  0.66591303  0.61526305  0.74966431  1.0
  Ge  Ge16  1  0.61731775  0.11664446  0.24727225  1.0
  Ge  Ge17  1  0.88268225  0.38335554  0.74727225  1.0
  Ge  Ge18  1  0.11731775  0.38335554  0.75272775  1.0
  Ge  Ge19  1  0.38268225  0.11664446  0.25272775  1.0
  Ge  Ge20  1  0.38268225  0.88335554  0.75272775  1.0
  Ge  Ge21  1  0.11731775  0.61664446  0.25272775  1.0
  Ge  Ge22  1  0.88268225  0.61664446  0.24727225  1.0
  Ge  Ge23  1  0.61731775  0.88335554  0.74727225  1.0
  Ru  Ru24  1  0.50000000  0.51203010  0.25000000  1.0
  Ru  Ru25  1  0.00000000  -0.01203010  0.75000000  1.0
  Ru  Ru26  1  0.50000000  0.48796990  0.75000000  1.0
  Ru  Ru27  1  0.00000000  1.01203010  0.25000000  1.0
  Ru  Ru28  1  0.49975541  0.28037796  0.00228114  1.0
  Ru  Ru29  1  0.00024459  0.21962204  0.50228114  1.0
  Ru  Ru30  1  0.99975541  0.21962204  0.99771886  1.0
  Ru  Ru31  1  0.50024459  0.28037796  0.49771886  1.0
  Ru  Ru32  1  0.50024459  0.71962204  0.99771886  1.0
  Ru  Ru33  1  0.99975541  0.78037796  0.49771886  1.0
  Ru  Ru34  1  0.00024459  0.78037796  0.00228114  1.0
  Ru  Ru35  1  0.49975541  0.71962204  0.50228114  1.0
  Ru  Ru36  1  0.50000000  0.93741473  0.25000000  1.0
  Ru  Ru37  1  0.00000000  0.56258527  0.75000000  1.0
  Ru  Ru38  1  0.50000000  0.06258527  0.75000000  1.0
  Ru  Ru39  1  0.00000000  0.43741473  0.25000000  1.0
