# generated using pymatgen
data_ZnS
_symmetry_space_group_name_H-M   'P 1'
_cell_length_a   3.84992670
_cell_length_b   3.84992670
_cell_length_c   50.32826756
_cell_angle_alpha   90.00000000
_cell_angle_beta   90.00000000
_cell_angle_gamma   120.00000000
_symmetry_Int_Tables_number   1
_chemical_formula_structural   ZnS
_chemical_formula_sum   'Zn16 S16'
_cell_volume   646.02233740
_cell_formula_units_Z   16
loop_
 _symmetry_equiv_pos_site_id
 _symmetry_equiv_pos_as_xyz
  1  'x, y, z'
loop_
 _atom_site_type_symbol
 _atom_site_label
 _atom_site_symmetry_multiplicity
 _atom_site_fract_x
 _atom_site_fract_y
 _atom_site_fract_z
 _atom_site_occupancy
  Zn  Zn0  1  0.33333333  0.66666667  0.06248321  1.0
  Zn  Zn1  1  0.66666667  0.33333333  0.56248321  1.0
  Zn  Zn2  1  0.33333333  0.66666667  0.24998998  1.0
  Zn  Zn3  1  0.66666667  0.33333333  0.74998998  1.0
  Zn  Zn4  1  0.33333333  0.66666667  0.43745393  1.0
  Zn  Zn5  1  0.66666667  0.33333333  0.93745393  1.0
  Zn  Zn6  1  0.33333333  0.66666667  0.68751773  1.0
  Zn  Zn7  1  0.66666667  0.33333333  0.18751773  1.0
  Zn  Zn8  1  0.33333333  0.66666667  0.87497798  1.0
  Zn  Zn9  1  0.66666667  0.33333333  0.37497798  1.0
  Zn  Zn10  1  0.00000000  0.00000000  -0.00008592  1.0
  Zn  Zn11  1  0.00000000  0.00000000  0.49991408  1.0
  Zn  Zn12  1  0.00000000  0.00000000  0.12504475  1.0
  Zn  Zn13  1  0.00000000  0.00000000  0.62504475  1.0
  Zn  Zn14  1  0.00000000  0.00000000  0.31248321  1.0
  Zn  Zn15  1  0.00000000  0.00000000  0.81248321  1.0
  S  S16  1  0.33333333  0.66666667  0.01555018  1.0
  S  S17  1  0.66666667  0.33333333  0.51555018  1.0
  S  S18  1  0.33333333  0.66666667  0.20313268  1.0
  S  S19  1  0.66666667  0.33333333  0.70313268  1.0
  S  S20  1  0.33333333  0.66666667  0.39059819  1.0
  S  S21  1  0.66666667  0.33333333  0.89059819  1.0
  S  S22  1  0.33333333  0.66666667  0.64066256  1.0
  S  S23  1  0.66666667  0.33333333  0.14066256  1.0
  S  S24  1  0.33333333  0.66666667  0.82811492  1.0
  S  S25  1  0.66666667  0.33333333  0.32811492  1.0
  S  S26  1  0.00000000  0.00000000  0.07818858  1.0
  S  S27  1  0.00000000  0.00000000  0.57818858  1.0
  S  S28  1  0.00000000  0.00000000  0.26561902  1.0
  S  S29  1  0.00000000  0.00000000  0.76561902  1.0
  S  S30  1  0.00000000  0.00000000  0.45306899  1.0
  S  S31  1  0.00000000  0.00000000  0.95306899  1.0
