# generated using pymatgen
data_BiOsSe
_symmetry_space_group_name_H-M   'P 1'
_cell_length_a   6.62068800
_cell_length_b   6.49032320
_cell_length_c   6.63347262
_cell_angle_alpha   90.00000000
_cell_angle_beta   113.38506195
_cell_angle_gamma   90.00000000
_symmetry_Int_Tables_number   1
_chemical_formula_structural   BiOsSe
_chemical_formula_sum   'Bi4 Os4 Se4'
_cell_volume   261.62904127
_cell_formula_units_Z   4
loop_
 _symmetry_equiv_pos_site_id
 _symmetry_equiv_pos_as_xyz
  1  'x, y, z'
loop_
 _atom_site_type_symbol
 _atom_site_label
 _atom_site_symmetry_multiplicity
 _atom_site_fract_x
 _atom_site_fract_y
 _atom_site_fract_z
 _atom_site_occupancy
  Bi  Bi0  1  0.64383841  0.86127169  0.37737882  1.0
  Bi  Bi1  1  0.64383841  0.63872831  0.87737882  1.0
  Bi  Bi2  1  0.35616159  0.36127169  0.12262118  1.0
  Bi  Bi3  1  0.35616159  0.13872831  0.62262118  1.0
  Os  Os4  1  0.79770349  0.48617841  0.30360368  1.0
  Os  Os5  1  0.79770349  0.01382159  0.80360368  1.0
  Os  Os6  1  0.20229651  0.98617841  0.19639632  1.0
  Os  Os7  1  0.20229651  0.51382159  0.69639632  1.0
  Se  Se8  1  0.85291702  0.13547651  0.17801736  1.0
  Se  Se9  1  0.85291702  0.36452349  0.67801736  1.0
  Se  Se10  1  0.14708298  0.63547651  0.32198264  1.0
  Se  Se11  1  0.14708298  0.86452349  0.82198264  1.0
