# generated using pymatgen
data_Ti4Cr3(PO4)6
_symmetry_space_group_name_H-M   'P 1'
_cell_length_a   8.10772653
_cell_length_b   6.42922000
_cell_length_c   10.05494287
_cell_angle_alpha   66.91354808
_cell_angle_beta   66.06808171
_cell_angle_gamma   77.14195248
_symmetry_Int_Tables_number   1
_chemical_formula_structural   Ti4Cr3(PO4)6
_chemical_formula_sum   'Ti4 Cr3 P6 O24'
_cell_volume   439.44338734
_cell_formula_units_Z   1
loop_
 _symmetry_equiv_pos_site_id
 _symmetry_equiv_pos_as_xyz
  1  'x, y, z'
loop_
 _atom_site_type_symbol
 _atom_site_label
 _atom_site_symmetry_multiplicity
 _atom_site_fract_x
 _atom_site_fract_y
 _atom_site_fract_z
 _atom_site_occupancy
  Ti  Ti0  1  -0.19881572  0.01230130  0.01633705  1.0
  Ti  Ti1  1  -0.80118428  -0.01230130  0.98366295  1.0
  Ti  Ti2  1  -0.04546205  0.20964343  0.39788183  1.0
  Ti  Ti3  1  -0.95453795  -0.20964343  0.60211817  1.0
  Cr  Cr4  1  -0.50000000  -0.50000000  0.50000000  1.0
  Cr  Cr5  1  -0.29867962  -0.50663973  0.77719478  1.0
  Cr  Cr6  1  -0.70132038  0.50663973  0.22280522  1.0
  P  P7  1  -0.25772231  0.45466292  0.12911601  1.0
  P  P8  1  -0.74227769  -0.45466292  0.87088399  1.0
  P  P9  1  -0.35712051  0.04629979  0.73963019  1.0
  P  P10  1  -0.64287949  -0.04629979  0.26036981  1.0
  P  P11  1  -0.10481877  -0.24471610  0.33785787  1.0
  P  P12  1  -0.89518123  0.24471610  0.66214213  1.0
  O  O13  1  -0.04884269  -0.12199510  0.41946220  1.0
  O  O14  1  -0.95115731  0.12199510  0.58053780  1.0
  O  O15  1  -0.23766771  -0.18166902  0.73112769  1.0
  O  O16  1  -0.76233229  0.18166902  0.26887231  1.0
  O  O17  1  -0.02327426  -0.53364740  0.66095740  1.0
  O  O18  1  -0.97672574  0.53364740  0.33904260  1.0
  O  O19  1  -0.22171616  0.33964441  0.00753961  1.0
  O  O20  1  -0.77828384  -0.33964441  0.99246039  1.0
  O  O21  1  -0.29857496  0.14855872  0.83215227  1.0
  O  O22  1  -0.70142504  -0.14855872  0.16784773  1.0
  O  O23  1  -0.55584592  0.00195791  0.81896024  1.0
  O  O24  1  -0.44415408  -0.00195791  0.18103976  1.0
  O  O25  1  -0.05746748  -0.08526218  0.16376910  1.0
  O  O26  1  -0.94253252  0.08526218  0.83623090  1.0
  O  O27  1  -0.30153753  -0.29497768  0.41841733  1.0
  O  O28  1  -0.69846247  0.29497768  0.58158267  1.0
  O  O29  1  -0.31212028  0.22122591  0.56925677  1.0
  O  O30  1  -0.68787972  -0.22122591  0.43074323  1.0
  O  O31  1  -0.14837956  0.32351819  0.23655748  1.0
  O  O32  1  -0.85162044  -0.32351819  0.76344252  1.0
  O  O33  1  -0.20041039  0.70188518  0.03719267  1.0
  O  O34  1  -0.79958961  -0.70188518  0.96280733  1.0
  O  O35  1  -0.45961796  0.45639519  0.23407827  1.0
  O  O36  1  -0.54038204  -0.45639519  0.76592173  1.0
