# generated using pymatgen
data_Mo8P5
_symmetry_space_group_name_H-M   'P 1'
_cell_length_a   6.57292186
_cell_length_b   3.20254639
_cell_length_c   9.44358027
_cell_angle_alpha   90.00000000
_cell_angle_beta   109.41022514
_cell_angle_gamma   90.00000000
_symmetry_Int_Tables_number   1
_chemical_formula_structural   Mo8P5
_chemical_formula_sum   'Mo8 P5'
_cell_volume   187.48973632
_cell_formula_units_Z   1
loop_
 _symmetry_equiv_pos_site_id
 _symmetry_equiv_pos_as_xyz
  1  'x, y, z'
loop_
 _atom_site_type_symbol
 _atom_site_label
 _atom_site_symmetry_multiplicity
 _atom_site_fract_x
 _atom_site_fract_y
 _atom_site_fract_z
 _atom_site_occupancy
  Mo  Mo0  1  0.82184295  0.50000000  0.53134236  1.0
  Mo  Mo1  1  0.81217810  0.50000000  0.20931324  1.0
  Mo  Mo2  1  0.60671573  0.50000000  0.77729609  1.0
  Mo  Mo3  1  0.37430253  0.50000000  1.00081505  1.0
  Mo  Mo4  1  0.25312848  0.50000000  0.47395414  1.0
  Mo  Mo5  1  0.00126161  0.00000000  -0.00089222  1.0
  Mo  Mo6  1  0.48221086  0.00000000  0.28355931  1.0
  Mo  Mo7  1  0.21364374  0.00000000  0.72905197  1.0
  P  P8  1  0.98618984  0.50000000  0.79852665  1.0
  P  P9  1  0.18673028  0.50000000  0.20589937  1.0
  P  P10  1  0.95935694  0.00000000  0.40371476  1.0
  P  P11  1  0.63218079  0.00000000  0.99165476  1.0
  P  P12  1  0.54985815  0.00000000  0.57196450  1.0
