# generated using pymatgen
data_BaHfS3
_symmetry_space_group_name_H-M   'P 1'
_cell_length_a   7.09728378
_cell_length_b   9.98514500
_cell_length_c   7.01311668
_cell_angle_alpha   90.00000000
_cell_angle_beta   90.00000000
_cell_angle_gamma   90.00000000
_symmetry_Int_Tables_number   1
_chemical_formula_structural   BaHfS3
_chemical_formula_sum   'Ba4 Hf4 S12'
_cell_volume   497.00139890
_cell_formula_units_Z   4
loop_
 _symmetry_equiv_pos_site_id
 _symmetry_equiv_pos_as_xyz
  1  'x, y, z'
loop_
 _atom_site_type_symbol
 _atom_site_label
 _atom_site_symmetry_multiplicity
 _atom_site_fract_x
 _atom_site_fract_y
 _atom_site_fract_z
 _atom_site_occupancy
  Ba  Ba0  1  0.04573815  0.75000000  0.51029795  1.0
  Ba  Ba1  1  0.54573815  0.75000000  0.98970205  1.0
  Ba  Ba2  1  0.95426185  0.25000000  0.48970205  1.0
  Ba  Ba3  1  0.45426185  0.25000000  0.01029795  1.0
  Hf  Hf4  1  0.50000000  0.00000000  0.50000000  1.0
  Hf  Hf5  1  0.50000000  0.50000000  0.50000000  1.0
  Hf  Hf6  1  0.00000000  0.00000000  0.00000000  1.0
  Hf  Hf7  1  0.00000000  0.50000000  0.00000000  1.0
  S  S8  1  0.28726027  0.96861693  0.78715806  1.0
  S  S9  1  0.28726027  0.53138307  0.78715806  1.0
  S  S10  1  0.78726027  0.96861693  0.71284194  1.0
  S  S11  1  0.78726027  0.53138307  0.71284194  1.0
  S  S12  1  0.71273973  0.46861693  0.21284194  1.0
  S  S13  1  0.71273973  0.03138307  0.21284194  1.0
  S  S14  1  0.21273973  0.46861693  0.28715806  1.0
  S  S15  1  0.21273973  0.03138307  0.28715806  1.0
  S  S16  1  0.99541991  0.75000000  0.05991500  1.0
  S  S17  1  0.49541991  0.75000000  0.44008500  1.0
  S  S18  1  0.00458009  0.25000000  0.94008500  1.0
  S  S19  1  0.50458009  0.25000000  0.55991500  1.0
