# generated using pymatgen
data_Cs3CoCl5
_symmetry_space_group_name_H-M   'P 1'
_cell_length_a   9.90897004
_cell_length_b   9.90897004
_cell_length_c   9.90897004
_cell_angle_alpha   123.00894215
_cell_angle_beta   123.00894215
_cell_angle_gamma   84.86286506
_symmetry_Int_Tables_number   1
_chemical_formula_structural   Cs3CoCl5
_chemical_formula_sum   'Cs6 Co2 Cl10'
_cell_volume   653.81224891
_cell_formula_units_Z   2
loop_
 _symmetry_equiv_pos_site_id
 _symmetry_equiv_pos_as_xyz
  1  'x, y, z'
loop_
 _atom_site_type_symbol
 _atom_site_label
 _atom_site_symmetry_multiplicity
 _atom_site_fract_x
 _atom_site_fract_y
 _atom_site_fract_z
 _atom_site_occupancy
  Cs  Cs0  1  0.83163732  0.33163732  1.16327464  1.0
  Cs  Cs1  1  0.66836268  0.83163732  1.50000000  1.0
  Cs  Cs2  1  0.33163732  0.16836268  0.50000000  1.0
  Cs  Cs3  1  0.16836268  0.66836268  0.83672536  1.0
  Cs  Cs4  1  0.75000000  0.75000000  1.00000000  1.0
  Cs  Cs5  1  0.25000000  0.25000000  0.00000000  1.0
  Co  Co6  1  0.25000000  0.75000000  0.50000000  1.0
  Co  Co7  1  0.75000000  0.25000000  0.50000000  1.0
  Cl  Cl8  1  1.20666420  0.70666420  1.22904408  1.0
  Cl  Cl9  1  0.52237987  1.02237987  1.22904408  1.0
  Cl  Cl10  1  0.97762013  1.20666420  1.50000000  1.0
  Cl  Cl11  1  0.29333580  0.52237987  0.50000000  1.0
  Cl  Cl12  1  0.70666420  0.47762013  0.50000000  1.0
  Cl  Cl13  1  1.02237987  0.79333580  1.50000000  1.0
  Cl  Cl14  1  0.47762013  0.97762013  0.77095592  1.0
  Cl  Cl15  1  0.79333580  0.29333580  0.77095592  1.0
  Cl  Cl16  1  0.00000000  0.00000000  0.00000000  1.0
  Cl  Cl17  1  0.50000000  0.50000000  1.00000000  1.0
