# generated using pymatgen
data_Cr3AsC
_symmetry_space_group_name_H-M   'P 1'
_cell_length_a   5.37126978
_cell_length_b   5.37126978
_cell_length_c   7.47310151
_cell_angle_alpha   90.00000000
_cell_angle_beta   90.00000000
_cell_angle_gamma   148.43860986
_symmetry_Int_Tables_number   1
_chemical_formula_structural   Cr3AsC
_chemical_formula_sum   'Cr6 As2 C2'
_cell_volume   112.84916557
_cell_formula_units_Z   2
loop_
 _symmetry_equiv_pos_site_id
 _symmetry_equiv_pos_as_xyz
  1  'x, y, z'
loop_
 _atom_site_type_symbol
 _atom_site_label
 _atom_site_symmetry_multiplicity
 _atom_site_fract_x
 _atom_site_fract_y
 _atom_site_fract_z
 _atom_site_occupancy
  As  As0  1  -0.26485428  0.26485428  0.75000000  1.0
  As  As1  1  0.26485428  0.73514572  0.25000000  1.0
  Cr  Cr2  1  0.37700819  0.62299181  0.94792172  1.0
  Cr  Cr3  1  0.37700819  0.62299181  0.55207828  1.0
  Cr  Cr4  1  -0.37700819  0.37700819  0.44792172  1.0
  Cr  Cr5  1  -0.37700819  0.37700819  0.05207828  1.0
  Cr  Cr6  1  0.03640464  0.96359536  0.75000000  1.0
  Cr  Cr7  1  -0.03640464  0.03640464  0.25000000  1.0
  C  C8  1  0.00000000  0.00000000  0.00000000  1.0
  C  C9  1  0.00000000  0.00000000  0.50000000  1.0
