# generated using pymatgen
data_La2MoO6
_symmetry_space_group_name_H-M   'P 1'
_cell_length_a   16.66437048
_cell_length_b   16.66437048
_cell_length_c   16.66437048
_cell_angle_alpha   159.78365040
_cell_angle_beta   159.78365040
_cell_angle_gamma   28.74259593
_symmetry_Int_Tables_number   1
_chemical_formula_structural   La2MoO6
_chemical_formula_sum   'La8 Mo4 O24'
_cell_volume   552.34353094
_cell_formula_units_Z   4
loop_
 _symmetry_equiv_pos_site_id
 _symmetry_equiv_pos_as_xyz
  1  'x, y, z'
loop_
 _atom_site_type_symbol
 _atom_site_label
 _atom_site_symmetry_multiplicity
 _atom_site_fract_x
 _atom_site_fract_y
 _atom_site_fract_z
 _atom_site_occupancy
  La  La0  1  0.08670612  0.58670612  0.50000000  1.0
  La  La1  1  0.58670612  0.08670612  0.50000000  1.0
  La  La2  1  0.91329388  0.41329388  0.50000000  1.0
  La  La3  1  0.41329388  0.91329388  0.50000000  1.0
  La  La4  1  0.16331193  0.16331193  -0.00000000  1.0
  La  La5  1  0.66331193  0.66331193  1.00000000  1.0
  La  La6  1  0.33668807  0.33668807  -0.00000000  1.0
  La  La7  1  0.83668807  0.83668807  1.00000000  1.0
  Mo  Mo8  1  0.25000000  0.75000000  0.50000000  1.0
  Mo  Mo9  1  0.75000000  0.25000000  0.50000000  1.0
  Mo  Mo10  1  0.00000000  0.00000000  0.00000000  1.0
  Mo  Mo11  1  0.50000000  0.50000000  1.00000000  1.0
  O  O12  1  0.20119640  0.86708802  0.99761920  1.0
  O  O13  1  0.70119640  0.70357720  1.33410838  1.0
  O  O14  1  0.63291198  1.29880360  1.00238080  1.0
  O  O15  1  1.13291198  1.13053118  1.33410838  1.0
  O  O16  1  0.36946882  0.36708802  0.66589162  1.0
  O  O17  1  0.86946882  0.20357720  1.00238080  1.0
  O  O18  1  0.79642280  0.79880360  0.66589162  1.0
  O  O19  1  1.29642280  0.63053118  0.99761920  1.0
  O  O20  1  0.38052163  0.88293267  0.83411455  1.0
  O  O21  1  0.88052163  1.04640708  1.49758897  1.0
  O  O22  1  0.61706733  1.11947837  1.16588545  1.0
  O  O23  1  1.11706733  0.95118189  1.49758897  1.0
  O  O24  1  0.54881811  0.38293267  0.50241103  1.0
  O  O25  1  1.04881811  0.54640708  1.16588545  1.0
  O  O26  1  0.45359292  0.61947837  0.50241103  1.0
  O  O27  1  0.95359292  0.45118189  0.83411455  1.0
  O  O28  1  0.38130936  0.87509056  1.00637732  1.0
  O  O29  1  0.88130936  0.87493205  1.50621880  1.0
  O  O30  1  0.62490944  1.11869064  0.99362268  1.0
  O  O31  1  1.12490944  1.13128675  1.50621880  1.0
  O  O32  1  0.36871325  0.37509056  0.49378120  1.0
  O  O33  1  0.86871325  0.37493205  0.99362268  1.0
  O  O34  1  0.62506795  0.61869064  0.49378120  1.0
  O  O35  1  1.12506795  0.63128675  1.00637732  1.0
