# generated using pymatgen
data_LaSbMo2O9
_symmetry_space_group_name_H-M   'P 1'
_cell_length_a   10.01437756
_cell_length_b   10.01437756
_cell_length_c   11.15578421
_cell_angle_alpha   68.65251333
_cell_angle_beta   111.34748667
_cell_angle_gamma   83.60600696
_symmetry_Int_Tables_number   1
_chemical_formula_structural   LaSbMo2O9
_chemical_formula_sum   'La4 Sb4 Mo8 O36'
_cell_volume   931.39229759
_cell_formula_units_Z   4
loop_
 _symmetry_equiv_pos_site_id
 _symmetry_equiv_pos_as_xyz
  1  'x, y, z'
loop_
 _atom_site_type_symbol
 _atom_site_label
 _atom_site_symmetry_multiplicity
 _atom_site_fract_x
 _atom_site_fract_y
 _atom_site_fract_z
 _atom_site_occupancy
  La  La0  1  1.32260212  0.32260212  0.75000000  1.0
  La  La1  1  0.67739788  -0.32260212  0.25000000  1.0
  La  La2  1  0.87644772  -0.12355228  0.75000000  1.0
  La  La3  1  1.12355228  0.12355228  0.25000000  1.0
  Sb  Sb4  1  1.35629264  0.62569604  0.95905551  1.0
  Sb  Sb5  1  1.62569604  0.35629264  0.54094449  1.0
  Sb  Sb6  1  0.64370736  -0.62569604  0.04094449  1.0
  Sb  Sb7  1  0.37430396  -0.35629264  0.45905551  1.0
  Mo  Mo8  1  0.95000334  -0.74200951  0.47633917  1.0
  Mo  Mo9  1  0.25799049  -0.04999666  0.02366083  1.0
  Mo  Mo10  1  1.04999666  0.74200951  0.52366083  1.0
  Mo  Mo11  1  1.74200951  0.04999666  0.97633917  1.0
  Mo  Mo12  1  0.93743840  -0.56427086  0.80568653  1.0
  Mo  Mo13  1  0.43572914  -0.06256160  0.69431347  1.0
  Mo  Mo14  1  1.06256160  0.56427086  0.19431347  1.0
  Mo  Mo15  1  1.56427086  0.06256160  0.30568653  1.0
  O  O16  1  0.93449179  -0.90034722  0.60024709  1.0
  O  O17  1  0.09965278  -0.06550821  0.89975291  1.0
  O  O18  1  1.06550821  0.90034722  0.39975291  1.0
  O  O19  1  1.90034722  0.06550821  0.10024709  1.0
  O  O20  1  1.11910393  0.29536604  0.56121974  1.0
  O  O21  1  1.29536604  0.11910393  0.93878026  1.0
  O  O22  1  0.88089607  -0.29536604  0.43878026  1.0
  O  O23  1  0.70463396  -0.11910393  0.06121974  1.0
  O  O24  1  0.94890049  -0.77463881  0.32965586  1.0
  O  O25  1  0.22536119  -0.05109951  0.17034414  1.0
  O  O26  1  1.05109951  0.77463881  0.67034414  1.0
  O  O27  1  1.77463881  0.05109951  0.82965586  1.0
  O  O28  1  1.21464133  0.59652460  0.57447700  1.0
  O  O29  1  1.59652460  0.21464133  0.92552300  1.0
  O  O30  1  0.78535867  -0.59652460  0.42552300  1.0
  O  O31  1  0.40347540  -0.21464133  0.07447700  1.0
  O  O32  1  1.00764989  0.30938248  0.98685808  1.0
  O  O33  1  1.30938248  0.00764989  0.51314192  1.0
  O  O34  1  0.99235011  -0.30938248  0.01314192  1.0
  O  O35  1  0.69061752  -0.00764989  0.48685808  1.0
  O  O36  1  0.86467451  -0.38377775  0.78109560  1.0
  O  O37  1  0.61622225  -0.13532549  0.71890440  1.0
  O  O38  1  1.13532549  0.38377775  0.21890440  1.0
  O  O39  1  1.38377775  0.13532549  0.28109560  1.0
  O  O40  1  1.08458247  0.43604539  0.75458775  1.0
  O  O41  1  1.43604539  0.08458247  0.74541225  1.0
  O  O42  1  0.91541753  -0.43604539  0.24541225  1.0
  O  O43  1  0.56395461  -0.08458247  0.25458775  1.0
  O  O44  1  0.78499138  -0.61840805  0.69860020  1.0
  O  O45  1  0.38159195  -0.21500862  0.80139980  1.0
  O  O46  1  1.21500862  0.61840805  0.30139980  1.0
  O  O47  1  1.61840805  0.21500862  0.19860020  1.0
  O  O48  1  1.42472409  0.45878738  0.90348306  1.0
  O  O49  1  1.45878738  0.42472409  0.59651694  1.0
  O  O50  1  0.57527591  -0.45878738  0.09651694  1.0
  O  O51  1  0.54121262  -0.42472409  0.40348306  1.0
