# generated using pymatgen
data_LiLa4CuO8
_symmetry_space_group_name_H-M   'P 1'
_cell_length_a   7.13312345
_cell_length_b   7.13312345
_cell_length_c   5.30073516
_cell_angle_alpha   90.00000000
_cell_angle_beta   90.00000000
_cell_angle_gamma   136.31067746
_symmetry_Int_Tables_number   1
_chemical_formula_structural   LiLa4CuO8
_chemical_formula_sum   'Li1 La4 Cu1 O8'
_cell_volume   186.30092647
_cell_formula_units_Z   1
loop_
 _symmetry_equiv_pos_site_id
 _symmetry_equiv_pos_as_xyz
  1  'x, y, z'
loop_
 _atom_site_type_symbol
 _atom_site_label
 _atom_site_symmetry_multiplicity
 _atom_site_fract_x
 _atom_site_fract_y
 _atom_site_fract_z
 _atom_site_occupancy
  Li  Li0  1  0.00000000  0.00000000  0.00000000  1.0
  La  La1  1  -0.86220770  0.86220770  0.50000000  1.0
  La  La2  1  -0.13779230  1.13779230  0.50000000  1.0
  La  La3  1  -0.63942313  0.63942313  0.00000000  1.0
  La  La4  1  -0.36057687  1.36057687  0.00000000  1.0
  Cu  Cu5  1  0.50000000  0.50000000  0.50000000  1.0
  O  O6  1  0.74303249  0.74303249  0.74500832  1.0
  O  O7  1  0.74303249  0.74303249  0.25499168  1.0
  O  O8  1  0.25696751  0.25696751  0.74500832  1.0
  O  O9  1  0.25696751  0.25696751  0.25499168  1.0
  O  O10  1  -0.68593785  0.68593785  0.50000000  1.0
  O  O11  1  -0.31406215  1.31406215  0.50000000  1.0
  O  O12  1  -0.82084229  0.82084229  0.00000000  1.0
  O  O13  1  -0.17915771  1.17915771  0.00000000  1.0
