# generated using pymatgen
data_InCl
_symmetry_space_group_name_H-M   'P 1'
_cell_length_a   5.50004377
_cell_length_b   7.42023511
_cell_length_c   4.00571984
_cell_angle_alpha   90.00000000
_cell_angle_beta   90.00000000
_cell_angle_gamma   90.00000000
_symmetry_Int_Tables_number   1
_chemical_formula_structural   InCl
_chemical_formula_sum   'In2 Cl2'
_cell_volume   163.47990733
_cell_formula_units_Z   2
loop_
 _symmetry_equiv_pos_site_id
 _symmetry_equiv_pos_as_xyz
  1  'x, y, z'
loop_
 _atom_site_type_symbol
 _atom_site_label
 _atom_site_symmetry_multiplicity
 _atom_site_fract_x
 _atom_site_fract_y
 _atom_site_fract_z
 _atom_site_occupancy
  In  In0  1  0.25000000  0.05951267  -0.24946299  1.0
  In  In1  1  0.75000000  0.94048733  -0.24946299  1.0
  Cl  Cl2  1  0.25000000  0.29007456  0.25046299  1.0
  Cl  Cl3  1  0.75000000  0.70992544  0.25046299  1.0
