# generated using pymatgen
data_Na3TiF8
_symmetry_space_group_name_H-M   'P 1'
_cell_length_a   7.90815664
_cell_length_b   7.90815664
_cell_length_c   6.98632933
_cell_angle_alpha   90.00000000
_cell_angle_beta   90.00000000
_cell_angle_gamma   126.34443298
_symmetry_Int_Tables_number   1
_chemical_formula_structural   Na3TiF8
_chemical_formula_sum   'Na6 Ti2 F16'
_cell_volume   351.92358594
_cell_formula_units_Z   2
loop_
 _symmetry_equiv_pos_site_id
 _symmetry_equiv_pos_as_xyz
  1  'x, y, z'
loop_
 _atom_site_type_symbol
 _atom_site_label
 _atom_site_symmetry_multiplicity
 _atom_site_fract_x
 _atom_site_fract_y
 _atom_site_fract_z
 _atom_site_occupancy
  F  F0  1  0.04608576  0.56893408  0.75000000  1.0
  F  F1  1  0.56893408  1.04608576  0.25000000  1.0
  F  F2  1  0.43106592  0.95391424  0.75000000  1.0
  F  F3  1  -0.04608576  0.43106592  0.25000000  1.0
  F  F4  1  -0.13446355  0.75727199  0.75000000  1.0
  F  F5  1  0.75727199  0.86553645  0.25000000  1.0
  F  F6  1  0.24272801  1.13446355  0.75000000  1.0
  F  F7  1  0.13446355  0.24272801  0.25000000  1.0
  F  F8  1  0.14438141  0.85561859  0.47740036  1.0
  F  F9  1  0.14438141  0.85561859  0.02259964  1.0
  F  F10  1  -0.14438141  0.14438141  0.97740036  1.0
  F  F11  1  -0.14438141  0.14438141  0.52259964  1.0
  F  F12  1  0.43258485  0.56741515  0.95470866  1.0
  F  F13  1  0.43258485  0.56741515  0.54529134  1.0
  F  F14  1  -0.43258485  0.43258485  0.45470866  1.0
  F  F15  1  -0.43258485  0.43258485  0.04529134  1.0
  Ti  Ti16  1  0.14683193  0.85316807  0.75000000  1.0
  Ti  Ti17  1  -0.14683193  0.14683193  0.25000000  1.0
  Na  Na18  1  0.13771871  0.34367281  0.75000000  1.0
  Na  Na19  1  0.34367281  1.13771871  0.25000000  1.0
  Na  Na20  1  0.65632719  0.86228129  0.75000000  1.0
  Na  Na21  1  -0.13771871  0.65632719  0.25000000  1.0
  Na  Na22  1  -0.36638357  0.36638357  0.75000000  1.0
  Na  Na23  1  0.36638357  0.63361643  0.25000000  1.0
