# generated using pymatgen
data_EuSi3Pt
_symmetry_space_group_name_H-M   'P 1'
_cell_length_a   5.75125112
_cell_length_b   5.75125112
_cell_length_c   5.75125112
_cell_angle_alpha   136.13218804
_cell_angle_beta   136.13218804
_cell_angle_gamma   63.77603654
_symmetry_Int_Tables_number   1
_chemical_formula_structural   EuSi3Pt
_chemical_formula_sum   'Eu1 Si3 Pt1'
_cell_volume   90.14952834
_cell_formula_units_Z   1
loop_
 _symmetry_equiv_pos_site_id
 _symmetry_equiv_pos_as_xyz
  1  'x, y, z'
loop_
 _atom_site_type_symbol
 _atom_site_label
 _atom_site_symmetry_multiplicity
 _atom_site_fract_x
 _atom_site_fract_y
 _atom_site_fract_z
 _atom_site_occupancy
  Eu  Eu0  1  0.57583697  0.57583697  1.00000000  1.0
  Si  Si1  1  0.83904474  0.33904474  0.50000000  1.0
  Si  Si2  1  0.33904474  0.83904474  0.50000000  1.0
  Si  Si3  1  -0.02113877  -0.02113877  0.00000000  1.0
  Pt  Pt4  1  0.22501232  0.22501232  -0.00000000  1.0
