# generated using pymatgen
data_GdSnF7
_symmetry_space_group_name_H-M   'P 1'
_cell_length_a   9.13402222
_cell_length_b   5.75754406
_cell_length_c   12.26392279
_cell_angle_alpha   90.00000000
_cell_angle_beta   117.64297112
_cell_angle_gamma   90.00000000
_symmetry_Int_Tables_number   1
_chemical_formula_structural   GdSnF7
_chemical_formula_sum   'Gd4 Sn4 F28'
_cell_volume   571.33628401
_cell_formula_units_Z   4
loop_
 _symmetry_equiv_pos_site_id
 _symmetry_equiv_pos_as_xyz
  1  'x, y, z'
loop_
 _atom_site_type_symbol
 _atom_site_label
 _atom_site_symmetry_multiplicity
 _atom_site_fract_x
 _atom_site_fract_y
 _atom_site_fract_z
 _atom_site_occupancy
  Gd  Gd0  1  0.81269696  0.75759176  0.23437180  1.0
  Gd  Gd1  1  0.81269696  0.74240824  0.73437180  1.0
  Gd  Gd2  1  0.18730304  0.25759176  0.26562820  1.0
  Gd  Gd3  1  0.18730304  0.24240824  0.76562820  1.0
  Sn  Sn4  1  0.72682953  0.25607079  0.45657973  1.0
  Sn  Sn5  1  0.72682953  0.24392921  0.95657973  1.0
  Sn  Sn6  1  0.27317047  0.75607079  0.04342027  1.0
  Sn  Sn7  1  0.27317047  0.74392921  0.54342027  1.0
  F  F8  1  0.97235753  0.07504482  0.26571759  1.0
  F  F9  1  0.97235753  0.42495518  0.76571759  1.0
  F  F10  1  0.02764247  0.57504482  0.23428241  1.0
  F  F11  1  0.02764247  0.92495518  0.73428241  1.0
  F  F12  1  0.97262831  0.24091020  0.05338843  1.0
  F  F13  1  0.97262831  0.25908980  0.55338843  1.0
  F  F14  1  0.02737169  0.74091020  0.44661157  1.0
  F  F15  1  0.02737169  0.75908980  0.94661157  1.0
  F  F16  1  0.74492860  0.45937916  0.33005312  1.0
  F  F17  1  0.74492860  0.04062084  0.83005312  1.0
  F  F18  1  0.25507140  0.95937916  0.16994688  1.0
  F  F19  1  0.25507140  0.54062084  0.66994688  1.0
  F  F20  1  0.73165631  0.98419928  0.35655206  1.0
  F  F21  1  0.73165631  0.51580072  0.85655206  1.0
  F  F22  1  0.26834369  0.48419928  0.14344794  1.0
  F  F23  1  0.26834369  0.01580072  0.64344794  1.0
  F  F24  1  0.70766463  0.45558158  0.07846668  1.0
  F  F25  1  0.70766463  0.04441842  0.57846668  1.0
  F  F26  1  0.29233537  0.95558158  0.42153332  1.0
  F  F27  1  0.29233537  0.54441842  0.92153332  1.0
  F  F28  1  0.48153947  0.26763908  0.35859810  1.0
  F  F29  1  0.48153947  0.23236092  0.85859810  1.0
  F  F30  1  0.51846053  0.76763908  0.14140190  1.0
  F  F31  1  0.51846053  0.73236092  0.64140190  1.0
  F  F32  1  0.28404534  0.45720929  0.45385172  1.0
  F  F33  1  0.28404534  0.04279071  0.95385172  1.0
  F  F34  1  0.71595466  0.95720929  0.04614828  1.0
  F  F35  1  0.71595466  0.54279071  0.54614828  1.0
