# generated using pymatgen
data_RbSr2I5
_symmetry_space_group_name_H-M   'P 1'
_cell_length_a   10.21133564
_cell_length_b   9.17577044
_cell_length_c   14.55938029
_cell_angle_alpha   90.00000000
_cell_angle_beta   90.23790658
_cell_angle_gamma   90.00000000
_symmetry_Int_Tables_number   1
_chemical_formula_structural   RbSr2I5
_chemical_formula_sum   'Rb4 Sr8 I20'
_cell_volume   1364.15662757
_cell_formula_units_Z   4
loop_
 _symmetry_equiv_pos_site_id
 _symmetry_equiv_pos_as_xyz
  1  'x, y, z'
loop_
 _atom_site_type_symbol
 _atom_site_label
 _atom_site_symmetry_multiplicity
 _atom_site_fract_x
 _atom_site_fract_y
 _atom_site_fract_z
 _atom_site_occupancy
  Rb  Rb0  1  0.49216753  0.44979488  0.16916503  1.0
  Rb  Rb1  1  0.49216753  0.05020512  0.66916503  1.0
  Rb  Rb2  1  0.50783247  0.94979488  0.33083497  1.0
  Rb  Rb3  1  0.50783247  0.55020512  0.83083497  1.0
  Sr  Sr4  1  0.99664459  0.47690250  0.18014165  1.0
  Sr  Sr5  1  0.99664459  0.02309750  0.68014165  1.0
  Sr  Sr6  1  0.00335541  0.97690250  0.31985835  1.0
  Sr  Sr7  1  0.00335541  0.52309750  0.81985835  1.0
  Sr  Sr8  1  0.75227932  0.42975493  0.49437898  1.0
  Sr  Sr9  1  0.75227932  0.07024507  0.99437898  1.0
  Sr  Sr10  1  0.24772068  0.92975493  0.00562102  1.0
  Sr  Sr11  1  0.24772068  0.57024507  0.50562102  1.0
  I  I12  1  0.95990410  0.83965872  0.10043348  1.0
  I  I13  1  0.95990410  0.66034128  0.60043348  1.0
  I  I14  1  0.04009590  0.33965872  0.39956652  1.0
  I  I15  1  0.04009590  0.16034128  0.89956652  1.0
  I  I16  1  0.78787579  0.04564092  0.49704530  1.0
  I  I17  1  0.78787579  0.45435908  0.99704530  1.0
  I  I18  1  0.21212421  0.54564092  0.00295470  1.0
  I  I19  1  0.21212421  0.95435908  0.50295470  1.0
  I  I20  1  0.78356486  0.66507799  0.31739393  1.0
  I  I21  1  0.78356486  0.83492201  0.81739393  1.0
  I  I22  1  0.21643514  0.16507799  0.18260607  1.0
  I  I23  1  0.21643514  0.33492201  0.68260607  1.0
  I  I24  1  0.77225804  0.18985588  0.21515166  1.0
  I  I25  1  0.77225804  0.31014412  0.71515166  1.0
  I  I26  1  0.22774196  0.68985588  0.28484834  1.0
  I  I27  1  0.22774196  0.81014412  0.78484834  1.0
  I  I28  1  0.46423697  0.32599249  0.41735813  1.0
  I  I29  1  0.46423697  0.17400751  0.91735813  1.0
  I  I30  1  0.53576303  0.82599249  0.08264187  1.0
  I  I31  1  0.53576303  0.67400751  0.58264187  1.0
