# generated using pymatgen
data_Cs2(NbCl3)3
_symmetry_space_group_name_H-M   'P 1'
_cell_length_a   10.50045596
_cell_length_b   10.50045596
_cell_length_c   10.24493880
_cell_angle_alpha   76.55046379
_cell_angle_beta   103.44953621
_cell_angle_gamma   62.47817353
_symmetry_Int_Tables_number   1
_chemical_formula_structural   Cs2(NbCl3)3
_chemical_formula_sum   'Cs4 Nb6 Cl18'
_cell_volume   895.37337520
_cell_formula_units_Z   2
loop_
 _symmetry_equiv_pos_site_id
 _symmetry_equiv_pos_as_xyz
  1  'x, y, z'
loop_
 _atom_site_type_symbol
 _atom_site_label
 _atom_site_symmetry_multiplicity
 _atom_site_fract_x
 _atom_site_fract_y
 _atom_site_fract_z
 _atom_site_occupancy
  Cs  Cs0  1  0.73012435  -0.04764091  0.68335256  1.0
  Cs  Cs1  1  1.04764091  0.26987565  0.68335256  1.0
  Cs  Cs2  1  0.95235909  -0.26987565  0.31664744  1.0
  Cs  Cs3  1  1.26987565  0.04764091  0.31664744  1.0
  Nb  Nb4  1  0.45318709  -0.28927704  0.86318514  1.0
  Nb  Nb5  1  1.28927704  0.54681291  0.86318514  1.0
  Nb  Nb6  1  0.71072296  -0.54681291  0.13681486  1.0
  Nb  Nb7  1  1.54681291  0.28927704  0.13681486  1.0
  Nb  Nb8  1  0.61167441  -0.61167441  0.87930608  1.0
  Nb  Nb9  1  0.38832559  -0.38832559  0.12069392  1.0
  Cl  Cl10  1  0.57597136  -0.38313106  0.69867289  1.0
  Cl  Cl11  1  1.38313106  0.42402864  0.69867289  1.0
  Cl  Cl12  1  0.61686894  -0.42402864  0.30132711  1.0
  Cl  Cl13  1  1.42402864  0.38313106  0.30132711  1.0
  Cl  Cl14  1  0.31512308  -0.12062329  0.98139810  1.0
  Cl  Cl15  1  1.12062329  0.68487692  0.98139810  1.0
  Cl  Cl16  1  0.87937671  -0.68487692  0.01860190  1.0
  Cl  Cl17  1  1.68487692  0.12062329  0.01860190  1.0
  Cl  Cl18  1  1.39241671  -0.02270830  0.68836559  1.0
  Cl  Cl19  1  1.02270830  -0.39241671  0.68836559  1.0
  Cl  Cl20  1  0.97729170  0.39241671  0.31163441  1.0
  Cl  Cl21  1  0.60758329  0.02270830  0.31163441  1.0
  Cl  Cl22  1  0.80454601  -0.80454601  0.32071720  1.0
  Cl  Cl23  1  0.19545399  -0.19545399  0.67928280  1.0
  Cl  Cl24  1  0.75126128  -0.75126128  0.73143949  1.0
  Cl  Cl25  1  0.24873872  -0.24873872  0.26856051  1.0
  Cl  Cl26  1  0.69320171  -0.30679829  -0.00000000  1.0
  Cl  Cl27  1  1.30679829  0.30679829  0.00000000  1.0
