# generated using pymatgen
data_YP(H2O3)2
_symmetry_space_group_name_H-M   'P 1'
_cell_length_a   8.12649414
_cell_length_b   8.12649414
_cell_length_c   5.60805969
_cell_angle_alpha   80.55270132
_cell_angle_beta   99.44729868
_cell_angle_gamma   45.13089290
_symmetry_Int_Tables_number   1
_chemical_formula_structural   YP(H2O3)2
_chemical_formula_sum   'Y2 P2 H8 O12'
_cell_volume   237.25490891
_cell_formula_units_Z   2
loop_
 _symmetry_equiv_pos_site_id
 _symmetry_equiv_pos_as_xyz
  1  'x, y, z'
loop_
 _atom_site_type_symbol
 _atom_site_label
 _atom_site_symmetry_multiplicity
 _atom_site_fract_x
 _atom_site_fract_y
 _atom_site_fract_z
 _atom_site_occupancy
  Y  Y0  1  0.32951547  0.32951547  0.75000000  1.0
  Y  Y1  1  0.67048453  -0.32951547  0.25000000  1.0
  P  P2  1  0.83107305  -0.16892695  0.75000000  1.0
  P  P3  1  0.16892695  0.16892695  0.25000000  1.0
  H  H4  1  0.25848985  -0.25144128  0.91213037  1.0
  H  H5  1  1.25144128  -0.25848985  0.41213037  1.0
  H  H6  1  0.74855872  -0.74151015  0.58786963  1.0
  H  H7  1  0.74151015  0.25144128  0.08786963  1.0
  H  H8  1  0.34354797  -0.17095362  0.73341076  1.0
  H  H9  1  1.17095362  -0.34354797  0.23341076  1.0
  H  H10  1  0.82904638  -0.65645203  0.76658924  1.0
  H  H11  1  0.65645203  0.17095362  0.26658924  1.0
  O  O12  1  0.68555022  -0.14103237  0.92064603  1.0
  O  O13  1  1.14103237  -0.68555022  0.42064603  1.0
  O  O14  1  0.85896763  -0.31444978  0.57935397  1.0
  O  O15  1  0.31444978  0.14103237  0.07935397  1.0
  O  O16  1  0.66568804  0.11063356  0.58175404  1.0
  O  O17  1  0.88936644  -0.66568804  0.08175404  1.0
  O  O18  1  1.11063356  -0.33431196  0.91824596  1.0
  O  O19  1  0.33431196  -0.11063356  0.41824596  1.0
  O  O20  1  0.35409126  -0.21703042  0.91581895  1.0
  O  O21  1  1.21703042  -0.35409126  0.41581895  1.0
  O  O22  1  0.78296958  -0.64590874  0.58418105  1.0
  O  O23  1  0.64590874  0.21703042  0.08418105  1.0
