# generated using pymatgen
data_Ag(NO)3
_symmetry_space_group_name_H-M   'P 1'
_cell_length_a   7.81617430
_cell_length_b   11.08033977
_cell_length_c   6.01019916
_cell_angle_alpha   90.00000000
_cell_angle_beta   90.00000000
_cell_angle_gamma   90.00000000
_symmetry_Int_Tables_number   1
_chemical_formula_structural   Ag(NO)3
_chemical_formula_sum   'Ag4 N12 O12'
_cell_volume   520.51850863
_cell_formula_units_Z   4
loop_
 _symmetry_equiv_pos_site_id
 _symmetry_equiv_pos_as_xyz
  1  'x, y, z'
loop_
 _atom_site_type_symbol
 _atom_site_label
 _atom_site_symmetry_multiplicity
 _atom_site_fract_x
 _atom_site_fract_y
 _atom_site_fract_z
 _atom_site_occupancy
  N  N0  1  0.35587251  0.84984985  0.50000000  1.0
  N  N1  1  0.85587251  0.65015015  0.00000000  1.0
  N  N2  1  0.64412749  0.15015015  0.50000000  1.0
  N  N3  1  0.14412749  0.34984985  0.00000000  1.0
  N  N4  1  0.80199007  0.86021293  0.50000000  1.0
  N  N5  1  0.30199007  0.63978707  0.00000000  1.0
  N  N6  1  0.19800993  0.13978707  0.50000000  1.0
  N  N7  1  0.69800993  0.36021293  0.00000000  1.0
  N  N8  1  0.25176820  0.43633099  0.50000000  1.0
  N  N9  1  0.75176820  1.06366901  0.00000000  1.0
  N  N10  1  0.74823180  0.56366901  0.50000000  1.0
  N  N11  1  0.24823180  -0.06366901  0.00000000  1.0
  O  O12  1  -0.06639530  0.65095796  0.18080151  1.0
  O  O13  1  -0.06639530  0.65095796  0.81919849  1.0
  O  O14  1  0.43360470  0.84904204  0.68080151  1.0
  O  O15  1  0.43360470  0.84904204  0.31919849  1.0
  O  O16  1  1.06639530  0.34904204  0.18080151  1.0
  O  O17  1  1.06639530  0.34904204  0.81919849  1.0
  O  O18  1  0.56639530  0.15095796  0.68080151  1.0
  O  O19  1  0.56639530  0.15095796  0.31919849  1.0
  O  O20  1  0.18973606  0.84628985  0.50000000  1.0
  O  O21  1  0.68973606  0.65371015  0.00000000  1.0
  O  O22  1  0.81026394  0.15371015  0.50000000  1.0
  O  O23  1  0.31026394  0.34628985  0.00000000  1.0
  Ag  Ag24  1  0.50000000  0.50000000  0.00000000  1.0
  Ag  Ag25  1  0.00000000  0.00000000  0.50000000  1.0
  Ag  Ag26  1  0.50000000  0.50000000  0.50000000  1.0
  Ag  Ag27  1  0.00000000  0.00000000  0.00000000  1.0
