# generated using pymatgen
data_CaMn2O4
_symmetry_space_group_name_H-M   'P 1'
_cell_length_a   3.21163307
_cell_length_b   10.12963427
_cell_length_c   9.72426766
_cell_angle_alpha   90.00000000
_cell_angle_beta   90.00000000
_cell_angle_gamma   90.00000000
_symmetry_Int_Tables_number   1
_chemical_formula_structural   CaMn2O4
_chemical_formula_sum   'Ca4 Mn8 O16'
_cell_volume   316.35637483
_cell_formula_units_Z   4
loop_
 _symmetry_equiv_pos_site_id
 _symmetry_equiv_pos_as_xyz
  1  'x, y, z'
loop_
 _atom_site_type_symbol
 _atom_site_label
 _atom_site_symmetry_multiplicity
 _atom_site_fract_x
 _atom_site_fract_y
 _atom_site_fract_z
 _atom_site_occupancy
  Mn  Mn0  1  0.80419160  0.11117176  0.43084730  1.0
  Mn  Mn1  1  0.80419160  0.11117176  0.06915270  1.0
  Mn  Mn2  1  0.80419160  0.38882824  0.93084730  1.0
  Mn  Mn3  1  0.80419160  0.38882824  0.56915270  1.0
  Mn  Mn4  1  0.19580840  0.61117176  0.43084730  1.0
  Mn  Mn5  1  0.19580840  0.61117176  0.06915270  1.0
  Mn  Mn6  1  0.19580840  0.88882824  0.93084730  1.0
  Mn  Mn7  1  0.19580840  0.88882824  0.56915270  1.0
  O  O8  1  0.80897011  0.47092346  0.39125420  1.0
  O  O9  1  0.80897011  0.47092346  0.10874580  1.0
  O  O10  1  0.80897011  0.02907654  0.89125420  1.0
  O  O11  1  0.80897011  0.02907654  0.60874580  1.0
  O  O12  1  0.19102989  0.97092346  0.39125420  1.0
  O  O13  1  0.19102989  0.97092346  0.10874580  1.0
  O  O14  1  0.19102989  0.52907654  0.89125420  1.0
  O  O15  1  0.19102989  0.52907654  0.60874580  1.0
  O  O16  1  0.82275335  0.18512030  0.25000000  1.0
  O  O17  1  0.82275335  0.31487970  0.75000000  1.0
  O  O18  1  0.17724665  0.68512030  0.25000000  1.0
  O  O19  1  0.17724665  0.81487970  0.75000000  1.0
  O  O20  1  0.43791474  0.25000000  0.50000000  1.0
  O  O21  1  0.43791474  0.25000000  0.00000000  1.0
  O  O22  1  0.56208526  0.75000000  0.50000000  1.0
  O  O23  1  0.56208526  0.75000000  0.00000000  1.0
  Ca  Ca24  1  0.33113776  0.35005700  0.25000000  1.0
  Ca  Ca25  1  0.33113776  0.14994300  0.75000000  1.0
  Ca  Ca26  1  0.66886224  0.85005700  0.25000000  1.0
  Ca  Ca27  1  0.66886224  0.64994300  0.75000000  1.0
