# generated using pymatgen
data_La3Al11
_symmetry_space_group_name_H-M   'P 1'
_cell_length_a   8.59614969
_cell_length_b   8.59614969
_cell_length_c   8.59614969
_cell_angle_alpha   150.01151501
_cell_angle_beta   107.94742665
_cell_angle_gamma   79.96381652
_symmetry_Int_Tables_number   1
_chemical_formula_structural   La3Al11
_chemical_formula_sum   'La3 Al11'
_cell_volume   296.25590934
_cell_formula_units_Z   1
loop_
 _symmetry_equiv_pos_site_id
 _symmetry_equiv_pos_as_xyz
  1  'x, y, z'
loop_
 _atom_site_type_symbol
 _atom_site_label
 _atom_site_symmetry_multiplicity
 _atom_site_fract_x
 _atom_site_fract_y
 _atom_site_fract_z
 _atom_site_occupancy
  La  La0  1  0.68353020  0.68353020  1.00000000  1.0
  La  La1  1  1.31646980  1.31646980  1.00000000  1.0
  La  La2  1  0.00000000  0.00000000  0.00000000  1.0
  Al  Al3  1  1.58859634  0.86263806  0.72595828  1.0
  Al  Al4  1  0.86332022  0.13736194  0.72595828  1.0
  Al  Al5  1  1.13667978  0.86263806  0.27404172  1.0
  Al  Al6  1  0.41140366  0.13736194  0.27404172  1.0
  Al  Al7  1  1.29769142  0.66543032  0.63226109  1.0
  Al  Al8  1  0.96683077  0.33456968  0.63226109  1.0
  Al  Al9  1  1.03316923  0.66543032  0.36773891  1.0
  Al  Al10  1  0.70230858  0.33456968  0.36773891  1.0
  Al  Al11  1  0.28488985  0.50000000  0.78488985  1.0
  Al  Al12  1  0.71511015  0.50000000  1.21511015  1.0
  Al  Al13  1  0.50000000  -0.00000000  0.50000000  1.0
