# generated using pymatgen
data_P4N7
_symmetry_space_group_name_H-M   'P 1'
_cell_length_a   7.26419535
_cell_length_b   5.02239532
_cell_length_c   15.64787482
_cell_angle_alpha   90.00000000
_cell_angle_beta   91.57079385
_cell_angle_gamma   90.00000000
_symmetry_Int_Tables_number   1
_chemical_formula_structural   P4N7
_chemical_formula_sum   'P16 N28'
_cell_volume   570.67722596
_cell_formula_units_Z   4
loop_
 _symmetry_equiv_pos_site_id
 _symmetry_equiv_pos_as_xyz
  1  'x, y, z'
loop_
 _atom_site_type_symbol
 _atom_site_label
 _atom_site_symmetry_multiplicity
 _atom_site_fract_x
 _atom_site_fract_y
 _atom_site_fract_z
 _atom_site_occupancy
  P  P0  1  0.97450758  0.25723620  0.30975170  1.0
  P  P1  1  0.97450758  0.24276380  0.80975170  1.0
  P  P2  1  0.02549242  0.75723620  0.19024830  1.0
  P  P3  1  0.02549242  0.74276380  0.69024830  1.0
  P  P4  1  0.67882692  0.18629979  0.44486028  1.0
  P  P5  1  0.67882692  0.31370021  0.94486028  1.0
  P  P6  1  0.32117308  0.68629979  0.05513972  1.0
  P  P7  1  0.32117308  0.81370021  0.55513972  1.0
  P  P8  1  0.54377149  0.32424308  0.29850023  1.0
  P  P9  1  0.54377149  0.17575692  0.79850023  1.0
  P  P10  1  0.45622851  0.82424308  0.20149977  1.0
  P  P11  1  0.45622851  0.67575692  0.70149977  1.0
  P  P12  1  0.26957660  0.30864086  0.45417126  1.0
  P  P13  1  0.26957660  0.19135914  0.95417126  1.0
  P  P14  1  0.73042340  0.80864086  0.04582874  1.0
  P  P15  1  0.73042340  0.69135914  0.54582874  1.0
  N  N16  1  1.00536377  0.00293968  0.25214436  1.0
  N  N17  1  1.00536377  0.49706032  0.75214436  1.0
  N  N18  1  -0.00536377  0.50293968  0.24785564  1.0
  N  N19  1  -0.00536377  0.99706032  0.74785564  1.0
  N  N20  1  0.90651909  0.75380701  0.10495109  1.0
  N  N21  1  0.90651909  0.74619299  0.60495109  1.0
  N  N22  1  0.09348091  0.25380701  0.39504891  1.0
  N  N23  1  0.09348091  0.24619299  0.89504891  1.0
  N  N24  1  0.72619657  0.11750175  0.02072034  1.0
  N  N25  1  0.72619657  0.38249825  0.52072034  1.0
  N  N26  1  0.27380343  0.61750175  0.47927966  1.0
  N  N27  1  0.27380343  0.88249825  0.97927966  1.0
  N  N28  1  0.75590835  0.26147028  0.34501809  1.0
  N  N29  1  0.75590835  0.23852972  0.84501809  1.0
  N  N30  1  0.24409165  0.76147028  0.15498191  1.0
  N  N31  1  0.24409165  0.73852972  0.65498191  1.0
  N  N32  1  0.71311665  0.88196825  0.46409826  1.0
  N  N33  1  0.71311665  0.61803175  0.96409826  1.0
  N  N34  1  0.28688335  0.38196825  0.03590174  1.0
  N  N35  1  0.28688335  0.11803175  0.53590174  1.0
  N  N36  1  0.46492411  0.24996597  0.39798196  1.0
  N  N37  1  0.46492411  0.25003403  0.89798196  1.0
  N  N38  1  0.53507589  0.74996597  0.10201804  1.0
  N  N39  1  0.53507589  0.75003403  0.60201804  1.0
  N  N40  1  0.48177132  0.12935902  0.22399122  1.0
  N  N41  1  0.48177132  0.37064098  0.72399122  1.0
  N  N42  1  0.51822868  0.62935902  0.27600878  1.0
  N  N43  1  0.51822868  0.87064098  0.77600878  1.0
