# generated using pymatgen
data_Li8HfO6
_symmetry_space_group_name_H-M   'P 1'
_cell_length_a   6.06046354
_cell_length_b   6.06046354
_cell_length_c   6.06046354
_cell_angle_alpha   53.89366947
_cell_angle_beta   53.89366947
_cell_angle_gamma   53.89366946
_symmetry_Int_Tables_number   1
_chemical_formula_structural   Li8HfO6
_chemical_formula_sum   'Li8 Hf1 O6'
_cell_volume   134.94081055
_cell_formula_units_Z   1
loop_
 _symmetry_equiv_pos_site_id
 _symmetry_equiv_pos_as_xyz
  1  'x, y, z'
loop_
 _atom_site_type_symbol
 _atom_site_label
 _atom_site_symmetry_multiplicity
 _atom_site_fract_x
 _atom_site_fract_y
 _atom_site_fract_z
 _atom_site_occupancy
  Li  Li0  1  0.23503132  0.89791845  -0.49673743  1.0
  Li  Li1  1  0.49673743  -0.23503132  0.10208155  1.0
  Li  Li2  1  1.10208155  -0.50326257  -0.23503132  1.0
  Li  Li3  1  0.76496868  0.10208155  -0.50326257  1.0
  Li  Li4  1  0.50326257  0.23503132  -0.10208155  1.0
  Li  Li5  1  0.89791845  0.50326257  -0.76496868  1.0
  Li  Li6  1  0.34527021  0.34527021  -0.65472979  1.0
  Li  Li7  1  0.65472979  0.65472979  -0.34527021  1.0
  Hf  Hf8  1  0.00000000  0.00000000  0.00000000  1.0
  O  O9  1  0.09268964  0.76550108  -0.61486868  1.0
  O  O10  1  0.61486868  -0.09268964  0.23449892  1.0
  O  O11  1  1.23449892  -0.38513132  -0.09268964  1.0
  O  O12  1  0.90731036  0.23449892  -0.38513132  1.0
  O  O13  1  0.38513132  0.09268964  -0.23449892  1.0
  O  O14  1  0.76550108  0.38513132  -0.90731036  1.0
