# generated using pymatgen
data_Na2Te2O5
_symmetry_space_group_name_H-M   'P 1'
_cell_length_a   12.35946447
_cell_length_b   12.35946447
_cell_length_c   10.13912741
_cell_angle_alpha   77.33702481
_cell_angle_beta   102.66297519
_cell_angle_gamma   156.91306678
_symmetry_Int_Tables_number   1
_chemical_formula_structural   Na2Te2O5
_chemical_formula_sum   'Na8 Te8 O20'
_cell_volume   591.93640134
_cell_formula_units_Z   4
loop_
 _symmetry_equiv_pos_site_id
 _symmetry_equiv_pos_as_xyz
  1  'x, y, z'
loop_
 _atom_site_type_symbol
 _atom_site_label
 _atom_site_symmetry_multiplicity
 _atom_site_fract_x
 _atom_site_fract_y
 _atom_site_fract_z
 _atom_site_occupancy
  Na  Na0  1  1.45769772  -0.43909010  0.58631206  1.0
  Na  Na1  1  1.43909010  -0.45769772  0.08631206  1.0
  Na  Na2  1  0.56090990  -0.54230228  0.91368794  1.0
  Na  Na3  1  1.54230228  0.43909010  0.41368794  1.0
  Na  Na4  1  1.65716929  0.31405144  0.70785949  1.0
  Na  Na5  1  0.68594856  -0.65716929  0.20785949  1.0
  Na  Na6  1  1.31405144  -0.34283071  0.79214051  1.0
  Na  Na7  1  1.34283071  -0.31405144  0.29214051  1.0
  Te  Te8  1  1.92745096  0.04303496  0.81941705  1.0
  Te  Te9  1  0.95696504  -0.92745096  0.31941705  1.0
  Te  Te10  1  1.04303496  -0.07254904  0.68058295  1.0
  Te  Te11  1  1.07254904  -0.04303496  0.18058295  1.0
  Te  Te12  1  1.71492970  0.09257280  0.54567602  1.0
  Te  Te13  1  0.90742720  -0.71492970  0.04567602  1.0
  Te  Te14  1  1.09257280  -0.28507030  0.95432398  1.0
  Te  Te15  1  1.28507030  -0.09257280  0.45432398  1.0
  O  O16  1  1.54769706  -0.34959192  0.84547000  1.0
  O  O17  1  1.34959192  -0.54769706  0.34547000  1.0
  O  O18  1  0.65040808  -0.45230294  0.65453000  1.0
  O  O19  1  1.45230294  0.34959192  0.15453000  1.0
  O  O20  1  1.84660951  0.13592798  0.74805324  1.0
  O  O21  1  0.86407202  -0.84660951  0.24805324  1.0
  O  O22  1  1.13592798  -0.15339049  0.75194676  1.0
  O  O23  1  1.15339049  -0.13592798  0.25194676  1.0
  O  O24  1  1.43547753  -0.27026461  0.53114857  1.0
  O  O25  1  1.27026461  -0.43547753  0.03114857  1.0
  O  O26  1  0.72973539  -0.56452247  0.96885143  1.0
  O  O27  1  1.56452247  0.27026461  0.46885143  1.0
  O  O28  1  1.49592647  -0.01084380  0.63431572  1.0
  O  O29  1  1.01084380  -0.49592647  0.13431572  1.0
  O  O30  1  0.98915620  -0.50407353  0.86568428  1.0
  O  O31  1  1.50407353  0.01084380  0.36568428  1.0
  O  O32  1  1.06125541  -0.02412853  0.86429968  1.0
  O  O33  1  1.02412853  -0.06125541  0.36429968  1.0
  O  O34  1  0.97587147  -0.93874459  0.63570032  1.0
  O  O35  1  1.93874459  0.02412853  0.13570032  1.0
