# generated using pymatgen
data_LiAlB2O5
_symmetry_space_group_name_H-M   'P 1'
_cell_length_a   7.16976400
_cell_length_b   7.16976400
_cell_length_c   9.49165471
_cell_angle_alpha   69.12384631
_cell_angle_beta   110.87615369
_cell_angle_gamma   89.11168101
_symmetry_Int_Tables_number   1
_chemical_formula_structural   LiAlB2O5
_chemical_formula_sum   'Li4 Al4 B8 O20'
_cell_volume   420.25270785
_cell_formula_units_Z   4
loop_
 _symmetry_equiv_pos_site_id
 _symmetry_equiv_pos_as_xyz
  1  'x, y, z'
loop_
 _atom_site_type_symbol
 _atom_site_label
 _atom_site_symmetry_multiplicity
 _atom_site_fract_x
 _atom_site_fract_y
 _atom_site_fract_z
 _atom_site_occupancy
  Li  Li0  1  0.87148983  -0.12851017  0.75000000  1.0
  Li  Li1  1  1.12851017  0.12851017  0.25000000  1.0
  Li  Li2  1  1.33928736  0.33928736  0.75000000  1.0
  Li  Li3  1  0.66071264  -0.33928736  0.25000000  1.0
  Al  Al4  1  0.45502671  -0.15497390  0.84739301  1.0
  Al  Al5  1  1.15497390  0.54497329  0.34739301  1.0
  Al  Al6  1  0.84502610  -0.54497329  0.65260699  1.0
  Al  Al7  1  1.54497329  0.15497390  0.15260699  1.0
  B  B8  1  0.75767810  -0.10400527  0.47179831  1.0
  B  B9  1  1.10400527  0.24232190  0.97179831  1.0
  B  B10  1  0.89599473  -0.24232190  0.02820169  1.0
  B  B11  1  1.24232190  0.10400527  0.52820169  1.0
  B  B12  1  1.72881134  0.26351900  0.90939351  1.0
  B  B13  1  0.73648100  -0.72881134  0.40939351  1.0
  B  B14  1  1.26351900  0.72881134  0.59060649  1.0
  B  B15  1  0.27118866  -0.26351900  0.09060649  1.0
  O  O16  1  0.71836434  -0.17163215  0.89384614  1.0
  O  O17  1  1.17163215  0.28163566  0.39384614  1.0
  O  O18  1  0.82836785  -0.28163566  0.60615386  1.0
  O  O19  1  1.28163566  0.17163215  0.10615386  1.0
  O  O20  1  1.78219432  0.06525484  0.51843646  1.0
  O  O21  1  0.93474516  -0.78219432  0.01843646  1.0
  O  O22  1  1.06525484  0.78219432  0.98156354  1.0
  O  O23  1  0.21780568  -0.06525484  0.48156354  1.0
  O  O24  1  0.35873511  -0.32532777  0.75404562  1.0
  O  O25  1  1.32532777  0.64126489  0.25404562  1.0
  O  O26  1  0.67467223  -0.64126489  0.74595438  1.0
  O  O27  1  1.64126489  0.32532777  0.24595438  1.0
  O  O28  1  1.58383470  0.20837528  0.97110793  1.0
  O  O29  1  0.79162472  -0.58383470  0.47110793  1.0
  O  O30  1  1.20837528  0.58383470  0.52889207  1.0
  O  O31  1  0.41616530  -0.20837528  0.02889207  1.0
  O  O32  1  1.32758927  0.08526244  0.68629804  1.0
  O  O33  1  0.91473756  -0.32758927  0.18629804  1.0
  O  O34  1  1.08526244  0.32758927  0.81370196  1.0
  O  O35  1  0.67241073  -0.08526244  0.31370196  1.0
