# generated using pymatgen
data_Y6Co2Sn
_symmetry_space_group_name_H-M   'P 1'
_cell_length_a   8.40277393
_cell_length_b   8.40277393
_cell_length_c   8.40277393
_cell_angle_alpha   111.55885344
_cell_angle_beta   109.46735836
_cell_angle_gamma   107.41397166
_symmetry_Int_Tables_number   1
_chemical_formula_structural   Y6Co2Sn
_chemical_formula_sum   'Y12 Co4 Sn2'
_cell_volume   456.11830238
_cell_formula_units_Z   2
loop_
 _symmetry_equiv_pos_site_id
 _symmetry_equiv_pos_as_xyz
  1  'x, y, z'
loop_
 _atom_site_type_symbol
 _atom_site_label
 _atom_site_symmetry_multiplicity
 _atom_site_fract_x
 _atom_site_fract_y
 _atom_site_fract_z
 _atom_site_occupancy
  Y  Y0  1  0.81724923  0.71607624  0.53332547  1.0
  Y  Y1  1  0.18275077  0.71607624  0.89882701  1.0
  Y  Y2  1  0.81724923  1.28392376  1.10117299  1.0
  Y  Y3  1  0.18275077  0.28392376  0.46667453  1.0
  Y  Y4  1  0.67488063  0.36124364  0.68636301  1.0
  Y  Y5  1  1.32511937  1.01148238  0.68636301  1.0
  Y  Y6  1  0.67488063  0.98851762  0.31363699  1.0
  Y  Y7  1  0.32511937  0.63875636  0.31363699  1.0
  Y  Y8  1  0.55735838  0.76395349  0.79340489  1.0
  Y  Y9  1  1.02945140  1.23604651  0.79340489  1.0
  Y  Y10  1  0.97054860  0.76395349  0.20659511  1.0
  Y  Y11  1  0.44264162  0.23604651  0.20659511  1.0
  Co  Co12  1  0.88750183  1.38750183  0.50000000  1.0
  Co  Co13  1  1.11249817  0.61249817  0.50000000  1.0
  Co  Co14  1  0.65929779  0.00000000  0.65929779  1.0
  Co  Co15  1  0.34070221  -0.00000000  0.34070221  1.0
  Sn  Sn16  1  0.50000000  0.50000000  -0.00000000  1.0
  Sn  Sn17  1  0.00000000  0.00000000  0.00000000  1.0
