# generated using pymatgen
data_Na2O2
_symmetry_space_group_name_H-M   'P 1'
_cell_length_a   6.29635075
_cell_length_b   6.29635075
_cell_length_c   4.51537579
_cell_angle_alpha   90.00000000
_cell_angle_beta   90.00000000
_cell_angle_gamma   120.00000000
_symmetry_Int_Tables_number   1
_chemical_formula_structural   Na2O2
_chemical_formula_sum   'Na6 O6'
_cell_volume   155.02522077
_cell_formula_units_Z   3
loop_
 _symmetry_equiv_pos_site_id
 _symmetry_equiv_pos_as_xyz
  1  'x, y, z'
loop_
 _atom_site_type_symbol
 _atom_site_label
 _atom_site_symmetry_multiplicity
 _atom_site_fract_x
 _atom_site_fract_y
 _atom_site_fract_z
 _atom_site_occupancy
  Na  Na0  1  0.36562635  0.36562635  0.50000000  1.0
  Na  Na1  1  0.00000000  0.63437365  0.50000000  1.0
  Na  Na2  1  0.63437365  0.00000000  0.50000000  1.0
  Na  Na3  1  0.69995392  0.69995392  0.00000000  1.0
  Na  Na4  1  0.00000000  0.30004608  0.00000000  1.0
  Na  Na5  1  0.30004608  0.00000000  0.00000000  1.0
  O  O6  1  0.33333333  0.66666667  0.82823401  1.0
  O  O7  1  0.33333333  0.66666667  0.17176599  1.0
  O  O8  1  0.66666667  0.33333333  0.82823401  1.0
  O  O9  1  0.66666667  0.33333333  0.17176599  1.0
  O  O10  1  0.00000000  0.00000000  0.66989810  1.0
  O  O11  1  0.00000000  0.00000000  0.33010190  1.0
