# generated using pymatgen
data_Sb2Te3
_symmetry_space_group_name_H-M   'P 1'
_cell_length_a   8.04222342
_cell_length_b   8.04222342
_cell_length_c   10.41107685
_cell_angle_alpha   83.50536278
_cell_angle_beta   96.49463722
_cell_angle_gamma   149.01784836
_symmetry_Int_Tables_number   1
_chemical_formula_structural   Sb2Te3
_chemical_formula_sum   'Sb4 Te6'
_cell_volume   344.23073908
_cell_formula_units_Z   2
loop_
 _symmetry_equiv_pos_site_id
 _symmetry_equiv_pos_as_xyz
  1  'x, y, z'
loop_
 _atom_site_type_symbol
 _atom_site_label
 _atom_site_symmetry_multiplicity
 _atom_site_fract_x
 _atom_site_fract_y
 _atom_site_fract_z
 _atom_site_occupancy
  Sb  Sb0  1  0.76446777  -0.76446777  0.81978626  1.0
  Sb  Sb1  1  1.23553223  -0.23553223  0.18021374  1.0
  Sb  Sb2  1  0.98307356  -0.98307356  0.21530693  1.0
  Sb  Sb3  1  1.01692644  -0.01692644  0.78469307  1.0
  Te  Te4  1  0.83126061  -0.83126061  0.35065135  1.0
  Te  Te5  1  1.16873939  -0.16873939  0.64934865  1.0
  Te  Te6  1  0.57646871  -0.57646871  0.36428145  1.0
  Te  Te7  1  1.42353129  -0.42353129  0.63571855  1.0
  Te  Te8  1  0.63440791  -0.63440791  -0.00618897  1.0
  Te  Te9  1  1.36559209  -0.36559209  1.00618897  1.0
