# generated using pymatgen
data_CsInTe2
_symmetry_space_group_name_H-M   'P 1'
_cell_length_a   8.92002386
_cell_length_b   8.92002386
_cell_length_c   18.58538218
_cell_angle_alpha   83.13830093
_cell_angle_beta   96.86169907
_cell_angle_gamma   90.00168023
_symmetry_Int_Tables_number   1
_chemical_formula_structural   CsInTe2
_chemical_formula_sum   'Cs8 In8 Te16'
_cell_volume   1457.51978987
_cell_formula_units_Z   8
loop_
 _symmetry_equiv_pos_site_id
 _symmetry_equiv_pos_as_xyz
  1  'x, y, z'
loop_
 _atom_site_type_symbol
 _atom_site_label
 _atom_site_symmetry_multiplicity
 _atom_site_fract_x
 _atom_site_fract_y
 _atom_site_fract_z
 _atom_site_occupancy
  Cs  Cs0  1  0.65320214  0.22079412  0.61308531  1.0
  Cs  Cs1  1  0.77920588  0.34679786  0.11308531  1.0
  Cs  Cs2  1  1.22079412  -0.34679786  0.88691469  1.0
  Cs  Cs3  1  1.34679786  -0.22079412  0.38691469  1.0
  Cs  Cs4  1  0.22217924  0.15115046  0.89812543  1.0
  Cs  Cs5  1  0.84884954  0.77782076  0.39812543  1.0
  Cs  Cs6  1  1.15115046  -0.77782076  0.60187457  1.0
  Cs  Cs7  1  1.77782076  -0.15115046  0.10187457  1.0
  In  In8  1  1.70923156  -0.08461421  0.83458791  1.0
  In  In9  1  1.08461421  -0.70923156  0.33458791  1.0
  In  In10  1  0.91538579  0.70923156  0.66541209  1.0
  In  In11  1  0.29076844  0.08461421  0.16541209  1.0
  In  In12  1  1.41740651  -0.29115559  0.66695983  1.0
  In  In13  1  1.29115559  -0.41740651  0.16695983  1.0
  In  In14  1  0.70884441  0.41740651  0.83304017  1.0
  In  In15  1  0.58259349  0.29115559  0.33304017  1.0
  Te  Te16  1  1.64120794  -0.26661683  0.57063820  1.0
  Te  Te17  1  1.26661683  -0.64120794  0.07063820  1.0
  Te  Te18  1  0.73338317  0.64120794  0.92936180  1.0
  Te  Te19  1  0.35879206  0.26661683  0.42936180  1.0
  Te  Te20  1  0.73487292  0.14397450  0.92964839  1.0
  Te  Te21  1  0.85602550  0.26512708  0.42964839  1.0
  Te  Te22  1  1.14397450  -0.26512708  0.57035161  1.0
  Te  Te23  1  1.26512708  -0.14397450  0.07035161  1.0
  Te  Te24  1  1.42202006  -0.04639203  0.75100134  1.0
  Te  Te25  1  1.04639203  -0.42202006  0.25100134  1.0
  Te  Te26  1  0.95360797  0.42202006  0.74899866  1.0
  Te  Te27  1  0.57797994  0.04639203  0.24899866  1.0
  Te  Te28  1  0.95335533  0.95335533  0.75000000  1.0
  Te  Te29  1  0.04664467  0.04664467  0.25000000  1.0
  Te  Te30  1  0.42124111  0.42124111  0.75000000  1.0
  Te  Te31  1  0.57875889  0.57875889  0.25000000  1.0
