# generated using pymatgen
data_Rb3Li2Ga(MoO4)4
_symmetry_space_group_name_H-M   'P 1'
_cell_length_a   10.52054861
_cell_length_b   10.52054861
_cell_length_c   10.52054861
_cell_angle_alpha   109.64488420
_cell_angle_beta   109.64488420
_cell_angle_gamma   109.12444904
_symmetry_Int_Tables_number   1
_chemical_formula_structural   Rb3Li2Ga(MoO4)4
_chemical_formula_sum   'Rb6 Li4 Ga2 Mo8 O32'
_cell_volume   896.35768821
_cell_formula_units_Z   2
loop_
 _symmetry_equiv_pos_site_id
 _symmetry_equiv_pos_as_xyz
  1  'x, y, z'
loop_
 _atom_site_type_symbol
 _atom_site_label
 _atom_site_symmetry_multiplicity
 _atom_site_fract_x
 _atom_site_fract_y
 _atom_site_fract_z
 _atom_site_occupancy
  Rb  Rb0  1  0.87500000  1.48269872  1.10769872  1.0
  Rb  Rb1  1  1.23269872  1.12500000  0.60769872  1.0
  Rb  Rb2  1  0.51730128  0.62500000  0.39230128  1.0
  Rb  Rb3  1  0.37500000  0.76730128  0.89230128  1.0
  Rb  Rb4  1  0.00000000  0.00000000  0.00000000  1.0
  Rb  Rb5  1  0.75000000  1.25000000  0.50000000  1.0
  Li  Li6  1  0.87500000  1.00039967  0.62539967  1.0
  Li  Li7  1  1.75039967  1.12500000  1.12539967  1.0
  Li  Li8  1  0.99960033  1.62500000  0.87460033  1.0
  Li  Li9  1  1.37500000  1.24960033  1.37460033  1.0
  Ga  Ga10  1  0.50000000  0.50000000  -0.00000000  1.0
  Ga  Ga11  1  1.25000000  0.75000000  0.50000000  1.0
  Mo  Mo12  1  0.92452248  0.67127256  0.54622266  1.0
  Mo  Mo13  1  0.82547752  0.87170018  0.24675009  1.0
  Mo  Mo14  1  0.42127256  1.17452248  1.04622266  1.0
  Mo  Mo15  1  1.32872744  0.87495009  1.25324991  1.0
  Mo  Mo16  1  0.62495009  0.57872744  0.75324991  1.0
  Mo  Mo17  1  0.12504991  0.37829982  0.45377734  1.0
  Mo  Mo18  1  1.62170018  1.07547752  0.74675009  1.0
  Mo  Mo19  1  1.12829982  1.37504990  0.95377734  1.0
  O  O20  1  1.05948740  1.18220547  0.81446300  1.0
  O  O21  1  0.69051260  1.00497560  0.62271807  1.0
  O  O22  1  1.93220547  1.30948740  1.31446300  1.0
  O  O23  1  0.81779453  0.63225753  0.87728193  1.0
  O  O24  1  1.38225753  1.06779453  1.37728193  1.0
  O  O25  1  0.36774247  0.24502440  0.18553700  1.0
  O  O26  1  1.75497560  0.94051260  1.12271807  1.0
  O  O27  1  0.99502440  1.61774247  0.68553700  1.0
  O  O28  1  1.12446305  1.37341787  0.61722009  1.0
  O  O29  1  0.62553695  0.74275704  0.74895482  1.0
  O  O30  1  1.12341787  0.37446305  1.11722009  1.0
  O  O31  1  0.62658213  0.24380222  0.75104518  1.0
  O  O32  1  0.99380222  0.87658213  0.25104518  1.0
  O  O33  1  0.75619778  0.50724296  0.38277991  1.0
  O  O34  1  1.49275704  0.87553695  1.24895482  1.0
  O  O35  1  1.25724296  1.00619778  0.88277991  1.0
  O  O36  1  0.87196875  0.81153604  0.61731218  1.0
  O  O37  1  0.87803125  0.99534342  0.43956729  1.0
  O  O38  1  0.56153604  1.12196875  1.11731218  1.0
  O  O39  1  1.18846396  0.80577613  1.06043271  1.0
  O  O40  1  0.55577613  0.43846396  0.56043271  1.0
  O  O41  1  0.19422387  0.25465658  0.38268782  1.0
  O  O42  1  1.74534342  1.12803125  0.93956729  1.0
  O  O43  1  1.00465658  1.44422387  0.88268782  1.0
  O  O44  1  1.06700824  0.74201053  0.48391767  1.0
  O  O45  1  0.68299176  0.66690943  0.17500229  1.0
  O  O46  1  1.49201053  1.31700824  0.98391767  1.0
  O  O47  1  1.25798947  1.74190714  1.32499771  1.0
  O  O48  1  0.49190714  0.50798947  0.82499771  1.0
  O  O49  1  1.25809286  1.58309057  1.51608233  1.0
  O  O50  1  1.41690943  0.93299176  0.67500229  1.0
  O  O51  1  1.33309057  0.50809286  1.01608233  1.0
