# generated using pymatgen
data_Na8Co3O10
_symmetry_space_group_name_H-M   'P 1'
_cell_length_a   8.31162631
_cell_length_b   11.81453916
_cell_length_c   6.29415257
_cell_angle_alpha   90.00000000
_cell_angle_beta   90.00000000
_cell_angle_gamma   90.00000000
_symmetry_Int_Tables_number   1
_chemical_formula_structural   Na8Co3O10
_chemical_formula_sum   'Na16 Co6 O20'
_cell_volume   618.07341188
_cell_formula_units_Z   2
loop_
 _symmetry_equiv_pos_site_id
 _symmetry_equiv_pos_as_xyz
  1  'x, y, z'
loop_
 _atom_site_type_symbol
 _atom_site_label
 _atom_site_symmetry_multiplicity
 _atom_site_fract_x
 _atom_site_fract_y
 _atom_site_fract_z
 _atom_site_occupancy
  Na  Na0  1  0.17494942  0.61001894  0.55892517  1.0
  Na  Na1  1  0.17494942  0.38998106  0.55892517  1.0
  Na  Na2  1  0.67494942  0.11001894  0.44107483  1.0
  Na  Na3  1  0.67494942  0.88998106  0.44107483  1.0
  Na  Na4  1  0.82505058  0.61001894  0.55892517  1.0
  Na  Na5  1  0.82505058  0.38998106  0.55892517  1.0
  Na  Na6  1  0.32505058  0.11001894  0.44107483  1.0
  Na  Na7  1  0.32505058  0.88998106  0.44107483  1.0
  Na  Na8  1  0.34404013  0.24111434  0.85509213  1.0
  Na  Na9  1  0.34404013  0.75888566  0.85509213  1.0
  Na  Na10  1  0.84404013  0.74111434  0.14490787  1.0
  Na  Na11  1  0.84404013  0.25888566  0.14490787  1.0
  Na  Na12  1  0.65595987  0.24111434  0.85509213  1.0
  Na  Na13  1  0.65595987  0.75888566  0.85509213  1.0
  Na  Na14  1  0.15595987  0.74111434  0.14490787  1.0
  Na  Na15  1  0.15595987  0.25888566  0.14490787  1.0
  Co  Co16  1  0.17735990  0.50000000  0.11087389  1.0
  Co  Co17  1  0.67735990  0.00000000  0.88912611  1.0
  Co  Co18  1  0.82264010  0.50000000  0.11087389  1.0
  Co  Co19  1  0.32264010  0.00000000  0.88912611  1.0
  Co  Co20  1  0.50000000  0.50000000  0.28304102  1.0
  Co  Co21  1  0.00000000  0.00000000  -0.28304102  1.0
  O  O22  1  0.00000000  0.39766381  0.27612358  1.0
  O  O23  1  0.00000000  0.60233619  0.27612358  1.0
  O  O24  1  0.50000000  0.89766381  0.72387642  1.0
  O  O25  1  0.50000000  0.10233619  0.72387642  1.0
  O  O26  1  0.19187375  0.39547236  -0.09503586  1.0
  O  O27  1  0.19187375  0.60452764  -0.09503586  1.0
  O  O28  1  0.69187375  0.89547236  1.09503586  1.0
  O  O29  1  0.69187375  0.10452764  1.09503586  1.0
  O  O30  1  0.80812625  0.39547236  -0.09503586  1.0
  O  O31  1  0.80812625  0.60452764  -0.09503586  1.0
  O  O32  1  0.30812625  0.89547236  1.09503586  1.0
  O  O33  1  0.30812625  0.10452764  1.09503586  1.0
  O  O34  1  0.16404882  0.90053167  0.72946458  1.0
  O  O35  1  0.16404882  0.09946833  0.72946458  1.0
  O  O36  1  0.66404882  0.40053167  0.27053542  1.0
  O  O37  1  0.66404882  0.59946833  0.27053542  1.0
  O  O38  1  0.83595118  0.90053167  0.72946458  1.0
  O  O39  1  0.83595118  0.09946833  0.72946458  1.0
  O  O40  1  0.33595118  0.40053167  0.27053542  1.0
  O  O41  1  0.33595118  0.59946833  0.27053542  1.0
