# generated using pymatgen
data_Ta2Be17
_symmetry_space_group_name_H-M   'P 1'
_cell_length_a   5.54988805
_cell_length_b   5.54988805
_cell_length_c   5.54988805
_cell_angle_alpha   83.09618884
_cell_angle_beta   83.09618884
_cell_angle_gamma   83.09618884
_symmetry_Int_Tables_number   1
_chemical_formula_structural   Ta2Be17
_chemical_formula_sum   'Ta2 Be17'
_cell_volume   167.50088002
_cell_formula_units_Z   1
loop_
 _symmetry_equiv_pos_site_id
 _symmetry_equiv_pos_as_xyz
  1  'x, y, z'
loop_
 _atom_site_type_symbol
 _atom_site_label
 _atom_site_symmetry_multiplicity
 _atom_site_fract_x
 _atom_site_fract_y
 _atom_site_fract_z
 _atom_site_occupancy
  Ta  Ta0  1  0.65942814  0.65942814  -0.34057186  1.0
  Ta  Ta1  1  1.34057186  1.34057186  0.34057186  1.0
  Be  Be2  1  0.34700278  0.34700278  -0.16121656  1.0
  Be  Be3  1  0.34700278  0.83878344  -0.65299722  1.0
  Be  Be4  1  0.16121656  0.65299722  -0.34700278  1.0
  Be  Be5  1  0.65299722  0.16121656  -0.34700278  1.0
  Be  Be6  1  0.65299722  -0.34700278  0.16121656  1.0
  Be  Be7  1  0.83878344  0.34700278  -0.65299722  1.0
  Be  Be8  1  0.70521214  0.00000000  0.29478786  1.0
  Be  Be9  1  0.70521214  -0.70521214  -0.00000000  1.0
  Be  Be10  1  -0.00000000  0.70521214  -0.70521214  1.0
  Be  Be11  1  -0.00000000  0.29478786  -0.29478786  1.0
  Be  Be12  1  1.29478786  -0.00000000  -0.29478786  1.0
  Be  Be13  1  0.29478786  -0.29478786  -0.00000000  1.0
  Be  Be14  1  1.00000000  1.50000000  0.00000000  1.0
  Be  Be15  1  1.00000000  -0.00000000  -0.50000000  1.0
  Be  Be16  1  0.50000000  -0.00000000  0.00000000  1.0
  Be  Be17  1  0.90106665  0.90106665  -0.09893335  1.0
  Be  Be18  1  1.09893335  1.09893335  0.09893335  1.0
