# generated using pymatgen
data_Ca2AlFePO3
_symmetry_space_group_name_H-M   'P 1'
_cell_length_a   3.71529976
_cell_length_b   3.71529976
_cell_length_c   14.88439889
_cell_angle_alpha   90.00000000
_cell_angle_beta   90.00000000
_cell_angle_gamma   90.00000000
_symmetry_Int_Tables_number   1
_chemical_formula_structural   Ca2AlFePO3
_chemical_formula_sum   'Ca4 Al2 Fe2 P2 O6'
_cell_volume   205.45609001
_cell_formula_units_Z   2
loop_
 _symmetry_equiv_pos_site_id
 _symmetry_equiv_pos_as_xyz
  1  'x, y, z'
loop_
 _atom_site_type_symbol
 _atom_site_label
 _atom_site_symmetry_multiplicity
 _atom_site_fract_x
 _atom_site_fract_y
 _atom_site_fract_z
 _atom_site_occupancy
  Ca  Ca0  1  0.50000000  0.00000000  0.58398063  1.0
  Ca  Ca1  1  0.00000000  0.50000000  0.41601937  1.0
  Ca  Ca2  1  0.50000000  0.00000000  0.81192857  1.0
  Ca  Ca3  1  0.00000000  0.50000000  0.18807143  1.0
  Al  Al4  1  0.50000000  0.00000000  0.30971712  1.0
  Al  Al5  1  0.00000000  0.50000000  0.69028288  1.0
  Fe  Fe6  1  0.00000000  0.00000000  0.00000000  1.0
  Fe  Fe7  1  0.50000000  0.50000000  0.00000000  1.0
  P  P8  1  0.50000000  0.00000000  0.07983855  1.0
  P  P9  1  0.00000000  0.50000000  0.92016145  1.0
  O  O10  1  0.00000000  0.00000000  0.28799515  1.0
  O  O11  1  0.50000000  0.50000000  0.71200485  1.0
  O  O12  1  0.50000000  0.50000000  0.28799515  1.0
  O  O13  1  0.00000000  0.00000000  0.71200485  1.0
  O  O14  1  0.50000000  0.00000000  0.43181845  1.0
  O  O15  1  0.00000000  0.50000000  0.56818155  1.0
