# generated using pymatgen
data_Cu7Hg6
_symmetry_space_group_name_H-M   'P 1'
_cell_length_a   8.32525220
_cell_length_b   8.32525220
_cell_length_c   8.32525220
_cell_angle_alpha   109.92423897
_cell_angle_beta   109.92423897
_cell_angle_gamma   109.92423897
_symmetry_Int_Tables_number   1
_chemical_formula_structural   Cu7Hg6
_chemical_formula_sum   'Cu14 Hg12'
_cell_volume   436.58250241
_cell_formula_units_Z   2
loop_
 _symmetry_equiv_pos_site_id
 _symmetry_equiv_pos_as_xyz
  1  'x, y, z'
loop_
 _atom_site_type_symbol
 _atom_site_label
 _atom_site_symmetry_multiplicity
 _atom_site_fract_x
 _atom_site_fract_y
 _atom_site_fract_z
 _atom_site_occupancy
  Cu  Cu0  1  0.84273622  0.84273622  0.16052935  1.0
  Cu  Cu1  1  0.84273622  1.16052935  -0.15726378  1.0
  Cu  Cu2  1  1.16052935  0.84273622  0.84273622  1.0
  Cu  Cu3  1  0.18853052  0.18853052  -0.12926846  1.0
  Cu  Cu4  1  0.18853052  0.87073154  -0.81146948  1.0
  Cu  Cu5  1  0.87073154  0.18853052  0.18853052  1.0
  Cu  Cu6  1  0.83797714  0.83797714  0.64291159  1.0
  Cu  Cu7  1  0.83797714  1.64291159  -0.16202286  1.0
  Cu  Cu8  1  0.64291159  -0.16202286  -0.16202286  1.0
  Cu  Cu9  1  1.19345373  1.19345373  0.38844249  1.0
  Cu  Cu10  1  1.19345373  1.38844249  0.19345373  1.0
  Cu  Cu11  1  0.38844249  0.19345373  0.19345373  1.0
  Cu  Cu12  1  0.01570222  0.01570222  0.01570222  1.0
  Cu  Cu13  1  0.51566619  0.51566619  0.51566619  1.0
  Hg  Hg14  1  0.51579944  -0.09424815  0.12618234  1.0
  Hg  Hg15  1  0.90575185  0.51579944  0.12618234  1.0
  Hg  Hg16  1  0.51579944  0.12618234  -0.09424815  1.0
  Hg  Hg17  1  1.12618234  1.51579944  -0.09424815  1.0
  Hg  Hg18  1  1.12618234  0.90575185  0.51579944  1.0
  Hg  Hg19  1  0.90575185  1.12618234  -0.48420056  1.0
  Hg  Hg20  1  0.57082463  0.57082463  0.21639805  1.0
  Hg  Hg21  1  0.57082463  1.21639805  -0.42917537  1.0
  Hg  Hg22  1  1.21639805  0.57082463  0.57082463  1.0
  Hg  Hg23  1  0.46078202  0.46078202  -0.18485721  1.0
  Hg  Hg24  1  0.46078202  0.81514279  -0.53921798  1.0
  Hg  Hg25  1  0.81514279  0.46078202  0.46078202  1.0
