# generated using pymatgen
data_NaAsF6
_symmetry_space_group_name_H-M   'P 1'
_cell_length_a   5.75960946
_cell_length_b   5.75960946
_cell_length_c   5.75960945
_cell_angle_alpha   57.62829701
_cell_angle_beta   57.62829701
_cell_angle_gamma   57.62829701
_symmetry_Int_Tables_number   1
_chemical_formula_structural   NaAsF6
_chemical_formula_sum   'Na1 As1 F6'
_cell_volume   127.73806471
_cell_formula_units_Z   1
loop_
 _symmetry_equiv_pos_site_id
 _symmetry_equiv_pos_as_xyz
  1  'x, y, z'
loop_
 _atom_site_type_symbol
 _atom_site_label
 _atom_site_symmetry_multiplicity
 _atom_site_fract_x
 _atom_site_fract_y
 _atom_site_fract_z
 _atom_site_occupancy
  Na  Na0  1  0.50000000  0.50000000  -0.50000000  1.0
  As  As1  1  -0.00000000  0.00000000  0.00000000  1.0
  F  F2  1  0.11188689  0.79053931  -0.68592871  1.0
  F  F3  1  0.68592871  -0.11188689  0.20946069  1.0
  F  F4  1  1.20946069  -0.31407129  -0.11188689  1.0
  F  F5  1  0.88811311  0.20946069  -0.31407129  1.0
  F  F6  1  0.31407129  0.11188689  -0.20946069  1.0
  F  F7  1  0.79053931  0.31407129  -0.88811311  1.0
