# generated using pymatgen
data_Li8SiO6
_symmetry_space_group_name_H-M   'P 1'
_cell_length_a   5.44845676
_cell_length_b   5.44845676
_cell_length_c   10.69820053
_cell_angle_alpha   90.00000000
_cell_angle_beta   90.00000000
_cell_angle_gamma   120.00000000
_symmetry_Int_Tables_number   1
_chemical_formula_structural   Li8SiO6
_chemical_formula_sum   'Li16 Si2 O12'
_cell_volume   275.03526527
_cell_formula_units_Z   2
loop_
 _symmetry_equiv_pos_site_id
 _symmetry_equiv_pos_as_xyz
  1  'x, y, z'
loop_
 _atom_site_type_symbol
 _atom_site_label
 _atom_site_symmetry_multiplicity
 _atom_site_fract_x
 _atom_site_fract_y
 _atom_site_fract_z
 _atom_site_occupancy
  Li  Li0  1  0.69081443  0.69081443  0.38645525  1.0
  Li  Li1  1  0.69081443  0.00000000  0.88645525  1.0
  Li  Li2  1  0.00000000  0.69081443  0.88645525  1.0
  Li  Li3  1  0.00000000  0.30918557  0.38645525  1.0
  Li  Li4  1  0.30918557  0.30918557  0.88645525  1.0
  Li  Li5  1  0.30918557  0.00000000  0.38645525  1.0
  Li  Li6  1  0.60658668  0.60658668  0.02727320  1.0
  Li  Li7  1  0.60658668  0.00000000  0.52727320  1.0
  Li  Li8  1  0.00000000  0.60658668  0.52727320  1.0
  Li  Li9  1  -0.00000000  0.39341332  0.02727320  1.0
  Li  Li10  1  0.39341332  0.39341332  0.52727320  1.0
  Li  Li11  1  0.39341332  0.00000000  0.02727320  1.0
  Li  Li12  1  0.33333333  0.66666667  0.24479159  1.0
  Li  Li13  1  0.33333333  0.66666667  0.74479159  1.0
  Li  Li14  1  0.66666667  0.33333333  0.24479159  1.0
  Li  Li15  1  0.66666667  0.33333333  0.74479159  1.0
  Si  Si16  1  0.00000000  0.00000000  0.15723888  1.0
  Si  Si17  1  0.00000000  0.00000000  0.65723888  1.0
  O  O18  1  0.33333333  0.66666667  0.43691481  1.0
  O  O19  1  0.33333333  0.66666667  0.93691481  1.0
  O  O20  1  0.66666667  0.33333333  0.43691481  1.0
  O  O21  1  0.66666667  0.33333333  0.93691481  1.0
  O  O22  1  0.71125491  0.71125491  0.20368347  1.0
  O  O23  1  0.71125491  0.00000000  0.70368347  1.0
  O  O24  1  0.00000000  0.71125491  0.70368347  1.0
  O  O25  1  0.00000000  0.28874509  0.20368347  1.0
  O  O26  1  0.28874509  0.28874509  0.70368347  1.0
  O  O27  1  0.28874509  0.00000000  0.20368347  1.0
  O  O28  1  0.00000000  0.00000000  -0.00018742  1.0
  O  O29  1  0.00000000  0.00000000  0.49981258  1.0
