# generated using pymatgen
data_BS2
_symmetry_space_group_name_H-M   'P 1'
_cell_length_a   7.40296904
_cell_length_b   10.62049285
_cell_length_c   8.92064277
_cell_angle_alpha   90.00000000
_cell_angle_beta   117.18021461
_cell_angle_gamma   90.00000000
_symmetry_Int_Tables_number   1
_chemical_formula_structural   BS2
_chemical_formula_sum   'B8 S16'
_cell_volume   623.92000924
_cell_formula_units_Z   8
loop_
 _symmetry_equiv_pos_site_id
 _symmetry_equiv_pos_as_xyz
  1  'x, y, z'
loop_
 _atom_site_type_symbol
 _atom_site_label
 _atom_site_symmetry_multiplicity
 _atom_site_fract_x
 _atom_site_fract_y
 _atom_site_fract_z
 _atom_site_occupancy
  B  B0  1  0.66200492  0.13503048  0.27162342  1.0
  B  B1  1  0.66200492  0.36496952  0.77162342  1.0
  B  B2  1  0.33799508  0.63503048  0.22837658  1.0
  B  B3  1  0.33799508  0.86496952  0.72837658  1.0
  B  B4  1  0.48010452  0.36706076  0.24751339  1.0
  B  B5  1  0.48010452  0.13293924  0.74751339  1.0
  B  B6  1  0.51989548  0.86706076  0.25248661  1.0
  B  B7  1  0.51989548  0.63293924  0.75248661  1.0
  S  S8  1  0.86482461  0.24033022  0.29684459  1.0
  S  S9  1  0.86482461  0.25966978  0.79684459  1.0
  S  S10  1  0.13517539  0.74033022  0.20315541  1.0
  S  S11  1  0.13517539  0.75966978  0.70315541  1.0
  S  S12  1  0.73043198  0.96932748  0.28040426  1.0
  S  S13  1  0.73043198  0.53067252  0.78040426  1.0
  S  S14  1  0.26956802  0.46932748  0.21959574  1.0
  S  S15  1  0.26956802  0.03067252  0.71959574  1.0
  S  S16  1  0.72753749  0.41502668  0.27901465  1.0
  S  S17  1  0.72753749  0.08497332  0.77901465  1.0
  S  S18  1  0.27246251  0.91502668  0.22098535  1.0
  S  S19  1  0.27246251  0.58497332  0.72098535  1.0
  S  S20  1  0.42231253  0.19974634  0.24118415  1.0
  S  S21  1  0.42231253  0.30025366  0.74118415  1.0
  S  S22  1  0.57768747  0.69974634  0.25881585  1.0
  S  S23  1  0.57768747  0.80025366  0.75881585  1.0
