# generated using pymatgen
data_Y4Co
_symmetry_space_group_name_H-M   'P 1'
_cell_length_a   7.51628414
_cell_length_b   7.51628414
_cell_length_c   7.51628414
_cell_angle_alpha   60.00000000
_cell_angle_beta   60.00000000
_cell_angle_gamma   60.00000000
_symmetry_Int_Tables_number   1
_chemical_formula_structural   Y4Co
_chemical_formula_sum   'Y8 Co2'
_cell_volume   300.25798883
_cell_formula_units_Z   2
loop_
 _symmetry_equiv_pos_site_id
 _symmetry_equiv_pos_as_xyz
  1  'x, y, z'
loop_
 _atom_site_type_symbol
 _atom_site_label
 _atom_site_symmetry_multiplicity
 _atom_site_fract_x
 _atom_site_fract_y
 _atom_site_fract_z
 _atom_site_occupancy
  Y  Y0  1  -0.11498993  0.88501007  0.34496978  1.0
  Y  Y1  1  0.88501007  -0.65503022  0.88501007  1.0
  Y  Y2  1  0.36498993  0.36498993  0.36498993  1.0
  Y  Y3  1  -0.09496978  0.36498993  0.36498993  1.0
  Y  Y4  1  -0.65503022  0.88501007  0.88501007  1.0
  Y  Y5  1  0.88501007  -0.11498993  0.88501007  1.0
  Y  Y6  1  0.36498993  -0.09496978  0.36498993  1.0
  Y  Y7  1  0.36498993  0.36498993  -0.09496978  1.0
  Co  Co8  1  0.50000000  0.50000000  -0.50000000  1.0
  Co  Co9  1  0.75000000  -0.25000000  0.75000000  1.0
