# generated using pymatgen
data_Na3H6S2NO10
_symmetry_space_group_name_H-M   'P 1'
_cell_length_a   9.21460023
_cell_length_b   9.21460023
_cell_length_c   5.89428221
_cell_angle_alpha   90.00000000
_cell_angle_beta   90.00000000
_cell_angle_gamma   74.48319200
_symmetry_Int_Tables_number   1
_chemical_formula_structural   Na3H6S2NO10
_chemical_formula_sum   'Na6 H12 S4 N2 O20'
_cell_volume   482.23539785
_cell_formula_units_Z   2
loop_
 _symmetry_equiv_pos_site_id
 _symmetry_equiv_pos_as_xyz
  1  'x, y, z'
loop_
 _atom_site_type_symbol
 _atom_site_label
 _atom_site_symmetry_multiplicity
 _atom_site_fract_x
 _atom_site_fract_y
 _atom_site_fract_z
 _atom_site_occupancy
  Na  Na0  1  0.23597540  0.49045327  0.41793184  1.0
  Na  Na1  1  -0.50954673  1.23597540  0.91793184  1.0
  Na  Na2  1  0.50954673  0.76402460  0.41793184  1.0
  Na  Na3  1  -0.23597540  1.50954673  0.91793184  1.0
  Na  Na4  1  0.09668790  0.90331210  0.41399347  1.0
  Na  Na5  1  -0.09668790  1.09668790  0.91399347  1.0
  H  H6  1  -0.17741733  1.74270451  0.18903428  1.0
  H  H7  1  0.74270451  0.82258267  0.68903428  1.0
  H  H8  1  -0.74270451  1.17741733  0.18903428  1.0
  H  H9  1  0.17741733  0.25729549  0.68903428  1.0
  H  H10  1  -0.18192951  1.60934985  0.35111150  1.0
  H  H11  1  0.60934985  0.81807049  0.85111150  1.0
  H  H12  1  -0.60934985  1.18192951  0.35111150  1.0
  H  H13  1  0.18192951  0.39065015  0.85111150  1.0
  H  H14  1  0.45621262  0.54378738  0.18176648  1.0
  H  H15  1  -0.45621262  1.45621262  0.68176648  1.0
  H  H16  1  -0.40903712  1.40903712  0.26694421  1.0
  H  H17  1  0.40903712  0.59096288  0.76694421  1.0
  S  S18  1  -0.09618858  1.29873655  0.43099562  1.0
  S  S19  1  0.29873655  0.90381142  0.93099562  1.0
  S  S20  1  -0.29873655  1.09618858  0.43099562  1.0
  S  S21  1  0.09618858  0.70126345  0.93099562  1.0
  N  N22  1  0.27731527  0.72268473  -0.00260993  1.0
  N  N23  1  -0.27731527  1.27731527  0.49739007  1.0
  O  O24  1  -0.01884980  1.82293266  0.04566989  1.0
  O  O25  1  0.82293266  0.98115020  0.54566989  1.0
  O  O26  1  -0.82293266  1.01884980  0.04566989  1.0
  O  O27  1  0.01884980  0.17706734  0.54566989  1.0
  O  O28  1  0.10258613  0.55259483  0.02914168  1.0
  O  O29  1  -0.44740517  1.10258613  0.52914168  1.0
  O  O30  1  0.44740517  0.89741387  0.02914168  1.0
  O  O31  1  -0.10258613  1.44740517  0.52914168  1.0
  O  O32  1  -0.24172357  1.67947299  0.23847461  1.0
  O  O33  1  0.67947299  0.75827643  0.73847461  1.0
  O  O34  1  -0.67947299  1.24172357  0.23847461  1.0
  O  O35  1  0.24172357  0.32052701  0.73847461  1.0
  O  O36  1  -0.08835070  1.29413163  0.18217681  1.0
  O  O37  1  0.29413163  0.91164930  0.68217681  1.0
  O  O38  1  -0.29413163  1.08835070  0.18217681  1.0
  O  O39  1  0.08835070  0.70586837  0.68217681  1.0
  O  O40  1  0.30193279  0.69806721  0.22922425  1.0
  O  O41  1  -0.30193279  1.30193279  0.72922425  1.0
  O  O42  1  -0.45860198  1.45860198  0.12840904  1.0
  O  O43  1  0.45860198  0.54139802  0.62840904  1.0
