# generated using pymatgen
data_FeB2C6(O3F4)2
_symmetry_space_group_name_H-M   'P 1'
_cell_length_a   7.94717747
_cell_length_b   7.94717747
_cell_length_c   7.94717747
_cell_angle_alpha   120.01206698
_cell_angle_beta   120.01206698
_cell_angle_gamma   89.97910065
_symmetry_Int_Tables_number   1
_chemical_formula_structural   FeB2C6(O3F4)2
_chemical_formula_sum   'Fe1 B2 C6 O6 F8'
_cell_volume   354.84973616
_cell_formula_units_Z   1
loop_
 _symmetry_equiv_pos_site_id
 _symmetry_equiv_pos_as_xyz
  1  'x, y, z'
loop_
 _atom_site_type_symbol
 _atom_site_label
 _atom_site_symmetry_multiplicity
 _atom_site_fract_x
 _atom_site_fract_y
 _atom_site_fract_z
 _atom_site_occupancy
  Fe  Fe0  1  0.00000000  0.00000000  0.00000000  1.0
  B  B1  1  0.25000000  0.75000000  0.50000000  1.0
  B  B2  1  0.75000000  0.25000000  0.50000000  1.0
  C  C3  1  0.83617332  0.83004497  1.66621828  1.0
  C  C4  1  0.16995503  0.83617332  1.00612835  1.0
  C  C5  1  0.16382668  0.16995503  0.33378172  1.0
  C  C6  1  0.83004497  0.16382668  0.99387165  1.0
  C  C7  1  0.83314965  0.83314965  1.00000000  1.0
  C  C8  1  0.16685035  0.16685035  -0.00000000  1.0
  O  O9  1  0.73714301  0.72767739  1.46482040  1.0
  O  O10  1  0.27232261  0.73714301  1.00946562  1.0
  O  O11  1  0.26285699  0.27232261  0.53517960  1.0
  O  O12  1  0.72767739  0.26285699  0.99053438  1.0
  O  O13  1  0.73247559  0.73247559  1.00000000  1.0
  O  O14  1  0.26752441  0.26752441  -0.00000000  1.0
  F  F15  1  0.46831301  0.81593128  0.63861933  1.0
  F  F16  1  0.82268804  1.17030632  1.63861933  1.0
  F  F17  1  0.82969368  0.46831301  0.65238172  1.0
  F  F18  1  0.18406872  0.82268804  0.65238172  1.0
  F  F19  1  1.17731196  0.82969368  1.36138067  1.0
  F  F20  1  0.53168699  0.18406872  0.36138067  1.0
  F  F21  1  0.81593128  1.17731196  1.34761828  1.0
  F  F22  1  1.17030632  0.53168699  1.34761828  1.0
