# generated using pymatgen
data_SrZnP2O7
_symmetry_space_group_name_H-M   'P 1'
_cell_length_a   5.38978942
_cell_length_b   8.29760257
_cell_length_c   14.05042876
_cell_angle_alpha   90.00000000
_cell_angle_beta   112.22382013
_cell_angle_gamma   90.00000000
_symmetry_Int_Tables_number   1
_chemical_formula_structural   SrZnP2O7
_chemical_formula_sum   'Sr4 Zn4 P8 O28'
_cell_volume   581.68861683
_cell_formula_units_Z   4
loop_
 _symmetry_equiv_pos_site_id
 _symmetry_equiv_pos_as_xyz
  1  'x, y, z'
loop_
 _atom_site_type_symbol
 _atom_site_label
 _atom_site_symmetry_multiplicity
 _atom_site_fract_x
 _atom_site_fract_y
 _atom_site_fract_z
 _atom_site_occupancy
  Sr  Sr0  1  0.98990910  0.16501312  0.27868152  1.0
  Sr  Sr1  1  0.98990910  0.33498688  0.77868152  1.0
  Sr  Sr2  1  0.01009090  0.66501312  0.22131848  1.0
  Sr  Sr3  1  0.01009090  0.83498688  0.72131848  1.0
  Zn  Zn4  1  0.72432120  0.84762493  0.39685558  1.0
  Zn  Zn5  1  0.72432120  0.65237507  0.89685558  1.0
  Zn  Zn6  1  0.27567880  0.34762493  0.10314442  1.0
  Zn  Zn7  1  0.27567880  0.15237507  0.60314442  1.0
  P  P8  1  0.66479009  0.20040555  0.47899182  1.0
  P  P9  1  0.66479009  0.29959445  0.97899182  1.0
  P  P10  1  0.33520991  0.70040555  0.02100818  1.0
  P  P11  1  0.33520991  0.79959445  0.52100818  1.0
  P  P12  1  0.57959293  0.46696611  0.33245365  1.0
  P  P13  1  0.57959293  0.03303389  0.83245365  1.0
  P  P14  1  0.42040707  0.96696611  0.16754635  1.0
  P  P15  1  0.42040707  0.53303389  0.66754635  1.0
  O  O16  1  0.88747589  0.31115692  0.08715175  1.0
  O  O17  1  0.88747589  0.18884308  0.58715175  1.0
  O  O18  1  0.11252411  0.81115692  0.41284825  1.0
  O  O19  1  0.11252411  0.68884308  0.91284825  1.0
  O  O20  1  0.80464272  0.44435163  0.29248869  1.0
  O  O21  1  0.80464272  0.05564837  0.79248869  1.0
  O  O22  1  0.19535728  0.94435163  0.20751131  1.0
  O  O23  1  0.19535728  0.55564837  0.70751131  1.0
  O  O24  1  0.72921781  0.09633304  0.39949004  1.0
  O  O25  1  0.72921781  0.40366696  0.89949004  1.0
  O  O26  1  0.27078219  0.59633304  0.10050996  1.0
  O  O27  1  0.27078219  0.90366696  0.60050996  1.0
  O  O28  1  0.67960111  0.38758281  0.44670026  1.0
  O  O29  1  0.67960111  0.11241719  0.94670026  1.0
  O  O30  1  0.32039889  0.88758281  0.05329974  1.0
  O  O31  1  0.32039889  0.61241719  0.55329974  1.0
  O  O32  1  0.48451706  0.14391495  0.15387760  1.0
  O  O33  1  0.48451706  0.35608505  0.65387760  1.0
  O  O34  1  0.51548294  0.64391495  0.34612240  1.0
  O  O35  1  0.51548294  0.85608505  0.84612240  1.0
  O  O36  1  0.37791417  0.16893441  0.47376316  1.0
  O  O37  1  0.37791417  0.33106559  0.97376316  1.0
  O  O38  1  0.62208583  0.66893441  0.02623684  1.0
  O  O39  1  0.62208583  0.83106559  0.52623684  1.0
  O  O40  1  0.31586402  0.38251724  0.26462715  1.0
  O  O41  1  0.31586402  0.11748276  0.76462715  1.0
  O  O42  1  0.68413598  0.88251724  0.23537285  1.0
  O  O43  1  0.68413598  0.61748276  0.73537285  1.0
