# generated using pymatgen
data_KCuO2
_symmetry_space_group_name_H-M   'P 1'
_cell_length_a   6.25517253
_cell_length_b   6.25517253
_cell_length_c   5.47484133
_cell_angle_alpha   90.00000000
_cell_angle_beta   90.00000000
_cell_angle_gamma   137.16688466
_symmetry_Int_Tables_number   1
_chemical_formula_structural   KCuO2
_chemical_formula_sum   'K2 Cu2 O4'
_cell_volume   145.63741992
_cell_formula_units_Z   2
loop_
 _symmetry_equiv_pos_site_id
 _symmetry_equiv_pos_as_xyz
  1  'x, y, z'
loop_
 _atom_site_type_symbol
 _atom_site_label
 _atom_site_symmetry_multiplicity
 _atom_site_fract_x
 _atom_site_fract_y
 _atom_site_fract_z
 _atom_site_occupancy
  K  K0  1  -0.69641839  0.69641839  0.25000000  1.0
  K  K1  1  -0.30358161  1.30358161  0.75000000  1.0
  Cu  Cu2  1  -0.99758243  0.99758243  0.25000000  1.0
  Cu  Cu3  1  -0.00241757  1.00241757  0.75000000  1.0
  O  O4  1  -0.89410974  0.89410974  0.99538289  1.0
  O  O5  1  -0.89410974  0.89410974  0.50461711  1.0
  O  O6  1  -0.10589026  1.10589026  0.49538289  1.0
  O  O7  1  -0.10589026  1.10589026  0.00461711  1.0
