# generated using pymatgen
data_NaVO3
_symmetry_space_group_name_H-M   'P 1'
_cell_length_a   14.57752404
_cell_length_b   3.63573654
_cell_length_c   5.77364505
_cell_angle_alpha   90.00000000
_cell_angle_beta   90.00000000
_cell_angle_gamma   90.00000000
_symmetry_Int_Tables_number   1
_chemical_formula_structural   NaVO3
_chemical_formula_sum   'Na4 V4 O12'
_cell_volume   306.00340040
_cell_formula_units_Z   4
loop_
 _symmetry_equiv_pos_site_id
 _symmetry_equiv_pos_as_xyz
  1  'x, y, z'
loop_
 _atom_site_type_symbol
 _atom_site_label
 _atom_site_symmetry_multiplicity
 _atom_site_fract_x
 _atom_site_fract_y
 _atom_site_fract_z
 _atom_site_occupancy
  Na  Na0  1  0.19192333  0.75000000  0.50113852  1.0
  Na  Na1  1  0.69192333  0.75000000  0.99886148  1.0
  Na  Na2  1  0.80807667  0.25000000  0.49886148  1.0
  Na  Na3  1  0.30807667  0.25000000  0.00113852  1.0
  V  V4  1  0.41104443  0.75000000  0.50053172  1.0
  V  V5  1  0.91104443  0.75000000  0.99946828  1.0
  V  V6  1  0.58895557  0.25000000  0.49946828  1.0
  V  V7  1  0.08895557  0.25000000  0.00053172  1.0
  O  O8  1  0.34384453  0.75000000  0.73260549  1.0
  O  O9  1  0.84384453  0.75000000  0.76739451  1.0
  O  O10  1  0.65615547  0.25000000  0.26739451  1.0
  O  O11  1  0.15615547  0.25000000  0.23260549  1.0
  O  O12  1  0.04980910  0.75000000  -0.00070784  1.0
  O  O13  1  0.54980910  0.75000000  0.50070784  1.0
  O  O14  1  0.95019090  0.25000000  1.00070784  1.0
  O  O15  1  0.45019090  0.25000000  0.49929216  1.0
  O  O16  1  0.84281570  0.75000000  0.22980207  1.0
  O  O17  1  0.34281570  0.75000000  0.27019793  1.0
  O  O18  1  0.15718430  0.25000000  0.77019793  1.0
  O  O19  1  0.65718430  0.25000000  0.72980207  1.0
