# generated using pymatgen
data_CaAlSiHO5
_symmetry_space_group_name_H-M   'P 1'
_cell_length_a   5.74740468
_cell_length_b   7.11865629
_cell_length_c   8.59689959
_cell_angle_alpha   90.00000000
_cell_angle_beta   90.00000000
_cell_angle_gamma   90.00000000
_symmetry_Int_Tables_number   1
_chemical_formula_structural   CaAlSiHO5
_chemical_formula_sum   'Ca4 Al4 Si4 H4 O20'
_cell_volume   351.73181755
_cell_formula_units_Z   4
loop_
 _symmetry_equiv_pos_site_id
 _symmetry_equiv_pos_as_xyz
  1  'x, y, z'
loop_
 _atom_site_type_symbol
 _atom_site_label
 _atom_site_symmetry_multiplicity
 _atom_site_fract_x
 _atom_site_fract_y
 _atom_site_fract_z
 _atom_site_occupancy
  Ca  Ca0  1  0.03008474  0.86395130  0.83554629  1.0
  Ca  Ca1  1  0.53008474  0.63604870  0.16445371  1.0
  Ca  Ca2  1  0.96991526  0.36395130  0.66445371  1.0
  Ca  Ca3  1  0.46991526  0.13604870  0.33554629  1.0
  Al  Al4  1  0.24226197  0.73805134  0.49485452  1.0
  Al  Al5  1  0.74226197  0.76194866  0.50514548  1.0
  Al  Al6  1  0.75773803  0.23805134  0.00514548  1.0
  Al  Al7  1  0.25773803  0.26194866  0.99485452  1.0
  Si  Si8  1  0.48736693  0.62105018  0.81062308  1.0
  Si  Si9  1  0.98736693  0.87894982  0.18937692  1.0
  Si  Si10  1  0.51263307  0.12105018  0.68937692  1.0
  Si  Si11  1  0.01263307  0.37894982  0.31062308  1.0
  H  H12  1  0.48080471  0.97709266  0.00734229  1.0
  H  H13  1  0.98080471  0.52290734  0.99265771  1.0
  H  H14  1  0.51919529  0.47709266  0.49265771  1.0
  H  H15  1  0.01919529  0.02290734  0.50734229  1.0
  O  O16  1  0.49059668  0.92990505  0.57064896  1.0
  O  O17  1  0.99059668  0.57009495  0.42935104  1.0
  O  O18  1  0.50940332  0.42990505  0.92935104  1.0
  O  O19  1  0.00940332  0.07009495  0.07064896  1.0
  O  O20  1  0.42761509  0.78869879  0.93368331  1.0
  O  O21  1  0.92761509  0.71130121  0.06631669  1.0
  O  O22  1  0.57238491  0.28869879  0.56631669  1.0
  O  O23  1  0.07238491  0.21130121  0.43368331  1.0
  O  O24  1  0.25757096  0.61391745  0.69352494  1.0
  O  O25  1  0.75757096  0.88608255  0.30647506  1.0
  O  O26  1  0.74242904  0.11391745  0.80647506  1.0
  O  O27  1  0.24242904  0.38608255  0.19352494  1.0
  O  O28  1  0.23189843  0.85146849  0.28921091  1.0
  O  O29  1  0.73189843  0.64853151  0.71078909  1.0
  O  O30  1  0.76810157  0.35146849  0.21078909  1.0
  O  O31  1  0.26810157  0.14853151  0.78921091  1.0
  O  O32  1  0.00462554  0.89588878  0.56464509  1.0
  O  O33  1  0.50462554  0.60411122  0.43535491  1.0
  O  O34  1  0.99537446  0.39588878  0.93535491  1.0
  O  O35  1  0.49537446  0.10411122  0.06464509  1.0
