# generated using pymatgen
data_La2CoO4
_symmetry_space_group_name_H-M   'P 1'
_cell_length_a   6.95666145
_cell_length_b   6.95666145
_cell_length_c   5.57123159
_cell_angle_alpha   90.00000000
_cell_angle_beta   90.00000000
_cell_angle_gamma   134.56702642
_symmetry_Int_Tables_number   1
_chemical_formula_structural   La2CoO4
_chemical_formula_sum   'La4 Co2 O8'
_cell_volume   192.08575445
_cell_formula_units_Z   2
loop_
 _symmetry_equiv_pos_site_id
 _symmetry_equiv_pos_as_xyz
  1  'x, y, z'
loop_
 _atom_site_type_symbol
 _atom_site_label
 _atom_site_symmetry_multiplicity
 _atom_site_fract_x
 _atom_site_fract_y
 _atom_site_fract_z
 _atom_site_occupancy
  La  La0  1  -0.13771562  0.13771562  0.48649802  1.0
  La  La1  1  0.36228438  0.63771562  0.01350198  1.0
  La  La2  1  0.13771562  0.86228438  0.51350198  1.0
  La  La3  1  -0.36228438  0.36228438  0.98649802  1.0
  Co  Co4  1  -0.50000000  0.50000000  0.50000000  1.0
  Co  Co5  1  -0.00000000  1.00000000  0.00000000  1.0
  O  O6  1  -0.18115945  0.18115945  1.05407702  1.0
  O  O7  1  0.31884055  0.68115945  0.44592298  1.0
  O  O8  1  0.18115945  0.81884055  -0.05407702  1.0
  O  O9  1  -0.31884055  0.31884055  0.55407702  1.0
  O  O10  1  0.26390392  1.23609608  0.25000000  1.0
  O  O11  1  -0.23609608  0.73609608  0.25000000  1.0
  O  O12  1  0.23609608  0.26390392  0.75000000  1.0
  O  O13  1  0.73609608  0.76390392  0.75000000  1.0
