# generated using pymatgen
data_MnVAgO4
_symmetry_space_group_name_H-M   'P 1'
_cell_length_a   9.61533229
_cell_length_b   6.85325029
_cell_length_c   5.38278772
_cell_angle_alpha   90.00000000
_cell_angle_beta   90.00000000
_cell_angle_gamma   90.00000000
_symmetry_Int_Tables_number   1
_chemical_formula_structural   MnVAgO4
_chemical_formula_sum   'Mn4 V4 Ag4 O16'
_cell_volume   354.70568018
_cell_formula_units_Z   4
loop_
 _symmetry_equiv_pos_site_id
 _symmetry_equiv_pos_as_xyz
  1  'x, y, z'
loop_
 _atom_site_type_symbol
 _atom_site_label
 _atom_site_symmetry_multiplicity
 _atom_site_fract_x
 _atom_site_fract_y
 _atom_site_fract_z
 _atom_site_occupancy
  Mn  Mn0  1  0.00000000  0.50000000  0.00000000  1.0
  Mn  Mn1  1  0.00000000  0.00000000  0.00000000  1.0
  Mn  Mn2  1  0.50000000  0.50000000  0.50000000  1.0
  Mn  Mn3  1  0.50000000  0.00000000  0.50000000  1.0
  V  V4  1  0.67794442  0.25000000  0.02689899  1.0
  V  V5  1  0.17794442  0.25000000  0.47310101  1.0
  V  V6  1  0.32205558  0.75000000  0.97310101  1.0
  V  V7  1  0.82205558  0.75000000  0.52689899  1.0
  Ag  Ag8  1  0.84794512  0.25000000  0.50329797  1.0
  Ag  Ag9  1  0.34794512  0.25000000  -0.00329797  1.0
  Ag  Ag10  1  0.15205488  0.75000000  0.49670203  1.0
  Ag  Ag11  1  0.65205488  0.75000000  1.00329797  1.0
  O  O12  1  0.61403717  0.44827615  0.18632815  1.0
  O  O13  1  0.61403717  0.05172385  0.18632815  1.0
  O  O14  1  0.11403717  0.44827615  0.31367185  1.0
  O  O15  1  0.11403717  0.05172385  0.31367185  1.0
  O  O16  1  0.38596283  0.94827615  0.81367185  1.0
  O  O17  1  0.38596283  0.55172385  0.81367185  1.0
  O  O18  1  0.88596283  0.94827615  0.68632815  1.0
  O  O19  1  0.88596283  0.55172385  0.68632815  1.0
  O  O20  1  0.86301333  0.25000000  0.06220689  1.0
  O  O21  1  0.36301333  0.25000000  0.43779311  1.0
  O  O22  1  0.13698667  0.75000000  0.93779311  1.0
  O  O23  1  0.63698667  0.75000000  0.56220689  1.0
  O  O24  1  0.61697130  0.25000000  0.71990445  1.0
  O  O25  1  0.11697130  0.25000000  0.78009555  1.0
  O  O26  1  0.38302870  0.75000000  0.28009555  1.0
  O  O27  1  0.88302870  0.75000000  0.21990445  1.0
