# generated using pymatgen
data_K2Si6GeO15
_symmetry_space_group_name_H-M   'P 1'
_cell_length_a   7.33492922
_cell_length_b   7.33492922
_cell_length_c   15.00528502
_cell_angle_alpha   75.47354454
_cell_angle_beta   104.52645546
_cell_angle_gamma   120.42239567
_symmetry_Int_Tables_number   1
_chemical_formula_structural   K2Si6GeO15
_chemical_formula_sum   'K4 Si12 Ge2 O30'
_cell_volume   666.44050615
_cell_formula_units_Z   2
loop_
 _symmetry_equiv_pos_site_id
 _symmetry_equiv_pos_as_xyz
  1  'x, y, z'
loop_
 _atom_site_type_symbol
 _atom_site_label
 _atom_site_symmetry_multiplicity
 _atom_site_fract_x
 _atom_site_fract_y
 _atom_site_fract_z
 _atom_site_occupancy
  K  K0  1  1.15790558  -0.29240849  0.43011546  1.0
  K  K1  1  0.29240849  -0.15790558  0.93011546  1.0
  K  K2  1  0.86969882  -0.50501766  0.11893481  1.0
  K  K3  1  0.50501766  0.13030118  0.61893481  1.0
  Si  Si4  1  1.95926911  -0.03565849  0.21077385  1.0
  Si  Si5  1  1.03565849  -0.95926911  0.71077385  1.0
  Si  Si6  1  1.88515078  -0.02744391  0.90499922  1.0
  Si  Si7  1  1.02744391  -0.88515078  0.40499922  1.0
  Si  Si8  1  1.48092376  -0.30848717  0.17800253  1.0
  Si  Si9  1  1.30848717  -0.48092376  0.67800253  1.0
  Si  Si10  1  1.68136442  0.21366470  0.38941130  1.0
  Si  Si11  1  0.78633530  0.31863558  0.88941130  1.0
  Si  Si12  1  1.38630598  0.05390519  0.19519873  1.0
  Si  Si13  1  0.94609481  0.61369402  0.69519873  1.0
  Si  Si14  1  0.48763602  0.48491569  0.38758232  1.0
  Si  Si15  1  0.51508431  0.51236398  0.88758232  1.0
  Ge  Ge16  1  1.18425082  -0.68380606  0.04487647  1.0
  Ge  Ge17  1  1.68380606  -0.18425082  0.54487647  1.0
  O  O18  1  0.94979044  0.94926248  0.49790389  1.0
  O  O19  1  0.05073752  0.05020956  -0.00209611  1.0
  O  O20  1  1.95866962  -0.01732187  0.31788311  1.0
  O  O21  1  1.01732187  -0.95866962  0.81788311  1.0
  O  O22  1  1.73238102  -0.24233115  0.17781326  1.0
  O  O23  1  1.24233115  -0.73238102  0.67781326  1.0
  O  O24  1  1.53523208  -0.32991024  0.44116292  1.0
  O  O25  1  1.32991024  0.46476792  0.94116292  1.0
  O  O26  1  1.40888007  -0.45770539  0.27690577  1.0
  O  O27  1  1.45770539  -0.40888007  0.77690577  1.0
  O  O28  1  1.31676411  -0.41796905  0.09049404  1.0
  O  O29  1  1.41796905  -0.31676411  0.59049404  1.0
  O  O30  1  0.71561431  0.07187467  0.87674691  1.0
  O  O31  1  0.92812533  -0.71561431  0.37674691  1.0
  O  O32  1  1.60167578  0.03161037  0.47740190  1.0
  O  O33  1  0.96838963  0.39832422  0.97740190  1.0
  O  O34  1  1.48154937  -0.07958114  0.16801767  1.0
  O  O35  1  1.07958114  0.51845063  0.66801767  1.0
  O  O36  1  1.52652920  0.14230798  0.29242169  1.0
  O  O37  1  0.85769202  0.47347080  0.79242169  1.0
  O  O38  1  1.13878586  -0.11493959  0.21683155  1.0
  O  O39  1  1.11493959  0.86121414  0.71683155  1.0
  O  O40  1  0.56372928  0.30842539  0.90225001  1.0
  O  O41  1  0.69157461  0.43627072  0.40225001  1.0
  O  O42  1  1.40620100  0.25370240  0.11496716  1.0
  O  O43  1  0.74629760  0.59379900  0.61496716  1.0
  O  O44  1  0.28923092  0.25302082  0.42483733  1.0
  O  O45  1  0.74697918  0.71076908  0.92483733  1.0
  O  O46  1  1.01452323  -0.81184788  0.14356812  1.0
  O  O47  1  1.81184788  -0.01452323  0.64356812  1.0
