# generated using pymatgen
data_K3ReClF6
_symmetry_space_group_name_H-M   'P 1'
_cell_length_a   8.42161113
_cell_length_b   8.42161113
_cell_length_c   6.09504240
_cell_angle_alpha   90.00000000
_cell_angle_beta   90.00000000
_cell_angle_gamma   90.00000000
_symmetry_Int_Tables_number   1
_chemical_formula_structural   K3ReClF6
_chemical_formula_sum   'K6 Re2 Cl2 F12'
_cell_volume   432.28194720
_cell_formula_units_Z   2
loop_
 _symmetry_equiv_pos_site_id
 _symmetry_equiv_pos_as_xyz
  1  'x, y, z'
loop_
 _atom_site_type_symbol
 _atom_site_label
 _atom_site_symmetry_multiplicity
 _atom_site_fract_x
 _atom_site_fract_y
 _atom_site_fract_z
 _atom_site_occupancy
  K  K0  1  0.31785927  0.18214073  0.50000000  1.0
  K  K1  1  0.81785927  0.31785927  0.50000000  1.0
  K  K2  1  0.68214073  0.81785927  0.50000000  1.0
  K  K3  1  0.18214073  0.68214073  0.50000000  1.0
  K  K4  1  0.50000000  0.50000000  0.00000000  1.0
  K  K5  1  0.00000000  0.00000000  0.00000000  1.0
  Re  Re6  1  0.50000000  0.00000000  0.00000000  1.0
  Re  Re7  1  0.00000000  0.50000000  0.00000000  1.0
  Cl  Cl8  1  0.50000000  0.50000000  0.50000000  1.0
  Cl  Cl9  1  0.00000000  0.00000000  0.50000000  1.0
  F  F10  1  0.88764607  0.61235393  0.76008028  1.0
  F  F11  1  0.88764607  0.61235393  0.23991972  1.0
  F  F12  1  0.38764607  0.88764607  0.76008028  1.0
  F  F13  1  0.38764607  0.88764607  0.23991972  1.0
  F  F14  1  0.11235393  0.38764607  0.76008028  1.0
  F  F15  1  0.11235393  0.38764607  0.23991972  1.0
  F  F16  1  0.61235393  0.11235393  0.76008028  1.0
  F  F17  1  0.61235393  0.11235393  0.23991972  1.0
  F  F18  1  0.33374966  0.16625034  0.00000000  1.0
  F  F19  1  0.83374966  0.33374966  0.00000000  1.0
  F  F20  1  0.66625034  0.83374966  0.00000000  1.0
  F  F21  1  0.16625034  0.66625034  0.00000000  1.0
