# generated using pymatgen
data_Cs2V(OF2)2
_symmetry_space_group_name_H-M   'P 1'
_cell_length_a   8.06387996
_cell_length_b   8.06387996
_cell_length_c   7.78824853
_cell_angle_alpha   90.00000000
_cell_angle_beta   90.00000000
_cell_angle_gamma   134.55220187
_symmetry_Int_Tables_number   1
_chemical_formula_structural   Cs2V(OF2)2
_chemical_formula_sum   'Cs4 V2 O4 F8'
_cell_volume   360.89492276
_cell_formula_units_Z   2
loop_
 _symmetry_equiv_pos_site_id
 _symmetry_equiv_pos_as_xyz
  1  'x, y, z'
loop_
 _atom_site_type_symbol
 _atom_site_label
 _atom_site_symmetry_multiplicity
 _atom_site_fract_x
 _atom_site_fract_y
 _atom_site_fract_z
 _atom_site_occupancy
  V  V0  1  -0.36971340  0.36971340  0.25000000  1.0
  V  V1  1  0.36971340  0.63028660  0.75000000  1.0
  Cs  Cs2  1  0.28232170  0.71767830  0.25000000  1.0
  Cs  Cs3  1  -0.28232170  0.28232170  0.75000000  1.0
  Cs  Cs4  1  -0.03791302  0.03791302  0.25000000  1.0
  Cs  Cs5  1  0.03791302  0.96208698  0.75000000  1.0
  O  O6  1  -0.25897908  0.25897908  0.25000000  1.0
  O  O7  1  0.25897908  0.74102092  0.75000000  1.0
  O  O8  1  0.49559630  0.50440370  0.25000000  1.0
  O  O9  1  -0.49559630  0.49559630  0.75000000  1.0
  F  F10  1  -0.16846288  0.59313888  0.41904382  1.0
  F  F11  1  0.59313888  0.83153712  0.58095618  1.0
  F  F12  1  -0.16846288  0.59313888  0.08095618  1.0
  F  F13  1  0.59313888  0.83153712  0.91904382  1.0
  F  F14  1  0.16846288  0.40686112  0.58095618  1.0
  F  F15  1  0.40686112  1.16846288  0.41904382  1.0
  F  F16  1  0.16846288  0.40686112  0.91904382  1.0
  F  F17  1  0.40686112  1.16846288  0.08095618  1.0
