# generated using pymatgen
data_BaB4(SbO6)2
_symmetry_space_group_name_H-M   'P 1'
_cell_length_a   6.93681416
_cell_length_b   6.93681416
_cell_length_c   11.44285590
_cell_angle_alpha   84.01422534
_cell_angle_beta   95.98577466
_cell_angle_gamma   60.73484845
_symmetry_Int_Tables_number   1
_chemical_formula_structural   BaB4(SbO6)2
_chemical_formula_sum   'Ba2 B8 Sb4 O24'
_cell_volume   470.01502534
_cell_formula_units_Z   2
loop_
 _symmetry_equiv_pos_site_id
 _symmetry_equiv_pos_as_xyz
  1  'x, y, z'
loop_
 _atom_site_type_symbol
 _atom_site_label
 _atom_site_symmetry_multiplicity
 _atom_site_fract_x
 _atom_site_fract_y
 _atom_site_fract_z
 _atom_site_occupancy
  Ba  Ba0  1  0.53276482  -0.46723518  0.25000000  1.0
  Ba  Ba1  1  1.46723518  0.46723518  0.75000000  1.0
  B  B2  1  1.85305601  0.08846077  0.11002463  1.0
  B  B3  1  0.91153923  -0.85305601  0.61002463  1.0
  B  B4  1  1.08846077  0.85305601  0.38997537  1.0
  B  B5  1  0.14694399  -0.08846077  0.88997537  1.0
  B  B6  1  0.67916627  -0.02594902  0.37940277  1.0
  B  B7  1  1.02594902  0.32083373  0.87940277  1.0
  B  B8  1  0.97405098  -0.32083373  0.12059723  1.0
  B  B9  1  1.32083373  0.02594902  0.62059723  1.0
  Sb  Sb10  1  1.50000000  -0.00000000  -0.00000000  1.0
  Sb  Sb11  1  1.00000000  -0.50000000  0.50000000  1.0
  Sb  Sb12  1  1.19044518  0.19044518  0.25000000  1.0
  Sb  Sb13  1  0.80955482  -0.19044518  0.75000000  1.0
  O  O14  1  1.47262249  0.16335993  0.33903950  1.0
  O  O15  1  0.83664007  -0.47262249  0.83903950  1.0
  O  O16  1  1.16335993  0.47262249  0.16096050  1.0
  O  O17  1  0.52737751  -0.16335993  0.66096050  1.0
  O  O18  1  1.86008503  0.01145015  0.37587973  1.0
  O  O19  1  0.98854985  -0.86008503  0.87587973  1.0
  O  O20  1  1.01145015  0.86008503  0.12412027  1.0
  O  O21  1  0.13991497  -0.01145015  0.62412027  1.0
  O  O22  1  1.62979556  0.18087847  0.06227550  1.0
  O  O23  1  0.81912153  -0.62979556  0.56227550  1.0
  O  O24  1  1.18087847  0.62979556  0.43772450  1.0
  O  O25  1  0.37020444  -0.18087847  0.93772450  1.0
  O  O26  1  0.37684283  -0.01600250  0.14839942  1.0
  O  O27  1  1.01600250  0.62315717  0.64839942  1.0
  O  O28  1  0.98399750  -0.62315717  0.35160058  1.0
  O  O29  1  1.62315717  0.01600250  0.85160058  1.0
  O  O30  1  0.70632655  -0.23250082  0.41639811  1.0
  O  O31  1  1.23250082  0.29367345  0.91639811  1.0
  O  O32  1  0.76749918  -0.29367345  0.08360189  1.0
  O  O33  1  1.29367345  0.23250082  0.58360189  1.0
  O  O34  1  0.23825218  -0.09127465  0.35099836  1.0
  O  O35  1  1.09127465  0.76174782  0.85099836  1.0
  O  O36  1  0.90872535  -0.76174782  0.14900164  1.0
  O  O37  1  1.76174782  0.09127465  0.64900164  1.0
