# generated using pymatgen
data_Cs2SnTe4
_symmetry_space_group_name_H-M   'P 1'
_cell_length_a   12.86865422
_cell_length_b   12.14440371
_cell_length_c   7.78408537
_cell_angle_alpha   90.00000000
_cell_angle_beta   90.00000000
_cell_angle_gamma   90.00000000
_symmetry_Int_Tables_number   1
_chemical_formula_structural   Cs2SnTe4
_chemical_formula_sum   'Cs8 Sn4 Te16'
_cell_volume   1216.51345806
_cell_formula_units_Z   4
loop_
 _symmetry_equiv_pos_site_id
 _symmetry_equiv_pos_as_xyz
  1  'x, y, z'
loop_
 _atom_site_type_symbol
 _atom_site_label
 _atom_site_symmetry_multiplicity
 _atom_site_fract_x
 _atom_site_fract_y
 _atom_site_fract_z
 _atom_site_occupancy
  Cs  Cs0  1  0.85398376  0.94355292  0.39511292  1.0
  Cs  Cs1  1  0.85398376  0.55644708  0.39511292  1.0
  Cs  Cs2  1  0.35398376  0.94355292  0.10488708  1.0
  Cs  Cs3  1  0.35398376  0.55644708  0.10488708  1.0
  Cs  Cs4  1  0.14601624  0.44355292  0.60488708  1.0
  Cs  Cs5  1  0.14601624  0.05644708  0.60488708  1.0
  Cs  Cs6  1  0.64601624  0.44355292  0.89511292  1.0
  Cs  Cs7  1  0.64601624  0.05644708  0.89511292  1.0
  Sn  Sn8  1  0.93415499  0.25000000  0.00250643  1.0
  Sn  Sn9  1  0.43415499  0.25000000  0.49749357  1.0
  Sn  Sn10  1  0.06584501  0.75000000  0.99749357  1.0
  Sn  Sn11  1  0.56584501  0.75000000  0.50250643  1.0
  Te  Te12  1  0.57072863  0.42907369  0.40823249  1.0
  Te  Te13  1  0.57072863  0.07092631  0.40823249  1.0
  Te  Te14  1  0.07072863  0.42907369  0.09176751  1.0
  Te  Te15  1  0.07072863  0.07092631  0.09176751  1.0
  Te  Te16  1  0.42927137  0.92907369  0.59176751  1.0
  Te  Te17  1  0.42927137  0.57092631  0.59176751  1.0
  Te  Te18  1  0.92927137  0.92907369  0.90823249  1.0
  Te  Te19  1  0.92927137  0.57092631  0.90823249  1.0
  Te  Te20  1  0.87312990  0.25000000  0.65715102  1.0
  Te  Te21  1  0.37312990  0.25000000  0.84284898  1.0
  Te  Te22  1  0.12687010  0.75000000  0.34284898  1.0
  Te  Te23  1  0.62687010  0.75000000  0.15715102  1.0
  Te  Te24  1  0.77484395  0.25000000  0.25590100  1.0
  Te  Te25  1  0.27484395  0.25000000  0.24409900  1.0
  Te  Te26  1  0.22515605  0.75000000  0.74409900  1.0
  Te  Te27  1  0.72515605  0.75000000  0.75590100  1.0
