# generated using pymatgen
data_Mn(Bi3O5)4
_symmetry_space_group_name_H-M   'P 1'
_cell_length_a   8.94279116
_cell_length_b   8.94279116
_cell_length_c   8.94279116
_cell_angle_alpha   109.47122063
_cell_angle_beta   109.47122063
_cell_angle_gamma   109.47122063
_symmetry_Int_Tables_number   1
_chemical_formula_structural   Mn(Bi3O5)4
_chemical_formula_sum   'Mn1 Bi12 O20'
_cell_volume   550.55077087
_cell_formula_units_Z   1
loop_
 _symmetry_equiv_pos_site_id
 _symmetry_equiv_pos_as_xyz
  1  'x, y, z'
loop_
 _atom_site_type_symbol
 _atom_site_label
 _atom_site_symmetry_multiplicity
 _atom_site_fract_x
 _atom_site_fract_y
 _atom_site_fract_z
 _atom_site_occupancy
  Mn  Mn0  1  0.00000000  0.00000000  0.00000000  1.0
  Bi  Bi1  1  0.49726076  0.34027403  0.19646208  1.0
  Bi  Bi2  1  1.14381196  1.30079869  0.80353792  1.0
  Bi  Bi3  1  0.19646208  0.49726076  0.34027403  1.0
  Bi  Bi4  1  1.15698673  0.85618804  1.65972597  1.0
  Bi  Bi5  1  0.34027403  0.19646208  0.49726076  1.0
  Bi  Bi6  1  0.69920131  0.84301327  0.50273924  1.0
  Bi  Bi7  1  0.85618804  1.65972597  1.15698673  1.0
  Bi  Bi8  1  0.50273924  0.69920131  0.84301327  1.0
  Bi  Bi9  1  0.84301327  0.50273924  0.69920131  1.0
  Bi  Bi10  1  0.80353792  1.14381196  1.30079869  1.0
  Bi  Bi11  1  1.30079869  0.80353792  1.14381196  1.0
  Bi  Bi12  1  1.65972597  1.15698673  0.85618804  1.0
  O  O13  1  0.73761037  0.62280979  0.37904815  1.0
  O  O14  1  1.24376164  1.35856222  0.62095185  1.0
  O  O15  1  0.37904815  0.73761037  0.62280979  1.0
  O  O16  1  1.11480058  0.75623836  1.37719021  1.0
  O  O17  1  0.62280979  0.37904815  0.73761037  1.0
  O  O18  1  0.64143778  0.88519942  0.26238963  1.0
  O  O19  1  0.75623836  1.37719021  1.11480058  1.0
  O  O20  1  0.26238963  0.64143778  0.88519942  1.0
  O  O21  1  0.88519942  0.26238963  0.64143778  1.0
  O  O22  1  0.62095185  1.24376164  1.35856222  1.0
  O  O23  1  1.35856222  0.62095185  1.24376164  1.0
  O  O24  1  1.37719021  1.11480058  0.75623836  1.0
  O  O25  1  0.80586028  0.80586028  0.80586028  1.0
  O  O26  1  1.00000000  1.00000000  0.19413972  1.0
  O  O27  1  1.00000000  0.19413972  1.00000000  1.0
  O  O28  1  0.19413972  1.00000000  1.00000000  1.0
  O  O29  1  0.39640393  0.39640393  0.39640393  1.0
  O  O30  1  1.00000000  1.00000000  0.60359607  1.0
  O  O31  1  1.00000000  0.60359607  1.00000000  1.0
  O  O32  1  0.60359607  1.00000000  1.00000000  1.0
