# generated using pymatgen
data_LuNiGe
_symmetry_space_group_name_H-M   'P 1'
_cell_length_a   11.20850419
_cell_length_b   11.20850419
_cell_length_c   9.16709970
_cell_angle_alpha   90.00000000
_cell_angle_beta   90.00000000
_cell_angle_gamma   158.78030234
_symmetry_Int_Tables_number   1
_chemical_formula_structural   LuNiGe
_chemical_formula_sum   'Lu8 Ni8 Ge8'
_cell_volume   416.84052918
_cell_formula_units_Z   8
loop_
 _symmetry_equiv_pos_site_id
 _symmetry_equiv_pos_as_xyz
  1  'x, y, z'
loop_
 _atom_site_type_symbol
 _atom_site_label
 _atom_site_symmetry_multiplicity
 _atom_site_fract_x
 _atom_site_fract_y
 _atom_site_fract_z
 _atom_site_occupancy
  Lu  Lu0  1  -0.41662217  1.41662217  0.44155289  1.0
  Lu  Lu1  1  -0.41662217  1.41662217  0.05844711  1.0
  Lu  Lu2  1  -0.58337783  0.58337783  0.94155289  1.0
  Lu  Lu3  1  -0.58337783  0.58337783  0.55844711  1.0
  Lu  Lu4  1  -0.27436253  1.27436253  0.25000000  1.0
  Lu  Lu5  1  -0.72563747  0.72563747  0.75000000  1.0
  Lu  Lu6  1  -0.11511437  1.11511437  0.25000000  1.0
  Lu  Lu7  1  -0.88488563  0.88488563  0.75000000  1.0
  Ni  Ni8  1  -0.81052423  0.81052423  0.48254246  1.0
  Ni  Ni9  1  -0.81052423  0.81052423  0.01745754  1.0
  Ni  Ni10  1  -0.18947577  1.18947577  0.98254246  1.0
  Ni  Ni11  1  -0.18947577  1.18947577  0.51745754  1.0
  Ni  Ni12  1  -0.97212448  0.97212448  0.25000000  1.0
  Ni  Ni13  1  -0.02787552  1.02787552  0.75000000  1.0
  Ni  Ni14  1  0.00000000  0.00000000  0.50000000  1.0
  Ni  Ni15  1  0.00000000  0.00000000  0.00000000  1.0
  Ge  Ge16  1  -0.70047661  0.70047661  0.39820731  1.0
  Ge  Ge17  1  -0.70047661  0.70047661  0.10179269  1.0
  Ge  Ge18  1  -0.29952339  1.29952339  0.89820731  1.0
  Ge  Ge19  1  -0.29952339  1.29952339  0.60179269  1.0
  Ge  Ge20  1  -0.86428124  0.86428124  0.25000000  1.0
  Ge  Ge21  1  -0.13571876  1.13571876  0.75000000  1.0
  Ge  Ge22  1  -0.52532698  0.52532698  0.25000000  1.0
  Ge  Ge23  1  -0.47467302  1.47467302  0.75000000  1.0
