# generated using pymatgen
data_EuTaO4
_symmetry_space_group_name_H-M   'P 1'
_cell_length_a   5.24505448
_cell_length_b   5.60673582
_cell_length_c   5.41400822
_cell_angle_alpha   90.00000000
_cell_angle_beta   96.69605116
_cell_angle_gamma   90.00000000
_symmetry_Int_Tables_number   1
_chemical_formula_structural   EuTaO4
_chemical_formula_sum   'Eu2 Ta2 O8'
_cell_volume   158.12713402
_cell_formula_units_Z   2
loop_
 _symmetry_equiv_pos_site_id
 _symmetry_equiv_pos_as_xyz
  1  'x, y, z'
loop_
 _atom_site_type_symbol
 _atom_site_label
 _atom_site_symmetry_multiplicity
 _atom_site_fract_x
 _atom_site_fract_y
 _atom_site_fract_z
 _atom_site_occupancy
  Eu  Eu0  1  0.50000000  0.26798926  0.25000000  1.0
  Eu  Eu1  1  0.50000000  0.73201074  0.75000000  1.0
  Ta  Ta2  1  -0.00000000  0.81267490  0.25000000  1.0
  Ta  Ta3  1  -0.00000000  0.18732510  0.75000000  1.0
  O  O4  1  0.77539176  0.93632714  0.49747480  1.0
  O  O5  1  0.77539176  0.06367286  0.99747480  1.0
  O  O6  1  0.22460824  0.93632714  0.00252520  1.0
  O  O7  1  0.22460824  0.06367286  0.50252520  1.0
  O  O8  1  0.75500434  0.59092508  0.10815285  1.0
  O  O9  1  0.75500434  0.40907492  0.60815285  1.0
  O  O10  1  0.24499566  0.59092508  0.39184715  1.0
  O  O11  1  0.24499566  0.40907492  0.89184715  1.0
