# generated using pymatgen
data_CrPO4
_symmetry_space_group_name_H-M   'P 1'
_cell_length_a   8.97559338
_cell_length_b   8.97559338
_cell_length_c   8.97559338
_cell_angle_alpha   86.49629341
_cell_angle_beta   108.20294448
_cell_angle_gamma   138.48043182
_symmetry_Int_Tables_number   1
_chemical_formula_structural   CrPO4
_chemical_formula_sum   'Cr6 P6 O24'
_cell_volume   437.85395631
_cell_formula_units_Z   6
loop_
 _symmetry_equiv_pos_site_id
 _symmetry_equiv_pos_as_xyz
  1  'x, y, z'
loop_
 _atom_site_type_symbol
 _atom_site_label
 _atom_site_symmetry_multiplicity
 _atom_site_fract_x
 _atom_site_fract_y
 _atom_site_fract_z
 _atom_site_occupancy
  Cr  Cr0  1  1.00000000  1.00000000  0.50000000  1.0
  Cr  Cr1  1  1.00000000  0.50000000  1.00000000  1.0
  Cr  Cr2  1  -0.00000000  0.11668350  0.11668350  1.0
  Cr  Cr3  1  0.50000000  0.11668350  0.61668350  1.0
  Cr  Cr4  1  0.50000000  0.88331650  0.38331650  1.0
  Cr  Cr5  1  1.00000000  0.88331650  0.88331650  1.0
  P  P6  1  1.08335196  0.83335196  1.25000000  1.0
  P  P7  1  0.91664804  0.16664804  0.75000000  1.0
  P  P8  1  1.00000000  0.67687174  0.67687174  1.0
  P  P9  1  0.50000000  0.67687174  0.17687174  1.0
  P  P10  1  0.50000000  0.32312826  0.82312826  1.0
  P  P11  1  0.00000000  0.32312826  0.32312826  1.0
  O  O12  1  1.04299811  0.39274348  0.84974536  1.0
  O  O13  1  0.95700189  0.80674725  1.34974536  1.0
  O  O14  1  0.95700189  0.60725652  1.15025464  1.0
  O  O15  1  1.04299811  1.19325275  1.65025464  1.0
  O  O16  1  1.07688881  1.20524404  0.35167066  1.0
  O  O17  1  0.64642663  0.27478186  0.85167066  1.0
  O  O18  1  0.64642663  0.79475596  0.37164477  1.0
  O  O19  1  1.07688881  0.72521814  0.87164477  1.0
  O  O20  1  1.35357337  1.20524404  0.62835523  1.0
  O  O21  1  0.92311119  0.27478186  1.12835523  1.0
  O  O22  1  0.92311119  0.79475596  0.64832934  1.0
  O  O23  1  1.35357337  0.72521814  1.14832934  1.0
  O  O24  1  0.33178645  0.41886721  0.14046244  1.0
  O  O25  1  1.22159523  0.80867599  0.64046244  1.0
  O  O26  1  0.22159523  0.58113279  0.41291924  1.0
  O  O27  1  1.33178645  1.19132401  0.91291924  1.0
  O  O28  1  0.77840477  0.41886721  0.58708076  1.0
  O  O29  1  1.66821355  0.80867599  1.08708076  1.0
  O  O30  1  0.66821355  0.58113279  0.85953756  1.0
  O  O31  1  1.77840477  1.19132401  1.35953756  1.0
  O  O32  1  1.10405655  0.97769712  1.12635943  1.0
  O  O33  1  0.64866231  0.02230288  0.62635943  1.0
  O  O34  1  1.35133769  0.97769712  1.37364057  1.0
  O  O35  1  0.89594345  0.02230288  0.87364057  1.0
