# generated using pymatgen
data_Mg2B2O5
_symmetry_space_group_name_H-M   'P 1'
_cell_length_a   9.29447931
_cell_length_b   3.15465200
_cell_length_c   12.47684254
_cell_angle_alpha   90.00000000
_cell_angle_beta   105.11982958
_cell_angle_gamma   90.00000000
_symmetry_Int_Tables_number   1
_chemical_formula_structural   Mg2B2O5
_chemical_formula_sum   'Mg8 B8 O20'
_cell_volume   353.16739386
_cell_formula_units_Z   4
loop_
 _symmetry_equiv_pos_site_id
 _symmetry_equiv_pos_as_xyz
  1  'x, y, z'
loop_
 _atom_site_type_symbol
 _atom_site_label
 _atom_site_symmetry_multiplicity
 _atom_site_fract_x
 _atom_site_fract_y
 _atom_site_fract_z
 _atom_site_occupancy
  Mg  Mg0  1  0.39784312  0.24269745  0.06331919  1.0
  Mg  Mg1  1  0.39784312  0.25730255  0.56331919  1.0
  Mg  Mg2  1  0.60215688  0.74269745  0.43668081  1.0
  Mg  Mg3  1  0.60215688  0.75730255  0.93668081  1.0
  Mg  Mg4  1  0.85385594  0.27049163  0.35581036  1.0
  Mg  Mg5  1  0.85385594  0.22950837  0.85581036  1.0
  Mg  Mg6  1  0.14614406  0.77049163  0.14418964  1.0
  Mg  Mg7  1  0.14614406  0.72950837  0.64418964  1.0
  B  B8  1  0.33108186  0.16083892  0.30982318  1.0
  B  B9  1  0.33108186  0.33916108  0.80982318  1.0
  B  B10  1  0.66891814  0.66083892  0.19017682  1.0
  B  B11  1  0.66891814  0.83916108  0.69017682  1.0
  B  B12  1  0.85640704  0.31338159  0.09061571  1.0
  B  B13  1  0.85640704  0.18661841  0.59061571  1.0
  B  B14  1  0.14359296  0.81338159  0.40938429  1.0
  B  B15  1  0.14359296  0.68661841  0.90938429  1.0
  O  O16  1  0.67933881  0.76253276  0.29791533  1.0
  O  O17  1  0.67933881  0.73746724  0.79791533  1.0
  O  O18  1  0.32066119  0.26253276  0.20208467  1.0
  O  O19  1  0.32066119  0.23746724  0.70208467  1.0
  O  O20  1  0.20211962  -0.07106467  0.31870140  1.0
  O  O21  1  0.20211962  0.57106467  0.81870140  1.0
  O  O22  1  0.79788038  0.42893533  0.18129860  1.0
  O  O23  1  0.79788038  0.07106467  0.68129860  1.0
  O  O24  1  0.00555219  0.27085564  0.11204012  1.0
  O  O25  1  0.00555219  0.22914436  0.61204012  1.0
  O  O26  1  -0.00555219  0.77085564  0.38795988  1.0
  O  O27  1  -0.00555219  0.72914436  0.88795988  1.0
  O  O28  1  0.75816700  0.24303240  0.48823038  1.0
  O  O29  1  0.75816700  0.25696760  0.98823038  1.0
  O  O30  1  0.24183300  0.74303240  0.01176962  1.0
  O  O31  1  0.24183300  0.75696760  0.51176962  1.0
  O  O32  1  0.44482151  0.24472842  0.40190947  1.0
  O  O33  1  0.44482151  0.25527158  0.90190947  1.0
  O  O34  1  0.55517849  0.74472842  0.09809053  1.0
  O  O35  1  0.55517849  0.75527158  0.59809053  1.0
