# generated using pymatgen
data_Zr5FePb3
_symmetry_space_group_name_H-M   'P 1'
_cell_length_a   8.84427774
_cell_length_b   8.84427774
_cell_length_c   5.89197683
_cell_angle_alpha   90.00000000
_cell_angle_beta   90.00000000
_cell_angle_gamma   120.00000000
_symmetry_Int_Tables_number   1
_chemical_formula_structural   Zr5FePb3
_chemical_formula_sum   'Zr10 Fe2 Pb6'
_cell_volume   399.13186972
_cell_formula_units_Z   2
loop_
 _symmetry_equiv_pos_site_id
 _symmetry_equiv_pos_as_xyz
  1  'x, y, z'
loop_
 _atom_site_type_symbol
 _atom_site_label
 _atom_site_symmetry_multiplicity
 _atom_site_fract_x
 _atom_site_fract_y
 _atom_site_fract_z
 _atom_site_occupancy
  Zr  Zr0  1  0.66666667  0.33333333  0.50000000  1.0
  Zr  Zr1  1  0.33333333  0.66666667  0.50000000  1.0
  Zr  Zr2  1  0.33333333  0.66666667  0.00000000  1.0
  Zr  Zr3  1  0.66666667  0.33333333  0.00000000  1.0
  Zr  Zr4  1  0.76372896  0.76372896  0.25000000  1.0
  Zr  Zr5  1  0.23627104  0.00000000  0.25000000  1.0
  Zr  Zr6  1  -0.00000000  0.23627104  0.25000000  1.0
  Zr  Zr7  1  0.23627104  0.23627104  0.75000000  1.0
  Zr  Zr8  1  0.76372896  0.00000000  0.75000000  1.0
  Zr  Zr9  1  0.00000000  0.76372896  0.75000000  1.0
  Fe  Fe10  1  0.00000000  0.00000000  0.50000000  1.0
  Fe  Fe11  1  0.00000000  0.00000000  0.00000000  1.0
  Pb  Pb12  1  0.40042058  0.40042058  0.25000000  1.0
  Pb  Pb13  1  0.59957942  0.00000000  0.25000000  1.0
  Pb  Pb14  1  -0.00000000  0.59957942  0.25000000  1.0
  Pb  Pb15  1  0.59957942  0.59957942  0.75000000  1.0
  Pb  Pb16  1  0.40042058  0.00000000  0.75000000  1.0
  Pb  Pb17  1  -0.00000000  0.40042058  0.75000000  1.0
