# generated using pymatgen
data_CuH8C2Br3NO
_symmetry_space_group_name_H-M   'P 1'
_cell_length_a   6.55819443
_cell_length_b   9.10838516
_cell_length_c   8.46030141
_cell_angle_alpha   69.85656563
_cell_angle_beta   75.80294173
_cell_angle_gamma   80.54307516
_symmetry_Int_Tables_number   1
_chemical_formula_structural   CuH8C2Br3NO
_chemical_formula_sum   'Cu2 H16 C4 Br6 N2 O2'
_cell_volume   458.19608859
_cell_formula_units_Z   2
loop_
 _symmetry_equiv_pos_site_id
 _symmetry_equiv_pos_as_xyz
  1  'x, y, z'
loop_
 _atom_site_type_symbol
 _atom_site_label
 _atom_site_symmetry_multiplicity
 _atom_site_fract_x
 _atom_site_fract_y
 _atom_site_fract_z
 _atom_site_occupancy
  Cu  Cu0  1  -0.74285549  -0.60160148  -0.93887501  1.0
  Cu  Cu1  1  -0.25714451  -0.39839852  -0.06112499  1.0
  H  H2  1  -0.86471369  -0.05189733  -0.19547470  1.0
  H  H3  1  -0.13528631  -0.94810267  -0.80452530  1.0
  H  H4  1  -0.61914545  -0.05827073  -0.31430388  1.0
  H  H5  1  -0.38085455  -0.94172927  -0.68569612  1.0
  H  H6  1  -0.67695311  -0.97256016  -0.15623455  1.0
  H  H7  1  -0.32304689  -0.02743984  -0.84376545  1.0
  H  H8  1  -0.32855624  -0.73658593  -0.61091397  1.0
  H  H9  1  -0.67144376  -0.26341407  -0.38908603  1.0
  H  H10  1  -0.84529493  -0.86272408  -0.47847943  1.0
  H  H11  1  -0.15470507  -0.13727592  -0.52152057  1.0
  H  H12  1  -0.92210415  -0.77508337  -0.31113685  1.0
  H  H13  1  -0.07789585  -0.22491663  -0.68886315  1.0
  H  H14  1  -0.66870694  -0.62043483  -0.54206655  1.0
  H  H15  1  -0.33129306  -0.37956517  -0.45793345  1.0
  H  H16  1  -0.55342892  -0.71013097  -0.35703373  1.0
  H  H17  1  -0.44657108  -0.28986903  -0.64296627  1.0
  C  C18  1  -0.79084060  -0.83590950  -0.37955902  1.0
  C  C19  1  -0.20915940  -0.16409050  -0.62044098  1.0
  C  C20  1  -0.60934012  -0.73339930  -0.45829492  1.0
  C  C21  1  -0.39065988  -0.26660070  -0.54170508  1.0
  Br  Br22  1  -0.08529204  -0.55436132  -0.75932155  1.0
  Br  Br23  1  -0.91470796  -0.44563868  -0.24067845  1.0
  Br  Br24  1  -0.62496978  -0.36885864  -0.90717926  1.0
  Br  Br25  1  -0.37503022  -0.63114136  -0.09282074  1.0
  Br  Br26  1  -0.78290808  -0.87789657  -0.88915656  1.0
  Br  Br27  1  -0.21709192  -0.12210343  -0.11084344  1.0
  N  N28  1  -0.73139903  -0.98927030  -0.25328679  1.0
  N  N29  1  -0.26860097  -0.01072970  -0.74671321  1.0
  O  O30  1  -0.44079014  -0.80912333  -0.55461814  1.0
  O  O31  1  -0.55920986  -0.19087667  -0.44538186  1.0
