# generated using pymatgen
data_MnZnF6
_symmetry_space_group_name_H-M   'P 1'
_cell_length_a   5.36423202
_cell_length_b   5.36423202
_cell_length_c   5.36423202
_cell_angle_alpha   57.26364882
_cell_angle_beta   57.26364882
_cell_angle_gamma   57.26364882
_symmetry_Int_Tables_number   1
_chemical_formula_structural   MnZnF6
_chemical_formula_sum   'Mn1 Zn1 F6'
_cell_volume   102.26858967
_cell_formula_units_Z   1
loop_
 _symmetry_equiv_pos_site_id
 _symmetry_equiv_pos_as_xyz
  1  'x, y, z'
loop_
 _atom_site_type_symbol
 _atom_site_label
 _atom_site_symmetry_multiplicity
 _atom_site_fract_x
 _atom_site_fract_y
 _atom_site_fract_z
 _atom_site_occupancy
  Mn  Mn0  1  0.00000000  0.00000000  0.00000000  1.0
  Zn  Zn1  1  0.50000000  0.50000000  -0.50000000  1.0
  F  F2  1  0.12584733  0.76698967  -0.65646591  1.0
  F  F3  1  0.65646591  -0.12584733  0.23301033  1.0
  F  F4  1  1.23301033  -0.34353409  -0.12584733  1.0
  F  F5  1  0.87415267  0.23301033  -0.34353409  1.0
  F  F6  1  0.34353409  0.12584733  -0.23301033  1.0
  F  F7  1  0.76698967  0.34353409  -0.87415267  1.0
