# generated using pymatgen
data_CsAuC2(SN)2
_symmetry_space_group_name_H-M   'P 1'
_cell_length_a   8.46162584
_cell_length_b   8.46162584
_cell_length_c   18.85133330
_cell_angle_alpha   69.65172260
_cell_angle_beta   110.34827740
_cell_angle_gamma   136.13253700
_symmetry_Int_Tables_number   1
_chemical_formula_structural   CsAuC2(SN)2
_chemical_formula_sum   'Cs4 Au4 C8 S8 N8'
_cell_volume   867.15404199
_cell_formula_units_Z   4
loop_
 _symmetry_equiv_pos_site_id
 _symmetry_equiv_pos_as_xyz
  1  'x, y, z'
loop_
 _atom_site_type_symbol
 _atom_site_label
 _atom_site_symmetry_multiplicity
 _atom_site_fract_x
 _atom_site_fract_y
 _atom_site_fract_z
 _atom_site_occupancy
  Cs  Cs0  1  1.32132269  -0.34984567  0.94552573  1.0
  Cs  Cs1  1  1.65015433  0.32132269  0.55447427  1.0
  Cs  Cs2  1  0.67867731  0.34984567  0.05447427  1.0
  Cs  Cs3  1  0.34984567  -0.32132269  0.44552573  1.0
  Au  Au4  1  0.85131957  0.85131957  0.75000000  1.0
  Au  Au5  1  0.14868043  0.14868043  0.25000000  1.0
  Au  Au6  1  0.34632675  0.34632675  0.75000000  1.0
  Au  Au7  1  0.65367325  0.65367325  0.25000000  1.0
  C  C8  1  1.05842500  -0.93413070  0.59358648  1.0
  C  C9  1  0.06586930  0.05842500  0.90641352  1.0
  C  C10  1  0.94157500  0.93413070  0.40641352  1.0
  C  C11  1  1.93413070  -0.05842500  0.09358648  1.0
  C  C12  1  1.24433323  -0.34808071  0.64465949  1.0
  C  C13  1  1.65191929  0.24433323  0.85534051  1.0
  C  C14  1  0.75566677  0.34808071  0.35534051  1.0
  C  C15  1  0.34808071  -0.24433323  0.14465949  1.0
  S  S16  1  1.81757935  -0.18404059  0.62717217  1.0
  S  S17  1  0.81595941  0.81757935  0.87282783  1.0
  S  S18  1  0.18242065  0.18404059  0.37282783  1.0
  S  S19  1  1.18404059  -0.81757935  0.12717217  1.0
  S  S20  1  1.17837865  -0.51071249  0.73011368  1.0
  S  S21  1  1.48928751  0.17837865  0.76988632  1.0
  S  S22  1  0.82162135  0.51071249  0.26988632  1.0
  S  S23  1  0.51071249  -0.17837865  0.23011368  1.0
  N  N24  1  1.22497002  -0.76227378  0.56660632  1.0
  N  N25  1  0.23772622  0.22497002  0.93339368  1.0
  N  N26  1  0.77502998  0.76227378  0.43339368  1.0
  N  N27  1  1.76227378  -0.22497002  0.06660632  1.0
  N  N28  1  1.27850263  -0.23651395  0.58333160  1.0
  N  N29  1  0.76348605  -0.72149737  0.91666840  1.0
  N  N30  1  0.72149737  0.23651395  0.41666840  1.0
  N  N31  1  1.23651395  0.72149737  0.08333160  1.0
