# generated using pymatgen
data_BaSi3SnO9
_symmetry_space_group_name_H-M   'P 1'
_cell_length_a   6.82297362
_cell_length_b   6.82297362
_cell_length_c   9.98207852
_cell_angle_alpha   90.00000000
_cell_angle_beta   90.00000000
_cell_angle_gamma   120.00000000
_symmetry_Int_Tables_number   1
_chemical_formula_structural   BaSi3SnO9
_chemical_formula_sum   'Ba2 Si6 Sn2 O18'
_cell_volume   402.43801423
_cell_formula_units_Z   2
loop_
 _symmetry_equiv_pos_site_id
 _symmetry_equiv_pos_as_xyz
  1  'x, y, z'
loop_
 _atom_site_type_symbol
 _atom_site_label
 _atom_site_symmetry_multiplicity
 _atom_site_fract_x
 _atom_site_fract_y
 _atom_site_fract_z
 _atom_site_occupancy
  Ba  Ba0  1  0.00000000  -0.00000000  0.50000000  1.0
  Ba  Ba1  1  -0.00000000  -0.00000000  0.00000000  1.0
  Si  Si2  1  0.60270494  0.55171787  0.25000000  1.0
  Si  Si3  1  0.60270494  0.05098707  0.75000000  1.0
  Si  Si4  1  0.94901293  0.55171787  0.75000000  1.0
  Si  Si5  1  0.94901293  0.39729506  0.25000000  1.0
  Si  Si6  1  0.44828213  0.39729506  0.75000000  1.0
  Si  Si7  1  0.44828213  0.05098707  0.25000000  1.0
  Sn  Sn8  1  0.33333333  0.66666667  0.50000000  1.0
  Sn  Sn9  1  0.33333333  0.66666667  0.00000000  1.0
  O  O10  1  0.08574545  0.40786179  0.38589963  1.0
  O  O11  1  0.08574545  0.40786179  0.11410037  1.0
  O  O12  1  0.08574545  0.67788366  0.88589963  1.0
  O  O13  1  0.08574545  0.67788366  0.61410037  1.0
  O  O14  1  0.32211634  0.40786179  0.88589963  1.0
  O  O15  1  0.32211634  0.40786179  0.61410037  1.0
  O  O16  1  0.32211634  0.91425455  0.38589963  1.0
  O  O17  1  0.32211634  0.91425455  0.11410037  1.0
  O  O18  1  0.59213821  0.91425455  0.88589963  1.0
  O  O19  1  0.59213821  0.91425455  0.61410037  1.0
  O  O20  1  0.59213821  0.67788366  0.38589963  1.0
  O  O21  1  0.59213821  0.67788366  0.11410037  1.0
  O  O22  1  0.86043788  0.58284681  0.25000000  1.0
  O  O23  1  0.86043788  0.27759107  0.75000000  1.0
  O  O24  1  0.72240893  0.58284681  0.75000000  1.0
  O  O25  1  0.72240893  0.13956212  0.25000000  1.0
  O  O26  1  0.41715319  0.13956212  0.75000000  1.0
  O  O27  1  0.41715319  0.27759107  0.25000000  1.0
