# generated using pymatgen
data_Nb5Si3
_symmetry_space_group_name_H-M   'P 1'
_cell_length_a   7.56638173
_cell_length_b   7.56638173
_cell_length_c   7.56638173
_cell_angle_alpha   128.30539643
_cell_angle_beta   128.30539643
_cell_angle_gamma   76.13081776
_symmetry_Int_Tables_number   1
_chemical_formula_structural   Nb5Si3
_chemical_formula_sum   'Nb10 Si6'
_cell_volume   259.29294857
_cell_formula_units_Z   2
loop_
 _symmetry_equiv_pos_site_id
 _symmetry_equiv_pos_as_xyz
  1  'x, y, z'
loop_
 _atom_site_type_symbol
 _atom_site_label
 _atom_site_symmetry_multiplicity
 _atom_site_fract_x
 _atom_site_fract_y
 _atom_site_fract_z
 _atom_site_occupancy
  Nb  Nb0  1  1.18469096  0.68469096  1.16760679  1.0
  Nb  Nb1  1  0.48291583  0.98291583  1.16760679  1.0
  Nb  Nb2  1  1.01708417  1.18469096  1.50000000  1.0
  Nb  Nb3  1  0.31530904  0.48291583  0.50000000  1.0
  Nb  Nb4  1  0.68469096  0.51708417  0.50000000  1.0
  Nb  Nb5  1  0.98291583  0.81530904  1.50000000  1.0
  Nb  Nb6  1  0.51708417  1.01708417  0.83239321  1.0
  Nb  Nb7  1  0.81530904  0.31530904  0.83239321  1.0
  Nb  Nb8  1  0.00000000  0.00000000  0.00000000  1.0
  Nb  Nb9  1  0.50000000  0.50000000  1.00000000  1.0
  Si  Si10  1  0.87078437  0.37078437  1.24156874  1.0
  Si  Si11  1  0.62921563  0.87078437  1.50000000  1.0
  Si  Si12  1  0.37078437  0.12921563  0.50000000  1.0
  Si  Si13  1  0.12921563  0.62921563  0.75843126  1.0
  Si  Si14  1  0.75000000  0.75000000  1.00000000  1.0
  Si  Si15  1  0.25000000  0.25000000  -0.00000000  1.0
