# generated using pymatgen
data_LaCu9Sn4
_symmetry_space_group_name_H-M   'P 1'
_cell_length_a   8.80263921
_cell_length_b   8.80263921
_cell_length_c   8.80263921
_cell_angle_alpha   117.50105034
_cell_angle_beta   117.50105034
_cell_angle_gamma   94.38570422
_symmetry_Int_Tables_number   1
_chemical_formula_structural   LaCu9Sn4
_chemical_formula_sum   'La2 Cu18 Sn8'
_cell_volume   498.94328928
_cell_formula_units_Z   2
loop_
 _symmetry_equiv_pos_site_id
 _symmetry_equiv_pos_as_xyz
  1  'x, y, z'
loop_
 _atom_site_type_symbol
 _atom_site_label
 _atom_site_symmetry_multiplicity
 _atom_site_fract_x
 _atom_site_fract_y
 _atom_site_fract_z
 _atom_site_occupancy
  La  La0  1  0.75000000  0.75000000  1.00000000  1.0
  La  La1  1  0.25000000  0.25000000  0.00000000  1.0
  Cu  Cu2  1  1.14912051  0.64912051  1.09828801  1.0
  Cu  Cu3  1  0.44916751  0.94916751  1.09828801  1.0
  Cu  Cu4  1  1.05083249  1.14912051  1.50000000  1.0
  Cu  Cu5  1  0.35087949  0.44916751  0.50000000  1.0
  Cu  Cu6  1  0.64912051  0.55083249  0.50000000  1.0
  Cu  Cu7  1  0.94916751  0.85087949  1.50000000  1.0
  Cu  Cu8  1  0.55083249  1.05083249  0.90171199  1.0
  Cu  Cu9  1  0.85087949  0.35087949  0.90171199  1.0
  Cu  Cu10  1  0.72047445  1.22047445  1.29668347  1.0
  Cu  Cu11  1  1.07620902  0.57620902  1.29668347  1.0
  Cu  Cu12  1  0.42379098  0.72047445  0.50000000  1.0
  Cu  Cu13  1  0.77952555  1.07620902  1.50000000  1.0
  Cu  Cu14  1  1.22047445  0.92379098  1.50000000  1.0
  Cu  Cu15  1  0.57620902  0.27952555  0.50000000  1.0
  Cu  Cu16  1  0.92379098  0.42379098  0.70331653  1.0
  Cu  Cu17  1  0.27952555  0.77952555  0.70331653  1.0
  Cu  Cu18  1  0.50000000  0.00000000  0.50000000  1.0
  Cu  Cu19  1  0.00000000  0.50000000  0.50000000  1.0
  Sn  Sn20  1  0.77933230  0.96567593  1.74500823  1.0
  Sn  Sn21  1  0.72066770  0.46567593  1.18634364  1.0
  Sn  Sn22  1  0.46567593  0.27933230  0.74500823  1.0
  Sn  Sn23  1  0.03432407  0.77933230  0.81365636  1.0
  Sn  Sn24  1  0.27933230  0.53432407  0.81365636  1.0
  Sn  Sn25  1  0.22066770  0.03432407  0.25499177  1.0
  Sn  Sn26  1  0.96567593  0.22066770  1.18634364  1.0
  Sn  Sn27  1  0.53432407  0.72066770  1.25499177  1.0
