# generated using pymatgen
data_ZnN6
_symmetry_space_group_name_H-M   'P 1'
_cell_length_a   6.31372569
_cell_length_b   7.17779493
_cell_length_c   5.75667973
_cell_angle_alpha   89.97717418
_cell_angle_beta   62.87588498
_cell_angle_gamma   112.24907402
_symmetry_Int_Tables_number   1
_chemical_formula_structural   ZnN6
_chemical_formula_sum   'Zn2 N12'
_cell_volume   210.11130559
_cell_formula_units_Z   2
loop_
 _symmetry_equiv_pos_site_id
 _symmetry_equiv_pos_as_xyz
  1  'x, y, z'
loop_
 _atom_site_type_symbol
 _atom_site_label
 _atom_site_symmetry_multiplicity
 _atom_site_fract_x
 _atom_site_fract_y
 _atom_site_fract_z
 _atom_site_occupancy
  Zn  Zn0  1  0.71592553  0.56996540  -0.02304297  1.0
  Zn  Zn1  1  0.28376132  0.42995868  -0.30710703  1.0
  N  N2  1  0.45034790  0.36279461  -0.09874265  1.0
  N  N3  1  0.54957057  0.63735260  -0.64835109  1.0
  N  N4  1  0.39213587  0.17900217  -0.04405662  1.0
  N  N5  1  0.60796934  0.82116603  -0.65210124  1.0
  N  N6  1  0.33348841  1.00620009  -0.99540025  1.0
  N  N7  1  0.66679944  -0.00601168  -0.66229204  1.0
  N  N8  1  -0.00010980  0.49993611  -0.02576206  1.0
  N  N9  1  -0.00010831  0.49985890  -0.81238698  1.0
  N  N10  1  -0.00014143  0.49979095  -0.61382330  1.0
  N  N11  1  0.83416059  0.83136551  -0.25982088  1.0
  N  N12  1  0.00010520  -0.00000645  -0.33333846  1.0
  N  N13  1  0.16609537  0.16862708  -0.42563443  1.0
