# generated using pymatgen
data_Al2HgSe4
_symmetry_space_group_name_H-M   'P 1'
_cell_length_a   6.85334389
_cell_length_b   6.85334389
_cell_length_c   6.85334389
_cell_angle_alpha   129.35923455
_cell_angle_beta   129.35923455
_cell_angle_gamma   74.43323289
_symmetry_Int_Tables_number   1
_chemical_formula_structural   Al2HgSe4
_chemical_formula_sum   'Al2 Hg1 Se4'
_cell_volume   187.54729851
_cell_formula_units_Z   1
loop_
 _symmetry_equiv_pos_site_id
 _symmetry_equiv_pos_as_xyz
  1  'x, y, z'
loop_
 _atom_site_type_symbol
 _atom_site_label
 _atom_site_symmetry_multiplicity
 _atom_site_fract_x
 _atom_site_fract_y
 _atom_site_fract_z
 _atom_site_occupancy
  Al  Al0  1  0.25000000  0.75000000  0.50000000  1.0
  Al  Al1  1  0.00000000  0.00000000  0.00000000  1.0
  Hg  Hg2  1  0.50000000  0.50000000  1.00000000  1.0
  Se  Se3  1  0.36985804  0.91112928  1.00458854  1.0
  Se  Se4  1  1.08887072  1.09345926  1.45872876  1.0
  Se  Se5  1  0.90654074  0.36526950  0.99541146  1.0
  Se  Se6  1  0.63473050  0.63014196  0.54127124  1.0
