# generated using pymatgen
data_Al2Ru
_symmetry_space_group_name_H-M   'P 1'
_cell_length_a   5.97462401
_cell_length_b   5.01087885
_cell_length_c   4.66944963
_cell_angle_alpha   76.13178167
_cell_angle_beta   54.51280926
_cell_angle_gamma   49.35540907
_symmetry_Int_Tables_number   1
_chemical_formula_structural   Al2Ru
_chemical_formula_sum   'Al4 Ru2'
_cell_volume   84.17165311
_cell_formula_units_Z   2
loop_
 _symmetry_equiv_pos_site_id
 _symmetry_equiv_pos_as_xyz
  1  'x, y, z'
loop_
 _atom_site_type_symbol
 _atom_site_label
 _atom_site_symmetry_multiplicity
 _atom_site_fract_x
 _atom_site_fract_y
 _atom_site_fract_z
 _atom_site_occupancy
  Al  Al0  1  0.07901935  1.42098065  0.07901935  1.0
  Al  Al1  1  0.42098065  1.07901935  0.42098065  1.0
  Al  Al2  1  0.17098065  -0.17098065  1.17098065  1.0
  Al  Al3  1  -0.17098065  0.17098065  0.82901935  1.0
  Ru  Ru4  1  0.75000000  0.75000000  0.75000000  1.0
  Ru  Ru5  1  -0.50000000  0.50000000  0.50000000  1.0
