# generated using pymatgen
data_Rb2Mo3O10
_symmetry_space_group_name_H-M   'P 1'
_cell_length_a   8.42452226
_cell_length_b   8.42452226
_cell_length_c   9.28912610
_cell_angle_alpha   83.20830540
_cell_angle_beta   96.79169460
_cell_angle_gamma   119.57976642
_symmetry_Int_Tables_number   1
_chemical_formula_structural   Rb2Mo3O10
_chemical_formula_sum   'Rb4 Mo6 O20'
_cell_volume   567.95581990
_cell_formula_units_Z   2
loop_
 _symmetry_equiv_pos_site_id
 _symmetry_equiv_pos_as_xyz
  1  'x, y, z'
loop_
 _atom_site_type_symbol
 _atom_site_label
 _atom_site_symmetry_multiplicity
 _atom_site_fract_x
 _atom_site_fract_y
 _atom_site_fract_z
 _atom_site_occupancy
  Rb  Rb0  1  0.58962235  0.22897539  0.66091262  1.0
  Rb  Rb1  1  0.77102461  0.41037765  0.16091262  1.0
  Rb  Rb2  1  1.22897539  0.58962235  0.83908738  1.0
  Rb  Rb3  1  0.41037765  -0.22897539  0.33908738  1.0
  Mo  Mo4  1  0.82270511  0.03253848  0.98020516  1.0
  Mo  Mo5  1  0.96746152  0.17729489  0.48020516  1.0
  Mo  Mo6  1  1.03253848  0.82270511  0.51979484  1.0
  Mo  Mo7  1  0.17729489  -0.03253848  0.01979484  1.0
  Mo  Mo8  1  0.71795877  0.71795877  0.75000000  1.0
  Mo  Mo9  1  0.28204123  0.28204123  0.25000000  1.0
  O  O10  1  0.89644750  -0.05375343  0.59187423  1.0
  O  O11  1  1.05375343  0.10355250  0.09187423  1.0
  O  O12  1  0.94624657  0.89644750  0.90812577  1.0
  O  O13  1  0.10355250  0.05375343  0.40812577  1.0
  O  O14  1  0.53949208  -0.35632610  0.61756836  1.0
  O  O15  1  1.35632610  0.46050792  0.11756836  1.0
  O  O16  1  0.64367390  0.53949208  0.88243164  1.0
  O  O17  1  0.46050792  0.35632610  0.38243164  1.0
  O  O18  1  0.66317606  -0.10555520  0.82138170  1.0
  O  O19  1  1.10555520  0.33682394  0.32138170  1.0
  O  O20  1  0.89444480  0.66317606  0.67861830  1.0
  O  O21  1  0.33682394  0.10555520  0.17861830  1.0
  O  O22  1  0.75061200  0.14748086  0.42322638  1.0
  O  O23  1  0.85251914  0.24938800  0.92322638  1.0
  O  O24  1  1.14748086  0.75061200  0.07677362  1.0
  O  O25  1  0.24938800  -0.14748086  0.57677362  1.0
  O  O26  1  0.32418872  0.05568807  0.88162753  1.0
  O  O27  1  0.94431193  0.67581128  0.38162753  1.0
  O  O28  1  1.05568807  0.32418872  0.61837247  1.0
  O  O29  1  0.67581128  -0.05568807  0.11837247  1.0
