# generated using pymatgen
data_GdCdPd
_symmetry_space_group_name_H-M   'P 1'
_cell_length_a   7.67270444
_cell_length_b   7.67270444
_cell_length_c   3.97337358
_cell_angle_alpha   90.00000000
_cell_angle_beta   90.00000000
_cell_angle_gamma   120.00000000
_symmetry_Int_Tables_number   1
_chemical_formula_structural   GdCdPd
_chemical_formula_sum   'Gd3 Cd3 Pd3'
_cell_volume   202.57552333
_cell_formula_units_Z   3
loop_
 _symmetry_equiv_pos_site_id
 _symmetry_equiv_pos_as_xyz
  1  'x, y, z'
loop_
 _atom_site_type_symbol
 _atom_site_label
 _atom_site_symmetry_multiplicity
 _atom_site_fract_x
 _atom_site_fract_y
 _atom_site_fract_z
 _atom_site_occupancy
  Gd  Gd0  1  0.40455075  0.40455075  0.00000000  1.0
  Gd  Gd1  1  -0.00000000  0.59544925  0.00000000  1.0
  Gd  Gd2  1  0.59544925  0.00000000  0.00000000  1.0
  Cd  Cd3  1  0.74369532  0.74369532  0.50000000  1.0
  Cd  Cd4  1  0.00000000  0.25630468  0.50000000  1.0
  Cd  Cd5  1  0.25630468  0.00000000  0.50000000  1.0
  Pd  Pd6  1  0.33333333  0.66666667  0.50000000  1.0
  Pd  Pd7  1  0.66666667  0.33333333  0.50000000  1.0
  Pd  Pd8  1  0.00000000  0.00000000  0.00000000  1.0
