# generated using pymatgen
data_SnO2
_symmetry_space_group_name_H-M   'P 1'
_cell_length_a   5.81476157
_cell_length_b   4.83142743
_cell_length_c   5.81459716
_cell_angle_alpha   90.00000000
_cell_angle_beta   112.23633078
_cell_angle_gamma   90.00000000
_symmetry_Int_Tables_number   1
_chemical_formula_structural   SnO2
_chemical_formula_sum   'Sn4 O8'
_cell_volume   151.20453128
_cell_formula_units_Z   4
loop_
 _symmetry_equiv_pos_site_id
 _symmetry_equiv_pos_as_xyz
  1  'x, y, z'
loop_
 _atom_site_type_symbol
 _atom_site_label
 _atom_site_symmetry_multiplicity
 _atom_site_fract_x
 _atom_site_fract_y
 _atom_site_fract_z
 _atom_site_occupancy
  Sn  Sn0  1  0.00000000  0.50000000  0.50000000  1.0
  Sn  Sn1  1  -0.00000000  0.00000000  -0.00000000  1.0
  Sn  Sn2  1  0.50000000  0.00000000  0.50000000  1.0
  Sn  Sn3  1  0.50000000  0.50000000  -0.00000000  1.0
  O  O4  1  0.34698191  0.30712362  0.65302695  1.0
  O  O5  1  0.65301809  0.80712362  0.84697305  1.0
  O  O6  1  0.65301809  0.69287638  0.34697305  1.0
  O  O7  1  0.34698191  0.19287638  0.15302695  1.0
  O  O8  1  0.84698403  0.30711718  0.15301761  1.0
  O  O9  1  0.15301597  0.80711718  0.34698239  1.0
  O  O10  1  0.15301597  0.69288282  0.84698239  1.0
  O  O11  1  0.84698403  0.19288282  0.65301761  1.0
