# generated using pymatgen
data_MnH12C2(NCl2)2
_symmetry_space_group_name_H-M   'P 1'
_cell_length_a   10.69269526
_cell_length_b   10.69269526
_cell_length_c   7.30400738
_cell_angle_alpha   90.00000000
_cell_angle_beta   90.00000000
_cell_angle_gamma   139.40399719
_symmetry_Int_Tables_number   1
_chemical_formula_structural   MnH12C2(NCl2)2
_chemical_formula_sum   'Mn2 H24 C4 N4 Cl8'
_cell_volume   543.41368297
_cell_formula_units_Z   2
loop_
 _symmetry_equiv_pos_site_id
 _symmetry_equiv_pos_as_xyz
  1  'x, y, z'
loop_
 _atom_site_type_symbol
 _atom_site_label
 _atom_site_symmetry_multiplicity
 _atom_site_fract_x
 _atom_site_fract_y
 _atom_site_fract_z
 _atom_site_occupancy
  Mn  Mn0  1  0.50000000  0.50000000  0.50000000  1.0
  Mn  Mn1  1  0.00000000  0.00000000  0.00000000  1.0
  H  H2  1  -0.10920233  1.10920233  0.65644464  1.0
  H  H3  1  -0.89079767  0.89079767  0.34355536  1.0
  H  H4  1  -0.39079767  1.39079767  0.15644464  1.0
  H  H5  1  -0.60920233  0.60920233  0.84355536  1.0
  H  H6  1  0.02573124  1.19729970  0.46375687  1.0
  H  H7  1  -0.80270030  1.02573124  0.53624313  1.0
  H  H8  1  -0.30270030  1.52573124  0.96375687  1.0
  H  H9  1  -0.47426876  0.69729970  0.03624313  1.0
  H  H10  1  -0.02573124  1.80270030  0.53624313  1.0
  H  H11  1  -0.19729970  0.97426876  0.46375687  1.0
  H  H12  1  0.30270030  1.47426876  0.03624313  1.0
  H  H13  1  -0.52573124  1.30270030  0.96375687  1.0
  H  H14  1  -0.18167401  1.18167401  0.29833373  1.0
  H  H15  1  -0.81832599  0.81832599  0.70166627  1.0
  H  H16  1  -0.31832599  1.31832599  0.79833373  1.0
  H  H17  1  -0.68167401  0.68167401  0.20166627  1.0
  H  H18  1  -0.08549904  1.32713230  0.50037589  1.0
  H  H19  1  -0.67286770  0.91450096  0.49962411  1.0
  H  H20  1  -0.17286770  1.41450096  0.00037589  1.0
  H  H21  1  -0.58549904  0.82713230  0.99962411  1.0
  H  H22  1  0.08549904  1.67286770  0.49962411  1.0
  H  H23  1  -0.32713230  1.08549904  0.50037589  1.0
  H  H24  1  0.17286770  1.58549904  0.99962411  1.0
  H  H25  1  -0.41450096  1.17286770  0.00037589  1.0
  C  C26  1  -0.18149668  1.18149668  0.44827622  1.0
  C  C27  1  -0.81850332  0.81850332  0.55172378  1.0
  C  C28  1  -0.31850332  1.31850332  0.94827622  1.0
  C  C29  1  -0.68149668  0.68149668  0.05172378  1.0
  N  N30  1  -0.11134068  1.11134068  0.51296132  1.0
  N  N31  1  -0.88865932  0.88865932  0.48703868  1.0
  N  N32  1  -0.38865932  1.38865932  0.01296132  1.0
  N  N33  1  -0.61134068  0.61134068  0.98703868  1.0
  Cl  Cl34  1  -0.26690304  0.76690304  0.25000000  1.0
  Cl  Cl35  1  -0.23309696  1.73309696  0.75000000  1.0
  Cl  Cl36  1  -0.73309696  1.23309696  0.75000000  1.0
  Cl  Cl37  1  0.23309696  1.26690304  0.25000000  1.0
  Cl  Cl38  1  -0.37876383  1.37876383  0.44673069  1.0
  Cl  Cl39  1  -0.62123617  0.62123617  0.55326931  1.0
  Cl  Cl40  1  -0.12123617  1.12123617  0.94673069  1.0
  Cl  Cl41  1  -0.87876383  0.87876383  0.05326931  1.0
