# generated using pymatgen
data_Na8Ce(SiO3)6
_symmetry_space_group_name_H-M   'P 1'
_cell_length_a   7.60024076
_cell_length_b   7.60024076
_cell_length_c   7.60024076
_cell_angle_alpha   88.46812989
_cell_angle_beta   88.46812989
_cell_angle_gamma   88.46812989
_symmetry_Int_Tables_number   1
_chemical_formula_structural   Na8Ce(SiO3)6
_chemical_formula_sum   'Na8 Ce1 Si6 O18'
_cell_volume   438.55524672
_cell_formula_units_Z   1
loop_
 _symmetry_equiv_pos_site_id
 _symmetry_equiv_pos_as_xyz
  1  'x, y, z'
loop_
 _atom_site_type_symbol
 _atom_site_label
 _atom_site_symmetry_multiplicity
 _atom_site_fract_x
 _atom_site_fract_y
 _atom_site_fract_z
 _atom_site_occupancy
  Na  Na0  1  0.50000000  1.00000000  -0.50000000  1.0
  Na  Na1  1  0.50000000  -0.50000000  0.00000000  1.0
  Na  Na2  1  0.00000000  0.50000000  -0.50000000  1.0
  Na  Na3  1  1.00000000  1.50000000  0.00000000  1.0
  Na  Na4  1  1.00000000  0.00000000  -0.50000000  1.0
  Na  Na5  1  0.50000000  0.00000000  0.00000000  1.0
  Na  Na6  1  0.74737001  0.74737001  -0.25262999  1.0
  Na  Na7  1  1.25262999  1.25262999  0.25262999  1.0
  Ce  Ce8  1  0.00000000  0.00000000  0.00000000  1.0
  Si  Si9  1  0.28390635  0.28390635  -0.26772442  1.0
  Si  Si10  1  0.28390635  0.73227558  -0.71609365  1.0
  Si  Si11  1  0.26772442  0.71609365  -0.28390635  1.0
  Si  Si12  1  0.71609365  0.26772442  -0.28390635  1.0
  Si  Si13  1  0.71609365  0.71609365  -0.73227558  1.0
  Si  Si14  1  0.73227558  0.28390635  -0.71609365  1.0
  O  O15  1  1.21224470  1.21224470  0.55283546  1.0
  O  O16  1  1.21224470  1.55283546  0.21224470  1.0
  O  O17  1  0.44716454  0.78775530  -0.21224470  1.0
  O  O18  1  0.78775530  0.44716454  -0.21224470  1.0
  O  O19  1  0.78775530  0.78775530  -0.55283546  1.0
  O  O20  1  1.55283546  1.21224470  0.21224470  1.0
  O  O21  1  0.20060783  0.20060783  -0.08340790  1.0
  O  O22  1  0.20060783  0.91659210  -0.79939217  1.0
  O  O23  1  1.08340790  -0.20060783  -0.20060783  1.0
  O  O24  1  0.79939217  0.08340790  -0.20060783  1.0
  O  O25  1  0.79939217  -0.20060783  0.08340790  1.0
  O  O26  1  0.91659210  0.20060783  -0.79939217  1.0
  O  O27  1  0.24854414  0.50000000  -0.24854414  1.0
  O  O28  1  0.24854414  0.75145586  -0.50000000  1.0
  O  O29  1  0.50000000  0.24854414  -0.24854414  1.0
  O  O30  1  0.50000000  0.75145586  -0.75145586  1.0
  O  O31  1  0.75145586  0.50000000  -0.75145586  1.0
  O  O32  1  0.75145586  0.24854414  -0.50000000  1.0
