# generated using pymatgen
data_TiPt3
_symmetry_space_group_name_H-M   'P 1'
_cell_length_a   5.58116728
_cell_length_b   5.58116728
_cell_length_c   15.93127053
_cell_angle_alpha   90.00000000
_cell_angle_beta   90.00000000
_cell_angle_gamma   120.00000000
_symmetry_Int_Tables_number   1
_chemical_formula_structural   TiPt3
_chemical_formula_sum   'Ti7 Pt21'
_cell_volume   429.76507858
_cell_formula_units_Z   7
loop_
 _symmetry_equiv_pos_site_id
 _symmetry_equiv_pos_as_xyz
  1  'x, y, z'
loop_
 _atom_site_type_symbol
 _atom_site_label
 _atom_site_symmetry_multiplicity
 _atom_site_fract_x
 _atom_site_fract_y
 _atom_site_fract_z
 _atom_site_occupancy
  Ti  Ti0  1  0.33333333  0.66666667  0.56999275  1.0
  Ti  Ti1  1  0.66666667  0.33333333  0.43000725  1.0
  Ti  Ti2  1  -0.00000000  -0.00000000  -0.00000000  1.0
  Ti  Ti3  1  0.33333333  0.66666667  0.14359960  1.0
  Ti  Ti4  1  0.66666667  0.33333333  0.85640040  1.0
  Ti  Ti5  1  -0.00000000  -0.00000000  0.28016045  1.0
  Ti  Ti6  1  0.00000000  0.00000000  0.71983955  1.0
  Pt  Pt7  1  0.16668368  0.83331632  0.85705069  1.0
  Pt  Pt8  1  0.16668368  0.33336735  0.85705069  1.0
  Pt  Pt9  1  0.66663265  0.83331632  0.85705069  1.0
  Pt  Pt10  1  0.83331632  0.16668368  0.14294931  1.0
  Pt  Pt11  1  0.83331632  0.66663265  0.14294931  1.0
  Pt  Pt12  1  0.33336735  0.16668368  0.14294931  1.0
  Pt  Pt13  1  0.50000000  -0.00000000  -0.00000000  1.0
  Pt  Pt14  1  0.00000000  0.50000000  0.00000000  1.0
  Pt  Pt15  1  0.50000000  0.50000000  -0.00000000  1.0
  Pt  Pt16  1  0.16677284  0.83322716  0.42885195  1.0
  Pt  Pt17  1  0.16677284  0.33354568  0.42885195  1.0
  Pt  Pt18  1  0.66645432  0.83322716  0.42885195  1.0
  Pt  Pt19  1  0.83322716  0.16677284  0.57114805  1.0
  Pt  Pt20  1  0.83322716  0.66645432  0.57114805  1.0
  Pt  Pt21  1  0.33354568  0.16677284  0.57114805  1.0
  Pt  Pt22  1  0.49960141  0.50039859  0.28639207  1.0
  Pt  Pt23  1  0.49960141  -0.00079717  0.28639207  1.0
  Pt  Pt24  1  0.00079717  0.50039859  0.28639207  1.0
  Pt  Pt25  1  0.50039859  0.49960141  0.71360793  1.0
  Pt  Pt26  1  0.50039859  0.00079717  0.71360793  1.0
  Pt  Pt27  1  -0.00079717  0.49960141  0.71360793  1.0
