# generated using pymatgen
data_TiAs2
_symmetry_space_group_name_H-M   'P 1'
_cell_length_a   8.97171807
_cell_length_b   13.29586180
_cell_length_c   3.50577315
_cell_angle_alpha   90.00000000
_cell_angle_beta   90.00000000
_cell_angle_gamma   90.00000000
_symmetry_Int_Tables_number   1
_chemical_formula_structural   TiAs2
_chemical_formula_sum   'Ti8 As16'
_cell_volume   418.19219210
_cell_formula_units_Z   8
loop_
 _symmetry_equiv_pos_site_id
 _symmetry_equiv_pos_as_xyz
  1  'x, y, z'
loop_
 _atom_site_type_symbol
 _atom_site_label
 _atom_site_symmetry_multiplicity
 _atom_site_fract_x
 _atom_site_fract_y
 _atom_site_fract_z
 _atom_site_occupancy
  Ti  Ti0  1  0.48174460  0.75269102  0.50000000  1.0
  Ti  Ti1  1  0.98174460  0.74730898  0.00000000  1.0
  Ti  Ti2  1  0.51825540  0.24730898  0.50000000  1.0
  Ti  Ti3  1  0.01825540  0.25269102  0.00000000  1.0
  Ti  Ti4  1  0.32814822  0.00696047  0.50000000  1.0
  Ti  Ti5  1  0.82814822  0.49303953  0.00000000  1.0
  Ti  Ti6  1  0.67185178  0.99303953  0.50000000  1.0
  Ti  Ti7  1  0.17185178  0.50696047  0.00000000  1.0
  As  As8  1  0.38531429  0.55816622  0.50000000  1.0
  As  As9  1  0.88531429  0.94183378  0.00000000  1.0
  As  As10  1  0.61468571  0.44183378  0.50000000  1.0
  As  As11  1  0.11468571  0.05816622  0.00000000  1.0
  As  As12  1  0.22536332  0.19794370  0.50000000  1.0
  As  As13  1  0.72536332  0.30205630  0.00000000  1.0
  As  As14  1  0.77463668  0.80205630  0.50000000  1.0
  As  As15  1  0.27463668  0.69794370  0.00000000  1.0
  As  As16  1  0.16538373  0.83836969  0.50000000  1.0
  As  As17  1  0.66538373  0.66163031  0.00000000  1.0
  As  As18  1  0.83461627  0.16163031  0.50000000  1.0
  As  As19  1  0.33461627  0.33836969  0.00000000  1.0
  As  As20  1  0.98870324  0.60028124  0.50000000  1.0
  As  As21  1  0.48870324  0.89971876  0.00000000  1.0
  As  As22  1  0.01129676  0.39971876  0.50000000  1.0
  As  As23  1  0.51129676  0.10028124  0.00000000  1.0
