# generated using pymatgen
data_Cu6PS5Br
_symmetry_space_group_name_H-M   'P 1'
_cell_length_a   6.85129244
_cell_length_b   6.85129244
_cell_length_c   11.98694609
_cell_angle_alpha   73.38893545
_cell_angle_beta   106.61106455
_cell_angle_gamma   120.00108396
_symmetry_Int_Tables_number   1
_chemical_formula_structural   Cu6PS5Br
_chemical_formula_sum   'Cu12 P2 S10 Br2'
_cell_volume   459.96751978
_cell_formula_units_Z   2
loop_
 _symmetry_equiv_pos_site_id
 _symmetry_equiv_pos_as_xyz
  1  'x, y, z'
loop_
 _atom_site_type_symbol
 _atom_site_label
 _atom_site_symmetry_multiplicity
 _atom_site_fract_x
 _atom_site_fract_y
 _atom_site_fract_z
 _atom_site_occupancy
  Cu  Cu0  1  0.99008647  0.97779152  0.50251083  1.0
  Cu  Cu1  1  0.02220848  0.00991353  0.00251083  1.0
  Cu  Cu2  1  1.71416515  0.14789611  0.22574202  1.0
  Cu  Cu3  1  0.85210389  0.28583485  0.72574202  1.0
  Cu  Cu4  1  0.48946160  0.04610699  1.00250467  1.0
  Cu  Cu5  1  0.95389301  0.51053840  0.50250467  1.0
  Cu  Cu6  1  1.12280848  -0.21445740  0.22577010  1.0
  Cu  Cu7  1  0.21445740  -0.12280848  0.72577010  1.0
  Cu  Cu8  1  1.45301525  -0.52305408  0.00223554  1.0
  Cu  Cu9  1  1.52305408  -0.45301525  0.50223554  1.0
  Cu  Cu10  1  1.35158726  -0.62319745  0.22563140  1.0
  Cu  Cu11  1  1.62319745  -0.35158726  0.72563140  1.0
  P  P12  1  0.48417299  0.01630258  0.48846381  1.0
  P  P13  1  0.98369742  0.51582701  0.98846381  1.0
  S  S14  1  1.79149041  0.18499971  0.42468916  1.0
  S  S15  1  0.81500029  0.20850959  0.92468916  1.0
  S  S16  1  1.28176060  -0.29103183  0.42466500  1.0
  S  S17  1  0.29103183  -0.28176060  0.92466500  1.0
  S  S18  1  1.36321127  0.13639021  0.12682568  1.0
  S  S19  1  0.86360979  0.63678873  0.62682568  1.0
  S  S20  1  0.31550335  0.21874045  0.42465917  1.0
  S  S21  1  0.78125955  0.68449665  0.92465917  1.0
  S  S22  1  1.04543577  -0.54573378  0.17343235  1.0
  S  S23  1  0.54573378  -0.04543577  0.67343235  1.0
  Br  Br24  1  1.73394681  -0.23410760  0.23887028  1.0
  Br  Br25  1  1.23410760  -0.73394681  0.73887028  1.0
