# generated using pymatgen
data_La5Pb4
_symmetry_space_group_name_H-M   'P 1'
_cell_length_a   8.65712429
_cell_length_b   16.50736572
_cell_length_c   8.75307602
_cell_angle_alpha   90.00000000
_cell_angle_beta   90.00000000
_cell_angle_gamma   90.00000000
_symmetry_Int_Tables_number   1
_chemical_formula_structural   La5Pb4
_chemical_formula_sum   'La20 Pb16'
_cell_volume   1250.86985361
_cell_formula_units_Z   4
loop_
 _symmetry_equiv_pos_site_id
 _symmetry_equiv_pos_as_xyz
  1  'x, y, z'
loop_
 _atom_site_type_symbol
 _atom_site_label
 _atom_site_symmetry_multiplicity
 _atom_site_fract_x
 _atom_site_fract_y
 _atom_site_fract_z
 _atom_site_occupancy
  La  La0  1  0.28617298  0.25000000  0.50392155  1.0
  La  La1  1  0.78617298  0.25000000  0.99607845  1.0
  La  La2  1  0.71382702  0.75000000  0.49607845  1.0
  La  La3  1  0.21382702  0.75000000  0.00392155  1.0
  La  La4  1  0.46796517  0.39855016  0.17851511  1.0
  La  La5  1  0.46796517  0.10144984  0.17851511  1.0
  La  La6  1  0.96796517  0.39855016  0.32148489  1.0
  La  La7  1  0.96796517  0.10144984  0.32148489  1.0
  La  La8  1  0.53203483  0.89855016  0.82148489  1.0
  La  La9  1  0.53203483  0.60144984  0.82148489  1.0
  La  La10  1  0.03203483  0.89855016  0.67851511  1.0
  La  La11  1  0.03203483  0.60144984  0.67851511  1.0
  La  La12  1  0.11773768  0.38304856  0.84133926  1.0
  La  La13  1  0.11773768  0.11695144  0.84133926  1.0
  La  La14  1  0.61773768  0.38304856  0.65866074  1.0
  La  La15  1  0.61773768  0.11695144  0.65866074  1.0
  La  La16  1  0.88226232  0.88304856  0.15866074  1.0
  La  La17  1  0.88226232  0.61695144  0.15866074  1.0
  La  La18  1  0.38226232  0.88304856  0.34133926  1.0
  La  La19  1  0.38226232  0.61695144  0.34133926  1.0
  Pb  Pb20  1  0.27700209  0.45609143  0.53138929  1.0
  Pb  Pb21  1  0.27700209  0.04390857  0.53138929  1.0
  Pb  Pb22  1  0.77700209  0.45609143  0.96861071  1.0
  Pb  Pb23  1  0.77700209  0.04390857  0.96861071  1.0
  Pb  Pb24  1  0.72299791  0.95609143  0.46861071  1.0
  Pb  Pb25  1  0.72299791  0.54390857  0.46861071  1.0
  Pb  Pb26  1  0.22299791  0.95609143  0.03138929  1.0
  Pb  Pb27  1  0.22299791  0.54390857  0.03138929  1.0
  Pb  Pb28  1  0.41893869  0.25000000  0.88038554  1.0
  Pb  Pb29  1  0.91893869  0.25000000  0.61961446  1.0
  Pb  Pb30  1  0.58106131  0.75000000  0.11961446  1.0
  Pb  Pb31  1  0.08106131  0.75000000  0.38038554  1.0
  Pb  Pb32  1  0.16138124  0.25000000  0.14402874  1.0
  Pb  Pb33  1  0.66138124  0.25000000  0.35597126  1.0
  Pb  Pb34  1  0.83861876  0.75000000  0.85597126  1.0
  Pb  Pb35  1  0.33861876  0.75000000  0.64402874  1.0
