# generated using pymatgen
data_Nb4GaS8
_symmetry_space_group_name_H-M   'P 1'
_cell_length_a   7.11835287
_cell_length_b   7.11835287
_cell_length_c   7.11835287
_cell_angle_alpha   60.00000000
_cell_angle_beta   60.00000000
_cell_angle_gamma   60.00000000
_symmetry_Int_Tables_number   1
_chemical_formula_structural   Nb4GaS8
_chemical_formula_sum   'Nb4 Ga1 S8'
_cell_volume   255.04895090
_cell_formula_units_Z   1
loop_
 _symmetry_equiv_pos_site_id
 _symmetry_equiv_pos_as_xyz
  1  'x, y, z'
loop_
 _atom_site_type_symbol
 _atom_site_label
 _atom_site_symmetry_multiplicity
 _atom_site_fract_x
 _atom_site_fract_y
 _atom_site_fract_z
 _atom_site_occupancy
  Nb  Nb0  1  -0.39478402  0.60521598  0.60521598  1.0
  Nb  Nb1  1  1.18435205  0.60521598  -0.39478402  1.0
  Nb  Nb2  1  -0.39478402  0.60521598  1.18435205  1.0
  Nb  Nb3  1  0.60521598  1.18435205  -0.39478402  1.0
  Ga  Ga4  1  0.00000000  0.00000000  0.00000000  1.0
  S  S5  1  0.86652980  0.86652980  -0.13347020  1.0
  S  S6  1  0.40041060  0.86652980  -0.13347020  1.0
  S  S7  1  0.86652980  0.86652980  -0.59958940  1.0
  S  S8  1  0.86652980  0.40041060  -0.13347020  1.0
  S  S9  1  0.36814503  1.36814503  0.36814503  1.0
  S  S10  1  -0.10443509  0.36814503  0.36814503  1.0
  S  S11  1  0.36814503  1.36814503  -0.10443509  1.0
  S  S12  1  0.36814503  -0.10443509  0.36814503  1.0
