# generated using pymatgen
data_CaSnP6(HO)12
_symmetry_space_group_name_H-M   'P 1'
_cell_length_a   7.86022955
_cell_length_b   7.86022955
_cell_length_c   7.86022955
_cell_angle_alpha   103.15988633
_cell_angle_beta   103.15988633
_cell_angle_gamma   103.15988633
_symmetry_Int_Tables_number   1
_chemical_formula_structural   CaSnP6(HO)12
_chemical_formula_sum   'Ca1 Sn1 P6 H12 O12'
_cell_volume   439.99772192
_cell_formula_units_Z   1
loop_
 _symmetry_equiv_pos_site_id
 _symmetry_equiv_pos_as_xyz
  1  'x, y, z'
loop_
 _atom_site_type_symbol
 _atom_site_label
 _atom_site_symmetry_multiplicity
 _atom_site_fract_x
 _atom_site_fract_y
 _atom_site_fract_z
 _atom_site_occupancy
  Ca  Ca0  1  0.50000000  0.50000000  0.50000000  1.0
  Sn  Sn1  1  -0.00000000  0.00000000  -0.00000000  1.0
  P  P2  1  1.75189934  0.59566133  -0.01185256  1.0
  P  P3  1  0.40433867  1.01185256  -0.75189934  1.0
  P  P4  1  1.01185256  0.24810066  -0.59566133  1.0
  P  P5  1  0.24810066  0.40433867  0.01185256  1.0
  P  P6  1  1.59566133  -0.01185256  0.75189934  1.0
  P  P7  1  0.98814744  0.75189934  0.59566133  1.0
  H  H8  1  0.68210465  0.69693394  0.11430926  1.0
  H  H9  1  1.30306606  -0.11430926  0.31789535  1.0
  H  H10  1  0.88569074  0.31789535  0.30306606  1.0
  H  H11  1  1.31789535  0.30306606  -0.11430926  1.0
  H  H12  1  0.69693394  1.11430926  -0.31789535  1.0
  H  H13  1  1.11430926  0.68210465  -0.30306606  1.0
  H  H14  1  0.46762040  1.07091383  -0.19113616  1.0
  H  H15  1  0.92908617  0.19113616  0.53237960  1.0
  H  H16  1  1.19113616  0.53237960  -0.07091383  1.0
  H  H17  1  1.53237960  -0.07091383  0.19113616  1.0
  H  H18  1  1.07091383  0.80886384  -0.53237960  1.0
  H  H19  1  0.80886384  0.46762040  0.07091383  1.0
  O  O20  1  1.60919469  0.49986864  -0.19459655  1.0
  O  O21  1  0.50013136  1.19459655  -0.60919469  1.0
  O  O22  1  1.19459655  0.39080531  -0.49986864  1.0
  O  O23  1  0.39080531  0.50013136  0.19459655  1.0
  O  O24  1  1.49986864  -0.19459655  0.60919469  1.0
  O  O25  1  0.80540345  0.60919469  0.49986864  1.0
  O  O26  1  1.72610803  0.98999476  -0.06358703  1.0
  O  O27  1  1.01000524  0.06358703  -0.72610803  1.0
  O  O28  1  1.06358703  -0.72610803  0.01000524  1.0
  O  O29  1  0.27389197  0.01000524  0.06358703  1.0
  O  O30  1  0.98999476  0.93641297  0.72610803  1.0
  O  O31  1  0.93641297  1.72610803  -0.01000524  1.0
