# generated using pymatgen
data_Cs2Ti(Si2O5)3
_symmetry_space_group_name_H-M   'P 1'
_cell_length_a   7.61745800
_cell_length_b   7.61745800
_cell_length_c   15.48126045
_cell_angle_alpha   76.33473564
_cell_angle_beta   103.66526436
_cell_angle_gamma   119.81555602
_symmetry_Int_Tables_number   1
_chemical_formula_structural   Cs2Ti(Si2O5)3
_chemical_formula_sum   'Cs4 Ti2 Si12 O30'
_cell_volume   749.78392428
_cell_formula_units_Z   2
loop_
 _symmetry_equiv_pos_site_id
 _symmetry_equiv_pos_as_xyz
  1  'x, y, z'
loop_
 _atom_site_type_symbol
 _atom_site_label
 _atom_site_symmetry_multiplicity
 _atom_site_fract_x
 _atom_site_fract_y
 _atom_site_fract_z
 _atom_site_occupancy
  Cs  Cs0  1  0.61453011  0.13278966  0.52170165  1.0
  Cs  Cs1  1  0.86721034  0.38546989  0.02170165  1.0
  Cs  Cs2  1  0.40230474  -0.12677411  0.84689856  1.0
  Cs  Cs3  1  1.12677411  0.59769526  0.34689856  1.0
  Ti  Ti4  1  0.27998837  0.23794108  0.94015548  1.0
  Ti  Ti5  1  0.76205892  0.72001163  0.44015548  1.0
  Si  Si6  1  0.91689863  -0.04717496  0.78838835  1.0
  Si  Si7  1  1.04717496  0.08310137  0.28838835  1.0
  Si  Si8  1  0.99954979  0.93503612  0.10130560  1.0
  Si  Si9  1  0.06496388  0.00045021  0.60130560  1.0
  Si  Si10  1  0.62356185  0.48901491  0.78428920  1.0
  Si  Si11  1  0.51098509  0.37643815  0.28428920  1.0
  Si  Si12  1  1.11887904  0.64902548  0.59315007  1.0
  Si  Si13  1  0.35097452  -0.11887904  0.09315007  1.0
  Si  Si14  1  0.96636462  0.36479800  0.78039487  1.0
  Si  Si15  1  0.63520200  0.03363538  0.28039487  1.0
  Si  Si16  1  1.39597977  0.47082609  0.58017591  1.0
  Si  Si17  1  0.52917391  -0.39597977  0.08017591  1.0
  O  O18  1  0.86009428  -0.09719034  0.53176618  1.0
  O  O19  1  1.09719034  0.13990572  0.03176618  1.0
  O  O20  1  1.01969619  0.96648088  0.70382577  1.0
  O  O21  1  0.03351912  -0.01969619  0.20382577  1.0
  O  O22  1  0.71136252  -0.27153195  0.79836156  1.0
  O  O23  1  1.27153195  0.28863748  0.29836156  1.0
  O  O24  1  0.52982683  0.52924154  0.50223261  1.0
  O  O25  1  0.47075846  0.47017317  0.00223261  1.0
  O  O26  1  0.52197955  0.45873426  0.68031790  1.0
  O  O27  1  0.54126574  0.47802045  0.18031790  1.0
  O  O28  1  0.47062533  0.33113399  0.85436188  1.0
  O  O29  1  0.66886601  0.52937467  0.35436188  1.0
  O  O30  1  1.11113518  0.78978322  0.10975875  1.0
  O  O31  1  0.21021678  -0.11113518  0.60975875  1.0
  O  O32  1  0.93099948  0.58734816  0.51284910  1.0
  O  O33  1  0.41265184  0.06900052  0.01284910  1.0
  O  O34  1  0.82002264  0.44310249  0.80313943  1.0
  O  O35  1  0.55689751  0.17997736  0.30313943  1.0
  O  O36  1  1.06039511  0.50002969  0.68826870  1.0
  O  O37  1  0.49997031  -0.06039511  0.18826870  1.0
  O  O38  1  0.82803605  0.12263982  0.76270643  1.0
  O  O39  1  0.87736018  0.17196395  0.26270643  1.0
  O  O40  1  0.35992329  -0.31305591  0.06838145  1.0
  O  O41  1  1.31305591  0.64007671  0.56838145  1.0
  O  O42  1  1.14286314  0.39137669  0.86507031  1.0
  O  O43  1  0.60862331  -0.14286314  0.36507031  1.0
  O  O44  1  1.19522539  0.24618902  0.56959069  1.0
  O  O45  1  0.75381098  -0.19522539  0.06959069  1.0
  O  O46  1  0.08240240  -0.00491958  0.87740955  1.0
  O  O47  1  1.00491958  0.91759760  0.37740955  1.0
