# generated using pymatgen
data_ZnP2(H4O5)2
_symmetry_space_group_name_H-M   'P 1'
_cell_length_a   7.26361201
_cell_length_b   7.16440040
_cell_length_c   8.74808839
_cell_angle_alpha   106.47325673
_cell_angle_beta   101.85966373
_cell_angle_gamma   96.21367083
_symmetry_Int_Tables_number   1
_chemical_formula_structural   ZnP2(H4O5)2
_chemical_formula_sum   'Zn2 P4 H16 O20'
_cell_volume   420.46107683
_cell_formula_units_Z   2
loop_
 _symmetry_equiv_pos_site_id
 _symmetry_equiv_pos_as_xyz
  1  'x, y, z'
loop_
 _atom_site_type_symbol
 _atom_site_label
 _atom_site_symmetry_multiplicity
 _atom_site_fract_x
 _atom_site_fract_y
 _atom_site_fract_z
 _atom_site_occupancy
  Zn  Zn0  1  -0.50000000  -0.00000000  -0.50000000  1.0
  Zn  Zn1  1  0.00000000  0.00000000  0.00000000  1.0
  P  P2  1  -0.91047467  -0.34102635  -0.63307124  1.0
  P  P3  1  -0.08952533  -0.65897365  -0.36692876  1.0
  P  P4  1  -0.82508010  -0.72748304  -0.58303746  1.0
  P  P5  1  -0.17491990  -0.27251696  -0.41696254  1.0
  H  H6  1  -0.64124709  -0.96730155  -0.22352170  1.0
  H  H7  1  -0.35875291  -0.03269845  -0.77647830  1.0
  H  H8  1  -0.45272522  -0.83732376  -0.73787637  1.0
  H  H9  1  -0.54727478  -0.16267624  -0.26212363  1.0
  H  H10  1  -0.82279757  -0.72894729  -0.12513458  1.0
  H  H11  1  -0.17720243  -0.27105271  -0.87486542  1.0
  H  H12  1  -0.11852690  -0.66578766  -0.94579340  1.0
  H  H13  1  -0.88147310  -0.33421234  -0.05420660  1.0
  H  H14  1  -0.34436610  -0.59107666  -0.82263840  1.0
  H  H15  1  -0.65563390  -0.40892334  -0.17736160  1.0
  H  H16  1  -0.47056957  -0.49904874  -0.71211637  1.0
  H  H17  1  -0.52943043  -0.50095126  -0.28788363  1.0
  H  H18  1  -0.78505309  -0.20412055  -0.86473773  1.0
  H  H19  1  -0.21494691  -0.79587945  -0.13526227  1.0
  H  H20  1  -0.33217610  -0.25129664  -1.02236209  1.0
  H  H21  1  -0.66782390  -0.74870336  0.02236209  1.0
  O  O22  1  -0.47097580  -0.61820809  -0.80263620  1.0
  O  O23  1  -0.52902420  -0.38179191  -0.19736380  1.0
  O  O24  1  -0.92598447  -0.55296493  -0.21803097  1.0
  O  O25  1  -0.07401553  -0.44703507  -0.78196903  1.0
  O  O26  1  -0.80979174  -0.49058057  -0.54880864  1.0
  O  O27  1  -0.19020826  -0.50941943  -0.45119136  1.0
  O  O28  1  -0.98987836  -0.21464683  -0.48345758  1.0
  O  O29  1  -0.01012164  -0.78535317  -0.51654242  1.0
  O  O30  1  -0.75449571  -0.20402104  -0.65799487  1.0
  O  O31  1  -0.24550429  -0.79597896  -0.34200513  1.0
  O  O32  1  -0.82151696  -0.19992436  -0.97930377  1.0
  O  O33  1  -0.17848304  -0.80007564  -0.02069623  1.0
  O  O34  1  -0.44100445  -0.96181218  -0.71180245  1.0
  O  O35  1  -0.55899555  -0.03818782  -0.28819755  1.0
  O  O36  1  -0.87159390  -0.83293166  -0.76332961  1.0
  O  O37  1  -0.12840610  -0.16706834  -0.23667039  1.0
  O  O38  1  -0.76913827  -0.82721200  -0.07741068  1.0
  O  O39  1  -0.23086173  -0.17278800  -0.92258932  1.0
  O  O40  1  -0.64527389  -0.74940575  -0.47189894  1.0
  O  O41  1  -0.35472611  -0.25059425  -0.52810106  1.0
