# generated using pymatgen
data_Mg2SiO4
_symmetry_space_group_name_H-M   'P 1'
_cell_length_a   4.95007201
_cell_length_b   4.95007201
_cell_length_c   9.45198262
_cell_angle_alpha   90.00000000
_cell_angle_beta   90.00000000
_cell_angle_gamma   147.16579777
_symmetry_Int_Tables_number   1
_chemical_formula_structural   Mg2SiO4
_chemical_formula_sum   'Mg4 Si2 O8'
_cell_volume   125.57794633
_cell_formula_units_Z   2
loop_
 _symmetry_equiv_pos_site_id
 _symmetry_equiv_pos_as_xyz
  1  'x, y, z'
loop_
 _atom_site_type_symbol
 _atom_site_label
 _atom_site_symmetry_multiplicity
 _atom_site_fract_x
 _atom_site_fract_y
 _atom_site_fract_z
 _atom_site_occupancy
  Mg  Mg0  1  0.10767019  0.89232981  0.71816458  1.0
  Mg  Mg1  1  -0.10767019  0.10767019  0.21816458  1.0
  Mg  Mg2  1  0.36064525  0.63935475  0.88543564  1.0
  Mg  Mg3  1  -0.36064525  0.36064525  0.38543564  1.0
  Si  Si4  1  0.37319519  0.62680481  0.53071502  1.0
  Si  Si5  1  -0.37319519  0.37319519  0.03071502  1.0
  O  O6  1  -0.00564340  1.00564340  0.46865135  1.0
  O  O7  1  0.00564340  -0.00564340  -0.03134865  1.0
  O  O8  1  0.24702909  0.75297091  0.07710847  1.0
  O  O9  1  -0.24702909  0.24702909  0.57710847  1.0
  O  O10  1  0.45513823  0.54486177  0.69395774  1.0
  O  O11  1  -0.45513823  0.45513823  0.19395774  1.0
  O  O12  1  -0.29492198  0.29492198  0.85796721  1.0
  O  O13  1  0.29492198  0.70507802  0.35796721  1.0
