# generated using pymatgen
data_V(CrS2)2
_symmetry_space_group_name_H-M   'P 1'
_cell_length_a   6.50110025
_cell_length_b   6.50110025
_cell_length_c   6.10105948
_cell_angle_alpha   62.21477226
_cell_angle_beta   117.78522774
_cell_angle_gamma   149.50741818
_symmetry_Int_Tables_number   1
_chemical_formula_structural   V(CrS2)2
_chemical_formula_sum   'V1 Cr2 S4'
_cell_volume   114.55746710
_cell_formula_units_Z   1
loop_
 _symmetry_equiv_pos_site_id
 _symmetry_equiv_pos_as_xyz
  1  'x, y, z'
loop_
 _atom_site_type_symbol
 _atom_site_label
 _atom_site_symmetry_multiplicity
 _atom_site_fract_x
 _atom_site_fract_y
 _atom_site_fract_z
 _atom_site_occupancy
  V  V0  1  0.00000000  0.00000000  0.00000000  1.0
  Cr  Cr1  1  0.74142720  -0.74142720  0.72548839  1.0
  Cr  Cr2  1  1.25857280  -0.25857280  0.27451161  1.0
  S  S3  1  0.87479692  -0.87479692  0.55271642  1.0
  S  S4  1  1.12520308  -0.12520308  0.44728358  1.0
  S  S5  1  0.63212084  -0.63212084  0.97012753  1.0
  S  S6  1  1.36787916  -0.36787916  0.02987247  1.0
