# generated using pymatgen
data_Cd12Ni5
_symmetry_space_group_name_H-M   'P 1'
_cell_length_a   10.62584962
_cell_length_b   10.62584962
_cell_length_c   10.62584962
_cell_angle_alpha   60.00000000
_cell_angle_beta   60.00000000
_cell_angle_gamma   60.00000000
_symmetry_Int_Tables_number   1
_chemical_formula_structural   Cd12Ni5
_chemical_formula_sum   'Cd24 Ni10'
_cell_volume   848.35182570
_cell_formula_units_Z   2
loop_
 _symmetry_equiv_pos_site_id
 _symmetry_equiv_pos_as_xyz
  1  'x, y, z'
loop_
 _atom_site_type_symbol
 _atom_site_label
 _atom_site_symmetry_multiplicity
 _atom_site_fract_x
 _atom_site_fract_y
 _atom_site_fract_z
 _atom_site_occupancy
  Cd  Cd0  1  0.95524176  -0.58953382  0.67905030  1.0
  Cd  Cd1  1  -0.04475824  0.67905030  0.41046618  1.0
  Cd  Cd2  1  -0.16046618  0.29475824  0.29475824  1.0
  Cd  Cd3  1  0.57094970  0.29475824  0.29475824  1.0
  Cd  Cd4  1  -0.58953382  0.95524176  0.67905030  1.0
  Cd  Cd5  1  0.95524176  -0.04475824  0.67905030  1.0
  Cd  Cd6  1  0.95524176  -0.32094970  0.95524176  1.0
  Cd  Cd7  1  -0.58953382  0.67905030  0.95524176  1.0
  Cd  Cd8  1  0.29475824  -0.16046618  0.29475824  1.0
  Cd  Cd9  1  0.29475824  0.29475824  -0.16046618  1.0
  Cd  Cd10  1  0.57094970  0.29475824  -0.16046618  1.0
  Cd  Cd11  1  0.57094970  -0.16046618  0.29475824  1.0
  Cd  Cd12  1  0.67905030  -0.04475824  0.95524176  1.0
  Cd  Cd13  1  -0.58953382  0.95524176  0.95524176  1.0
  Cd  Cd14  1  0.29475824  0.57094970  -0.16046618  1.0
  Cd  Cd15  1  0.29475824  -0.16046618  0.57094970  1.0
  Cd  Cd16  1  -0.32094970  0.95524176  0.41046618  1.0
  Cd  Cd17  1  0.67905030  -0.58953382  0.95524176  1.0
  Cd  Cd18  1  0.95524176  -0.58953382  0.95524176  1.0
  Cd  Cd19  1  -0.04475824  0.95524176  0.41046618  1.0
  Cd  Cd20  1  0.29475824  0.57094970  0.29475824  1.0
  Cd  Cd21  1  -0.16046618  0.57094970  0.29475824  1.0
  Cd  Cd22  1  -0.16046618  0.29475824  0.57094970  1.0
  Cd  Cd23  1  0.29475824  0.29475824  0.57094970  1.0
  Ni  Ni24  1  0.66646953  -0.33353047  1.00059142  1.0
  Ni  Ni25  1  0.66646953  0.00059142  0.66646953  1.0
  Ni  Ni26  1  0.58353047  -0.41646953  0.58353047  1.0
  Ni  Ni27  1  1.24940858  -0.41646953  0.58353047  1.0
  Ni  Ni28  1  1.00059142  -0.33353047  0.66646953  1.0
  Ni  Ni29  1  0.66646953  -0.33353047  0.66646953  1.0
  Ni  Ni30  1  0.58353047  0.24940858  0.58353047  1.0
  Ni  Ni31  1  0.58353047  -0.41646953  1.24940858  1.0
  Ni  Ni32  1  0.50000000  0.50000000  -0.50000000  1.0
  Ni  Ni33  1  0.75000000  -0.25000000  0.75000000  1.0
