# generated using pymatgen
data_AgPtO2
_symmetry_space_group_name_H-M   'P 1'
_cell_length_a   6.32288957
_cell_length_b   3.12873024
_cell_length_c   6.42521557
_cell_angle_alpha   90.00000000
_cell_angle_beta   117.81748275
_cell_angle_gamma   90.00000000
_symmetry_Int_Tables_number   1
_chemical_formula_structural   AgPtO2
_chemical_formula_sum   'Ag2 Pt2 O4'
_cell_volume   112.41884529
_cell_formula_units_Z   2
loop_
 _symmetry_equiv_pos_site_id
 _symmetry_equiv_pos_as_xyz
  1  'x, y, z'
loop_
 _atom_site_type_symbol
 _atom_site_label
 _atom_site_symmetry_multiplicity
 _atom_site_fract_x
 _atom_site_fract_y
 _atom_site_fract_z
 _atom_site_occupancy
  Ag  Ag0  1  0.50000000  0.00000000  -0.00000000  1.0
  Ag  Ag1  1  0.50000000  0.00000000  0.50000000  1.0
  Pt  Pt2  1  0.00000000  0.00000000  0.00000000  1.0
  Pt  Pt3  1  0.00000000  0.50000000  0.50000000  1.0
  O  O4  1  0.91739649  0.50000000  0.77230342  1.0
  O  O5  1  0.08260351  0.50000000  0.22769658  1.0
  O  O6  1  0.76673833  0.00000000  0.36896494  1.0
  O  O7  1  0.23326167  0.00000000  0.63103506  1.0
