# generated using pymatgen
data_KMgH9(CO5)2
_symmetry_space_group_name_H-M   'P 1'
_cell_length_a   5.33473932
_cell_length_b   7.15003834
_cell_length_c   6.71703374
_cell_angle_alpha   113.26634869
_cell_angle_beta   107.32820347
_cell_angle_gamma   91.49729799
_symmetry_Int_Tables_number   1
_chemical_formula_structural   KMgH9(CO5)2
_chemical_formula_sum   'K1 Mg1 H9 C2 O10'
_cell_volume   221.65319544
_cell_formula_units_Z   1
loop_
 _symmetry_equiv_pos_site_id
 _symmetry_equiv_pos_as_xyz
  1  'x, y, z'
loop_
 _atom_site_type_symbol
 _atom_site_label
 _atom_site_symmetry_multiplicity
 _atom_site_fract_x
 _atom_site_fract_y
 _atom_site_fract_z
 _atom_site_occupancy
  K  K0  1  0.00000000  0.00000000  -0.50000000  1.0
  Mg  Mg1  1  -0.50000000  -0.50000000  0.00000000  1.0
  H  H2  1  -0.99980354  -0.42262629  -0.17213710  1.0
  H  H3  1  -0.00019646  -0.57737371  -0.82786290  1.0
  H  H4  1  -0.79581718  -0.39658189  -0.29631281  1.0
  H  H5  1  -0.20418282  -0.60341811  -0.70368719  1.0
  H  H6  1  -0.63374690  -0.13479499  -0.76645974  1.0
  H  H7  1  -0.36625310  -0.86520501  -0.23354026  1.0
  H  H8  1  -0.43034357  -0.75485729  -0.40707609  1.0
  H  H9  1  -0.56965643  -0.24514271  -0.59292391  1.0
  H  H10  1  0.00000000  0.00000000  0.00000000  1.0
  C  C11  1  -0.63211731  -0.79676820  -0.80090041  1.0
  C  C12  1  -0.36788269  -0.20323180  -0.19909959  1.0
  O  O13  1  -0.85692285  -0.48389793  -0.22809363  1.0
  O  O14  1  -0.14307715  -0.51610207  -0.77190637  1.0
  O  O15  1  -0.80185018  -0.95342802  -0.83136238  1.0
  O  O16  1  -0.19814982  -0.04657198  -0.16863762  1.0
  O  O17  1  -0.71285352  -0.69272499  -0.91890771  1.0
  O  O18  1  -0.28714648  -0.30727501  -0.08109229  1.0
  O  O19  1  -0.46760367  -0.76237249  -0.27296545  1.0
  O  O20  1  -0.53239633  -0.23762751  -0.72703455  1.0
  O  O21  1  -0.39837530  -0.75801417  -0.65363040  1.0
  O  O22  1  -0.60162470  -0.24198583  -0.34636960  1.0
