# generated using pymatgen
data_YCo3
_symmetry_space_group_name_H-M   'P 1'
_cell_length_a   4.98374825
_cell_length_b   4.98374825
_cell_length_c   16.20152986
_cell_angle_alpha   90.00000000
_cell_angle_beta   90.00000000
_cell_angle_gamma   120.00000000
_symmetry_Int_Tables_number   1
_chemical_formula_structural   YCo3
_chemical_formula_sum   'Y6 Co18'
_cell_volume   348.49684400
_cell_formula_units_Z   6
loop_
 _symmetry_equiv_pos_site_id
 _symmetry_equiv_pos_as_xyz
  1  'x, y, z'
loop_
 _atom_site_type_symbol
 _atom_site_label
 _atom_site_symmetry_multiplicity
 _atom_site_fract_x
 _atom_site_fract_y
 _atom_site_fract_z
 _atom_site_occupancy
  Y  Y0  1  0.33333333  0.66666667  0.95995720  1.0
  Y  Y1  1  0.33333333  0.66666667  0.54004280  1.0
  Y  Y2  1  0.66666667  0.33333333  0.45995720  1.0
  Y  Y3  1  0.66666667  0.33333333  0.04004280  1.0
  Y  Y4  1  0.33333333  0.66666667  0.75000000  1.0
  Y  Y5  1  0.66666667  0.33333333  0.25000000  1.0
  Co  Co6  1  0.16653120  0.83346880  0.37168552  1.0
  Co  Co7  1  0.16653120  0.83346880  0.12831448  1.0
  Co  Co8  1  0.16653120  0.33306239  0.37168552  1.0
  Co  Co9  1  0.16653120  0.33306239  0.12831448  1.0
  Co  Co10  1  0.83346880  0.16653120  0.87168552  1.0
  Co  Co11  1  0.83346880  0.16653120  0.62831448  1.0
  Co  Co12  1  0.83346880  0.66693761  0.87168552  1.0
  Co  Co13  1  0.83346880  0.66693761  0.62831448  1.0
  Co  Co14  1  0.66693761  0.83346880  0.37168552  1.0
  Co  Co15  1  0.66693761  0.83346880  0.12831448  1.0
  Co  Co16  1  0.33306239  0.16653120  0.87168552  1.0
  Co  Co17  1  0.33306239  0.16653120  0.62831448  1.0
  Co  Co18  1  0.33333333  0.66666667  0.25000000  1.0
  Co  Co19  1  0.66666667  0.33333333  0.75000000  1.0
  Co  Co20  1  0.00000000  0.00000000  0.25000000  1.0
  Co  Co21  1  0.00000000  0.00000000  0.75000000  1.0
  Co  Co22  1  0.00000000  0.00000000  0.50000000  1.0
  Co  Co23  1  0.00000000  0.00000000  0.00000000  1.0
