# generated using pymatgen
data_Ti2(FeGe)3
_symmetry_space_group_name_H-M   'P 1'
_cell_length_a   7.14216205
_cell_length_b   7.14216205
_cell_length_c   7.14216205
_cell_angle_alpha   123.43097996
_cell_angle_beta   80.40765060
_cell_angle_gamma   128.00316641
_symmetry_Int_Tables_number   1
_chemical_formula_structural   Ti2(FeGe)3
_chemical_formula_sum   'Ti4 Fe6 Ge6'
_cell_volume   231.18537843
_cell_formula_units_Z   2
loop_
 _symmetry_equiv_pos_site_id
 _symmetry_equiv_pos_as_xyz
  1  'x, y, z'
loop_
 _atom_site_type_symbol
 _atom_site_label
 _atom_site_symmetry_multiplicity
 _atom_site_fract_x
 _atom_site_fract_y
 _atom_site_fract_z
 _atom_site_occupancy
  Ti  Ti0  1  0.50321828  0.94184613  1.06137215  1.0
  Ti  Ti1  1  0.88047398  1.44184613  0.93862785  1.0
  Ti  Ti2  1  0.08285195  0.34209124  0.24076071  1.0
  Ti  Ti3  1  1.10133053  0.84209124  0.75923929  1.0
  Fe  Fe4  1  0.75842211  1.25842211  0.50000000  1.0
  Fe  Fe5  1  0.75842211  0.75842211  -0.00000000  1.0
  Fe  Fe6  1  0.48761567  1.31788999  1.06392883  1.0
  Fe  Fe7  1  1.25396116  1.42368685  0.93607117  1.0
  Fe  Fe8  1  0.48761567  0.92368685  0.66972569  1.0
  Fe  Fe9  1  1.25396116  1.81788999  1.33027431  1.0
  Ge  Ge10  1  0.57387303  0.76583176  0.30804127  1.0
  Ge  Ge11  1  1.45779049  1.26583176  0.69195873  1.0
  Ge  Ge12  1  0.81819854  1.53501591  1.35338252  1.0
  Ge  Ge13  1  0.18163339  0.46481602  0.64661748  1.0
  Ge  Ge14  1  0.81819854  0.96481602  0.78318263  1.0
  Ge  Ge15  1  0.18163339  1.03501591  1.21681737  1.0
