# generated using pymatgen
data_As2W
_symmetry_space_group_name_H-M   'P 1'
_cell_length_a   4.87360502
_cell_length_b   4.87360502
_cell_length_c   7.73519229
_cell_angle_alpha   62.73437389
_cell_angle_beta   117.26562611
_cell_angle_gamma   139.82657617
_symmetry_Int_Tables_number   1
_chemical_formula_structural   As2W
_chemical_formula_sum   'As4 W2'
_cell_volume   103.46581450
_cell_formula_units_Z   2
loop_
 _symmetry_equiv_pos_site_id
 _symmetry_equiv_pos_as_xyz
  1  'x, y, z'
loop_
 _atom_site_type_symbol
 _atom_site_label
 _atom_site_symmetry_multiplicity
 _atom_site_fract_x
 _atom_site_fract_y
 _atom_site_fract_z
 _atom_site_occupancy
  As  As0  1  0.85406855  -0.85406855  0.46712458  1.0
  As  As1  1  0.14593145  -0.14593145  0.53287542  1.0
  As  As2  1  0.59710897  0.40289103  0.89138430  1.0
  As  As3  1  1.40289103  -0.40289103  0.10861570  1.0
  W  W4  1  0.84820826  0.15179174  0.79976201  1.0
  W  W5  1  1.15179174  -0.15179174  0.20023799  1.0
