# generated using pymatgen
data_KLiH4S2(NO3)2
_symmetry_space_group_name_H-M   'P 1'
_cell_length_a   5.32164060
_cell_length_b   8.57029128
_cell_length_c   8.97970567
_cell_angle_alpha   90.00000000
_cell_angle_beta   105.67329138
_cell_angle_gamma   90.00000000
_symmetry_Int_Tables_number   1
_chemical_formula_structural   KLiH4S2(NO3)2
_chemical_formula_sum   'K2 Li2 H8 S4 N4 O12'
_cell_volume   394.31865932
_cell_formula_units_Z   2
loop_
 _symmetry_equiv_pos_site_id
 _symmetry_equiv_pos_as_xyz
  1  'x, y, z'
loop_
 _atom_site_type_symbol
 _atom_site_label
 _atom_site_symmetry_multiplicity
 _atom_site_fract_x
 _atom_site_fract_y
 _atom_site_fract_z
 _atom_site_occupancy
  K  K0  1  0.78878160  0.25586992  0.46555778  1.0
  K  K1  1  0.21121840  0.75586992  0.53444222  1.0
  Li  Li2  1  0.90615272  0.94869440  0.84430159  1.0
  Li  Li3  1  0.09384728  0.44869440  0.15569841  1.0
  H  H4  1  0.67462619  0.80280506  0.06947148  1.0
  H  H5  1  0.32537381  0.30280506  0.93052852  1.0
  H  H6  1  0.63661809  0.23799535  0.96548069  1.0
  H  H7  1  0.36338191  0.73799535  0.03451931  1.0
  H  H8  1  0.55388871  0.59963223  0.86735284  1.0
  H  H9  1  0.44611129  0.09963223  0.13264716  1.0
  H  H10  1  0.48077505  0.96065462  0.27229714  1.0
  H  H11  1  0.51922495  0.46065462  0.72770286  1.0
  S  S12  1  0.91606433  0.56761090  0.79420467  1.0
  S  S13  1  0.08393567  0.06761090  0.20579533  1.0
  S  S14  1  0.63527916  0.62811220  0.24690240  1.0
  S  S15  1  0.36472084  0.12811220  0.75309760  1.0
  N  N16  1  0.59431640  0.56917440  0.76464722  1.0
  N  N17  1  0.40568360  0.06917440  0.23535278  1.0
  N  N18  1  0.44313577  0.20733719  0.93022576  1.0
  N  N19  1  0.55686423  0.70733719  0.06977424  1.0
  O  O20  1  0.99910944  0.73236121  0.82318935  1.0
  O  O21  1  0.00089056  0.23236121  0.17681065  1.0
  O  O22  1  0.96287858  0.96899594  0.06890956  1.0
  O  O23  1  0.03712142  0.46899594  0.93109044  1.0
  O  O24  1  0.96163511  0.50542677  0.65173921  1.0
  O  O25  1  0.03836489  0.00542677  0.34826079  1.0
  O  O26  1  0.91286174  0.58424225  0.27306500  1.0
  O  O27  1  0.08713826  0.08424225  0.72693500  1.0
  O  O28  1  0.59682414  0.74371603  0.36037646  1.0
  O  O29  1  0.40317586  0.24371603  0.63962354  1.0
  O  O30  1  0.53538786  0.99037153  0.76449811  1.0
  O  O31  1  0.46461214  0.49037153  0.23550189  1.0
