# generated using pymatgen
data_Y16C7(I7O)2
_symmetry_space_group_name_H-M   'P 1'
_cell_length_a   25.82778571
_cell_length_b   25.82778571
_cell_length_c   11.91988987
_cell_angle_alpha   88.73456464
_cell_angle_beta   91.26543536
_cell_angle_gamma   171.44113719
_symmetry_Int_Tables_number   1
_chemical_formula_structural   Y16C7(I7O)2
_chemical_formula_sum   'Y16 C7 I14 O2'
_cell_volume   1183.08819466
_cell_formula_units_Z   1
loop_
 _symmetry_equiv_pos_site_id
 _symmetry_equiv_pos_as_xyz
  1  'x, y, z'
loop_
 _atom_site_type_symbol
 _atom_site_label
 _atom_site_symmetry_multiplicity
 _atom_site_fract_x
 _atom_site_fract_y
 _atom_site_fract_z
 _atom_site_occupancy
  Y  Y0  1  0.98720345  -0.98720345  0.86542679  1.0
  Y  Y1  1  1.01279655  -0.01279655  0.13457321  1.0
  Y  Y2  1  0.89020408  -0.89020408  0.96440805  1.0
  Y  Y3  1  1.10979592  -0.10979592  0.03559195  1.0
  Y  Y4  1  0.79392854  -0.79392854  0.83618908  1.0
  Y  Y5  1  1.20607146  -0.20607146  0.16381092  1.0
  Y  Y6  1  0.67332963  -0.67332963  0.96839516  1.0
  Y  Y7  1  1.32667037  -0.32667037  0.03160484  1.0
  Y  Y8  1  0.54649795  -0.54649795  0.94872447  1.0
  Y  Y9  1  1.45350205  -0.45350205  0.05127553  1.0
  Y  Y10  1  1.42835223  -0.42835223  0.79176805  1.0
  Y  Y11  1  0.57164777  -0.57164777  0.20823195  1.0
  Y  Y12  1  1.35371745  -0.35371745  0.78037436  1.0
  Y  Y13  1  0.64628255  -0.64628255  0.21962564  1.0
  Y  Y14  1  1.23315834  -0.23315834  0.90359996  1.0
  Y  Y15  1  0.76684166  -0.76684166  0.09640004  1.0
  C  C16  1  0.94049937  -0.94049937  0.91499288  1.0
  C  C17  1  1.05950063  -0.05950063  0.08500712  1.0
  C  C18  1  0.84129217  -0.84129217  0.89962628  1.0
  C  C19  1  1.15870783  -0.15870783  0.10037372  1.0
  C  C20  1  1.28104893  -0.28104893  0.96619737  1.0
  C  C21  1  0.71895107  -0.71895107  0.03380263  1.0
  C  C22  1  0.50000000  0.50000000  -0.00000000  1.0
  I  I23  1  0.95841926  -0.95841926  0.25449895  1.0
  I  I24  1  1.04158074  -0.04158074  0.74550105  1.0
  I  I25  1  0.89183565  -0.89183565  0.62427703  1.0
  I  I26  1  1.10816435  -0.10816435  0.37572297  1.0
  I  I27  1  0.82218475  -0.82218475  0.23115443  1.0
  I  I28  1  1.17781525  -0.17781525  0.76884557  1.0
  I  I29  1  0.74223212  -0.74223212  0.70142534  1.0
  I  I30  1  1.25776788  -0.25776788  0.29857466  1.0
  I  I31  1  0.69285425  -0.69285425  0.37502597  1.0
  I  I32  1  1.30714575  -0.30714575  0.62497403  1.0
  I  I33  1  0.60927420  -0.60927420  0.83408439  1.0
  I  I34  1  1.39072580  -0.39072580  0.16591561  1.0
  I  I35  1  1.47634023  -0.47634023  0.65153221  1.0
  I  I36  1  0.52365977  -0.52365977  0.34846779  1.0
  O  O37  1  1.39085720  -0.39085720  0.87230263  1.0
  O  O38  1  0.60914280  -0.60914280  0.12769737  1.0
