# generated using pymatgen
data_Tl2(SbO3)3
_symmetry_space_group_name_H-M   'P 1'
_cell_length_a   9.60235960
_cell_length_b   9.60235960
_cell_length_c   9.60235960
_cell_angle_alpha   90.00000000
_cell_angle_beta   90.00000000
_cell_angle_gamma   90.00000000
_symmetry_Int_Tables_number   1
_chemical_formula_structural   Tl2(SbO3)3
_chemical_formula_sum   'Tl8 Sb12 O36'
_cell_volume   885.38854393
_cell_formula_units_Z   4
loop_
 _symmetry_equiv_pos_site_id
 _symmetry_equiv_pos_as_xyz
  1  'x, y, z'
loop_
 _atom_site_type_symbol
 _atom_site_label
 _atom_site_symmetry_multiplicity
 _atom_site_fract_x
 _atom_site_fract_y
 _atom_site_fract_z
 _atom_site_occupancy
  Tl  Tl0  1  0.36175922  0.63824078  0.63824078  1.0
  Tl  Tl1  1  0.63824078  0.63824078  0.36175922  1.0
  Tl  Tl2  1  0.63824078  0.36175922  0.63824078  1.0
  Tl  Tl3  1  0.36175922  0.36175922  0.36175922  1.0
  Tl  Tl4  1  0.13824078  0.86175922  0.86175922  1.0
  Tl  Tl5  1  0.86175922  0.86175922  0.13824078  1.0
  Tl  Tl6  1  0.86175922  0.13824078  0.86175922  1.0
  Tl  Tl7  1  0.13824078  0.13824078  0.13824078  1.0
  Sb  Sb8  1  0.50000000  0.83685761  0.00000000  1.0
  Sb  Sb9  1  0.50000000  0.16314239  0.00000000  1.0
  Sb  Sb10  1  0.00000000  0.50000000  0.83685761  1.0
  Sb  Sb11  1  0.00000000  0.50000000  0.16314239  1.0
  Sb  Sb12  1  0.83685761  0.00000000  0.50000000  1.0
  Sb  Sb13  1  0.16314239  0.00000000  0.50000000  1.0
  Sb  Sb14  1  0.00000000  0.66314239  0.50000000  1.0
  Sb  Sb15  1  0.00000000  0.33685761  0.50000000  1.0
  Sb  Sb16  1  0.50000000  0.00000000  0.66314239  1.0
  Sb  Sb17  1  0.50000000  0.00000000  0.33685761  1.0
  Sb  Sb18  1  0.66314239  0.50000000  0.00000000  1.0
  Sb  Sb19  1  0.33685761  0.50000000  0.00000000  1.0
  O  O20  1  0.50000000  0.86292445  0.50000000  1.0
  O  O21  1  0.50000000  0.13707555  0.50000000  1.0
  O  O22  1  0.50000000  0.50000000  0.86292445  1.0
  O  O23  1  0.50000000  0.50000000  0.13707555  1.0
  O  O24  1  0.86292445  0.50000000  0.50000000  1.0
  O  O25  1  0.13707555  0.50000000  0.50000000  1.0
  O  O26  1  0.00000000  0.63707555  0.00000000  1.0
  O  O27  1  0.00000000  0.36292445  0.00000000  1.0
  O  O28  1  0.00000000  0.00000000  0.63707555  1.0
  O  O29  1  0.00000000  0.00000000  0.36292445  1.0
  O  O30  1  0.63707555  0.00000000  0.00000000  1.0
  O  O31  1  0.36292445  0.00000000  0.00000000  1.0
  O  O32  1  0.16508476  0.78835333  0.50590497  1.0
  O  O33  1  0.83491524  0.78835333  0.49409503  1.0
  O  O34  1  0.83491524  0.21164667  0.50590497  1.0
  O  O35  1  0.16508476  0.21164667  0.49409503  1.0
  O  O36  1  0.50590497  0.16508476  0.78835333  1.0
  O  O37  1  0.49409503  0.83491524  0.78835333  1.0
  O  O38  1  0.50590497  0.83491524  0.21164667  1.0
  O  O39  1  0.49409503  0.16508476  0.21164667  1.0
  O  O40  1  0.78835333  0.50590497  0.16508476  1.0
  O  O41  1  0.78835333  0.49409503  0.83491524  1.0
  O  O42  1  0.21164667  0.50590497  0.83491524  1.0
  O  O43  1  0.21164667  0.49409503  0.16508476  1.0
  O  O44  1  0.33491524  0.71164667  -0.00590497  1.0
  O  O45  1  0.66508476  0.71164667  0.00590497  1.0
  O  O46  1  0.66508476  0.28835333  -0.00590497  1.0
  O  O47  1  0.33491524  0.28835333  0.00590497  1.0
  O  O48  1  -0.00590497  0.33491524  0.71164667  1.0
  O  O49  1  0.00590497  0.66508476  0.71164667  1.0
  O  O50  1  -0.00590497  0.66508476  0.28835333  1.0
  O  O51  1  0.00590497  0.33491524  0.28835333  1.0
  O  O52  1  0.71164667  -0.00590497  0.33491524  1.0
  O  O53  1  0.71164667  0.00590497  0.66508476  1.0
  O  O54  1  0.28835333  -0.00590497  0.66508476  1.0
  O  O55  1  0.28835333  0.00590497  0.33491524  1.0
