# generated using pymatgen
data_Ca4GeN4
_symmetry_space_group_name_H-M   'P 1'
_cell_length_a   9.27765409
_cell_length_b   6.06103607
_cell_length_c   11.19507855
_cell_angle_alpha   90.00000000
_cell_angle_beta   116.41834310
_cell_angle_gamma   90.00000000
_symmetry_Int_Tables_number   1
_chemical_formula_structural   Ca4GeN4
_chemical_formula_sum   'Ca16 Ge4 N16'
_cell_volume   563.78227746
_cell_formula_units_Z   4
loop_
 _symmetry_equiv_pos_site_id
 _symmetry_equiv_pos_as_xyz
  1  'x, y, z'
loop_
 _atom_site_type_symbol
 _atom_site_label
 _atom_site_symmetry_multiplicity
 _atom_site_fract_x
 _atom_site_fract_y
 _atom_site_fract_z
 _atom_site_occupancy
  Ca  Ca0  1  0.92151178  0.74429820  0.45581543  1.0
  Ca  Ca1  1  0.92151178  0.75570180  0.95581543  1.0
  Ca  Ca2  1  0.07848822  0.24429820  0.04418457  1.0
  Ca  Ca3  1  0.07848822  0.25570180  0.54418457  1.0
  Ca  Ca4  1  0.85426803  0.15601079  0.23044174  1.0
  Ca  Ca5  1  0.85426803  0.34398921  0.73044174  1.0
  Ca  Ca6  1  0.14573197  0.65601079  0.26955826  1.0
  Ca  Ca7  1  0.14573197  0.84398921  0.76955826  1.0
  Ca  Ca8  1  0.45319323  0.07637006  0.12103699  1.0
  Ca  Ca9  1  0.45319323  0.42362994  0.62103699  1.0
  Ca  Ca10  1  0.54680677  0.57637006  0.37896301  1.0
  Ca  Ca11  1  0.54680677  0.92362994  0.87896301  1.0
  Ca  Ca12  1  0.34411303  0.08421681  0.34607706  1.0
  Ca  Ca13  1  0.34411303  0.41578319  0.84607706  1.0
  Ca  Ca14  1  0.65588697  0.58421681  0.15392294  1.0
  Ca  Ca15  1  0.65588697  0.91578319  0.65392294  1.0
  Ge  Ge16  1  0.73031547  0.14118085  0.44603688  1.0
  Ge  Ge17  1  0.73031547  0.35881915  0.94603688  1.0
  Ge  Ge18  1  0.26968453  0.64118085  0.05396312  1.0
  Ge  Ge19  1  0.26968453  0.85881915  0.55396312  1.0
  N  N20  1  0.90424901  0.48059139  0.10956344  1.0
  N  N21  1  0.90424901  0.01940861  0.60956344  1.0
  N  N22  1  0.09575099  0.98059139  0.39043656  1.0
  N  N23  1  0.09575099  0.51940861  0.89043656  1.0
  N  N24  1  0.80287705  0.38904608  0.38234079  1.0
  N  N25  1  0.80287705  0.11095392  0.88234079  1.0
  N  N26  1  0.19712295  0.88904608  0.11765921  1.0
  N  N27  1  0.19712295  0.61095392  0.61765921  1.0
  N  N28  1  0.66448097  0.91399146  0.31253060  1.0
  N  N29  1  0.66448097  0.58600854  0.81253060  1.0
  N  N30  1  0.33551903  0.41399146  0.18746940  1.0
  N  N31  1  0.33551903  0.08600854  0.68746940  1.0
  N  N32  1  0.58824726  0.25286217  0.01430469  1.0
  N  N33  1  0.58824726  0.24713783  0.51430469  1.0
  N  N34  1  0.41175274  0.75286217  0.48569531  1.0
  N  N35  1  0.41175274  0.74713783  0.98569531  1.0
