# generated using pymatgen
data_Ba5Cr3ClO12
_symmetry_space_group_name_H-M   'P 1'
_cell_length_a   10.82538576
_cell_length_b   10.82538576
_cell_length_c   7.84753547
_cell_angle_alpha   90.00000000
_cell_angle_beta   90.00000000
_cell_angle_gamma   120.00000000
_symmetry_Int_Tables_number   1
_chemical_formula_structural   Ba5Cr3ClO12
_chemical_formula_sum   'Ba10 Cr6 Cl2 O24'
_cell_volume   796.43563169
_cell_formula_units_Z   2
loop_
 _symmetry_equiv_pos_site_id
 _symmetry_equiv_pos_as_xyz
  1  'x, y, z'
loop_
 _atom_site_type_symbol
 _atom_site_label
 _atom_site_symmetry_multiplicity
 _atom_site_fract_x
 _atom_site_fract_y
 _atom_site_fract_z
 _atom_site_occupancy
  Ba  Ba0  1  0.01151840  0.73202981  0.25000000  1.0
  Ba  Ba1  1  0.73202981  0.72051140  0.75000000  1.0
  Ba  Ba2  1  0.72051140  0.98848160  0.25000000  1.0
  Ba  Ba3  1  0.26797019  0.27948860  0.25000000  1.0
  Ba  Ba4  1  0.98848160  0.26797019  0.75000000  1.0
  Ba  Ba5  1  0.27948860  0.01151840  0.75000000  1.0
  Ba  Ba6  1  0.33333333  0.66666667  0.49915960  1.0
  Ba  Ba7  1  0.33333333  0.66666667  0.00084040  1.0
  Ba  Ba8  1  0.66666667  0.33333333  0.99915960  1.0
  Ba  Ba9  1  0.66666667  0.33333333  0.50084040  1.0
  Cr  Cr10  1  0.63525225  0.59365361  0.25000000  1.0
  Cr  Cr11  1  0.59365361  0.95840136  0.75000000  1.0
  Cr  Cr12  1  0.95840136  0.36474775  0.25000000  1.0
  Cr  Cr13  1  0.40634639  0.04159864  0.25000000  1.0
  Cr  Cr14  1  0.36474775  0.40634639  0.75000000  1.0
  Cr  Cr15  1  0.04159864  0.63525225  0.75000000  1.0
  Cl  Cl16  1  0.00000000  0.00000000  0.25000000  1.0
  Cl  Cl17  1  0.00000000  0.00000000  0.75000000  1.0
  O  O18  1  0.74140093  0.64038464  0.42602835  1.0
  O  O19  1  0.74140093  0.64038464  0.07397165  1.0
  O  O20  1  0.64038464  0.89898371  0.92602835  1.0
  O  O21  1  0.64038464  0.89898371  0.57397165  1.0
  O  O22  1  0.89898371  0.25859907  0.42602835  1.0
  O  O23  1  0.89898371  0.25859907  0.07397165  1.0
  O  O24  1  0.35961536  0.10101629  0.42602835  1.0
  O  O25  1  0.35961536  0.10101629  0.07397165  1.0
  O  O26  1  0.25859907  0.35961536  0.92602835  1.0
  O  O27  1  0.25859907  0.35961536  0.57397165  1.0
  O  O28  1  0.10101629  0.74140093  0.92602835  1.0
  O  O29  1  0.10101629  0.74140093  0.57397165  1.0
  O  O30  1  0.34111663  0.86022956  0.25000000  1.0
  O  O31  1  0.86022956  0.51911293  0.75000000  1.0
  O  O32  1  0.51911293  0.65888337  0.25000000  1.0
  O  O33  1  0.13977044  0.48088707  0.25000000  1.0
  O  O34  1  0.65888337  0.13977044  0.75000000  1.0
  O  O35  1  0.48088707  0.34111663  0.75000000  1.0
  O  O36  1  0.54377389  0.40970215  0.25000000  1.0
  O  O37  1  0.40970215  0.86592826  0.75000000  1.0
  O  O38  1  0.86592826  0.45622611  0.25000000  1.0
  O  O39  1  0.59029785  0.13407174  0.25000000  1.0
  O  O40  1  0.45622611  0.59029785  0.75000000  1.0
  O  O41  1  0.13407174  0.54377389  0.75000000  1.0
