# generated using pymatgen
data_TlGa(SO4)2
_symmetry_space_group_name_H-M   'P 1'
_cell_length_a   4.95139013
_cell_length_b   4.95139013
_cell_length_c   8.60691929
_cell_angle_alpha   90.00000000
_cell_angle_beta   90.00000000
_cell_angle_gamma   120.00000000
_symmetry_Int_Tables_number   1
_chemical_formula_structural   TlGa(SO4)2
_chemical_formula_sum   'Tl1 Ga1 S2 O8'
_cell_volume   182.73959396
_cell_formula_units_Z   1
loop_
 _symmetry_equiv_pos_site_id
 _symmetry_equiv_pos_as_xyz
  1  'x, y, z'
loop_
 _atom_site_type_symbol
 _atom_site_label
 _atom_site_symmetry_multiplicity
 _atom_site_fract_x
 _atom_site_fract_y
 _atom_site_fract_z
 _atom_site_occupancy
  Tl  Tl0  1  0.00000000  0.00000000  0.50000000  1.0
  Ga  Ga1  1  -0.00000000  -0.00000000  -0.00000000  1.0
  S  S2  1  0.33333333  0.66666667  0.20345406  1.0
  S  S3  1  0.66666667  0.33333333  0.79654594  1.0
  O  O4  1  0.25065289  0.90214435  0.14620711  1.0
  O  O5  1  0.90214435  0.25065289  0.85379289  1.0
  O  O6  1  0.65149146  0.74934711  0.14620711  1.0
  O  O7  1  0.09785565  0.34850854  0.14620711  1.0
  O  O8  1  0.74934711  0.65149146  0.85379289  1.0
  O  O9  1  0.34850854  0.09785565  0.85379289  1.0
  O  O10  1  0.33333333  0.66666667  0.37419361  1.0
  O  O11  1  0.66666667  0.33333333  0.62580639  1.0
