# generated using pymatgen
data_CaPtO6
_symmetry_space_group_name_H-M   'P 1'
_cell_length_a   6.61265577
_cell_length_b   6.61265577
_cell_length_c   7.11597530
_cell_angle_alpha   90.00000000
_cell_angle_beta   90.00000000
_cell_angle_gamma   120.00000000
_symmetry_Int_Tables_number   1
_chemical_formula_structural   CaPtO6
_chemical_formula_sum   'Ca2 Pt2 O12'
_cell_volume   269.47401591
_cell_formula_units_Z   2
loop_
 _symmetry_equiv_pos_site_id
 _symmetry_equiv_pos_as_xyz
  1  'x, y, z'
loop_
 _atom_site_type_symbol
 _atom_site_label
 _atom_site_symmetry_multiplicity
 _atom_site_fract_x
 _atom_site_fract_y
 _atom_site_fract_z
 _atom_site_occupancy
  Ca  Ca0  1  0.33333333  0.66666667  0.25000000  1.0
  Ca  Ca1  1  0.66666667  0.33333333  0.75000000  1.0
  Pt  Pt2  1  0.00000000  0.00000000  0.00000000  1.0
  Pt  Pt3  1  0.00000000  0.00000000  0.50000000  1.0
  O  O4  1  0.19871614  0.91376123  0.16149212  1.0
  O  O5  1  0.19871614  0.28495491  0.33850788  1.0
  O  O6  1  0.91376123  0.19871614  0.66149212  1.0
  O  O7  1  0.91376123  0.71504509  0.83850788  1.0
  O  O8  1  0.71504509  0.91376123  0.33850788  1.0
  O  O9  1  0.71504509  0.80128386  0.16149212  1.0
  O  O10  1  0.08623877  0.80128386  0.33850788  1.0
  O  O11  1  0.08623877  0.28495491  0.16149212  1.0
  O  O12  1  0.80128386  0.71504509  0.66149212  1.0
  O  O13  1  0.80128386  0.08623877  0.83850788  1.0
  O  O14  1  0.28495491  0.19871614  0.83850788  1.0
  O  O15  1  0.28495491  0.08623877  0.66149212  1.0
