# generated using pymatgen
data_Ca2B5H3O11
_symmetry_space_group_name_H-M   'P 1'
_cell_length_a   6.34951418
_cell_length_b   6.34951418
_cell_length_c   12.55618606
_cell_angle_alpha   68.90166776
_cell_angle_beta   111.09833224
_cell_angle_gamma   117.36854486
_symmetry_Int_Tables_number   1
_chemical_formula_structural   Ca2B5H3O11
_chemical_formula_sum   'Ca4 B10 H6 O22'
_cell_volume   407.70166638
_cell_formula_units_Z   2
loop_
 _symmetry_equiv_pos_site_id
 _symmetry_equiv_pos_as_xyz
  1  'x, y, z'
loop_
 _atom_site_type_symbol
 _atom_site_label
 _atom_site_symmetry_multiplicity
 _atom_site_fract_x
 _atom_site_fract_y
 _atom_site_fract_z
 _atom_site_occupancy
  Ca  Ca0  1  1.42259588  -0.30410626  0.41856175  1.0
  Ca  Ca1  1  1.30410626  -0.42259588  0.91856175  1.0
  Ca  Ca2  1  1.55428315  0.25502532  0.71934768  1.0
  Ca  Ca3  1  0.74497468  -0.55428315  0.21934768  1.0
  B  B4  1  0.83515522  -0.07330337  0.01563634  1.0
  B  B5  1  1.07330337  0.16484478  0.51563634  1.0
  B  B6  1  1.76480984  0.01514319  0.17339668  1.0
  B  B7  1  0.98485681  -0.76480984  0.67339668  1.0
  B  B8  1  0.61911582  0.20469699  0.96465099  1.0
  B  B9  1  0.79530301  -0.61911582  0.46465099  1.0
  B  B10  1  1.35075669  0.11049883  0.43635042  1.0
  B  B11  1  0.88950117  0.64924331  0.93635042  1.0
  B  B12  1  0.91101942  0.85712172  0.39720583  1.0
  B  B13  1  1.14287828  0.08898058  0.89720583  1.0
  H  H14  1  1.25937213  0.50139843  0.18410666  1.0
  H  H15  1  1.49860157  -0.25937213  0.68410666  1.0
  H  H16  1  1.13066800  0.36212656  0.29202068  1.0
  H  H17  1  1.63787344  -0.13066800  0.79202068  1.0
  H  H18  1  1.24997856  0.27751367  0.11128341  1.0
  H  H19  1  1.72248633  -0.24997856  0.61128341  1.0
  O  O20  1  0.91021068  0.92573777  0.49539599  1.0
  O  O21  1  0.07426223  0.08978932  -0.00460401  1.0
  O  O22  1  1.84054887  -0.12037019  0.14233018  1.0
  O  O23  1  1.12037019  0.15945113  0.64233018  1.0
  O  O24  1  1.79430747  0.00916283  0.28821632  1.0
  O  O25  1  0.99083717  -0.79430747  0.78821632  1.0
  O  O26  1  1.62631199  -0.00093125  0.94157856  1.0
  O  O27  1  1.00093125  0.37368801  0.44157856  1.0
  O  O28  1  1.17992404  0.52663658  0.24170771  1.0
  O  O29  1  1.47336342  -0.17992404  0.74170771  1.0
  O  O30  1  1.66264716  0.17718153  0.09224412  1.0
  O  O31  1  0.82281847  -0.66264716  0.59224412  1.0
  O  O32  1  1.57252476  0.17625581  0.41623095  1.0
  O  O33  1  0.82374419  0.42747524  0.91623095  1.0
  O  O34  1  1.16488617  -0.08464170  0.39362907  1.0
  O  O35  1  1.08464170  -0.16488617  0.89362907  1.0
  O  O36  1  0.39612135  0.24771270  0.89495803  1.0
  O  O37  1  0.75228730  -0.39612135  0.39495803  1.0
  O  O38  1  1.31858281  0.23531401  0.49531046  1.0
  O  O39  1  0.76468599  0.68141719  0.99531046  1.0
  O  O40  1  1.35782750  0.44267434  0.12303818  1.0
  O  O41  1  1.55732566  -0.35782750  0.62303818  1.0
