# generated using pymatgen
data_Sc3Si4Ni11
_symmetry_space_group_name_H-M   'P 1'
_cell_length_a   7.95134737
_cell_length_b   7.95134737
_cell_length_c   8.34217765
_cell_angle_alpha   90.00000000
_cell_angle_beta   90.00000000
_cell_angle_gamma   120.00000000
_symmetry_Int_Tables_number   1
_chemical_formula_structural   Sc3Si4Ni11
_chemical_formula_sum   'Sc6 Si8 Ni22'
_cell_volume   456.76363375
_cell_formula_units_Z   2
loop_
 _symmetry_equiv_pos_site_id
 _symmetry_equiv_pos_as_xyz
  1  'x, y, z'
loop_
 _atom_site_type_symbol
 _atom_site_label
 _atom_site_symmetry_multiplicity
 _atom_site_fract_x
 _atom_site_fract_y
 _atom_site_fract_z
 _atom_site_occupancy
  Sc  Sc0  1  0.19738079  0.80261921  0.25000000  1.0
  Sc  Sc1  1  0.19738079  0.39476157  0.25000000  1.0
  Sc  Sc2  1  0.80261921  0.19738079  0.75000000  1.0
  Sc  Sc3  1  0.80261921  0.60523843  0.75000000  1.0
  Sc  Sc4  1  0.60523843  0.80261921  0.25000000  1.0
  Sc  Sc5  1  0.39476157  0.19738079  0.75000000  1.0
  Si  Si6  1  0.50000000  0.50000000  0.50000000  1.0
  Si  Si7  1  0.50000000  0.50000000  -0.00000000  1.0
  Si  Si8  1  0.50000000  -0.00000000  0.50000000  1.0
  Si  Si9  1  0.50000000  -0.00000000  -0.00000000  1.0
  Si  Si10  1  -0.00000000  0.50000000  0.50000000  1.0
  Si  Si11  1  -0.00000000  0.50000000  -0.00000000  1.0
  Si  Si12  1  -0.00000000  -0.00000000  0.25000000  1.0
  Si  Si13  1  -0.00000000  0.00000000  0.75000000  1.0
  Ni  Ni14  1  0.15287878  0.84712122  0.90701932  1.0
  Ni  Ni15  1  0.15287878  0.84712122  0.59298068  1.0
  Ni  Ni16  1  0.15287878  0.30575755  0.90701932  1.0
  Ni  Ni17  1  0.15287878  0.30575755  0.59298068  1.0
  Ni  Ni18  1  0.84712122  0.15287878  0.40701932  1.0
  Ni  Ni19  1  0.84712122  0.15287878  0.09298068  1.0
  Ni  Ni20  1  0.84712122  0.69424245  0.40701932  1.0
  Ni  Ni21  1  0.84712122  0.69424245  0.09298068  1.0
  Ni  Ni22  1  0.69424245  0.84712122  0.90701932  1.0
  Ni  Ni23  1  0.69424245  0.84712122  0.59298068  1.0
  Ni  Ni24  1  0.30575755  0.15287878  0.40701932  1.0
  Ni  Ni25  1  0.30575755  0.15287878  0.09298068  1.0
  Ni  Ni26  1  0.56102420  0.43897580  0.25000000  1.0
  Ni  Ni27  1  0.56102420  0.12204841  0.25000000  1.0
  Ni  Ni28  1  0.43897580  0.56102420  0.75000000  1.0
  Ni  Ni29  1  0.43897580  0.87795159  0.75000000  1.0
  Ni  Ni30  1  0.87795159  0.43897580  0.25000000  1.0
  Ni  Ni31  1  0.12204841  0.56102420  0.75000000  1.0
  Ni  Ni32  1  0.33333333  0.66666667  0.49684334  1.0
  Ni  Ni33  1  0.33333333  0.66666667  0.00315666  1.0
  Ni  Ni34  1  0.66666667  0.33333333  0.99684334  1.0
  Ni  Ni35  1  0.66666667  0.33333333  0.50315666  1.0
