# generated using pymatgen
data_Ca2H2S2O9
_symmetry_space_group_name_H-M   'P 1'
_cell_length_a   7.01309377
_cell_length_b   7.01309377
_cell_length_c   13.12362060
_cell_angle_alpha   90.00000000
_cell_angle_beta   90.00000000
_cell_angle_gamma   120.00000000
_symmetry_Int_Tables_number   1
_chemical_formula_structural   Ca2H2S2O9
_chemical_formula_sum   'Ca6 H6 S6 O27'
_cell_volume   558.98942195
_cell_formula_units_Z   3
loop_
 _symmetry_equiv_pos_site_id
 _symmetry_equiv_pos_as_xyz
  1  'x, y, z'
loop_
 _atom_site_type_symbol
 _atom_site_label
 _atom_site_symmetry_multiplicity
 _atom_site_fract_x
 _atom_site_fract_y
 _atom_site_fract_z
 _atom_site_occupancy
  Ca  Ca0  1  0.16813865  0.85998676  0.99376216  1.0
  Ca  Ca1  1  0.69184812  0.83186135  0.66042882  1.0
  Ca  Ca2  1  0.14001324  0.30815188  0.32709549  1.0
  Ca  Ca3  1  0.08491955  0.76456598  0.47220408  1.0
  Ca  Ca4  1  0.67964644  0.91508045  0.13887074  1.0
  Ca  Ca5  1  0.23543402  0.32035356  0.80553741  1.0
  H  H6  1  0.72483792  0.38621948  0.79640354  1.0
  H  H7  1  0.66138156  0.27516208  0.46307021  1.0
  H  H8  1  0.61378052  0.33861844  0.12973688  1.0
  H  H9  1  0.54176188  0.16043956  0.75466824  1.0
  H  H10  1  0.61867767  0.45823812  0.42133491  1.0
  H  H11  1  0.83956044  0.38132233  0.08800158  1.0
  S  S12  1  0.15349517  0.77816426  0.73453778  1.0
  S  S13  1  0.62466909  0.84650483  0.40120445  1.0
  S  S14  1  0.22183574  0.37533091  0.06787111  1.0
  S  S15  1  0.12582004  0.80722506  0.23175823  1.0
  S  S16  1  0.68140502  0.87417996  0.89842490  1.0
  S  S17  1  0.19277494  0.31859498  0.56509157  1.0
  O  O18  1  0.52313856  0.91374784  0.95784458  1.0
  O  O19  1  0.39060929  0.47686144  0.62451125  1.0
  O  O20  1  0.08625216  0.60939071  0.29117791  1.0
  O  O21  1  0.16032995  0.97839364  0.30926364  1.0
  O  O22  1  0.81806370  0.83967005  0.97593031  1.0
  O  O23  1  0.02160636  0.18193630  0.64259698  1.0
  O  O24  1  0.15060710  0.93146126  0.81378146  1.0
  O  O25  1  0.78085416  0.84939290  0.48044813  1.0
  O  O26  1  0.06853874  0.21914584  0.14711480  1.0
  O  O27  1  0.32422347  0.88751243  0.16463954  1.0
  O  O28  1  0.56328897  0.67577653  0.83130621  1.0
  O  O29  1  0.11248757  0.43671103  0.49797288  1.0
  O  O30  1  0.37682335  0.88027082  0.68705594  1.0
  O  O31  1  0.50344748  0.62317665  0.35372261  1.0
  O  O32  1  0.11972918  0.49655252  0.02038927  1.0
  O  O33  1  0.98908115  0.74487736  0.65272238  1.0
  O  O34  1  0.75579620  0.01091885  0.31938905  1.0
  O  O35  1  0.25512264  0.24420380  -0.01394428  1.0
  O  O36  1  0.93751419  0.75772998  0.16276885  1.0
  O  O37  1  0.82021579  0.06248581  0.82943552  1.0
  O  O38  1  0.24227002  0.17978421  0.49610219  1.0
  O  O39  1  0.08935942  0.56503935  0.78513265  1.0
  O  O40  1  0.47567992  0.91064058  0.45179932  1.0
  O  O41  1  0.43496065  0.52432008  0.11846598  1.0
  O  O42  1  0.56732543  0.30022794  0.78295691  1.0
  O  O43  1  0.73290251  0.43267457  0.44962358  1.0
  O  O44  1  0.69977206  0.26709749  0.11629024  1.0
