# generated using pymatgen
data_Fe4O5
_symmetry_space_group_name_H-M   'P 1'
_cell_length_a   5.05778112
_cell_length_b   5.05778112
_cell_length_c   12.64486222
_cell_angle_alpha   90.00000000
_cell_angle_beta   90.00000000
_cell_angle_gamma   147.35042343
_symmetry_Int_Tables_number   1
_chemical_formula_structural   Fe4O5
_chemical_formula_sum   'Fe8 O10'
_cell_volume   174.51197693
_cell_formula_units_Z   2
loop_
 _symmetry_equiv_pos_site_id
 _symmetry_equiv_pos_as_xyz
  1  'x, y, z'
loop_
 _atom_site_type_symbol
 _atom_site_label
 _atom_site_symmetry_multiplicity
 _atom_site_fract_x
 _atom_site_fract_y
 _atom_site_fract_z
 _atom_site_occupancy
  Fe  Fe0  1  0.26271365  0.73728635  0.88248947  1.0
  Fe  Fe1  1  0.26271365  0.73728635  0.61751053  1.0
  Fe  Fe2  1  -0.26271365  0.26271365  0.38248947  1.0
  Fe  Fe3  1  -0.26271365  0.26271365  0.11751053  1.0
  Fe  Fe4  1  -0.50055409  0.50055409  0.75000000  1.0
  Fe  Fe5  1  0.50055409  0.49944591  0.25000000  1.0
  Fe  Fe6  1  0.00000000  0.00000000  0.00000000  1.0
  Fe  Fe7  1  0.00000000  0.00000000  0.50000000  1.0
  O  O8  1  0.08296366  0.91703634  0.35914528  1.0
  O  O9  1  0.08296366  0.91703634  0.14085472  1.0
  O  O10  1  -0.08296366  0.08296366  0.85914528  1.0
  O  O11  1  -0.08296366  0.08296366  0.64085472  1.0
  O  O12  1  -0.36860254  0.36860254  0.96316912  1.0
  O  O13  1  -0.36860254  0.36860254  0.53683088  1.0
  O  O14  1  0.36860254  0.63139746  0.46316912  1.0
  O  O15  1  0.36860254  0.63139746  0.03683088  1.0
  O  O16  1  0.15679727  0.84320273  0.75000000  1.0
  O  O17  1  -0.15679727  0.15679727  0.25000000  1.0
