# generated using pymatgen
data_PW4Cl11
_symmetry_space_group_name_H-M   'P 1'
_cell_length_a   8.55675116
_cell_length_b   8.55675116
_cell_length_c   11.48180415
_cell_angle_alpha   89.33038336
_cell_angle_beta   90.66961664
_cell_angle_gamma   108.47935581
_symmetry_Int_Tables_number   1
_chemical_formula_structural   PW4Cl11
_chemical_formula_sum   'P2 W8 Cl22'
_cell_volume   797.24500097
_cell_formula_units_Z   2
loop_
 _symmetry_equiv_pos_site_id
 _symmetry_equiv_pos_as_xyz
  1  'x, y, z'
loop_
 _atom_site_type_symbol
 _atom_site_label
 _atom_site_symmetry_multiplicity
 _atom_site_fract_x
 _atom_site_fract_y
 _atom_site_fract_z
 _atom_site_occupancy
  P  P0  1  0.67302202  -0.67302202  0.74872104  1.0
  P  P1  1  0.32697798  -0.32697798  0.25127896  1.0
  W  W2  1  0.90571234  -0.64474942  0.87293242  1.0
  W  W3  1  1.64474942  0.09428766  0.87293242  1.0
  W  W4  1  1.09428766  0.64474942  0.12706758  1.0
  W  W5  1  0.35525058  -0.09428766  0.12706758  1.0
  W  W6  1  0.90572771  -0.64477375  0.62803381  1.0
  W  W7  1  1.64477375  0.09427229  0.62803381  1.0
  W  W8  1  1.09427229  0.64477375  0.37196619  1.0
  W  W9  1  0.35522625  -0.09427229  0.37196619  1.0
  Cl  Cl10  1  1.07232321  0.24120458  0.75294703  1.0
  Cl  Cl11  1  0.75879542  -0.07232321  0.75294703  1.0
  Cl  Cl12  1  0.92767679  -0.24120458  0.24705297  1.0
  Cl  Cl13  1  1.24120458  0.07232321  0.24705297  1.0
  Cl  Cl14  1  0.52557888  -0.52557888  0.74632615  1.0
  Cl  Cl15  1  0.47442112  -0.47442112  0.25367385  1.0
  Cl  Cl16  1  1.01121986  0.60797029  0.74914546  1.0
  Cl  Cl17  1  0.39202971  -0.01121986  0.74914546  1.0
  Cl  Cl18  1  0.98878014  -0.60797029  0.25085454  1.0
  Cl  Cl19  1  1.60797029  0.01121986  0.25085454  1.0
  Cl  Cl20  1  0.87236347  -0.87236347  0.00704011  1.0
  Cl  Cl21  1  0.12763653  -0.12763653  0.99295989  1.0
  Cl  Cl22  1  0.81988591  -0.47824503  0.01301691  1.0
  Cl  Cl23  1  1.47824503  0.18011409  0.01301691  1.0
  Cl  Cl24  1  1.18011409  0.47824503  0.98698309  1.0
  Cl  Cl25  1  0.52175497  -0.18011409  0.98698309  1.0
  Cl  Cl26  1  0.87258312  -0.87258312  0.49754346  1.0
  Cl  Cl27  1  0.12741688  -0.12741688  0.50245654  1.0
  Cl  Cl28  1  0.81994622  -0.47835205  0.48350381  1.0
  Cl  Cl29  1  1.47835205  0.18005378  0.48350381  1.0
  Cl  Cl30  1  1.18005378  0.47835205  0.51649619  1.0
  Cl  Cl31  1  0.52164795  -0.18005378  0.51649619  1.0
