# generated using pymatgen
data_Ti4Be
_symmetry_space_group_name_H-M   'P 1'
_cell_length_a   6.27503589
_cell_length_b   6.27503589
_cell_length_c   6.27503589
_cell_angle_alpha   60.00000000
_cell_angle_beta   60.00000000
_cell_angle_gamma   60.00000000
_symmetry_Int_Tables_number   1
_chemical_formula_structural   Ti4Be
_chemical_formula_sum   'Ti8 Be2'
_cell_volume   174.71638890
_cell_formula_units_Z   2
loop_
 _symmetry_equiv_pos_site_id
 _symmetry_equiv_pos_as_xyz
  1  'x, y, z'
loop_
 _atom_site_type_symbol
 _atom_site_label
 _atom_site_symmetry_multiplicity
 _atom_site_fract_x
 _atom_site_fract_y
 _atom_site_fract_z
 _atom_site_occupancy
  Ti  Ti0  1  -0.10781515  0.89218485  0.32344545  1.0
  Ti  Ti1  1  0.89218485  -0.67655455  0.89218485  1.0
  Ti  Ti2  1  0.35781515  0.35781515  0.35781515  1.0
  Ti  Ti3  1  -0.07344545  0.35781515  0.35781515  1.0
  Ti  Ti4  1  -0.67655455  0.89218485  0.89218485  1.0
  Ti  Ti5  1  0.89218485  -0.10781515  0.89218485  1.0
  Ti  Ti6  1  0.35781515  -0.07344545  0.35781515  1.0
  Ti  Ti7  1  0.35781515  0.35781515  -0.07344545  1.0
  Be  Be8  1  0.50000000  0.50000000  -0.50000000  1.0
  Be  Be9  1  0.75000000  -0.25000000  0.75000000  1.0
