# generated using pymatgen
data_Co3B(OF)3
_symmetry_space_group_name_H-M   'P 1'
_cell_length_a   8.94285302
_cell_length_b   8.94285302
_cell_length_c   3.17904208
_cell_angle_alpha   90.00000000
_cell_angle_beta   90.00000000
_cell_angle_gamma   120.00000000
_symmetry_Int_Tables_number   1
_chemical_formula_structural   Co3B(OF)3
_chemical_formula_sum   'Co6 B2 O6 F6'
_cell_volume   220.18062211
_cell_formula_units_Z   2
loop_
 _symmetry_equiv_pos_site_id
 _symmetry_equiv_pos_as_xyz
  1  'x, y, z'
loop_
 _atom_site_type_symbol
 _atom_site_label
 _atom_site_symmetry_multiplicity
 _atom_site_fract_x
 _atom_site_fract_y
 _atom_site_fract_z
 _atom_site_occupancy
  Co  Co0  1  0.64541267  0.61814826  0.25000000  1.0
  Co  Co1  1  0.61814826  0.97273559  0.75000000  1.0
  Co  Co2  1  0.97273559  0.35458733  0.25000000  1.0
  Co  Co3  1  0.38185174  0.02726441  0.25000000  1.0
  Co  Co4  1  0.35458733  0.38185174  0.75000000  1.0
  Co  Co5  1  0.02726441  0.64541267  0.75000000  1.0
  B  B6  1  0.33333333  0.66666667  0.25000000  1.0
  B  B7  1  0.66666667  0.33333333  0.75000000  1.0
  O  O8  1  0.44808655  0.84206410  0.25000000  1.0
  O  O9  1  0.84206410  0.39397755  0.75000000  1.0
  O  O10  1  0.39397755  0.55191345  0.25000000  1.0
  O  O11  1  0.15793590  0.60602245  0.25000000  1.0
  O  O12  1  0.55191345  0.15793590  0.75000000  1.0
  O  O13  1  0.60602245  0.44808655  0.75000000  1.0
  F  F14  1  0.90218802  0.69112733  0.25000000  1.0
  F  F15  1  0.69112733  0.78893931  0.75000000  1.0
  F  F16  1  0.78893931  0.09781198  0.25000000  1.0
  F  F17  1  0.30887267  0.21106069  0.25000000  1.0
  F  F18  1  0.09781198  0.30887267  0.75000000  1.0
  F  F19  1  0.21106069  0.90218802  0.75000000  1.0
