# generated using pymatgen
data_In2Te
_symmetry_space_group_name_H-M   'P 1'
_cell_length_a   11.91724531
_cell_length_b   16.21443473
_cell_length_c   4.23044419
_cell_angle_alpha   90.00000000
_cell_angle_beta   90.00000000
_cell_angle_gamma   90.00000000
_symmetry_Int_Tables_number   1
_chemical_formula_structural   In2Te
_chemical_formula_sum   'In16 Te8'
_cell_volume   817.45463764
_cell_formula_units_Z   8
loop_
 _symmetry_equiv_pos_site_id
 _symmetry_equiv_pos_as_xyz
  1  'x, y, z'
loop_
 _atom_site_type_symbol
 _atom_site_label
 _atom_site_symmetry_multiplicity
 _atom_site_fract_x
 _atom_site_fract_y
 _atom_site_fract_z
 _atom_site_occupancy
  In  In0  1  0.67859854  0.47778426  0.50000000  1.0
  In  In1  1  0.32140146  0.52221574  0.50000000  1.0
  In  In2  1  0.82140146  0.97778426  0.00000000  1.0
  In  In3  1  0.17859854  0.02221574  0.00000000  1.0
  In  In4  1  0.60111171  0.11453816  0.50000000  1.0
  In  In5  1  0.39888829  0.88546184  0.50000000  1.0
  In  In6  1  0.89888829  0.61453816  0.00000000  1.0
  In  In7  1  0.10111171  0.38546184  0.00000000  1.0
  In  In8  1  0.75972456  0.74625737  0.50000000  1.0
  In  In9  1  0.24027544  0.25374263  0.50000000  1.0
  In  In10  1  0.74027544  0.24625737  0.00000000  1.0
  In  In11  1  0.25972456  0.75374263  0.00000000  1.0
  In  In12  1  0.88477881  0.12283785  0.50000000  1.0
  In  In13  1  0.11522119  0.87716215  0.50000000  1.0
  In  In14  1  0.61522119  0.62283785  0.00000000  1.0
  In  In15  1  0.38477881  0.37716215  0.00000000  1.0
  Te  Te16  1  0.55704353  0.31352259  0.50000000  1.0
  Te  Te17  1  0.44295647  0.68647741  0.50000000  1.0
  Te  Te18  1  0.94295647  0.81352259  0.00000000  1.0
  Te  Te19  1  0.05704353  0.18647741  0.00000000  1.0
  Te  Te20  1  0.65662152  0.91817045  0.50000000  1.0
  Te  Te21  1  0.34337848  0.08182955  0.50000000  1.0
  Te  Te22  1  0.84337848  0.41817045  0.00000000  1.0
  Te  Te23  1  0.15662152  0.58182955  0.00000000  1.0
