# generated using pymatgen
data_Rb3Bi2I9
_symmetry_space_group_name_H-M   'P 1'
_cell_length_a   20.90384422
_cell_length_b   8.94385305
_cell_length_c   14.68109322
_cell_angle_alpha   90.00000000
_cell_angle_beta   89.44907635
_cell_angle_gamma   90.00000000
_symmetry_Int_Tables_number   1
_chemical_formula_structural   Rb3Bi2I9
_chemical_formula_sum   'Rb12 Bi8 I36'
_cell_volume   2744.66367629
_cell_formula_units_Z   4
loop_
 _symmetry_equiv_pos_site_id
 _symmetry_equiv_pos_as_xyz
  1  'x, y, z'
loop_
 _atom_site_type_symbol
 _atom_site_label
 _atom_site_symmetry_multiplicity
 _atom_site_fract_x
 _atom_site_fract_y
 _atom_site_fract_z
 _atom_site_occupancy
  Rb  Rb0  1  0.73707465  0.57678820  0.50089671  1.0
  Rb  Rb1  1  0.26292535  0.07678820  0.99910329  1.0
  Rb  Rb2  1  0.26292535  0.42321180  0.49910329  1.0
  Rb  Rb3  1  0.73707465  0.92321180  0.00089671  1.0
  Rb  Rb4  1  0.06942043  0.58745181  0.17687371  1.0
  Rb  Rb5  1  0.93057957  0.08745181  0.32312629  1.0
  Rb  Rb6  1  0.93057957  0.41254819  0.82312629  1.0
  Rb  Rb7  1  0.06942043  0.91254819  0.67687371  1.0
  Rb  Rb8  1  0.58280551  0.41467382  0.15583209  1.0
  Rb  Rb9  1  0.41719449  0.91467382  0.34416791  1.0
  Rb  Rb10  1  0.41719449  0.58532618  0.84416791  1.0
  Rb  Rb11  1  0.58280551  0.08532618  0.65583209  1.0
  Bi  Bi12  1  0.33807446  0.50726603  0.16781721  1.0
  Bi  Bi13  1  0.66192554  0.00726603  0.33218279  1.0
  Bi  Bi14  1  0.66192554  0.49273397  0.83218279  1.0
  Bi  Bi15  1  0.33807446  0.99273397  0.66781721  1.0
  Bi  Bi16  1  0.83758849  0.50960248  0.17163342  1.0
  Bi  Bi17  1  0.16241151  1.00960248  0.32836658  1.0
  Bi  Bi18  1  0.16241151  0.49039752  0.82836658  1.0
  Bi  Bi19  1  0.83758849  -0.00960248  0.67163342  1.0
  I  I20  1  0.78610611  -0.02377448  0.46051433  1.0
  I  I21  1  0.21389389  0.47622552  0.03948567  1.0
  I  I22  1  0.21389389  1.02377448  0.53948567  1.0
  I  I23  1  0.78610611  0.52377448  0.96051433  1.0
  I  I24  1  0.11434384  -0.01020987  0.13845167  1.0
  I  I25  1  0.88565616  0.48979013  0.36154833  1.0
  I  I26  1  0.88565616  1.01020987  0.86154833  1.0
  I  I27  1  0.11434384  0.51020987  0.63845167  1.0
  I  I28  1  0.55929714  1.00530864  0.19053392  1.0
  I  I29  1  0.44070286  0.50530864  0.30946608  1.0
  I  I30  1  0.44070286  -0.00530864  0.80946608  1.0
  I  I31  1  0.55929714  0.49469136  0.69053392  1.0
  I  I32  1  0.05561004  0.81488786  0.40050082  1.0
  I  I33  1  0.94438996  0.31488786  0.09949918  1.0
  I  I34  1  0.94438996  0.18511214  0.59949918  1.0
  I  I35  1  0.05561004  0.68511214  0.90050082  1.0
  I  I36  1  0.58463383  0.81245888  0.45892209  1.0
  I  I37  1  0.41536617  0.31245888  0.04107791  1.0
  I  I38  1  0.41536617  0.18754112  0.54107791  1.0
  I  I39  1  0.58463383  0.68754112  0.95892209  1.0
  I  I40  1  0.38574671  0.78762749  0.08068935  1.0
  I  I41  1  0.61425329  0.28762749  0.41931065  1.0
  I  I42  1  0.61425329  0.21237251  0.91931065  1.0
  I  I43  1  0.38574671  0.71237251  0.58068935  1.0
  I  I44  1  0.90704470  0.79409648  0.13129459  1.0
  I  I45  1  0.09295530  0.29409648  0.36870541  1.0
  I  I46  1  0.09295530  0.20590352  0.86870541  1.0
  I  I47  1  0.90704470  0.70590352  0.63129459  1.0
  I  I48  1  0.71047820  0.80761035  0.73297481  1.0
  I  I49  1  0.28952180  0.30761035  0.76702519  1.0
  I  I50  1  0.28952180  0.19238965  0.26702519  1.0
  I  I51  1  0.71047820  0.69238965  0.23297481  1.0
  I  I52  1  0.24883962  0.79934183  0.80778332  1.0
  I  I53  1  0.75116038  0.29934183  0.69221668  1.0
  I  I54  1  0.75116038  0.20065817  0.19221668  1.0
  I  I55  1  0.24883962  0.70065817  0.30778332  1.0
