# generated using pymatgen
data_Cs2Bi2Pt
_symmetry_space_group_name_H-M   'P 1'
_cell_length_a   8.52282604
_cell_length_b   8.52282604
_cell_length_c   7.24379957
_cell_angle_alpha   90.00000000
_cell_angle_beta   90.00000000
_cell_angle_gamma   125.48351621
_symmetry_Int_Tables_number   1
_chemical_formula_structural   Cs2Bi2Pt
_chemical_formula_sum   'Cs4 Bi4 Pt2'
_cell_volume   428.45853846
_cell_formula_units_Z   2
loop_
 _symmetry_equiv_pos_site_id
 _symmetry_equiv_pos_as_xyz
  1  'x, y, z'
loop_
 _atom_site_type_symbol
 _atom_site_label
 _atom_site_symmetry_multiplicity
 _atom_site_fract_x
 _atom_site_fract_y
 _atom_site_fract_z
 _atom_site_occupancy
  Cs  Cs0  1  0.19149026  0.80850974  0.75000000  1.0
  Cs  Cs1  1  -0.19149026  0.19149026  0.25000000  1.0
  Cs  Cs2  1  -0.39257297  0.39257297  0.75000000  1.0
  Cs  Cs3  1  0.39257297  0.60742703  0.25000000  1.0
  Bi  Bi4  1  0.09509060  0.28994661  0.75000000  1.0
  Bi  Bi5  1  0.28994661  1.09509060  0.25000000  1.0
  Bi  Bi6  1  0.71005339  0.90490940  0.75000000  1.0
  Bi  Bi7  1  -0.09509060  0.71005339  0.25000000  1.0
  Pt  Pt8  1  0.00000000  0.00000000  0.00000000  1.0
  Pt  Pt9  1  0.00000000  0.00000000  0.50000000  1.0
