# generated using pymatgen
data_Zn2SeCl2O3
_symmetry_space_group_name_H-M   'P 1'
_cell_length_a   7.94550706
_cell_length_b   10.45962559
_cell_length_c   7.82788162
_cell_angle_alpha   90.00000000
_cell_angle_beta   98.24727651
_cell_angle_gamma   90.00000000
_symmetry_Int_Tables_number   1
_chemical_formula_structural   Zn2SeCl2O3
_chemical_formula_sum   'Zn8 Se4 Cl8 O12'
_cell_volume   643.82411079
_cell_formula_units_Z   4
loop_
 _symmetry_equiv_pos_site_id
 _symmetry_equiv_pos_as_xyz
  1  'x, y, z'
loop_
 _atom_site_type_symbol
 _atom_site_label
 _atom_site_symmetry_multiplicity
 _atom_site_fract_x
 _atom_site_fract_y
 _atom_site_fract_z
 _atom_site_occupancy
  Zn  Zn0  1  0.92018220  0.72164031  0.87761354  1.0
  Zn  Zn1  1  0.92018220  0.77835969  0.37761354  1.0
  Zn  Zn2  1  0.07981780  0.22164031  0.62238646  1.0
  Zn  Zn3  1  0.07981780  0.27835969  0.12238646  1.0
  Zn  Zn4  1  0.77940828  0.49310771  0.61165512  1.0
  Zn  Zn5  1  0.77940828  0.00689229  0.11165512  1.0
  Zn  Zn6  1  0.22059172  0.99310771  0.88834488  1.0
  Zn  Zn7  1  0.22059172  0.50689229  0.38834488  1.0
  Se  Se8  1  0.81742669  0.96584518  0.69143542  1.0
  Se  Se9  1  0.81742669  0.53415482  0.19143542  1.0
  Se  Se10  1  0.18257331  0.46584518  0.80856458  1.0
  Se  Se11  1  0.18257331  0.03415482  0.30856458  1.0
  Cl  Cl12  1  0.61598835  0.60368810  0.76820997  1.0
  Cl  Cl13  1  0.61598835  0.89631190  0.26820997  1.0
  Cl  Cl14  1  0.38401165  0.10368810  0.73179003  1.0
  Cl  Cl15  1  0.38401165  0.39631190  0.23179003  1.0
  Cl  Cl16  1  0.22047319  0.78559405  0.95718332  1.0
  Cl  Cl17  1  0.22047319  0.71440595  0.45718332  1.0
  Cl  Cl18  1  0.77952681  0.28559405  0.54281668  1.0
  Cl  Cl19  1  0.77952681  0.21440595  0.04281668  1.0
  O  O20  1  0.99105261  0.55022406  0.77566077  1.0
  O  O21  1  0.99105261  0.94977594  0.27566077  1.0
  O  O22  1  0.00894739  0.05022406  0.72433923  1.0
  O  O23  1  0.00894739  0.44977594  0.22433923  1.0
  O  O24  1  0.88618974  0.81971658  0.62489756  1.0
  O  O25  1  0.88618974  0.68028342  0.12489756  1.0
  O  O26  1  0.11381026  0.31971658  0.87510244  1.0
  O  O27  1  0.11381026  0.18028342  0.37510244  1.0
  O  O28  1  0.80870680  0.90666851  0.89735661  1.0
  O  O29  1  0.80870680  0.59333149  0.39735661  1.0
  O  O30  1  0.19129320  0.40666851  0.60264339  1.0
  O  O31  1  0.19129320  0.09333149  0.10264339  1.0
