# generated using pymatgen
data_Al2SiO5
_symmetry_space_group_name_H-M   'P 1'
_cell_length_a   7.78657431
_cell_length_b   5.82275847
_cell_length_c   7.58096767
_cell_angle_alpha   90.00000000
_cell_angle_beta   90.00000000
_cell_angle_gamma   90.00000000
_symmetry_Int_Tables_number   1
_chemical_formula_structural   Al2SiO5
_chemical_formula_sum   'Al8 Si4 O20'
_cell_volume   343.71608238
_cell_formula_units_Z   4
loop_
 _symmetry_equiv_pos_site_id
 _symmetry_equiv_pos_as_xyz
  1  'x, y, z'
loop_
 _atom_site_type_symbol
 _atom_site_label
 _atom_site_symmetry_multiplicity
 _atom_site_fract_x
 _atom_site_fract_y
 _atom_site_fract_z
 _atom_site_occupancy
  Al  Al0  1  0.34624001  0.75000000  0.14281530  1.0
  Al  Al1  1  0.84624001  0.75000000  0.35718470  1.0
  Al  Al2  1  0.65375999  0.25000000  0.85718470  1.0
  Al  Al3  1  0.15375999  0.25000000  0.64281530  1.0
  Al  Al4  1  0.50000000  0.00000000  0.50000000  1.0
  Al  Al5  1  0.50000000  0.50000000  0.50000000  1.0
  Al  Al6  1  0.00000000  0.00000000  0.00000000  1.0
  Al  Al7  1  0.00000000  0.50000000  0.00000000  1.0
  Si  Si8  1  0.15904249  0.75000000  0.65295481  1.0
  Si  Si9  1  0.65904249  0.75000000  0.84704519  1.0
  Si  Si10  1  0.84095751  0.25000000  0.34704519  1.0
  Si  Si11  1  0.34095751  0.25000000  0.15295481  1.0
  O  O12  1  0.27636827  0.98600779  0.62548829  1.0
  O  O13  1  0.27636827  0.51399221  0.62548829  1.0
  O  O14  1  0.77636827  0.98600779  0.87451171  1.0
  O  O15  1  0.77636827  0.51399221  0.87451171  1.0
  O  O16  1  0.72363173  0.48600779  0.37451171  1.0
  O  O17  1  0.72363173  0.01399221  0.37451171  1.0
  O  O18  1  0.22363173  0.48600779  0.12548829  1.0
  O  O19  1  0.22363173  0.01399221  0.12548829  1.0
  O  O20  1  0.49877875  0.75000000  0.97757458  1.0
  O  O21  1  0.99877875  0.75000000  0.52242542  1.0
  O  O22  1  0.50122125  0.25000000  0.02242542  1.0
  O  O23  1  0.00122125  0.25000000  0.47757458  1.0
  O  O24  1  0.08994943  0.75000000  0.85949395  1.0
  O  O25  1  0.58994943  0.75000000  0.64050605  1.0
  O  O26  1  0.91005057  0.25000000  0.14050605  1.0
  O  O27  1  0.41005057  0.25000000  0.35949395  1.0
  O  O28  1  0.93460296  0.75000000  0.14269489  1.0
  O  O29  1  0.43460296  0.75000000  0.35730511  1.0
  O  O30  1  0.06539704  0.25000000  0.85730511  1.0
  O  O31  1  0.56539704  0.25000000  0.64269489  1.0
