# generated using pymatgen
data_Rb3MnO3
_symmetry_space_group_name_H-M   'P 1'
_cell_length_a   6.97385573
_cell_length_b   12.02237007
_cell_length_c   7.14153673
_cell_angle_alpha   90.00000000
_cell_angle_beta   98.71368746
_cell_angle_gamma   90.00000000
_symmetry_Int_Tables_number   1
_chemical_formula_structural   Rb3MnO3
_chemical_formula_sum   'Rb12 Mn4 O12'
_cell_volume   591.85159770
_cell_formula_units_Z   4
loop_
 _symmetry_equiv_pos_site_id
 _symmetry_equiv_pos_as_xyz
  1  'x, y, z'
loop_
 _atom_site_type_symbol
 _atom_site_label
 _atom_site_symmetry_multiplicity
 _atom_site_fract_x
 _atom_site_fract_y
 _atom_site_fract_z
 _atom_site_occupancy
  Mn  Mn0  1  0.84069680  0.49676337  0.34453465  1.0
  Mn  Mn1  1  0.84069680  0.00323663  0.84453465  1.0
  Mn  Mn2  1  0.15930320  0.99676337  0.15546535  1.0
  Mn  Mn3  1  0.15930320  0.50323663  0.65546535  1.0
  O  O4  1  0.70044757  0.37742775  0.22890199  1.0
  O  O5  1  0.70044757  0.12257225  0.72890199  1.0
  O  O6  1  0.29955243  0.87742775  0.27109801  1.0
  O  O7  1  0.29955243  0.62257225  0.77109801  1.0
  O  O8  1  0.27449638  0.11519420  0.29656863  1.0
  O  O9  1  0.27449638  0.38480580  0.79656863  1.0
  O  O10  1  0.72550362  0.61519420  0.20343137  1.0
  O  O11  1  0.72550362  0.88480580  0.70343137  1.0
  O  O12  1  0.90271545  0.92775434  0.08987215  1.0
  O  O13  1  0.90271545  0.57224566  0.58987215  1.0
  O  O14  1  0.09728455  0.42775434  0.41012785  1.0
  O  O15  1  0.09728455  0.07224566  0.91012785  1.0
  Rb  Rb16  1  0.99384285  0.77138910  0.41700189  1.0
  Rb  Rb17  1  0.99384285  0.72861090  0.91700189  1.0
  Rb  Rb18  1  0.00615715  0.27138910  0.08299811  1.0
  Rb  Rb19  1  0.00615715  0.22861090  0.58299811  1.0
  Rb  Rb20  1  0.66074872  0.00949673  0.35806829  1.0
  Rb  Rb21  1  0.66074872  0.49050327  0.85806829  1.0
  Rb  Rb22  1  0.33925128  0.50949673  0.14193171  1.0
  Rb  Rb23  1  0.33925128  0.99050327  0.64193171  1.0
  Rb  Rb24  1  0.46966143  0.29060846  0.49351526  1.0
  Rb  Rb25  1  0.46966143  0.20939154  0.99351526  1.0
  Rb  Rb26  1  0.53033857  0.79060846  0.00648474  1.0
  Rb  Rb27  1  0.53033857  0.70939154  0.50648474  1.0
