# generated using pymatgen
data_CaZn2(SiO4)2
_symmetry_space_group_name_H-M   'P 1'
_cell_length_a   5.15689501
_cell_length_b   5.15689501
_cell_length_c   12.93073709
_cell_angle_alpha   90.00000000
_cell_angle_beta   90.00000000
_cell_angle_gamma   102.31556542
_symmetry_Int_Tables_number   1
_chemical_formula_structural   CaZn2(SiO4)2
_chemical_formula_sum   'Ca2 Zn4 Si4 O16'
_cell_volume   335.96105927
_cell_formula_units_Z   2
loop_
 _symmetry_equiv_pos_site_id
 _symmetry_equiv_pos_as_xyz
  1  'x, y, z'
loop_
 _atom_site_type_symbol
 _atom_site_label
 _atom_site_symmetry_multiplicity
 _atom_site_fract_x
 _atom_site_fract_y
 _atom_site_fract_z
 _atom_site_occupancy
  O  O0  1  0.11381144  0.38237387  0.45670004  1.0
  O  O1  1  0.61762613  0.88618856  0.95670004  1.0
  O  O2  1  0.61762613  0.88618856  0.54329996  1.0
  O  O3  1  0.11381144  0.38237387  0.04329996  1.0
  O  O4  1  -0.34734165  1.41259950  0.37396846  1.0
  O  O5  1  -0.41259950  1.34734165  0.87396846  1.0
  O  O6  1  -0.41259950  1.34734165  0.62603154  1.0
  O  O7  1  -0.34734165  1.41259950  0.12603154  1.0
  O  O8  1  0.07397010  0.41985425  0.25000000  1.0
  O  O9  1  0.58014575  0.92602990  0.75000000  1.0
  O  O10  1  0.70016459  0.78067582  0.25000000  1.0
  O  O11  1  0.21932418  0.29983541  0.75000000  1.0
  O  O12  1  0.09431085  0.84512956  0.37397564  1.0
  O  O13  1  0.15487044  0.90568915  0.87397564  1.0
  O  O14  1  0.15487044  0.90568915  0.62602436  1.0
  O  O15  1  0.09431085  0.84512956  0.12602436  1.0
  Zn  Zn16  1  -0.01261914  0.01261914  0.50000000  1.0
  Zn  Zn17  1  -0.01261914  0.01261914  0.00000000  1.0
  Zn  Zn18  1  0.48203179  0.51796821  0.50000000  1.0
  Zn  Zn19  1  0.48203179  0.51796821  0.00000000  1.0
  Ca  Ca20  1  -0.61889544  1.11335578  0.25000000  1.0
  Ca  Ca21  1  -0.11335578  1.61889544  0.75000000  1.0
  Si  Si22  1  -0.02523249  1.52543455  0.36373661  1.0
  Si  Si23  1  -0.52543455  1.02523249  0.86373661  1.0
  Si  Si24  1  -0.52543455  1.02523249  0.63626339  1.0
  Si  Si25  1  -0.02523249  1.52543455  0.13626339  1.0
