# generated using pymatgen
data_K2PSe3
_symmetry_space_group_name_H-M   'P 1'
_cell_length_a   14.20122005
_cell_length_b   12.73947528
_cell_length_c   8.90765522
_cell_angle_alpha   90.00000000
_cell_angle_beta   91.13162762
_cell_angle_gamma   90.00000000
_symmetry_Int_Tables_number   1
_chemical_formula_structural   K2PSe3
_chemical_formula_sum   'K16 P8 Se24'
_cell_volume   1611.22385969
_cell_formula_units_Z   8
loop_
 _symmetry_equiv_pos_site_id
 _symmetry_equiv_pos_as_xyz
  1  'x, y, z'
loop_
 _atom_site_type_symbol
 _atom_site_label
 _atom_site_symmetry_multiplicity
 _atom_site_fract_x
 _atom_site_fract_y
 _atom_site_fract_z
 _atom_site_occupancy
  K  K0  1  0.93937703  0.73941272  0.23098386  1.0
  K  K1  1  0.93937703  0.76058728  0.73098386  1.0
  K  K2  1  0.06062297  0.23941272  0.26901614  1.0
  K  K3  1  0.06062297  0.26058728  0.76901614  1.0
  K  K4  1  0.80719471  0.05455416  0.31557718  1.0
  K  K5  1  0.80719471  0.44544584  0.81557718  1.0
  K  K6  1  0.19280529  0.55455416  0.18442282  1.0
  K  K7  1  0.19280529  0.94544584  0.68442282  1.0
  K  K8  1  0.70051706  0.41204069  0.29818604  1.0
  K  K9  1  0.70051706  0.08795931  0.79818604  1.0
  K  K10  1  0.29948294  0.91204069  0.20181396  1.0
  K  K11  1  0.29948294  0.58795931  0.70181396  1.0
  K  K12  1  0.44622907  0.22039954  0.18643922  1.0
  K  K13  1  0.44622907  0.27960046  0.68643922  1.0
  K  K14  1  0.55377093  0.72039954  0.31356078  1.0
  K  K15  1  0.55377093  0.77960046  0.81356078  1.0
  P  P16  1  0.93100851  0.47803472  0.43458767  1.0
  P  P17  1  0.93100851  0.02196528  0.93458767  1.0
  P  P18  1  0.06899149  0.97803472  0.06541233  1.0
  P  P19  1  0.06899149  0.52196528  0.56541233  1.0
  P  P20  1  0.56829748  0.00864041  0.43107728  1.0
  P  P21  1  0.56829748  0.49135959  0.93107728  1.0
  P  P22  1  0.43170252  0.50864041  0.06892272  1.0
  P  P23  1  0.43170252  0.99135959  0.56892272  1.0
  Se  Se24  1  0.96217872  0.47780657  0.19225781  1.0
  Se  Se25  1  0.96217872  0.02219343  0.69225781  1.0
  Se  Se26  1  0.03782128  0.97780657  0.30774219  1.0
  Se  Se27  1  0.03782128  0.52219343  0.80774219  1.0
  Se  Se28  1  0.88997634  0.18044151  0.01220169  1.0
  Se  Se29  1  0.88997634  0.31955849  0.51220169  1.0
  Se  Se30  1  0.11002366  0.68044151  0.48779831  1.0
  Se  Se31  1  0.11002366  0.81955849  0.98779831  1.0
  Se  Se32  1  0.82456610  0.90282996  0.99423326  1.0
  Se  Se33  1  0.82456610  0.59717004  0.49423326  1.0
  Se  Se34  1  0.17543390  0.40282996  0.50576674  1.0
  Se  Se35  1  0.17543390  0.09717004  0.00576674  1.0
  Se  Se36  1  0.61549605  0.17303219  0.46602750  1.0
  Se  Se37  1  0.61549605  0.32696781  0.96602750  1.0
  Se  Se38  1  0.38450395  0.67303219  0.03397250  1.0
  Se  Se39  1  0.38450395  0.82696781  0.53397250  1.0
  Se  Se40  1  0.46536365  0.47483268  0.30679501  1.0
  Se  Se41  1  0.46536365  0.02516732  0.80679501  1.0
  Se  Se42  1  0.53463635  0.97483268  0.19320499  1.0
  Se  Se43  1  0.53463635  0.52516732  0.69320499  1.0
  Se  Se44  1  0.32844140  0.10334873  0.47097651  1.0
  Se  Se45  1  0.32844140  0.39665127  0.97097651  1.0
  Se  Se46  1  0.67155860  0.60334873  0.02902349  1.0
  Se  Se47  1  0.67155860  0.89665127  0.52902349  1.0
