# generated using pymatgen
data_Rb2AlOF5
_symmetry_space_group_name_H-M   'P 1'
_cell_length_a   6.49296611
_cell_length_b   6.49296611
_cell_length_c   7.62238647
_cell_angle_alpha   90.00000000
_cell_angle_beta   90.00000000
_cell_angle_gamma   81.66492952
_symmetry_Int_Tables_number   1
_chemical_formula_structural   Rb2AlOF5
_chemical_formula_sum   'Rb4 Al2 O2 F10'
_cell_volume   317.95487638
_cell_formula_units_Z   2
loop_
 _symmetry_equiv_pos_site_id
 _symmetry_equiv_pos_as_xyz
  1  'x, y, z'
loop_
 _atom_site_type_symbol
 _atom_site_label
 _atom_site_symmetry_multiplicity
 _atom_site_fract_x
 _atom_site_fract_y
 _atom_site_fract_z
 _atom_site_occupancy
  Rb  Rb0  1  0.04970874  0.50204047  0.25000000  1.0
  Rb  Rb1  1  -0.49795953  1.04970874  0.75000000  1.0
  Rb  Rb2  1  0.49795953  0.95029126  0.25000000  1.0
  Rb  Rb3  1  -0.04970874  1.49795953  0.75000000  1.0
  Al  Al4  1  0.00000000  0.00000000  0.50000000  1.0
  Al  Al5  1  0.00000000  0.00000000  0.00000000  1.0
  F  F6  1  0.81577656  0.81577656  0.50000000  1.0
  F  F7  1  0.81577656  0.81577656  0.00000000  1.0
  F  F8  1  0.18422344  0.18422344  0.50000000  1.0
  F  F9  1  0.18422344  0.18422344  0.00000000  1.0
  F  F10  1  0.00460362  0.99539638  0.25000000  1.0
  F  F11  1  -0.00460362  1.00460362  0.75000000  1.0
  F  F12  1  0.21487751  0.78512249  0.99875051  1.0
  F  F13  1  0.21487751  0.78512249  0.50124949  1.0
  F  F14  1  -0.21487751  1.21487751  0.49875051  1.0
  F  F15  1  -0.21487751  1.21487751  0.00124949  1.0
  O  O16  1  -0.39056269  1.39056269  0.25000000  1.0
  O  O17  1  0.39056269  0.60943731  0.75000000  1.0
