# generated using pymatgen
data_MoBr3
_symmetry_space_group_name_H-M   'P 1'
_cell_length_a   7.33859023
_cell_length_b   7.33859023
_cell_length_c   6.05681427
_cell_angle_alpha   90.00000000
_cell_angle_beta   90.00000000
_cell_angle_gamma   120.00000000
_symmetry_Int_Tables_number   1
_chemical_formula_structural   MoBr3
_chemical_formula_sum   'Mo2 Br6'
_cell_volume   282.48810504
_cell_formula_units_Z   2
loop_
 _symmetry_equiv_pos_site_id
 _symmetry_equiv_pos_as_xyz
  1  'x, y, z'
loop_
 _atom_site_type_symbol
 _atom_site_label
 _atom_site_symmetry_multiplicity
 _atom_site_fract_x
 _atom_site_fract_y
 _atom_site_fract_z
 _atom_site_occupancy
  Mo  Mo0  1  0.00000000  0.00000000  0.50000000  1.0
  Mo  Mo1  1  -0.00000000  0.00000000  0.00000000  1.0
  Br  Br2  1  0.71260070  0.71260070  0.25000000  1.0
  Br  Br3  1  0.71260070  -0.00000000  0.75000000  1.0
  Br  Br4  1  -0.00000000  0.71260070  0.75000000  1.0
  Br  Br5  1  -0.00000000  0.28739930  0.25000000  1.0
  Br  Br6  1  0.28739930  0.28739930  0.75000000  1.0
  Br  Br7  1  0.28739930  0.00000000  0.25000000  1.0
