# generated using pymatgen
data_Y2InCl7
_symmetry_space_group_name_H-M   'P 1'
_cell_length_a   13.42962376
_cell_length_b   6.97053334
_cell_length_c   12.74391753
_cell_angle_alpha   90.00000000
_cell_angle_beta   90.00000000
_cell_angle_gamma   90.00000000
_symmetry_Int_Tables_number   1
_chemical_formula_structural   Y2InCl7
_chemical_formula_sum   'Y8 In4 Cl28'
_cell_volume   1192.97902205
_cell_formula_units_Z   4
loop_
 _symmetry_equiv_pos_site_id
 _symmetry_equiv_pos_as_xyz
  1  'x, y, z'
loop_
 _atom_site_type_symbol
 _atom_site_label
 _atom_site_symmetry_multiplicity
 _atom_site_fract_x
 _atom_site_fract_y
 _atom_site_fract_z
 _atom_site_occupancy
  Y  Y0  1  0.26050711  0.75000000  0.96785637  1.0
  Y  Y1  1  0.76050711  0.75000000  0.53214363  1.0
  Y  Y2  1  0.73949289  0.25000000  0.03214363  1.0
  Y  Y3  1  0.23949289  0.25000000  0.46785637  1.0
  Y  Y4  1  0.25361289  0.75000000  0.66501575  1.0
  Y  Y5  1  0.75361289  0.75000000  0.83498425  1.0
  Y  Y6  1  0.74638711  0.25000000  0.33498425  1.0
  Y  Y7  1  0.24638711  0.25000000  0.16501575  1.0
  In  In8  1  0.48741750  0.75000000  0.28139176  1.0
  In  In9  1  0.98741750  0.75000000  0.21860824  1.0
  In  In10  1  0.51258250  0.25000000  0.71860824  1.0
  In  In11  1  0.01258250  0.25000000  0.78139176  1.0
  Cl  Cl12  1  0.37564817  0.99035252  0.08485151  1.0
  Cl  Cl13  1  0.37564817  0.50964748  0.08485151  1.0
  Cl  Cl14  1  0.87564817  0.99035252  0.41514849  1.0
  Cl  Cl15  1  0.87564817  0.50964748  0.41514849  1.0
  Cl  Cl16  1  0.62435183  0.49035252  0.91514849  1.0
  Cl  Cl17  1  0.62435183  0.00964748  0.91514849  1.0
  Cl  Cl18  1  0.12435183  0.49035252  0.58485151  1.0
  Cl  Cl19  1  0.12435183  0.00964748  0.58485151  1.0
  Cl  Cl20  1  0.36885090  0.99231411  0.54899025  1.0
  Cl  Cl21  1  0.36885090  0.50768589  0.54899025  1.0
  Cl  Cl22  1  0.86885090  0.99231411  0.95100975  1.0
  Cl  Cl23  1  0.86885090  0.50768589  0.95100975  1.0
  Cl  Cl24  1  0.63114910  0.49231411  0.45100975  1.0
  Cl  Cl25  1  0.63114910  0.00768589  0.45100975  1.0
  Cl  Cl26  1  0.13114910  0.49231411  0.04899025  1.0
  Cl  Cl27  1  0.13114910  0.00768589  0.04899025  1.0
  Cl  Cl28  1  0.32779563  0.99033974  0.81497187  1.0
  Cl  Cl29  1  0.32779563  0.50966026  0.81497187  1.0
  Cl  Cl30  1  0.82779563  0.99033974  0.68502813  1.0
  Cl  Cl31  1  0.82779563  0.50966026  0.68502813  1.0
  Cl  Cl32  1  0.67220437  0.49033974  0.18502813  1.0
  Cl  Cl33  1  0.67220437  0.00966026  0.18502813  1.0
  Cl  Cl34  1  0.17220437  0.49033974  0.31497187  1.0
  Cl  Cl35  1  0.17220437  0.00966026  0.31497187  1.0
  Cl  Cl36  1  0.11234689  0.75000000  0.81778041  1.0
  Cl  Cl37  1  0.61234689  0.75000000  0.68221959  1.0
  Cl  Cl38  1  0.88765311  0.25000000  0.18221959  1.0
  Cl  Cl39  1  0.38765311  0.25000000  0.31778041  1.0
