# generated using pymatgen
data_InCu(WO4)2
_symmetry_space_group_name_H-M   'P 1'
_cell_length_a   7.66326788
_cell_length_b   7.66326788
_cell_length_c   5.02140733
_cell_angle_alpha   88.80414593
_cell_angle_beta   91.19585407
_cell_angle_gamma   78.48094517
_symmetry_Int_Tables_number   1
_chemical_formula_structural   InCu(WO4)2
_chemical_formula_sum   'In2 Cu2 W4 O16'
_cell_volume   288.78875151
_cell_formula_units_Z   2
loop_
 _symmetry_equiv_pos_site_id
 _symmetry_equiv_pos_as_xyz
  1  'x, y, z'
loop_
 _atom_site_type_symbol
 _atom_site_label
 _atom_site_symmetry_multiplicity
 _atom_site_fract_x
 _atom_site_fract_y
 _atom_site_fract_z
 _atom_site_occupancy
  In  In0  1  0.83711060  -0.16288940  0.25000000  1.0
  In  In1  1  1.16288940  0.16288940  0.75000000  1.0
  Cu  Cu2  1  1.34586905  0.34586905  0.25000000  1.0
  Cu  Cu3  1  0.65413095  -0.34586905  0.75000000  1.0
  W  W4  1  0.34543523  -0.17195679  0.25583867  1.0
  W  W5  1  1.17195679  0.65456477  0.75583867  1.0
  W  W6  1  0.82804321  -0.65456477  0.24416133  1.0
  W  W7  1  1.65456477  0.17195679  0.74416133  1.0
  O  O8  1  1.80065943  0.09311485  0.43522912  1.0
  O  O9  1  0.90688515  -0.80065943  0.93522912  1.0
  O  O10  1  1.09311485  0.80065943  0.06477088  1.0
  O  O11  1  0.19934057  -0.09311485  0.56477088  1.0
  O  O12  1  0.68966555  -0.05048479  0.89711885  1.0
  O  O13  1  1.05048479  0.31033445  0.39711885  1.0
  O  O14  1  0.94951521  -0.31033445  0.60288115  1.0
  O  O15  1  1.31033445  0.05048479  0.10288115  1.0
  O  O16  1  0.56818530  -0.19656165  0.40583189  1.0
  O  O17  1  1.19656165  0.43181470  0.90583189  1.0
  O  O18  1  0.80343835  -0.43181470  0.09416811  1.0
  O  O19  1  1.43181470  0.19656165  0.59416811  1.0
  O  O20  1  1.59284360  0.30747836  0.05333002  1.0
  O  O21  1  0.69252164  -0.59284360  0.55333002  1.0
  O  O22  1  1.30747836  0.59284360  0.44666998  1.0
  O  O23  1  0.40715640  -0.30747836  0.94666998  1.0
