# generated using pymatgen
data_K3P2AuSe8
_symmetry_space_group_name_H-M   'P 1'
_cell_length_a   7.33840261
_cell_length_b   7.33840261
_cell_length_c   19.15009907
_cell_angle_alpha   86.81642427
_cell_angle_beta   93.18357573
_cell_angle_gamma   59.05657145
_symmetry_Int_Tables_number   1
_chemical_formula_structural   K3P2AuSe8
_chemical_formula_sum   'K6 P4 Au2 Se16'
_cell_volume   878.86520406
_cell_formula_units_Z   2
loop_
 _symmetry_equiv_pos_site_id
 _symmetry_equiv_pos_as_xyz
  1  'x, y, z'
loop_
 _atom_site_type_symbol
 _atom_site_label
 _atom_site_symmetry_multiplicity
 _atom_site_fract_x
 _atom_site_fract_y
 _atom_site_fract_z
 _atom_site_occupancy
  K  K0  1  0.57665413  0.28458133  0.73174070  1.0
  K  K1  1  0.71541867  -0.57665413  0.23174070  1.0
  K  K2  1  1.04851361  -0.49051780  0.02471860  1.0
  K  K3  1  0.49051780  -0.04851361  0.52471860  1.0
  K  K4  1  1.18528360  -0.39835138  0.37971445  1.0
  K  K5  1  0.39835138  -0.18528360  0.87971445  1.0
  P  P6  1  0.85683089  -0.39360642  0.74900532  1.0
  P  P7  1  0.39360642  0.14316911  0.24900532  1.0
  P  P8  1  0.76616291  -0.64866831  0.50362551  1.0
  P  P9  1  0.64866831  0.23383709  0.00362551  1.0
  Au  Au10  1  1.02229486  -0.12727265  0.62392914  1.0
  Au  Au11  1  0.12727265  -0.02229486  0.12392914  1.0
  Se  Se12  1  0.99193443  -0.00626542  0.50033763  1.0
  Se  Se13  1  0.00626542  0.00806557  0.00033763  1.0
  Se  Se14  1  1.07031455  -0.25267543  0.74780544  1.0
  Se  Se15  1  0.25267543  -0.07031455  0.24780544  1.0
  Se  Se16  1  0.90456013  -0.58206676  0.84784568  1.0
  Se  Se17  1  0.58206676  0.09543987  0.34784568  1.0
  Se  Se18  1  0.96471160  -0.53585239  0.56611338  1.0
  Se  Se19  1  0.53585239  0.03528840  0.06611338  1.0
  Se  Se20  1  1.15936538  -0.52649785  0.21004264  1.0
  Se  Se21  1  0.52649785  -0.15936538  0.71004264  1.0
  Se  Se22  1  1.01674675  -0.68640592  0.68432415  1.0
  Se  Se23  1  0.68640592  -0.01674675  0.18432415  1.0
  Se  Se24  1  0.46896604  0.42952422  0.54719809  1.0
  Se  Se25  1  0.57047578  -0.46896604  0.04719809  1.0
  Se  Se26  1  0.44967219  0.27008583  0.90849928  1.0
  Se  Se27  1  0.72991417  -0.44967219  0.40849928  1.0
