# generated using pymatgen
data_Sr2Cu2O3
_symmetry_space_group_name_H-M   'P 1'
_cell_length_a   7.77187726
_cell_length_b   7.77187726
_cell_length_c   11.60014752
_cell_angle_alpha   90.00000000
_cell_angle_beta   90.00000000
_cell_angle_gamma   30.97814731
_symmetry_Int_Tables_number   1
_chemical_formula_structural   Sr2Cu2O3
_chemical_formula_sum   'Sr4 Cu4 O6'
_cell_volume   360.64417648
_cell_formula_units_Z   2
loop_
 _symmetry_equiv_pos_site_id
 _symmetry_equiv_pos_as_xyz
  1  'x, y, z'
loop_
 _atom_site_type_symbol
 _atom_site_label
 _atom_site_symmetry_multiplicity
 _atom_site_fract_x
 _atom_site_fract_y
 _atom_site_fract_z
 _atom_site_occupancy
  Sr  Sr0  1  0.39427364  0.39427364  0.00000000  1.0
  Sr  Sr1  1  -0.10572636  0.89427364  0.50000000  1.0
  Sr  Sr2  1  -0.39427364  0.60572636  -0.00000000  1.0
  Sr  Sr3  1  0.10572636  0.10572636  0.50000000  1.0
  Cu  Cu4  1  -1.00000772  1.00000772  0.16976848  1.0
  Cu  Cu5  1  0.00000772  -0.00000772  0.83023152  1.0
  Cu  Cu6  1  -0.49999228  0.49999228  0.66976848  1.0
  Cu  Cu7  1  -0.50000772  0.50000772  0.33023152  1.0
  O  O8  1  0.00000691  -0.00000691  0.33936200  1.0
  O  O9  1  -1.00000691  1.00000691  0.66063800  1.0
  O  O10  1  -0.50000691  0.50000691  0.83936200  1.0
  O  O11  1  -0.49999309  0.49999309  0.16063800  1.0
  O  O12  1  0.00000000  0.00000000  0.00000000  1.0
  O  O13  1  -0.50000000  0.50000000  0.50000000  1.0
