# generated using pymatgen
data_KCN3O2
_symmetry_space_group_name_H-M   'P 1'
_cell_length_a   6.91379306
_cell_length_b   7.94446806
_cell_length_c   8.64739795
_cell_angle_alpha   90.00000000
_cell_angle_beta   108.39098585
_cell_angle_gamma   90.00000000
_symmetry_Int_Tables_number   1
_chemical_formula_structural   KCN3O2
_chemical_formula_sum   'K4 C4 N12 O8'
_cell_volume   450.71170346
_cell_formula_units_Z   4
loop_
 _symmetry_equiv_pos_site_id
 _symmetry_equiv_pos_as_xyz
  1  'x, y, z'
loop_
 _atom_site_type_symbol
 _atom_site_label
 _atom_site_symmetry_multiplicity
 _atom_site_fract_x
 _atom_site_fract_y
 _atom_site_fract_z
 _atom_site_occupancy
  K  K0  1  0.14941657  0.58924997  0.84646658  1.0
  K  K1  1  0.14941657  0.91075003  0.34646658  1.0
  K  K2  1  0.85058343  0.08924997  0.65353342  1.0
  K  K3  1  0.85058343  0.41075003  0.15353342  1.0
  C  C4  1  0.42435423  0.92611622  0.79185362  1.0
  C  C5  1  0.42435423  0.57388378  0.29185362  1.0
  C  C6  1  0.57564577  0.42611622  0.70814638  1.0
  C  C7  1  0.57564577  0.07388378  0.20814638  1.0
  N  N8  1  0.75284471  0.44160088  0.76852519  1.0
  N  N9  1  0.75284471  0.05839912  0.26852519  1.0
  N  N10  1  0.24715529  0.94160088  0.73147481  1.0
  N  N11  1  0.24715529  0.55839912  0.23147481  1.0
  N  N12  1  0.69927307  0.79373982  0.95060340  1.0
  N  N13  1  0.69927307  0.70626018  0.45060340  1.0
  N  N14  1  0.30072693  0.29373982  0.54939660  1.0
  N  N15  1  0.30072693  0.20626018  0.04939660  1.0
  N  N16  1  0.62484099  0.92373250  0.84888706  1.0
  N  N17  1  0.62484099  0.57626750  0.34888706  1.0
  N  N18  1  0.37515901  0.42373250  0.65111294  1.0
  N  N19  1  0.37515901  0.07626750  0.15111294  1.0
  O  O20  1  0.88886349  0.71991832  0.50468398  1.0
  O  O21  1  0.88886349  0.78008168  0.00468398  1.0
  O  O22  1  0.11113651  0.21991832  0.99531602  1.0
  O  O23  1  0.11113651  0.28008168  0.49531602  1.0
  O  O24  1  0.58245310  0.69190459  0.98826913  1.0
  O  O25  1  0.58245310  0.80809541  0.48826913  1.0
  O  O26  1  0.41754690  0.19190459  0.51173087  1.0
  O  O27  1  0.41754690  0.30809541  0.01173087  1.0
