# generated using pymatgen
data_SnPd
_symmetry_space_group_name_H-M   'P 1'
_cell_length_a   6.19170001
_cell_length_b   3.98658866
_cell_length_c   6.46602943
_cell_angle_alpha   90.00000000
_cell_angle_beta   90.00000000
_cell_angle_gamma   90.00000000
_symmetry_Int_Tables_number   1
_chemical_formula_structural   SnPd
_chemical_formula_sum   'Sn4 Pd4'
_cell_volume   159.60592503
_cell_formula_units_Z   4
loop_
 _symmetry_equiv_pos_site_id
 _symmetry_equiv_pos_as_xyz
  1  'x, y, z'
loop_
 _atom_site_type_symbol
 _atom_site_label
 _atom_site_symmetry_multiplicity
 _atom_site_fract_x
 _atom_site_fract_y
 _atom_site_fract_z
 _atom_site_occupancy
  Sn  Sn0  1  0.80944722  0.75000000  0.59404200  1.0
  Sn  Sn1  1  0.30944722  0.75000000  0.90595800  1.0
  Sn  Sn2  1  0.19055278  0.25000000  0.40595800  1.0
  Sn  Sn3  1  0.69055278  0.25000000  0.09404200  1.0
  Pd  Pd4  1  0.98991051  0.75000000  0.18854745  1.0
  Pd  Pd5  1  0.48991051  0.75000000  0.31145255  1.0
  Pd  Pd6  1  0.01008949  0.25000000  0.81145255  1.0
  Pd  Pd7  1  0.51008949  0.25000000  0.68854745  1.0
