# generated using pymatgen
data_TbGaNi
_symmetry_space_group_name_H-M   'P 1'
_cell_length_a   6.83076325
_cell_length_b   4.29990744
_cell_length_c   7.40775203
_cell_angle_alpha   90.00000000
_cell_angle_beta   90.00000000
_cell_angle_gamma   90.00000000
_symmetry_Int_Tables_number   1
_chemical_formula_structural   TbGaNi
_chemical_formula_sum   'Tb4 Ga4 Ni4'
_cell_volume   217.57789788
_cell_formula_units_Z   4
loop_
 _symmetry_equiv_pos_site_id
 _symmetry_equiv_pos_as_xyz
  1  'x, y, z'
loop_
 _atom_site_type_symbol
 _atom_site_label
 _atom_site_symmetry_multiplicity
 _atom_site_fract_x
 _atom_site_fract_y
 _atom_site_fract_z
 _atom_site_occupancy
  Tb  Tb0  1  0.97876791  0.75000000  0.69407866  1.0
  Tb  Tb1  1  0.47876791  0.75000000  0.80592134  1.0
  Tb  Tb2  1  0.02123209  0.25000000  0.30592134  1.0
  Tb  Tb3  1  0.52123209  0.25000000  0.19407866  1.0
  Ga  Ga4  1  0.82985361  0.75000000  0.07523381  1.0
  Ga  Ga5  1  0.32985361  0.75000000  0.42476619  1.0
  Ga  Ga6  1  0.17014639  0.25000000  0.92476619  1.0
  Ga  Ga7  1  0.67014639  0.25000000  0.57523381  1.0
  Ni  Ni8  1  0.71424502  0.75000000  0.40054548  1.0
  Ni  Ni9  1  0.21424502  0.75000000  0.09945452  1.0
  Ni  Ni10  1  0.28575498  0.25000000  0.59945452  1.0
  Ni  Ni11  1  0.78575498  0.25000000  0.90054548  1.0
