# generated using pymatgen
data_AgH4C2S2N3
_symmetry_space_group_name_H-M   'P 1'
_cell_length_a   4.54620861
_cell_length_b   16.78326182
_cell_length_c   10.05542106
_cell_angle_alpha   90.00000000
_cell_angle_beta   115.84940325
_cell_angle_gamma   90.00000000
_symmetry_Int_Tables_number   1
_chemical_formula_structural   AgH4C2S2N3
_chemical_formula_sum   'Ag4 H16 C8 S8 N12'
_cell_volume   690.46404866
_cell_formula_units_Z   4
loop_
 _symmetry_equiv_pos_site_id
 _symmetry_equiv_pos_as_xyz
  1  'x, y, z'
loop_
 _atom_site_type_symbol
 _atom_site_label
 _atom_site_symmetry_multiplicity
 _atom_site_fract_x
 _atom_site_fract_y
 _atom_site_fract_z
 _atom_site_occupancy
  Ag  Ag0  1  0.85031905  0.91821978  0.47400683  1.0
  Ag  Ag1  1  0.85031905  0.58178022  0.97400683  1.0
  Ag  Ag2  1  0.14968095  0.41821978  0.02599317  1.0
  Ag  Ag3  1  0.14968095  0.08178022  0.52599317  1.0
  H  H4  1  0.92930947  0.37122759  0.48314960  1.0
  H  H5  1  0.92930947  0.12877241  0.98314960  1.0
  H  H6  1  0.07069053  0.87122759  0.01685040  1.0
  H  H7  1  0.07069053  0.62877241  0.51685040  1.0
  H  H8  1  0.82826747  0.74727084  0.23567018  1.0
  H  H9  1  0.82826747  0.75272916  0.73567018  1.0
  H  H10  1  0.17173253  0.24727084  0.26432982  1.0
  H  H11  1  0.17173253  0.25272916  0.76432982  1.0
  H  H12  1  0.64414070  0.42656193  0.33201919  1.0
  H  H13  1  0.64414070  0.07343807  0.83201919  1.0
  H  H14  1  0.35585930  0.92656193  0.16798081  1.0
  H  H15  1  0.35585930  0.57343807  0.66798081  1.0
  H  H16  1  0.24191119  0.27518005  0.44444296  1.0
  H  H17  1  0.24191119  0.22481995  0.94444296  1.0
  H  H18  1  0.75808881  0.77518005  0.05555704  1.0
  H  H19  1  0.75808881  0.72481995  0.55555704  1.0
  C  C20  1  0.88630026  0.33887450  0.27942665  1.0
  C  C21  1  0.88630026  0.16112550  0.77942665  1.0
  C  C22  1  0.11369974  0.83887450  0.22057335  1.0
  C  C23  1  0.11369974  0.66112550  0.72057335  1.0
  C  C24  1  0.52352244  0.11220271  0.20779775  1.0
  C  C25  1  0.52352244  0.38779729  0.70779775  1.0
  C  C26  1  0.47647756  0.61220271  0.29220225  1.0
  C  C27  1  0.47647756  0.88779729  0.79220225  1.0
  S  S28  1  0.78888151  0.03794218  0.25581282  1.0
  S  S29  1  0.78888151  0.46205782  0.75581282  1.0
  S  S30  1  0.21111849  0.53794218  0.24418718  1.0
  S  S31  1  0.21111849  0.96205782  0.74418718  1.0
  S  S32  1  0.69480862  0.35614837  0.08936939  1.0
  S  S33  1  0.69480862  0.14385163  0.58936939  1.0
  S  S34  1  0.30519138  0.85614837  0.41063061  1.0
  S  S35  1  0.30519138  0.64385163  0.91063061  1.0
  N  N36  1  0.88401625  0.78309232  0.16709323  1.0
  N  N37  1  0.88401625  0.71690768  0.66709323  1.0
  N  N38  1  0.11598375  0.28309232  0.33290677  1.0
  N  N39  1  0.11598375  0.21690768  0.83290677  1.0
  N  N40  1  0.80672642  0.38078096  0.37147942  1.0
  N  N41  1  0.80672642  0.11921904  0.87147942  1.0
  N  N42  1  0.19327358  0.88078096  0.12852058  1.0
  N  N43  1  0.19327358  0.61921904  0.62852058  1.0
  N  N44  1  0.33317306  0.16520955  0.16806689  1.0
  N  N45  1  0.33317306  0.33479045  0.66806689  1.0
  N  N46  1  0.66682694  0.66520955  0.33193311  1.0
  N  N47  1  0.66682694  0.83479045  0.83193311  1.0
