# generated using pymatgen
data_YbHO2
_symmetry_space_group_name_H-M   'P 1'
_cell_length_a   4.31286448
_cell_length_b   3.61849676
_cell_length_c   5.91839901
_cell_angle_alpha   90.00000000
_cell_angle_beta   108.88615551
_cell_angle_gamma   90.00000000
_symmetry_Int_Tables_number   1
_chemical_formula_structural   YbHO2
_chemical_formula_sum   'Yb2 H2 O4'
_cell_volume   87.39055088
_cell_formula_units_Z   2
loop_
 _symmetry_equiv_pos_site_id
 _symmetry_equiv_pos_as_xyz
  1  'x, y, z'
loop_
 _atom_site_type_symbol
 _atom_site_label
 _atom_site_symmetry_multiplicity
 _atom_site_fract_x
 _atom_site_fract_y
 _atom_site_fract_z
 _atom_site_occupancy
  Yb  Yb0  1  0.17265355  0.25000000  0.81168625  1.0
  Yb  Yb1  1  0.82734645  0.75000000  0.18831375  1.0
  O  O2  1  0.75165660  0.25000000  0.43493764  1.0
  O  O3  1  0.24834340  0.75000000  0.56506236  1.0
  O  O4  1  0.73263205  0.25000000  0.94347946  1.0
  O  O5  1  0.26736795  0.75000000  0.05652054  1.0
  H  H6  1  0.52079164  0.25000000  0.42074441  1.0
  H  H7  1  0.47920836  0.75000000  0.57925559  1.0
