# generated using pymatgen
data_Nb3(BiO3)5
_symmetry_space_group_name_H-M   'P 1'
_cell_length_a   22.16517741
_cell_length_b   5.52328529
_cell_length_c   5.63111845
_cell_angle_alpha   90.00000000
_cell_angle_beta   90.00000000
_cell_angle_gamma   90.00000000
_symmetry_Int_Tables_number   1
_chemical_formula_structural   Nb3(BiO3)5
_chemical_formula_sum   'Nb6 Bi10 O30'
_cell_volume   689.38741440
_cell_formula_units_Z   2
loop_
 _symmetry_equiv_pos_site_id
 _symmetry_equiv_pos_as_xyz
  1  'x, y, z'
loop_
 _atom_site_type_symbol
 _atom_site_label
 _atom_site_symmetry_multiplicity
 _atom_site_fract_x
 _atom_site_fract_y
 _atom_site_fract_z
 _atom_site_occupancy
  Nb  Nb0  1  0.89382300  0.50079707  0.94439714  1.0
  Nb  Nb1  1  0.89382300  0.99920293  0.44439714  1.0
  Nb  Nb2  1  0.10617700  0.00079707  0.44439714  1.0
  Nb  Nb3  1  0.10617700  0.49920293  0.94439714  1.0
  Nb  Nb4  1  0.50000000  0.00000000  0.98380734  1.0
  Nb  Nb5  1  0.50000000  0.50000000  0.48380734  1.0
  Bi  Bi6  1  0.74049577  -0.01237361  1.01765458  1.0
  Bi  Bi7  1  0.74049577  0.51237361  0.51765458  1.0
  Bi  Bi8  1  0.25950423  0.48762639  0.51765458  1.0
  Bi  Bi9  1  0.25950423  1.01237361  1.01765458  1.0
  Bi  Bi10  1  0.62339927  0.47601751  1.05317856  1.0
  Bi  Bi11  1  0.62339927  1.02398249  0.55317856  1.0
  Bi  Bi12  1  0.37660073  -0.02398249  0.55317856  1.0
  Bi  Bi13  1  0.37660073  0.52398249  1.05317856  1.0
  Bi  Bi14  1  0.00000000  0.00000000  0.02786363  1.0
  Bi  Bi15  1  0.00000000  0.50000000  0.52786363  1.0
  O  O16  1  0.91313295  0.73981294  0.66492547  1.0
  O  O17  1  0.91313295  0.76018706  0.16492547  1.0
  O  O18  1  0.08686705  0.23981294  0.16492547  1.0
  O  O19  1  0.08686705  0.26018706  0.66492547  1.0
  O  O20  1  0.91134570  0.26546227  0.65977849  1.0
  O  O21  1  0.91134570  0.23453773  0.15977849  1.0
  O  O22  1  0.08865430  0.76546227  0.15977849  1.0
  O  O23  1  0.08865430  0.73453773  0.65977849  1.0
  O  O24  1  0.81340177  0.51095359  0.93570196  1.0
  O  O25  1  0.81340177  0.98904641  0.43570196  1.0
  O  O26  1  0.18659823  0.01095359  0.43570196  1.0
  O  O27  1  0.18659823  0.48904641  0.93570196  1.0
  O  O28  1  0.69171033  0.25281829  0.74397758  1.0
  O  O29  1  0.69171033  0.24718171  0.24397758  1.0
  O  O30  1  0.30828967  0.75281829  0.24397758  1.0
  O  O31  1  0.30828967  0.74718171  0.74397758  1.0
  O  O32  1  0.58490052  0.10197140  0.91896126  1.0
  O  O33  1  0.58490052  0.39802860  0.41896126  1.0
  O  O34  1  0.41509948  0.60197140  0.41896126  1.0
  O  O35  1  0.41509948  0.89802860  0.91896126  1.0
  O  O36  1  0.47931477  0.24953670  0.69209446  1.0
  O  O37  1  0.47931477  0.25046330  0.19209446  1.0
  O  O38  1  0.52068523  0.74953670  0.19209446  1.0
  O  O39  1  0.52068523  0.75046330  0.69209446  1.0
  O  O40  1  0.30930680  0.24205836  0.75538180  1.0
  O  O41  1  0.30930680  0.25794164  0.25538180  1.0
  O  O42  1  0.69069320  0.74205836  0.25538180  1.0
  O  O43  1  0.69069320  0.75794164  0.75538180  1.0
  O  O44  1  0.00000000  0.00000000  0.40622642  1.0
  O  O45  1  0.00000000  0.50000000  0.90622642  1.0
