# generated using pymatgen
data_Zr6Al2NiH10
_symmetry_space_group_name_H-M   'P 1'
_cell_length_a   8.06682012
_cell_length_b   8.06682012
_cell_length_c   7.19311679
_cell_angle_alpha   90.00000000
_cell_angle_beta   90.00000000
_cell_angle_gamma   120.00000000
_symmetry_Int_Tables_number   1
_chemical_formula_structural   Zr6Al2NiH10
_chemical_formula_sum   'Zr12 Al4 Ni2 H20'
_cell_volume   405.37082471
_cell_formula_units_Z   2
loop_
 _symmetry_equiv_pos_site_id
 _symmetry_equiv_pos_as_xyz
  1  'x, y, z'
loop_
 _atom_site_type_symbol
 _atom_site_label
 _atom_site_symmetry_multiplicity
 _atom_site_fract_x
 _atom_site_fract_y
 _atom_site_fract_z
 _atom_site_occupancy
  Zr  Zr0  1  0.62822777  0.58011435  0.25000000  1.0
  Zr  Zr1  1  0.58011435  0.62822777  0.75000000  1.0
  Zr  Zr2  1  0.95188658  0.37177223  0.25000000  1.0
  Zr  Zr3  1  0.41988565  0.04811342  0.25000000  1.0
  Zr  Zr4  1  0.37177223  0.95188658  0.75000000  1.0
  Zr  Zr5  1  0.04811342  0.41988565  0.75000000  1.0
  Zr  Zr6  1  0.26280951  0.26280951  0.50000000  1.0
  Zr  Zr7  1  0.26280951  0.26280951  0.00000000  1.0
  Zr  Zr8  1  -0.00000000  0.73719049  0.50000000  1.0
  Zr  Zr9  1  -0.00000000  0.73719049  0.00000000  1.0
  Zr  Zr10  1  0.73719049  0.00000000  0.50000000  1.0
  Zr  Zr11  1  0.73719049  0.00000000  0.00000000  1.0
  Al  Al12  1  0.33333333  0.66666667  0.44885814  1.0
  Al  Al13  1  0.33333333  0.66666667  0.05114186  1.0
  Al  Al14  1  0.66666667  0.33333333  0.94885814  1.0
  Al  Al15  1  0.66666667  0.33333333  0.55114186  1.0
  Ni  Ni16  1  0.00000000  0.00000000  0.25000000  1.0
  Ni  Ni17  1  0.00000000  0.00000000  0.75000000  1.0
  H  H18  1  0.11973438  0.87885543  0.25000000  1.0
  H  H19  1  0.87885543  0.11973438  0.75000000  1.0
  H  H20  1  0.75912106  0.88026562  0.25000000  1.0
  H  H21  1  0.12114457  0.24087894  0.25000000  1.0
  H  H22  1  0.88026562  0.75912106  0.75000000  1.0
  H  H23  1  0.24087894  0.12114457  0.75000000  1.0
  H  H24  1  0.88778721  0.59218751  0.25000000  1.0
  H  H25  1  0.59218751  0.88778721  0.75000000  1.0
  H  H26  1  0.70440030  0.11221279  0.25000000  1.0
  H  H27  1  0.40781249  0.29559970  0.25000000  1.0
  H  H28  1  0.11221279  0.70440030  0.75000000  1.0
  H  H29  1  0.29559970  0.40781249  0.75000000  1.0
  H  H30  1  0.72276542  0.72276542  0.50000000  1.0
  H  H31  1  0.72276542  0.72276542  0.00000000  1.0
  H  H32  1  0.00000000  0.27723458  0.50000000  1.0
  H  H33  1  0.00000000  0.27723458  0.00000000  1.0
  H  H34  1  0.27723458  0.00000000  0.50000000  1.0
  H  H35  1  0.27723458  0.00000000  0.00000000  1.0
  H  H36  1  0.00000000  0.00000000  0.50000000  1.0
  H  H37  1  0.00000000  0.00000000  0.00000000  1.0
