# generated using pymatgen
data_IrO2
_symmetry_space_group_name_H-M   'P 1'
_cell_length_a   4.32913563
_cell_length_b   5.64395666
_cell_length_c   5.28987333
_cell_angle_alpha   90.00000000
_cell_angle_beta   90.00000000
_cell_angle_gamma   90.00000000
_symmetry_Int_Tables_number   1
_chemical_formula_structural   IrO2
_chemical_formula_sum   'Ir4 O8'
_cell_volume   129.24987606
_cell_formula_units_Z   4
loop_
 _symmetry_equiv_pos_site_id
 _symmetry_equiv_pos_as_xyz
  1  'x, y, z'
loop_
 _atom_site_type_symbol
 _atom_site_label
 _atom_site_symmetry_multiplicity
 _atom_site_fract_x
 _atom_site_fract_y
 _atom_site_fract_z
 _atom_site_occupancy
  Ir  Ir0  1  0.00000000  0.85820703  0.25000000  1.0
  Ir  Ir1  1  0.50000000  0.64179297  0.75000000  1.0
  Ir  Ir2  1  0.00000000  0.14179297  0.75000000  1.0
  Ir  Ir3  1  0.50000000  0.35820703  0.25000000  1.0
  O  O4  1  0.26214662  0.61339308  0.41972794  1.0
  O  O5  1  0.23785338  0.88660692  0.91972794  1.0
  O  O6  1  0.76214662  0.88660692  0.58027206  1.0
  O  O7  1  0.73785338  0.61339308  0.08027206  1.0
  O  O8  1  0.73785338  0.38660692  0.58027206  1.0
  O  O9  1  0.76214662  0.11339308  0.08027206  1.0
  O  O10  1  0.23785338  0.11339308  0.41972794  1.0
  O  O11  1  0.26214662  0.38660692  0.91972794  1.0
