# generated using pymatgen
data_AgSO4
_symmetry_space_group_name_H-M   'P 1'
_cell_length_a   8.44165206
_cell_length_b   4.87400033
_cell_length_c   4.93545693
_cell_angle_alpha   69.70594826
_cell_angle_beta   73.11129169
_cell_angle_gamma   83.42020051
_symmetry_Int_Tables_number   1
_chemical_formula_structural   AgSO4
_chemical_formula_sum   'Ag2 S2 O8'
_cell_volume   182.22595889
_cell_formula_units_Z   2
loop_
 _symmetry_equiv_pos_site_id
 _symmetry_equiv_pos_as_xyz
  1  'x, y, z'
loop_
 _atom_site_type_symbol
 _atom_site_label
 _atom_site_symmetry_multiplicity
 _atom_site_fract_x
 _atom_site_fract_y
 _atom_site_fract_z
 _atom_site_occupancy
  Ag  Ag0  1  -0.50000000  -0.50000000  -0.50000000  1.0
  Ag  Ag1  1  0.00000000  0.00000000  0.00000000  1.0
  S  S2  1  -0.75564196  -0.58550317  -0.85884192  1.0
  S  S3  1  -0.24435804  -0.41449683  -0.14115808  1.0
  O  O4  1  -0.60715407  -0.71545509  -1.03053769  1.0
  O  O5  1  -0.39284593  -0.28454491  0.03053769  1.0
  O  O6  1  -0.22427102  -0.72335540  -0.95024030  1.0
  O  O7  1  -0.77572898  -0.27664460  -0.04975970  1.0
  O  O8  1  -0.90709159  -0.76156295  -0.76808896  1.0
  O  O9  1  -0.09290841  -0.23843705  -0.23191104  1.0
  O  O10  1  -0.72741292  -0.60454787  -0.56472591  1.0
  O  O11  1  -0.27258708  -0.39545213  -0.43527409  1.0
