# generated using pymatgen
data_FeSb3
_symmetry_space_group_name_H-M   'P 1'
_cell_length_a   7.92935984
_cell_length_b   7.92935984
_cell_length_c   7.92935984
_cell_angle_alpha   109.47122063
_cell_angle_beta   109.47122063
_cell_angle_gamma   109.47122063
_symmetry_Int_Tables_number   1
_chemical_formula_structural   FeSb3
_chemical_formula_sum   'Fe4 Sb12'
_cell_volume   383.78897023
_cell_formula_units_Z   4
loop_
 _symmetry_equiv_pos_site_id
 _symmetry_equiv_pos_as_xyz
  1  'x, y, z'
loop_
 _atom_site_type_symbol
 _atom_site_label
 _atom_site_symmetry_multiplicity
 _atom_site_fract_x
 _atom_site_fract_y
 _atom_site_fract_z
 _atom_site_occupancy
  Fe  Fe0  1  0.50000000  1.00000000  1.00000000  1.0
  Fe  Fe1  1  0.50000000  0.50000000  0.50000000  1.0
  Fe  Fe2  1  1.00000000  1.00000000  0.50000000  1.0
  Fe  Fe3  1  1.00000000  0.50000000  1.00000000  1.0
  Sb  Sb4  1  0.84018699  1.32764396  1.16783095  1.0
  Sb  Sb5  1  0.84018699  0.67235604  0.51254303  1.0
  Sb  Sb6  1  0.15981301  0.32764396  0.48745697  1.0
  Sb  Sb7  1  0.15981301  0.67235604  0.83216905  1.0
  Sb  Sb8  1  0.51254303  0.84018699  0.67235604  1.0
  Sb  Sb9  1  1.16783095  0.84018699  1.32764396  1.0
  Sb  Sb10  1  0.67235604  0.83216905  0.15981301  1.0
  Sb  Sb11  1  0.67235604  0.51254303  0.84018699  1.0
  Sb  Sb12  1  0.83216905  0.15981301  0.67235604  1.0
  Sb  Sb13  1  0.48745697  0.15981301  0.32764396  1.0
  Sb  Sb14  1  0.32764396  0.48745697  0.15981301  1.0
  Sb  Sb15  1  1.32764396  1.16783095  0.84018699  1.0
