# generated using pymatgen
data_Gd2Nb3Ge4
_symmetry_space_group_name_H-M   'P 1'
_cell_length_a   7.04883940
_cell_length_b   13.61897847
_cell_length_c   7.22724549
_cell_angle_alpha   90.00000000
_cell_angle_beta   90.00000000
_cell_angle_gamma   90.00000000
_symmetry_Int_Tables_number   1
_chemical_formula_structural   Gd2Nb3Ge4
_chemical_formula_sum   'Gd8 Nb12 Ge16'
_cell_volume   693.80105476
_cell_formula_units_Z   4
loop_
 _symmetry_equiv_pos_site_id
 _symmetry_equiv_pos_as_xyz
  1  'x, y, z'
loop_
 _atom_site_type_symbol
 _atom_site_label
 _atom_site_symmetry_multiplicity
 _atom_site_fract_x
 _atom_site_fract_y
 _atom_site_fract_z
 _atom_site_occupancy
  Gd  Gd0  1  0.50268370  0.90496564  0.67297957  1.0
  Gd  Gd1  1  0.50268370  0.59503436  0.67297957  1.0
  Gd  Gd2  1  1.00268370  0.90496564  0.82702043  1.0
  Gd  Gd3  1  1.00268370  0.59503436  0.82702043  1.0
  Gd  Gd4  1  0.49731630  0.40496564  0.32702043  1.0
  Gd  Gd5  1  0.49731630  0.09503436  0.32702043  1.0
  Gd  Gd6  1  -0.00268370  0.40496564  0.17297957  1.0
  Gd  Gd7  1  -0.00268370  0.09503436  0.17297957  1.0
  Nb  Nb8  1  0.15945803  0.37268014  0.67146040  1.0
  Nb  Nb9  1  0.15945803  0.12731986  0.67146040  1.0
  Nb  Nb10  1  0.65945803  0.37268014  0.82853960  1.0
  Nb  Nb11  1  0.65945803  0.12731986  0.82853960  1.0
  Nb  Nb12  1  0.84054197  0.87268014  0.32853960  1.0
  Nb  Nb13  1  0.84054197  0.62731986  0.32853960  1.0
  Nb  Nb14  1  0.34054197  0.87268014  0.17146040  1.0
  Nb  Nb15  1  0.34054197  0.62731986  0.17146040  1.0
  Nb  Nb16  1  0.33532460  0.25000000  -0.01304911  1.0
  Nb  Nb17  1  0.83532460  0.25000000  0.51304911  1.0
  Nb  Nb18  1  0.66467540  0.75000000  1.01304911  1.0
  Nb  Nb19  1  0.16467540  0.75000000  0.48695089  1.0
  Ge  Ge20  1  0.32742757  0.45747866  0.95999328  1.0
  Ge  Ge21  1  0.32742757  0.04252134  0.95999328  1.0
  Ge  Ge22  1  0.82742757  0.45747866  0.54000672  1.0
  Ge  Ge23  1  0.82742757  0.04252134  0.54000672  1.0
  Ge  Ge24  1  0.67257243  0.95747866  0.04000672  1.0
  Ge  Ge25  1  0.67257243  0.54252134  0.04000672  1.0
  Ge  Ge26  1  0.17257243  0.95747866  0.45999328  1.0
  Ge  Ge27  1  0.17257243  0.54252134  0.45999328  1.0
  Ge  Ge28  1  0.46041695  0.25000000  0.62297982  1.0
  Ge  Ge29  1  0.96041695  0.25000000  0.87702018  1.0
  Ge  Ge30  1  0.53958305  0.75000000  0.37702018  1.0
  Ge  Ge31  1  0.03958305  0.75000000  0.12297982  1.0
  Ge  Ge32  1  0.19407178  0.25000000  0.36478981  1.0
  Ge  Ge33  1  0.69407178  0.25000000  0.13521019  1.0
  Ge  Ge34  1  0.80592822  0.75000000  0.63521019  1.0
  Ge  Ge35  1  0.30592822  0.75000000  0.86478981  1.0
