# generated using pymatgen
data_Zr2Te
_symmetry_space_group_name_H-M   'P 1'
_cell_length_a   20.06210100
_cell_length_b   3.85737587
_cell_length_c   10.75137431
_cell_angle_alpha   90.00000000
_cell_angle_beta   90.00000000
_cell_angle_gamma   90.00000000
_symmetry_Int_Tables_number   1
_chemical_formula_structural   Zr2Te
_chemical_formula_sum   'Zr24 Te12'
_cell_volume   832.01729468
_cell_formula_units_Z   12
loop_
 _symmetry_equiv_pos_site_id
 _symmetry_equiv_pos_as_xyz
  1  'x, y, z'
loop_
 _atom_site_type_symbol
 _atom_site_label
 _atom_site_symmetry_multiplicity
 _atom_site_fract_x
 _atom_site_fract_y
 _atom_site_fract_z
 _atom_site_occupancy
  Zr  Zr0  1  0.48425633  0.75000000  0.10863156  1.0
  Zr  Zr1  1  0.98425633  0.75000000  0.39136844  1.0
  Zr  Zr2  1  0.51574367  0.25000000  0.89136844  1.0
  Zr  Zr3  1  0.01574367  0.25000000  0.60863156  1.0
  Zr  Zr4  1  0.39603856  0.75000000  0.85449428  1.0
  Zr  Zr5  1  0.89603856  0.75000000  0.64550572  1.0
  Zr  Zr6  1  0.60396144  0.25000000  0.14550572  1.0
  Zr  Zr7  1  0.10396144  0.25000000  0.35449428  1.0
  Zr  Zr8  1  0.34180860  0.75000000  0.54249049  1.0
  Zr  Zr9  1  0.84180860  0.75000000  0.95750951  1.0
  Zr  Zr10  1  0.65819140  0.25000000  0.45750951  1.0
  Zr  Zr11  1  0.15819140  0.25000000  0.04249049  1.0
  Zr  Zr12  1  0.22390160  0.75000000  0.24785911  1.0
  Zr  Zr13  1  0.72390160  0.75000000  0.25214089  1.0
  Zr  Zr14  1  0.77609840  0.25000000  0.75214089  1.0
  Zr  Zr15  1  0.27609840  0.25000000  0.74785911  1.0
  Zr  Zr16  1  0.14639908  0.75000000  0.57834252  1.0
  Zr  Zr17  1  0.64639908  0.75000000  0.92165748  1.0
  Zr  Zr18  1  0.85360092  0.25000000  0.42165748  1.0
  Zr  Zr19  1  0.35360092  0.25000000  0.07834252  1.0
  Zr  Zr20  1  0.03305906  0.75000000  0.88812939  1.0
  Zr  Zr21  1  0.53305906  0.75000000  0.61187061  1.0
  Zr  Zr22  1  0.96694094  0.25000000  0.11187061  1.0
  Zr  Zr23  1  0.46694094  0.25000000  0.38812939  1.0
  Te  Te24  1  0.36887481  0.75000000  0.28071640  1.0
  Te  Te25  1  0.86887481  0.75000000  0.21928360  1.0
  Te  Te26  1  0.63112519  0.25000000  0.71928360  1.0
  Te  Te27  1  0.13112519  0.25000000  0.78071640  1.0
  Te  Te28  1  0.25985179  0.75000000  0.96204152  1.0
  Te  Te29  1  0.75985179  0.75000000  0.53795848  1.0
  Te  Te30  1  0.74014821  0.25000000  0.03795848  1.0
  Te  Te31  1  0.24014821  0.25000000  0.46204152  1.0
  Te  Te32  1  0.07266688  0.75000000  0.16187231  1.0
  Te  Te33  1  0.57266688  0.75000000  0.33812769  1.0
  Te  Te34  1  0.92733312  0.25000000  0.83812769  1.0
  Te  Te35  1  0.42733312  0.25000000  0.66187231  1.0
