# generated using pymatgen
data_MnPH4N(OF)3
_symmetry_space_group_name_H-M   'P 1'
_cell_length_a   5.51309577
_cell_length_b   13.64687031
_cell_length_c   7.79992700
_cell_angle_alpha   90.00000000
_cell_angle_beta   112.80908631
_cell_angle_gamma   90.00000000
_symmetry_Int_Tables_number   1
_chemical_formula_structural   MnPH4N(OF)3
_chemical_formula_sum   'Mn4 P4 H16 N4 O12 F12'
_cell_volume   540.94939245
_cell_formula_units_Z   4
loop_
 _symmetry_equiv_pos_site_id
 _symmetry_equiv_pos_as_xyz
  1  'x, y, z'
loop_
 _atom_site_type_symbol
 _atom_site_label
 _atom_site_symmetry_multiplicity
 _atom_site_fract_x
 _atom_site_fract_y
 _atom_site_fract_z
 _atom_site_occupancy
  Mn  Mn0  1  -0.00000000  0.00000000  0.50000000  1.0
  Mn  Mn1  1  0.00000000  0.50000000  0.00000000  1.0
  Mn  Mn2  1  0.50000000  0.00000000  0.00000000  1.0
  Mn  Mn3  1  0.50000000  0.50000000  0.50000000  1.0
  P  P4  1  0.13121512  0.89688951  0.18522200  1.0
  P  P5  1  0.13121512  0.60311049  0.68522200  1.0
  P  P6  1  0.86878488  0.39688951  0.31477800  1.0
  P  P7  1  0.86878488  0.10311049  0.81477800  1.0
  H  H8  1  0.24747002  0.17622770  0.16646405  1.0
  H  H9  1  0.24747002  0.32377230  0.66646405  1.0
  H  H10  1  0.75252998  0.67622770  0.33353595  1.0
  H  H11  1  0.75252998  0.82377230  0.83353595  1.0
  H  H12  1  0.46101460  0.66576660  0.16252566  1.0
  H  H13  1  0.46101460  0.83423340  0.66252566  1.0
  H  H14  1  0.53898540  0.16576660  0.33747434  1.0
  H  H15  1  0.53898540  0.33423340  0.83747434  1.0
  H  H16  1  0.62416559  0.77298846  0.18737377  1.0
  H  H17  1  0.62416559  0.72701154  0.68737377  1.0
  H  H18  1  0.37583441  0.27298846  0.31262623  1.0
  H  H19  1  0.37583441  0.22701154  0.81262623  1.0
  H  H20  1  0.73083511  0.67102687  0.11018385  1.0
  H  H21  1  0.73083511  0.82897313  0.61018385  1.0
  H  H22  1  0.26916489  0.17102687  0.38981615  1.0
  H  H23  1  0.26916489  0.32897313  0.88981615  1.0
  N  N24  1  0.64228884  0.69799404  0.19730499  1.0
  N  N25  1  0.64228884  0.80200596  0.69730499  1.0
  N  N26  1  0.35771116  0.19799404  0.30269501  1.0
  N  N27  1  0.35771116  0.30200596  0.80269501  1.0
  O  O28  1  0.15443436  0.39446059  0.45165939  1.0
  O  O29  1  0.15443436  0.10553941  0.95165939  1.0
  O  O30  1  0.84556564  0.89446059  0.04834061  1.0
  O  O31  1  0.84556564  0.60553941  0.54834061  1.0
  O  O32  1  0.19460364  0.96952900  0.34784072  1.0
  O  O33  1  0.19460364  0.53047100  0.84784072  1.0
  O  O34  1  0.80539636  0.46952900  0.15215928  1.0
  O  O35  1  0.80539636  0.03047100  0.65215928  1.0
  O  O36  1  0.33523732  0.90108621  0.09536058  1.0
  O  O37  1  0.33523732  0.59891379  0.59536058  1.0
  O  O38  1  0.66476268  0.40108621  0.40463942  1.0
  O  O39  1  0.66476268  0.09891379  0.90463942  1.0
  F  F40  1  0.13503783  0.37455173  0.03175299  1.0
  F  F41  1  0.13503783  0.12544827  0.53175299  1.0
  F  F42  1  0.86496217  0.87455173  0.46824701  1.0
  F  F43  1  0.86496217  0.62544827  0.96824701  1.0
  F  F44  1  0.19007346  0.79024513  0.27999913  1.0
  F  F45  1  0.19007346  0.70975487  0.77999913  1.0
  F  F46  1  0.80992654  0.29024513  0.22000087  1.0
  F  F47  1  0.80992654  0.20975487  0.72000087  1.0
  F  F48  1  0.32482225  0.55001168  0.25891793  1.0
  F  F49  1  0.32482225  0.94998832  0.75891793  1.0
  F  F50  1  0.67517775  0.05001168  0.24108207  1.0
  F  F51  1  0.67517775  0.44998832  0.74108207  1.0
