# generated using pymatgen
data_LiRhO2
_symmetry_space_group_name_H-M   'P 1'
_cell_length_a   6.06238333
_cell_length_b   6.06238333
_cell_length_c   6.06238333
_cell_angle_alpha   60.00000000
_cell_angle_beta   60.00000000
_cell_angle_gamma   60.00000000
_symmetry_Int_Tables_number   1
_chemical_formula_structural   LiRhO2
_chemical_formula_sum   'Li4 Rh4 O8'
_cell_volume   157.54883033
_cell_formula_units_Z   4
loop_
 _symmetry_equiv_pos_site_id
 _symmetry_equiv_pos_as_xyz
  1  'x, y, z'
loop_
 _atom_site_type_symbol
 _atom_site_label
 _atom_site_symmetry_multiplicity
 _atom_site_fract_x
 _atom_site_fract_y
 _atom_site_fract_z
 _atom_site_occupancy
  Li  Li0  1  0.12500000  0.12500000  1.62500000  1.0
  Li  Li1  1  0.12500000  0.62500000  1.12500000  1.0
  Li  Li2  1  1.62500000  0.12500000  0.12500000  1.0
  Li  Li3  1  1.12500000  0.12500000  0.12500000  1.0
  Rh  Rh4  1  0.62500000  0.62500000  1.12500000  1.0
  Rh  Rh5  1  0.62500000  1.12500000  0.62500000  1.0
  Rh  Rh6  1  1.12500000  0.62500000  0.62500000  1.0
  Rh  Rh7  1  0.62500000  0.62500000  0.62500000  1.0
  O  O8  1  0.86693448  -0.13306552  0.39919657  1.0
  O  O9  1  0.86693448  -0.60080343  0.86693448  1.0
  O  O10  1  0.39919657  0.86693448  0.86693448  1.0
  O  O11  1  0.86693448  0.86693448  0.86693448  1.0
  O  O12  1  1.38306552  0.38306552  -0.14919657  1.0
  O  O13  1  1.38306552  -0.14919657  0.38306552  1.0
  O  O14  1  0.85080343  0.38306552  0.38306552  1.0
  O  O15  1  1.38306552  0.38306552  0.38306552  1.0
