# generated using pymatgen
data_Ba5P3O12F
_symmetry_space_group_name_H-M   'P 1'
_cell_length_a   10.31508024
_cell_length_b   10.31508024
_cell_length_c   7.81505572
_cell_angle_alpha   90.00000000
_cell_angle_beta   90.00000000
_cell_angle_gamma   120.00000000
_symmetry_Int_Tables_number   1
_chemical_formula_structural   Ba5P3O12F
_chemical_formula_sum   'Ba10 P6 O24 F2'
_cell_volume   720.12507214
_cell_formula_units_Z   2
loop_
 _symmetry_equiv_pos_site_id
 _symmetry_equiv_pos_as_xyz
  1  'x, y, z'
loop_
 _atom_site_type_symbol
 _atom_site_label
 _atom_site_symmetry_multiplicity
 _atom_site_fract_x
 _atom_site_fract_y
 _atom_site_fract_z
 _atom_site_occupancy
  Ba  Ba0  1  0.01575945  0.75806358  0.25000000  1.0
  Ba  Ba1  1  0.75806358  0.74230413  0.75000000  1.0
  Ba  Ba2  1  0.74230413  0.98424055  0.25000000  1.0
  Ba  Ba3  1  0.24193642  0.25769587  0.25000000  1.0
  Ba  Ba4  1  0.98424055  0.24193642  0.75000000  1.0
  Ba  Ba5  1  0.25769587  0.01575945  0.75000000  1.0
  Ba  Ba6  1  0.33333333  0.66666667  0.50080761  1.0
  Ba  Ba7  1  0.33333333  0.66666667  -0.00080761  1.0
  Ba  Ba8  1  0.66666667  0.33333333  1.00080761  1.0
  Ba  Ba9  1  0.66666667  0.33333333  0.49919239  1.0
  P  P10  1  0.63193300  0.59924723  0.25000000  1.0
  P  P11  1  0.59924723  0.96731422  0.75000000  1.0
  P  P12  1  0.96731422  0.36806700  0.25000000  1.0
  P  P13  1  0.40075277  0.03268578  0.25000000  1.0
  P  P14  1  0.36806700  0.40075277  0.75000000  1.0
  P  P15  1  0.03268578  0.63193300  0.75000000  1.0
  O  O16  1  0.73436625  0.65335217  0.41254322  1.0
  O  O17  1  0.73436625  0.65335217  0.08745678  1.0
  O  O18  1  0.65335217  0.91898592  0.91254322  1.0
  O  O19  1  0.65335217  0.91898592  0.58745678  1.0
  O  O20  1  0.91898592  0.26563375  0.41254322  1.0
  O  O21  1  0.91898592  0.26563375  0.08745678  1.0
  O  O22  1  0.34664783  0.08101408  0.41254322  1.0
  O  O23  1  0.34664783  0.08101408  0.08745678  1.0
  O  O24  1  0.26563375  0.34664783  0.91254322  1.0
  O  O25  1  0.26563375  0.34664783  0.58745678  1.0
  O  O26  1  0.08101408  0.73436625  0.91254322  1.0
  O  O27  1  0.08101408  0.73436625  0.58745678  1.0
  O  O28  1  0.33774965  0.85951477  0.25000000  1.0
  O  O29  1  0.85951477  0.52176512  0.75000000  1.0
  O  O30  1  0.52176512  0.66225035  0.25000000  1.0
  O  O31  1  0.14048523  0.47823488  0.25000000  1.0
  O  O32  1  0.66225035  0.14048523  0.75000000  1.0
  O  O33  1  0.47823488  0.33774965  0.75000000  1.0
  O  O34  1  0.54151167  0.42369876  0.25000000  1.0
  O  O35  1  0.42369876  0.88218709  0.75000000  1.0
  O  O36  1  0.88218709  0.45848833  0.25000000  1.0
  O  O37  1  0.57630124  0.11781291  0.25000000  1.0
  O  O38  1  0.45848833  0.57630124  0.75000000  1.0
  O  O39  1  0.11781291  0.54151167  0.75000000  1.0
  F  F40  1  0.00000000  0.00000000  0.25000000  1.0
  F  F41  1  0.00000000  0.00000000  0.75000000  1.0
