# generated using pymatgen
data_BaCu2SiSe4
_symmetry_space_group_name_H-M   'P 1'
_cell_length_a   6.50863758
_cell_length_b   6.50863758
_cell_length_c   16.24715089
_cell_angle_alpha   90.00000000
_cell_angle_beta   90.00000000
_cell_angle_gamma   120.00000000
_symmetry_Int_Tables_number   1
_chemical_formula_structural   BaCu2SiSe4
_chemical_formula_sum   'Ba3 Cu6 Si3 Se12'
_cell_volume   596.05731848
_cell_formula_units_Z   3
loop_
 _symmetry_equiv_pos_site_id
 _symmetry_equiv_pos_as_xyz
  1  'x, y, z'
loop_
 _atom_site_type_symbol
 _atom_site_label
 _atom_site_symmetry_multiplicity
 _atom_site_fract_x
 _atom_site_fract_y
 _atom_site_fract_z
 _atom_site_occupancy
  Ba  Ba0  1  0.54865587  0.00000000  0.66666667  1.0
  Ba  Ba1  1  -0.00000000  0.54865587  0.33333333  1.0
  Ba  Ba2  1  0.45134413  0.45134413  0.00000000  1.0
  Cu  Cu3  1  0.92360345  0.57439238  0.57772398  1.0
  Cu  Cu4  1  0.42560762  0.34921107  0.24439064  1.0
  Cu  Cu5  1  0.65078893  0.07639655  0.91105731  1.0
  Cu  Cu6  1  0.57439238  0.92360345  0.42227602  1.0
  Cu  Cu7  1  0.07639655  0.65078893  0.08894269  1.0
  Cu  Cu8  1  0.34921107  0.42560762  0.75560936  1.0
  Si  Si9  1  0.00000000  0.71390755  0.83333333  1.0
  Si  Si10  1  0.28609245  0.28609245  0.50000000  1.0
  Si  Si11  1  0.71390755  0.00000000  0.16666667  1.0
  Se  Se12  1  0.03364731  0.51330376  0.72123088  1.0
  Se  Se13  1  0.48669624  0.52034355  0.38789755  1.0
  Se  Se14  1  0.47965645  0.96635269  0.05456421  1.0
  Se  Se15  1  0.51330376  0.03364731  0.27876912  1.0
  Se  Se16  1  0.96635269  0.47965645  0.94543579  1.0
  Se  Se17  1  0.52034355  0.48669624  0.61210245  1.0
  Se  Se18  1  0.67431076  0.76814343  0.82867682  1.0
  Se  Se19  1  0.23185657  0.90616734  0.49534349  1.0
  Se  Se20  1  0.09383266  0.32568924  0.16201016  1.0
  Se  Se21  1  0.76814343  0.67431076  0.17132318  1.0
  Se  Se22  1  0.32568924  0.09383266  0.83798984  1.0
  Se  Se23  1  0.90616734  0.23185657  0.50465651  1.0
