# generated using pymatgen
data_Ca3N2
_symmetry_space_group_name_H-M   'P 1'
_cell_length_a   3.88689003
_cell_length_b   3.88689003
_cell_length_c   13.24065844
_cell_angle_alpha   90.00000000
_cell_angle_beta   90.00000000
_cell_angle_gamma   120.00000000
_symmetry_Int_Tables_number   1
_chemical_formula_structural   Ca3N2
_chemical_formula_sum   'Ca6 N4'
_cell_volume   173.23862219
_cell_formula_units_Z   2
loop_
 _symmetry_equiv_pos_site_id
 _symmetry_equiv_pos_as_xyz
  1  'x, y, z'
loop_
 _atom_site_type_symbol
 _atom_site_label
 _atom_site_symmetry_multiplicity
 _atom_site_fract_x
 _atom_site_fract_y
 _atom_site_fract_z
 _atom_site_occupancy
  Ca  Ca0  1  0.33333333  0.66666667  0.41398466  1.0
  Ca  Ca1  1  0.66666667  0.33333333  0.58601534  1.0
  Ca  Ca2  1  0.66666667  0.33333333  0.91398466  1.0
  Ca  Ca3  1  0.33333333  0.66666667  0.08601534  1.0
  Ca  Ca4  1  0.00000000  0.00000000  0.25000000  1.0
  Ca  Ca5  1  0.00000000  0.00000000  0.75000000  1.0
  N  N6  1  0.00000000  0.00000000  0.50000000  1.0
  N  N7  1  0.00000000  0.00000000  0.00000000  1.0
  N  N8  1  0.66666667  0.33333333  0.25000000  1.0
  N  N9  1  0.33333333  0.66666667  0.75000000  1.0
