# generated using pymatgen
data_Nb2Co4P3
_symmetry_space_group_name_H-M   'P 1'
_cell_length_a   11.89678879
_cell_length_b   11.89678879
_cell_length_c   3.60004166
_cell_angle_alpha   90.00000000
_cell_angle_beta   90.00000000
_cell_angle_gamma   120.00000000
_symmetry_Int_Tables_number   1
_chemical_formula_structural   Nb2Co4P3
_chemical_formula_sum   'Nb8 Co16 P12'
_cell_volume   441.26314959
_cell_formula_units_Z   4
loop_
 _symmetry_equiv_pos_site_id
 _symmetry_equiv_pos_as_xyz
  1  'x, y, z'
loop_
 _atom_site_type_symbol
 _atom_site_label
 _atom_site_symmetry_multiplicity
 _atom_site_fract_x
 _atom_site_fract_y
 _atom_site_fract_z
 _atom_site_occupancy
  Co  Co0  1  -0.00000000  -0.00000000  0.00000000  1.0
  Co  Co1  1  0.12990041  0.64587066  0.50000000  1.0
  Co  Co2  1  0.64587066  0.12990041  0.50000000  1.0
  Co  Co3  1  0.51597025  0.87009959  0.50000000  1.0
  Co  Co4  1  0.35412934  0.48402975  0.50000000  1.0
  Co  Co5  1  0.87009959  0.51597025  0.50000000  1.0
  Co  Co6  1  0.48402975  0.35412934  0.50000000  1.0
  Co  Co7  1  0.19098329  0.82136985  -0.00000000  1.0
  Co  Co8  1  0.82136985  0.19098329  -0.00000000  1.0
  Co  Co9  1  0.63038656  0.80901671  0.00000000  1.0
  Co  Co10  1  0.17863015  0.36961344  0.00000000  1.0
  Co  Co11  1  0.80901671  0.63038656  0.00000000  1.0
  Co  Co12  1  0.36961344  0.17863015  0.00000000  1.0
  Co  Co13  1  0.72531769  0.72531769  0.50000000  1.0
  Co  Co14  1  -0.00000000  0.27468231  0.50000000  1.0
  Co  Co15  1  0.27468231  -0.00000000  0.50000000  1.0
  Nb  Nb16  1  0.17660662  0.17660662  0.50000000  1.0
  Nb  Nb17  1  0.00000000  0.82339338  0.50000000  1.0
  Nb  Nb18  1  0.82339338  -0.00000000  0.50000000  1.0
  Nb  Nb19  1  0.55294633  0.55294633  0.00000000  1.0
  Nb  Nb20  1  -0.00000000  0.44705367  -0.00000000  1.0
  Nb  Nb21  1  0.44705367  -0.00000000  -0.00000000  1.0
  Nb  Nb22  1  0.33333333  0.66666667  -0.00000000  1.0
  Nb  Nb23  1  0.66666667  0.33333333  -0.00000000  1.0
  P  P24  1  0.31205379  0.82870950  0.50000000  1.0
  P  P25  1  0.82870950  0.31205379  0.50000000  1.0
  P  P26  1  0.51665571  0.68794621  0.50000000  1.0
  P  P27  1  0.17129050  0.48334429  0.50000000  1.0
  P  P28  1  0.68794621  0.51665571  0.50000000  1.0
  P  P29  1  0.48334429  0.17129050  0.50000000  1.0
  P  P30  1  0.82528129  0.82528129  0.00000000  1.0
  P  P31  1  0.00000000  0.17471871  0.00000000  1.0
  P  P32  1  0.17471871  0.00000000  -0.00000000  1.0
  P  P33  1  0.35124507  0.35124507  -0.00000000  1.0
  P  P34  1  -0.00000000  0.64875493  0.00000000  1.0
  P  P35  1  0.64875493  0.00000000  0.00000000  1.0
