# generated using pymatgen
data_CuH12N2(Cl2O)2
_symmetry_space_group_name_H-M   'P 1'
_cell_length_a   7.76697992
_cell_length_b   7.76697992
_cell_length_c   8.02109239
_cell_angle_alpha   90.00000000
_cell_angle_beta   90.00000000
_cell_angle_gamma   90.00000000
_symmetry_Int_Tables_number   1
_chemical_formula_structural   CuH12N2(Cl2O)2
_chemical_formula_sum   'Cu2 H24 N4 Cl8 O4'
_cell_volume   483.88023508
_cell_formula_units_Z   2
loop_
 _symmetry_equiv_pos_site_id
 _symmetry_equiv_pos_as_xyz
  1  'x, y, z'
loop_
 _atom_site_type_symbol
 _atom_site_label
 _atom_site_symmetry_multiplicity
 _atom_site_fract_x
 _atom_site_fract_y
 _atom_site_fract_z
 _atom_site_occupancy
  Cu  Cu0  1  0.50000000  0.50000000  0.00000000  1.0
  Cu  Cu1  1  0.00000000  0.00000000  0.50000000  1.0
  H  H2  1  0.42673504  0.57326496  0.31795222  1.0
  H  H3  1  0.57326496  0.42673504  0.31795222  1.0
  H  H4  1  0.07326496  0.07326496  0.81795222  1.0
  H  H5  1  0.92673504  0.92673504  0.81795222  1.0
  H  H6  1  0.57326496  0.42673504  0.68204778  1.0
  H  H7  1  0.42673504  0.57326496  0.68204778  1.0
  H  H8  1  0.92673504  0.92673504  0.18204778  1.0
  H  H9  1  0.07326496  0.07326496  0.18204778  1.0
  H  H10  1  0.08221247  0.57193407  0.32418616  1.0
  H  H11  1  0.91778753  0.42806593  0.32418616  1.0
  H  H12  1  0.41778753  0.07193407  0.82418616  1.0
  H  H13  1  0.58221247  0.92806593  0.82418616  1.0
  H  H14  1  0.91778753  0.42806593  0.67581384  1.0
  H  H15  1  0.08221247  0.57193407  0.67581384  1.0
  H  H16  1  0.58221247  0.92806593  0.17581384  1.0
  H  H17  1  0.41778753  0.07193407  0.17581384  1.0
  H  H18  1  0.57193407  0.08221247  0.32418616  1.0
  H  H19  1  0.42806593  0.91778753  0.32418616  1.0
  H  H20  1  0.07193407  0.41778753  0.82418616  1.0
  H  H21  1  0.92806593  0.58221247  0.82418616  1.0
  H  H22  1  0.42806593  0.91778753  0.67581384  1.0
  H  H23  1  0.57193407  0.08221247  0.67581384  1.0
  H  H24  1  0.92806593  0.58221247  0.17581384  1.0
  H  H25  1  0.07193407  0.41778753  0.17581384  1.0
  N  N26  1  0.00000000  0.50000000  0.25000000  1.0
  N  N27  1  0.50000000  0.00000000  0.75000000  1.0
  N  N28  1  0.00000000  0.50000000  0.75000000  1.0
  N  N29  1  0.50000000  0.00000000  0.25000000  1.0
  Cl  Cl30  1  0.29384178  0.70615822  0.00000000  1.0
  Cl  Cl31  1  0.70615822  0.29384178  0.00000000  1.0
  Cl  Cl32  1  0.20615822  0.20615822  0.50000000  1.0
  Cl  Cl33  1  0.79384178  0.79384178  0.50000000  1.0
  Cl  Cl34  1  0.28432306  0.71567694  0.50000000  1.0
  Cl  Cl35  1  0.71567694  0.28432306  0.50000000  1.0
  Cl  Cl36  1  0.21567694  0.21567694  0.00000000  1.0
  Cl  Cl37  1  0.78432306  0.78432306  0.00000000  1.0
  O  O38  1  0.50000000  0.50000000  0.24625855  1.0
  O  O39  1  0.00000000  0.00000000  0.74625855  1.0
  O  O40  1  0.50000000  0.50000000  0.75374145  1.0
  O  O41  1  0.00000000  0.00000000  0.25374145  1.0
