# generated using pymatgen
data_BiSO6
_symmetry_space_group_name_H-M   'P 1'
_cell_length_a   5.86305235
_cell_length_b   13.91178625
_cell_length_c   6.99770120
_cell_angle_alpha   90.00000000
_cell_angle_beta   119.51043044
_cell_angle_gamma   90.00000000
_symmetry_Int_Tables_number   1
_chemical_formula_structural   BiSO6
_chemical_formula_sum   'Bi4 S4 O24'
_cell_volume   496.72280348
_cell_formula_units_Z   4
loop_
 _symmetry_equiv_pos_site_id
 _symmetry_equiv_pos_as_xyz
  1  'x, y, z'
loop_
 _atom_site_type_symbol
 _atom_site_label
 _atom_site_symmetry_multiplicity
 _atom_site_fract_x
 _atom_site_fract_y
 _atom_site_fract_z
 _atom_site_occupancy
  O  O0  1  0.84499045  0.09892279  0.40649050  1.0
  O  O1  1  0.84499045  0.40107721  0.90649050  1.0
  O  O2  1  0.15500955  0.59892279  0.09350950  1.0
  O  O3  1  0.15500955  0.90107721  0.59350950  1.0
  O  O4  1  0.73688794  0.25310205  0.02772984  1.0
  O  O5  1  0.73688794  0.24689795  0.52772984  1.0
  O  O6  1  0.26311206  0.75310205  0.47227016  1.0
  O  O7  1  0.26311206  0.74689795  0.97227016  1.0
  O  O8  1  0.44955591  0.04760332  0.37010885  1.0
  O  O9  1  0.44955591  0.45239668  0.87010885  1.0
  O  O10  1  0.55044409  0.54760332  0.12989115  1.0
  O  O11  1  0.55044409  0.95239668  0.62989115  1.0
  O  O12  1  0.63367382  0.46964693  0.43937117  1.0
  O  O13  1  0.63367382  0.03035307  0.93937117  1.0
  O  O14  1  0.36632618  0.96964693  0.06062883  1.0
  O  O15  1  0.36632618  0.53035307  0.56062883  1.0
  O  O16  1  0.97127018  0.38281706  0.29687561  1.0
  O  O17  1  0.97127018  0.11718294  0.79687561  1.0
  O  O18  1  0.02872982  0.88281706  0.20312439  1.0
  O  O19  1  0.02872982  0.61718294  0.70312439  1.0
  O  O20  1  0.79895038  0.79372209  0.34991675  1.0
  O  O21  1  0.79895038  0.70627791  0.84991675  1.0
  O  O22  1  0.20104962  0.29372209  0.15008325  1.0
  O  O23  1  0.20104962  0.20627791  0.65008325  1.0
  S  S24  1  0.93472511  0.33061059  0.09691623  1.0
  S  S25  1  0.93472511  0.16938941  0.59691623  1.0
  S  S26  1  0.06527489  0.83061059  0.40308377  1.0
  S  S27  1  0.06527489  0.66938941  0.90308377  1.0
  Bi  Bi28  1  0.43648081  0.13206393  0.05246859  1.0
  Bi  Bi29  1  0.43648081  0.36793607  0.55246859  1.0
  Bi  Bi30  1  0.56351919  0.63206393  0.44753141  1.0
  Bi  Bi31  1  0.56351919  0.86793607  0.94753141  1.0
