# generated using pymatgen
data_RbTa(CuSe2)2
_symmetry_space_group_name_H-M   'P 1'
_cell_length_a   10.28271640
_cell_length_b   10.28271640
_cell_length_c   7.87978478
_cell_angle_alpha   90.00000000
_cell_angle_beta   90.00000000
_cell_angle_gamma   32.46799618
_symmetry_Int_Tables_number   1
_chemical_formula_structural   RbTa(CuSe2)2
_chemical_formula_sum   'Rb2 Ta2 Cu4 Se8'
_cell_volume   447.26568411
_cell_formula_units_Z   2
loop_
 _symmetry_equiv_pos_site_id
 _symmetry_equiv_pos_as_xyz
  1  'x, y, z'
loop_
 _atom_site_type_symbol
 _atom_site_label
 _atom_site_symmetry_multiplicity
 _atom_site_fract_x
 _atom_site_fract_y
 _atom_site_fract_z
 _atom_site_occupancy
  Rb  Rb0  1  0.55387672  1.07812195  0.25000000  1.0
  Rb  Rb1  1  -0.07812195  1.44612328  0.75000000  1.0
  Ta  Ta2  1  0.08502157  1.12583632  0.25000000  1.0
  Ta  Ta3  1  0.87416368  0.91497843  0.75000000  1.0
  Cu  Cu4  1  0.58287540  0.62436792  0.25000000  1.0
  Cu  Cu5  1  0.37563208  1.41712460  0.75000000  1.0
  Cu  Cu6  1  -0.00673195  0.00673195  0.50000000  1.0
  Cu  Cu7  1  -0.00673195  0.00673195  0.00000000  1.0
  Se  Se8  1  0.12185322  1.66962025  0.49797168  1.0
  Se  Se9  1  0.33037975  0.87814678  0.99797168  1.0
  Se  Se10  1  0.33037975  0.87814678  0.50202832  1.0
  Se  Se11  1  0.12185322  1.66962025  0.00202832  1.0
  Se  Se12  1  -0.26281520  1.26842150  0.25000000  1.0
  Se  Se13  1  0.73157850  1.26281520  0.75000000  1.0
  Se  Se14  1  -0.06471016  1.47350268  0.25000000  1.0
  Se  Se15  1  0.52649732  1.06471016  0.75000000  1.0
