# generated using pymatgen
data_Sr3NbAl3(SiO7)2
_symmetry_space_group_name_H-M   'P 1'
_cell_length_a   8.31246942
_cell_length_b   8.31246942
_cell_length_c   5.05546970
_cell_angle_alpha   90.00000000
_cell_angle_beta   90.00000000
_cell_angle_gamma   120.00000000
_symmetry_Int_Tables_number   1
_chemical_formula_structural   Sr3NbAl3(SiO7)2
_chemical_formula_sum   'Sr3 Nb1 Al3 Si2 O14'
_cell_volume   302.51872732
_cell_formula_units_Z   1
loop_
 _symmetry_equiv_pos_site_id
 _symmetry_equiv_pos_as_xyz
  1  'x, y, z'
loop_
 _atom_site_type_symbol
 _atom_site_label
 _atom_site_symmetry_multiplicity
 _atom_site_fract_x
 _atom_site_fract_y
 _atom_site_fract_z
 _atom_site_occupancy
  Sr  Sr0  1  0.42406799  0.42406799  0.00000000  1.0
  Sr  Sr1  1  -0.00000000  0.57593201  0.00000000  1.0
  Sr  Sr2  1  0.57593201  0.00000000  0.00000000  1.0
  Nb  Nb3  1  0.00000000  0.00000000  0.00000000  1.0
  Al  Al4  1  0.74169880  0.74169880  0.50000000  1.0
  Al  Al5  1  0.00000000  0.25830120  0.50000000  1.0
  Al  Al6  1  0.25830120  0.00000000  0.50000000  1.0
  Si  Si7  1  0.33333333  0.66666667  0.52910683  1.0
  Si  Si8  1  0.66666667  0.33333333  0.47089317  1.0
  O  O9  1  0.10262827  0.88006688  0.23614970  1.0
  O  O10  1  0.88006688  0.10262827  0.76385030  1.0
  O  O11  1  0.77743861  0.89737173  0.23614970  1.0
  O  O12  1  0.11993312  0.22256139  0.23614970  1.0
  O  O13  1  0.89737173  0.77743861  0.76385030  1.0
  O  O14  1  0.22256139  0.11993312  0.76385030  1.0
  O  O15  1  0.69183072  0.52801991  0.34011115  1.0
  O  O16  1  0.52801991  0.69183072  0.65988885  1.0
  O  O17  1  0.83618920  0.30816928  0.34011115  1.0
  O  O18  1  0.47198009  0.16381080  0.34011115  1.0
  O  O19  1  0.30816928  0.83618920  0.65988885  1.0
  O  O20  1  0.16381080  0.47198009  0.65988885  1.0
  O  O21  1  0.33333333  0.66666667  0.21020261  1.0
  O  O22  1  0.66666667  0.33333333  0.78979739  1.0
