# generated using pymatgen
data_Ho2(NiB2)3
_symmetry_space_group_name_H-M   'P 1'
_cell_length_a   5.80010162
_cell_length_b   5.80010162
_cell_length_c   3.41865870
_cell_angle_alpha   90.00000000
_cell_angle_beta   90.00000000
_cell_angle_gamma   96.94185106
_symmetry_Int_Tables_number   1
_chemical_formula_structural   Ho2(NiB2)3
_chemical_formula_sum   'Ho2 Ni3 B6'
_cell_volume   114.16462432
_cell_formula_units_Z   1
loop_
 _symmetry_equiv_pos_site_id
 _symmetry_equiv_pos_as_xyz
  1  'x, y, z'
loop_
 _atom_site_type_symbol
 _atom_site_label
 _atom_site_symmetry_multiplicity
 _atom_site_fract_x
 _atom_site_fract_y
 _atom_site_fract_z
 _atom_site_occupancy
  Ho  Ho0  1  0.27820100  0.72179900  0.50000000  1.0
  Ho  Ho1  1  -0.27820100  1.27820100  0.50000000  1.0
  Ni  Ni2  1  0.77679432  0.77679432  0.50000000  1.0
  Ni  Ni3  1  0.22320568  0.22320568  0.50000000  1.0
  Ni  Ni4  1  0.00000000  0.00000000  0.00000000  1.0
  B  B5  1  -0.08548181  1.61356017  0.00000000  1.0
  B  B6  1  0.61356017  0.91451819  0.00000000  1.0
  B  B7  1  -0.61356017  1.08548181  0.00000000  1.0
  B  B8  1  0.08548181  0.38643983  0.00000000  1.0
  B  B9  1  0.61313123  0.61313123  0.00000000  1.0
  B  B10  1  0.38686877  0.38686877  0.00000000  1.0
