# generated using pymatgen
data_ZnSiO3
_symmetry_space_group_name_H-M   'P 1'
_cell_length_a   7.76030245
_cell_length_b   7.76030245
_cell_length_c   5.53283447
_cell_angle_alpha   69.13178064
_cell_angle_beta   110.86821936
_cell_angle_gamma   89.78544266
_symmetry_Int_Tables_number   1
_chemical_formula_structural   ZnSiO3
_chemical_formula_sum   'Zn4 Si4 O12'
_cell_volume   287.64453998
_cell_formula_units_Z   4
loop_
 _symmetry_equiv_pos_site_id
 _symmetry_equiv_pos_as_xyz
  1  'x, y, z'
loop_
 _atom_site_type_symbol
 _atom_site_label
 _atom_site_symmetry_multiplicity
 _atom_site_fract_x
 _atom_site_fract_y
 _atom_site_fract_z
 _atom_site_occupancy
  Zn  Zn0  1  0.74582515  0.74582515  0.75000000  1.0
  Zn  Zn1  1  0.25417485  0.25417485  0.25000000  1.0
  Zn  Zn2  1  0.25446164  0.25446164  0.75000000  1.0
  Zn  Zn3  1  0.74553836  0.74553836  0.25000000  1.0
  Si  Si4  1  1.32702643  -0.16630200  0.74717351  1.0
  Si  Si5  1  1.16630200  -0.32702643  0.24717351  1.0
  Si  Si6  1  0.83369800  0.32702643  0.75282649  1.0
  Si  Si7  1  0.67297357  0.16630200  0.25282649  1.0
  O  O8  1  1.55209786  -0.23585196  0.89391141  1.0
  O  O9  1  1.23585196  -0.55209786  0.39391141  1.0
  O  O10  1  0.76414804  0.55209786  0.60608859  1.0
  O  O11  1  0.44790214  0.23585196  0.10608859  1.0
  O  O12  1  0.75720692  0.24185784  1.00655789  1.0
  O  O13  1  0.75814216  0.24279308  0.50655789  1.0
  O  O14  1  1.24185784  -0.24279308  0.49344211  1.0
  O  O15  1  1.24279308  -0.24185784  -0.00655789  1.0
  O  O16  1  0.27494157  0.06093897  0.60706552  1.0
  O  O17  1  0.93906103  0.72505843  0.10706552  1.0
  O  O18  1  1.06093897  -0.72505843  0.89293448  1.0
  O  O19  1  1.72505843  -0.06093897  0.39293448  1.0
