# generated using pymatgen
data_RbGeB3O7
_symmetry_space_group_name_H-M   'P 1'
_cell_length_a   9.54891899
_cell_length_b   9.83995543
_cell_length_c   7.04732639
_cell_angle_alpha   90.00000000
_cell_angle_beta   90.00000000
_cell_angle_gamma   90.00000000
_symmetry_Int_Tables_number   1
_chemical_formula_structural   RbGeB3O7
_chemical_formula_sum   'Rb4 Ge4 B12 O28'
_cell_volume   662.17339317
_cell_formula_units_Z   4
loop_
 _symmetry_equiv_pos_site_id
 _symmetry_equiv_pos_as_xyz
  1  'x, y, z'
loop_
 _atom_site_type_symbol
 _atom_site_label
 _atom_site_symmetry_multiplicity
 _atom_site_fract_x
 _atom_site_fract_y
 _atom_site_fract_z
 _atom_site_occupancy
  Rb  Rb0  1  0.52065031  0.17539106  0.69172009  1.0
  Rb  Rb1  1  0.02065031  0.32460894  0.69172009  1.0
  Rb  Rb2  1  0.47934969  0.82460894  0.19172009  1.0
  Rb  Rb3  1  0.97934969  0.67539106  0.19172009  1.0
  Ge  Ge4  1  0.23722276  0.89686695  0.67517565  1.0
  Ge  Ge5  1  0.73722276  0.60313305  0.67517565  1.0
  Ge  Ge6  1  0.76277724  0.10313305  0.17517565  1.0
  Ge  Ge7  1  0.26277724  0.39686695  0.17517565  1.0
  B  B8  1  0.46604200  0.71939288  0.64263578  1.0
  B  B9  1  0.96604200  0.78060712  0.64263578  1.0
  B  B10  1  0.53395800  0.28060712  0.14263578  1.0
  B  B11  1  0.03395800  0.21939288  0.14263578  1.0
  B  B12  1  0.34346164  0.57235249  0.88023442  1.0
  B  B13  1  0.84346164  0.92764751  0.88023442  1.0
  B  B14  1  0.65653836  0.42764751  0.38023442  1.0
  B  B15  1  0.15653836  0.07235249  0.38023442  1.0
  B  B16  1  0.32168640  0.51661819  0.54927915  1.0
  B  B17  1  0.82168640  0.98338181  0.54927915  1.0
  B  B18  1  0.67831360  0.48338181  0.04927915  1.0
  B  B19  1  0.17831360  0.01661819  0.04927915  1.0
  O  O20  1  0.42924699  0.67802461  0.83837681  1.0
  O  O21  1  0.92924699  0.82197539  0.83837681  1.0
  O  O22  1  0.57075301  0.32197539  0.33837681  1.0
  O  O23  1  0.07075301  0.17802461  0.33837681  1.0
  O  O24  1  0.40916658  0.61929380  0.50140616  1.0
  O  O25  1  0.90916658  0.88070620  0.50140616  1.0
  O  O26  1  0.59083342  0.38070620  0.00140616  1.0
  O  O27  1  0.09083342  0.11929380  0.00140616  1.0
  O  O28  1  0.40811311  0.85621992  0.60210720  1.0
  O  O29  1  0.90811311  0.64378008  0.60210720  1.0
  O  O30  1  0.59188689  0.14378008  0.10210720  1.0
  O  O31  1  0.09188689  0.35621992  0.10210720  1.0
  O  O32  1  0.30404507  0.55679862  0.06787866  1.0
  O  O33  1  0.80404507  0.94320138  0.06787866  1.0
  O  O34  1  0.69595493  0.44320138  0.56787866  1.0
  O  O35  1  0.19595493  0.05679862  0.56787866  1.0
  O  O36  1  0.24674127  0.93219330  0.92370385  1.0
  O  O37  1  0.74674127  0.56780670  0.92370385  1.0
  O  O38  1  0.75325873  0.06780670  0.42370385  1.0
  O  O39  1  0.25325873  0.43219330  0.42370385  1.0
  O  O40  1  0.11826156  0.76746504  0.61934515  1.0
  O  O41  1  0.61826156  0.73253496  0.61934515  1.0
  O  O42  1  0.88173844  0.23253496  0.11934515  1.0
  O  O43  1  0.38173844  0.26746504  0.11934515  1.0
  O  O44  1  0.79262761  0.01448963  0.74043708  1.0
  O  O45  1  0.29262761  0.48551037  0.74043708  1.0
  O  O46  1  0.20737239  0.98551037  0.24043708  1.0
  O  O47  1  0.70737239  0.51448963  0.24043708  1.0
