# generated using pymatgen
data_Lu2B6Ru
_symmetry_space_group_name_H-M   'P 1'
_cell_length_a   9.02381506
_cell_length_b   11.38519094
_cell_length_c   3.57915474
_cell_angle_alpha   90.00000000
_cell_angle_beta   90.00000000
_cell_angle_gamma   90.00000000
_symmetry_Int_Tables_number   1
_chemical_formula_structural   Lu2B6Ru
_chemical_formula_sum   'Lu8 B24 Ru4'
_cell_volume   367.71468962
_cell_formula_units_Z   4
loop_
 _symmetry_equiv_pos_site_id
 _symmetry_equiv_pos_as_xyz
  1  'x, y, z'
loop_
 _atom_site_type_symbol
 _atom_site_label
 _atom_site_symmetry_multiplicity
 _atom_site_fract_x
 _atom_site_fract_y
 _atom_site_fract_z
 _atom_site_occupancy
  Lu  Lu0  1  0.17959519  0.91397195  0.50000000  1.0
  Lu  Lu1  1  0.67959519  0.58602805  0.50000000  1.0
  Lu  Lu2  1  0.82040481  0.08602805  0.50000000  1.0
  Lu  Lu3  1  0.32040481  0.41397195  0.50000000  1.0
  Lu  Lu4  1  0.05633510  0.62695741  0.50000000  1.0
  Lu  Lu5  1  0.55633510  0.87304259  0.50000000  1.0
  Lu  Lu6  1  0.94366490  0.37304259  0.50000000  1.0
  Lu  Lu7  1  0.44366490  0.12695741  0.50000000  1.0
  B  B8  1  0.44665121  0.56617286  0.00000000  1.0
  B  B9  1  0.94665121  0.93382714  0.00000000  1.0
  B  B10  1  0.55334879  0.43382714  0.00000000  1.0
  B  B11  1  0.05334879  0.06617286  0.00000000  1.0
  B  B12  1  0.39365911  0.97066274  0.00000000  1.0
  B  B13  1  0.89365911  0.52933726  0.00000000  1.0
  B  B14  1  0.60634089  0.02933726  0.00000000  1.0
  B  B15  1  0.10634089  0.47066274  0.00000000  1.0
  B  B16  1  0.36928323  0.81573149  0.00000000  1.0
  B  B17  1  0.86928323  0.68426851  0.00000000  1.0
  B  B18  1  0.63071677  0.18426851  0.00000000  1.0
  B  B19  1  0.13071677  0.31573149  0.00000000  1.0
  B  B20  1  0.25093206  0.57947278  0.00000000  1.0
  B  B21  1  0.75093206  0.92052722  0.00000000  1.0
  B  B22  1  0.74906794  0.42052722  0.00000000  1.0
  B  B23  1  0.24906794  0.07947278  0.00000000  1.0
  B  B24  1  0.20836790  0.73456182  0.00000000  1.0
  B  B25  1  0.70836790  0.76543818  0.00000000  1.0
  B  B26  1  0.79163210  0.26543818  0.00000000  1.0
  B  B27  1  0.29163210  0.23456182  0.00000000  1.0
  B  B28  1  0.01878046  0.78717282  0.00000000  1.0
  B  B29  1  0.51878046  0.71282718  0.00000000  1.0
  B  B30  1  0.98121954  0.21282718  0.00000000  1.0
  B  B31  1  0.48121954  0.28717282  0.00000000  1.0
  Ru  Ru32  1  0.36249342  0.67896214  0.50000000  1.0
  Ru  Ru33  1  0.86249342  0.82103786  0.50000000  1.0
  Ru  Ru34  1  0.63750658  0.32103786  0.50000000  1.0
  Ru  Ru35  1  0.13750658  0.17896214  0.50000000  1.0
