# generated using pymatgen
data_NbSiAs
_symmetry_space_group_name_H-M   'P 1'
_cell_length_a   3.51011729
_cell_length_b   3.51011729
_cell_length_c   7.95733773
_cell_angle_alpha   90.00000000
_cell_angle_beta   90.00000000
_cell_angle_gamma   90.00000000
_symmetry_Int_Tables_number   1
_chemical_formula_structural   NbSiAs
_chemical_formula_sum   'Nb2 Si2 As2'
_cell_volume   98.04174822
_cell_formula_units_Z   2
loop_
 _symmetry_equiv_pos_site_id
 _symmetry_equiv_pos_as_xyz
  1  'x, y, z'
loop_
 _atom_site_type_symbol
 _atom_site_label
 _atom_site_symmetry_multiplicity
 _atom_site_fract_x
 _atom_site_fract_y
 _atom_site_fract_z
 _atom_site_occupancy
  Nb  Nb0  1  0.50000000  0.00000000  0.25360391  1.0
  Nb  Nb1  1  0.00000000  0.50000000  0.74639609  1.0
  Si  Si2  1  0.00000000  0.00000000  0.00000000  1.0
  Si  Si3  1  0.50000000  0.50000000  0.00000000  1.0
  As  As4  1  0.50000000  0.00000000  0.61174778  1.0
  As  As5  1  0.00000000  0.50000000  0.38825222  1.0
