# generated using pymatgen
data_Sr4Ru6ClO18
_symmetry_space_group_name_H-M   'P 1'
_cell_length_a   8.01766675
_cell_length_b   8.01766675
_cell_length_c   8.01766675
_cell_angle_alpha   109.47122063
_cell_angle_beta   109.47122063
_cell_angle_gamma   109.47122063
_symmetry_Int_Tables_number   1
_chemical_formula_structural   Sr4Ru6ClO18
_chemical_formula_sum   'Sr4 Ru6 Cl1 O18'
_cell_volume   396.75473003
_cell_formula_units_Z   1
loop_
 _symmetry_equiv_pos_site_id
 _symmetry_equiv_pos_as_xyz
  1  'x, y, z'
loop_
 _atom_site_type_symbol
 _atom_site_label
 _atom_site_symmetry_multiplicity
 _atom_site_fract_x
 _atom_site_fract_y
 _atom_site_fract_z
 _atom_site_occupancy
  Sr  Sr0  1  0.63144646  0.63144646  0.63144646  1.0
  Sr  Sr1  1  1.00000000  1.00000000  0.36855354  1.0
  Sr  Sr2  1  1.00000000  0.36855354  1.00000000  1.0
  Sr  Sr3  1  0.36855354  1.00000000  1.00000000  1.0
  Ru  Ru4  1  0.36369338  0.86369338  0.50000000  1.0
  Ru  Ru5  1  0.50000000  0.36369338  0.86369338  1.0
  Ru  Ru6  1  0.50000000  0.63630662  0.13630662  1.0
  Ru  Ru7  1  0.86369338  0.50000000  0.36369338  1.0
  Ru  Ru8  1  0.13630662  0.50000000  0.63630662  1.0
  Ru  Ru9  1  0.63630662  0.13630662  0.50000000  1.0
  Cl  Cl10  1  0.00000000  0.00000000  0.00000000  1.0
  O  O11  1  0.36422564  0.64223609  0.29982404  1.0
  O  O12  1  1.34241205  1.06440160  0.70017596  1.0
  O  O13  1  0.29982404  0.36422564  0.64223609  1.0
  O  O14  1  0.72198955  0.65758795  0.35776391  1.0
  O  O15  1  0.64223609  0.29982404  0.36422564  1.0
  O  O16  1  0.93559840  1.27801045  1.63577436  1.0
  O  O17  1  0.65758795  0.35776391  0.72198955  1.0
  O  O18  1  1.63577436  0.93559840  1.27801045  1.0
  O  O19  1  1.27801045  1.63577436  0.93559840  1.0
  O  O20  1  0.70017596  1.34241205  1.06440160  1.0
  O  O21  1  1.06440160  0.70017596  1.34241205  1.0
  O  O22  1  0.35776391  0.72198955  0.65758795  1.0
  O  O23  1  0.66218706  0.66218706  0.00000000  1.0
  O  O24  1  -0.00000000  0.66218706  0.66218706  1.0
  O  O25  1  -0.00000000  0.33781294  0.33781294  1.0
  O  O26  1  0.66218706  -0.00000000  0.66218706  1.0
  O  O27  1  0.33781294  -0.00000000  0.33781294  1.0
  O  O28  1  0.33781294  0.33781294  -0.00000000  1.0
