# generated using pymatgen
data_ReNO4
_symmetry_space_group_name_H-M   'P 1'
_cell_length_a   9.36685968
_cell_length_b   9.36685968
_cell_length_c   9.36685968
_cell_angle_alpha   150.67379532
_cell_angle_beta   150.67379532
_cell_angle_gamma   41.95323568
_symmetry_Int_Tables_number   1
_chemical_formula_structural   ReNO4
_chemical_formula_sum   'Re2 N2 O8'
_cell_volume   196.68267646
_cell_formula_units_Z   2
loop_
 _symmetry_equiv_pos_site_id
 _symmetry_equiv_pos_as_xyz
  1  'x, y, z'
loop_
 _atom_site_type_symbol
 _atom_site_label
 _atom_site_symmetry_multiplicity
 _atom_site_fract_x
 _atom_site_fract_y
 _atom_site_fract_z
 _atom_site_occupancy
  Re  Re0  1  0.75000000  0.25000000  0.50000000  1.0
  Re  Re1  1  0.00000000  0.00000000  0.00000000  1.0
  N  N2  1  0.25000000  0.75000000  0.50000000  1.0
  N  N3  1  0.50000000  0.50000000  1.00000000  1.0
  O  O4  1  0.72808908  0.72802409  0.56949305  1.0
  O  O5  1  1.15853105  1.15859603  1.43050695  1.0
  O  O6  1  0.59146895  1.09140397  1.06949305  1.0
  O  O7  1  1.02191092  0.52197591  0.93050695  1.0
  O  O8  1  0.27197591  0.84146895  1.00006498  1.0
  O  O9  1  0.84140397  0.27191092  0.99993502  1.0
  O  O10  1  0.90859603  0.97808908  1.50006498  1.0
  O  O11  1  0.47802409  0.40853105  0.49993502  1.0
