# generated using pymatgen
data_Y2NCl3
_symmetry_space_group_name_H-M   'P 1'
_cell_length_a   12.89976819
_cell_length_b   6.72514479
_cell_length_c   6.13242126
_cell_angle_alpha   90.00000000
_cell_angle_beta   90.00000000
_cell_angle_gamma   90.00000000
_symmetry_Int_Tables_number   1
_chemical_formula_structural   Y2NCl3
_chemical_formula_sum   'Y8 N4 Cl12'
_cell_volume   532.00476946
_cell_formula_units_Z   4
loop_
 _symmetry_equiv_pos_site_id
 _symmetry_equiv_pos_as_xyz
  1  'x, y, z'
loop_
 _atom_site_type_symbol
 _atom_site_label
 _atom_site_symmetry_multiplicity
 _atom_site_fract_x
 _atom_site_fract_y
 _atom_site_fract_z
 _atom_site_occupancy
  Y  Y0  1  0.90841426  0.66920577  0.50973649  1.0
  Y  Y1  1  0.90841426  0.33079423  0.00973649  1.0
  Y  Y2  1  0.40841426  0.16920577  0.99026351  1.0
  Y  Y3  1  0.40841426  0.83079423  0.49026351  1.0
  Y  Y4  1  0.09158574  0.66920577  0.99026351  1.0
  Y  Y5  1  0.09158574  0.33079423  0.49026351  1.0
  Y  Y6  1  0.59158574  0.16920577  0.50973649  1.0
  Y  Y7  1  0.59158574  0.83079423  0.00973649  1.0
  N  N8  1  0.00000000  0.48569550  0.75000000  1.0
  N  N9  1  0.00000000  0.51430450  0.25000000  1.0
  N  N10  1  0.50000000  0.98569550  0.75000000  1.0
  N  N11  1  0.50000000  0.01430450  0.25000000  1.0
  Cl  Cl12  1  0.77584142  0.63193938  0.88439547  1.0
  Cl  Cl13  1  0.77584142  0.36806062  0.38439547  1.0
  Cl  Cl14  1  0.27584142  0.13193938  0.61560453  1.0
  Cl  Cl15  1  0.27584142  0.86806062  0.11560453  1.0
  Cl  Cl16  1  0.22415858  0.63193938  0.61560453  1.0
  Cl  Cl17  1  0.22415858  0.36806062  0.11560453  1.0
  Cl  Cl18  1  0.72415858  0.13193938  0.88439547  1.0
  Cl  Cl19  1  0.72415858  0.86806062  0.38439547  1.0
  Cl  Cl20  1  0.00000000  0.98788244  0.75000000  1.0
  Cl  Cl21  1  0.00000000  0.01211756  0.25000000  1.0
  Cl  Cl22  1  0.50000000  0.48788244  0.75000000  1.0
  Cl  Cl23  1  0.50000000  0.51211756  0.25000000  1.0
