# generated using pymatgen
data_RbAlCu(PO4)2
_symmetry_space_group_name_H-M   'P 1'
_cell_length_a   5.16931517
_cell_length_b   14.18604024
_cell_length_c   9.60396466
_cell_angle_alpha   90.00000000
_cell_angle_beta   99.08773700
_cell_angle_gamma   90.00000000
_symmetry_Int_Tables_number   1
_chemical_formula_structural   RbAlCu(PO4)2
_chemical_formula_sum   'Rb4 Al4 Cu4 P8 O32'
_cell_volume   695.43865400
_cell_formula_units_Z   4
loop_
 _symmetry_equiv_pos_site_id
 _symmetry_equiv_pos_as_xyz
  1  'x, y, z'
loop_
 _atom_site_type_symbol
 _atom_site_label
 _atom_site_symmetry_multiplicity
 _atom_site_fract_x
 _atom_site_fract_y
 _atom_site_fract_z
 _atom_site_occupancy
  Rb  Rb0  1  0.21172248  0.82713434  0.78107294  1.0
  Rb  Rb1  1  0.78827752  0.32713434  0.71892706  1.0
  Rb  Rb2  1  0.78827752  0.17286566  0.21892706  1.0
  Rb  Rb3  1  0.21172248  0.67286566  0.28107294  1.0
  Al  Al4  1  0.74914478  0.63029508  0.61015892  1.0
  Al  Al5  1  0.25085522  0.13029508  0.88984108  1.0
  Al  Al6  1  0.25085522  0.36970492  0.38984108  1.0
  Al  Al7  1  0.74914478  0.86970492  0.11015892  1.0
  Cu  Cu8  1  0.23804368  0.54097118  0.94515055  1.0
  Cu  Cu9  1  0.76195632  0.04097118  0.55484945  1.0
  Cu  Cu10  1  0.76195632  0.45902882  0.05484945  1.0
  Cu  Cu11  1  0.23804368  0.95902882  0.44515055  1.0
  P  P12  1  0.72385973  0.67138334  0.94709728  1.0
  P  P13  1  0.27614027  0.17138334  0.55290272  1.0
  P  P14  1  0.27614027  0.32861666  0.05290272  1.0
  P  P15  1  0.72385973  0.82861666  0.44709728  1.0
  P  P16  1  0.27245881  0.51402653  0.66046342  1.0
  P  P17  1  0.72754119  0.01402653  0.83953658  1.0
  P  P18  1  0.72754119  0.48597347  0.33953658  1.0
  P  P19  1  0.27245881  0.98597347  0.16046342  1.0
  O  O20  1  0.76836176  0.57579620  0.42960169  1.0
  O  O21  1  0.23163824  0.07579620  0.07039831  1.0
  O  O22  1  0.23163824  0.42420380  0.57039831  1.0
  O  O23  1  0.76836176  0.92420380  0.92960169  1.0
  O  O24  1  0.40790955  0.59499125  0.58925179  1.0
  O  O25  1  0.59209045  0.09499125  0.91074821  1.0
  O  O26  1  0.59209045  0.40500875  0.41074821  1.0
  O  O27  1  0.40790955  0.90500875  0.08925179  1.0
  O  O28  1  0.43334645  0.65789293  0.96688990  1.0
  O  O29  1  0.56665355  0.15789293  0.53311010  1.0
  O  O30  1  0.56665355  0.34210707  0.03311010  1.0
  O  O31  1  0.43334645  0.84210707  0.46688990  1.0
  O  O32  1  0.74964215  0.68932480  0.79107520  1.0
  O  O33  1  0.25035785  0.18932480  0.70892480  1.0
  O  O34  1  0.25035785  0.31067520  0.20892480  1.0
  O  O35  1  0.74964215  0.81067520  0.29107520  1.0
  O  O36  1  0.43763902  0.48798790  0.80559513  1.0
  O  O37  1  0.56236098  0.98798790  0.69440487  1.0
  O  O38  1  0.56236098  0.51201210  0.19440487  1.0
  O  O39  1  0.43763902  0.01201210  0.30559513  1.0
  O  O40  1  0.00316495  0.55128435  0.69219831  1.0
  O  O41  1  0.99683505  0.05128435  0.80780169  1.0
  O  O42  1  0.99683505  0.44871565  0.30780169  1.0
  O  O43  1  0.00316495  0.94871565  0.19219831  1.0
  O  O44  1  0.90213547  0.58530930  0.00937736  1.0
  O  O45  1  0.09786453  0.08530930  0.49062264  1.0
  O  O46  1  0.09786453  0.41469070  0.99062264  1.0
  O  O47  1  0.90213547  0.91469070  0.50937736  1.0
  O  O48  1  0.83180166  0.74222383  0.53814541  1.0
  O  O49  1  0.16819834  0.24222383  0.96185459  1.0
  O  O50  1  0.16819834  0.25777617  0.46185459  1.0
  O  O51  1  0.83180166  0.75777617  0.03814541  1.0
