# generated using pymatgen
data_LuTe3
_symmetry_space_group_name_H-M   'P 1'
_cell_length_a   13.42259777
_cell_length_b   13.42259777
_cell_length_c   4.31536350
_cell_angle_alpha   90.00000000
_cell_angle_beta   90.00000000
_cell_angle_gamma   161.51590100
_symmetry_Int_Tables_number   1
_chemical_formula_structural   LuTe3
_chemical_formula_sum   'Lu2 Te6'
_cell_volume   246.49413838
_cell_formula_units_Z   2
loop_
 _symmetry_equiv_pos_site_id
 _symmetry_equiv_pos_as_xyz
  1  'x, y, z'
loop_
 _atom_site_type_symbol
 _atom_site_label
 _atom_site_symmetry_multiplicity
 _atom_site_fract_x
 _atom_site_fract_y
 _atom_site_fract_z
 _atom_site_occupancy
  Lu  Lu0  1  -0.82642830  0.82642830  0.75000000  1.0
  Lu  Lu1  1  -0.17357170  1.17357170  0.25000000  1.0
  Te  Te2  1  -0.08001683  1.08001683  0.75000000  1.0
  Te  Te3  1  -0.91998317  0.91998317  0.25000000  1.0
  Te  Te4  1  -0.41996739  1.41996739  0.75000000  1.0
  Te  Te5  1  -0.58003261  0.58003261  0.25000000  1.0
  Te  Te6  1  -0.70829123  0.70829123  0.75000000  1.0
  Te  Te7  1  -0.29170877  1.29170877  0.25000000  1.0
