# generated using pymatgen
data_KSrPS4
_symmetry_space_group_name_H-M   'P 1'
_cell_length_a   17.10950483
_cell_length_b   6.70642034
_cell_length_c   6.73114040
_cell_angle_alpha   90.00000000
_cell_angle_beta   90.00000000
_cell_angle_gamma   90.00000000
_symmetry_Int_Tables_number   1
_chemical_formula_structural   KSrPS4
_chemical_formula_sum   'K4 Sr4 P4 S16'
_cell_volume   772.35481846
_cell_formula_units_Z   4
loop_
 _symmetry_equiv_pos_site_id
 _symmetry_equiv_pos_as_xyz
  1  'x, y, z'
loop_
 _atom_site_type_symbol
 _atom_site_label
 _atom_site_symmetry_multiplicity
 _atom_site_fract_x
 _atom_site_fract_y
 _atom_site_fract_z
 _atom_site_occupancy
  K  K0  1  0.71525497  0.75000000  0.95552799  1.0
  K  K1  1  0.78474503  0.25000000  0.45552799  1.0
  K  K2  1  0.28474503  0.25000000  0.04447201  1.0
  K  K3  1  0.21525497  0.75000000  0.54447201  1.0
  Sr  Sr4  1  0.97605649  0.75000000  0.78481753  1.0
  Sr  Sr5  1  0.52394351  0.25000000  0.28481753  1.0
  Sr  Sr6  1  0.02394351  0.25000000  0.21518247  1.0
  Sr  Sr7  1  0.47605649  0.75000000  0.71518247  1.0
  P  P8  1  0.90464020  0.75000000  0.27642342  1.0
  P  P9  1  0.59535980  0.25000000  0.77642342  1.0
  P  P10  1  0.09535980  0.25000000  0.72357658  1.0
  P  P11  1  0.40464020  0.75000000  0.22357658  1.0
  S  S12  1  0.83389671  0.75000000  0.52204610  1.0
  S  S13  1  0.66610329  0.25000000  0.02204610  1.0
  S  S14  1  0.16610329  0.25000000  0.47795390  1.0
  S  S15  1  0.33389671  0.75000000  0.97795390  1.0
  S  S16  1  0.97784633  0.25000000  0.65201191  1.0
  S  S17  1  0.52215367  0.75000000  0.15201191  1.0
  S  S18  1  0.02215367  0.75000000  0.34798809  1.0
  S  S19  1  0.47784633  0.25000000  0.84798809  1.0
  S  S20  1  0.88198813  0.50478277  0.10091480  1.0
  S  S21  1  0.61801187  0.49521723  0.60091480  1.0
  S  S22  1  0.11801187  0.00478277  0.89908520  1.0
  S  S23  1  0.38198813  0.99521723  0.39908520  1.0
  S  S24  1  0.11801187  0.49521723  0.89908520  1.0
  S  S25  1  0.38198813  0.50478277  0.39908520  1.0
  S  S26  1  0.88198813  0.99521723  0.10091480  1.0
  S  S27  1  0.61801187  0.00478277  0.60091480  1.0
