# generated using pymatgen
data_Mg2Si
_symmetry_space_group_name_H-M   'P 1'
_cell_length_a   7.04023509
_cell_length_b   4.18415492
_cell_length_c   8.04146844
_cell_angle_alpha   90.00000000
_cell_angle_beta   90.00000000
_cell_angle_gamma   90.00000000
_symmetry_Int_Tables_number   1
_chemical_formula_structural   Mg2Si
_chemical_formula_sum   'Mg8 Si4'
_cell_volume   236.88102829
_cell_formula_units_Z   4
loop_
 _symmetry_equiv_pos_site_id
 _symmetry_equiv_pos_as_xyz
  1  'x, y, z'
loop_
 _atom_site_type_symbol
 _atom_site_label
 _atom_site_symmetry_multiplicity
 _atom_site_fract_x
 _atom_site_fract_y
 _atom_site_fract_z
 _atom_site_occupancy
  Mg  Mg0  1  0.03267507  0.25000000  0.83502386  1.0
  Mg  Mg1  1  0.53267507  0.25000000  0.66497614  1.0
  Mg  Mg2  1  0.96732493  0.75000000  0.16497614  1.0
  Mg  Mg3  1  0.46732493  0.75000000  0.33502386  1.0
  Mg  Mg4  1  0.13945444  0.25000000  0.43908923  1.0
  Mg  Mg5  1  0.63945444  0.25000000  0.06091077  1.0
  Mg  Mg6  1  0.86054556  0.75000000  0.56091077  1.0
  Mg  Mg7  1  0.36054556  0.75000000  0.93908923  1.0
  Si  Si8  1  0.25320094  0.25000000  0.12639619  1.0
  Si  Si9  1  0.75320094  0.25000000  0.37360381  1.0
  Si  Si10  1  0.74679906  0.75000000  0.87360381  1.0
  Si  Si11  1  0.24679906  0.75000000  0.62639619  1.0
