# generated using pymatgen
data_Y3Co2
_symmetry_space_group_name_H-M   'P 1'
_cell_length_a   9.39871652
_cell_length_b   12.18389158
_cell_length_c   3.88800013
_cell_angle_alpha   90.00000000
_cell_angle_beta   90.00000000
_cell_angle_gamma   90.00000000
_symmetry_Int_Tables_number   1
_chemical_formula_structural   Y3Co2
_chemical_formula_sum   'Y12 Co8'
_cell_volume   445.22633735
_cell_formula_units_Z   4
loop_
 _symmetry_equiv_pos_site_id
 _symmetry_equiv_pos_as_xyz
  1  'x, y, z'
loop_
 _atom_site_type_symbol
 _atom_site_label
 _atom_site_symmetry_multiplicity
 _atom_site_fract_x
 _atom_site_fract_y
 _atom_site_fract_z
 _atom_site_occupancy
  Y  Y0  1  0.30446355  0.12456830  0.50000000  1.0
  Y  Y1  1  0.80446355  0.37543170  0.00000000  1.0
  Y  Y2  1  0.69553645  0.87543170  0.50000000  1.0
  Y  Y3  1  0.19553645  0.62456830  0.00000000  1.0
  Y  Y4  1  0.07055192  0.86464720  0.50000000  1.0
  Y  Y5  1  0.57055192  0.63535280  0.00000000  1.0
  Y  Y6  1  0.92944808  0.13535280  0.50000000  1.0
  Y  Y7  1  0.42944808  0.36464720  0.00000000  1.0
  Y  Y8  1  0.87446049  0.61592608  0.50000000  1.0
  Y  Y9  1  0.37446049  0.88407392  0.00000000  1.0
  Y  Y10  1  0.12553951  0.38407392  0.50000000  1.0
  Y  Y11  1  0.62553951  0.11592608  0.00000000  1.0
  Co  Co12  1  0.37842596  0.53225218  0.50000000  1.0
  Co  Co13  1  0.87842596  0.96774782  0.00000000  1.0
  Co  Co14  1  0.62157404  0.46774782  0.50000000  1.0
  Co  Co15  1  0.12157404  0.03225218  0.00000000  1.0
  Co  Co16  1  0.35894357  0.72794723  0.50000000  1.0
  Co  Co17  1  0.85894357  0.77205277  0.00000000  1.0
  Co  Co18  1  0.64105643  0.27205277  0.50000000  1.0
  Co  Co19  1  0.14105643  0.22794723  0.00000000  1.0
