# generated using pymatgen
data_SeO3
_symmetry_space_group_name_H-M   'P 1'
_cell_length_a   10.35007369
_cell_length_b   10.35007369
_cell_length_c   5.71931684
_cell_angle_alpha   90.00000000
_cell_angle_beta   90.00000000
_cell_angle_gamma   90.00000000
_symmetry_Int_Tables_number   1
_chemical_formula_structural   SeO3
_chemical_formula_sum   'Se8 O24'
_cell_volume   612.67624266
_cell_formula_units_Z   8
loop_
 _symmetry_equiv_pos_site_id
 _symmetry_equiv_pos_as_xyz
  1  'x, y, z'
loop_
 _atom_site_type_symbol
 _atom_site_label
 _atom_site_symmetry_multiplicity
 _atom_site_fract_x
 _atom_site_fract_y
 _atom_site_fract_z
 _atom_site_occupancy
  Se  Se0  1  0.28296630  0.49280650  0.44705104  1.0
  Se  Se1  1  0.21703370  0.99280650  0.05294896  1.0
  Se  Se2  1  0.50719350  0.28296630  0.55294896  1.0
  Se  Se3  1  0.99280650  0.78296630  0.94705104  1.0
  Se  Se4  1  0.71703370  0.50719350  0.44705104  1.0
  Se  Se5  1  0.78296630  0.00719350  0.05294896  1.0
  Se  Se6  1  0.49280650  0.71703370  0.55294896  1.0
  Se  Se7  1  0.00719350  0.21703370  0.94705104  1.0
  O  O8  1  0.44384707  0.17624776  0.38494284  1.0
  O  O9  1  0.05615293  0.67624776  0.11505716  1.0
  O  O10  1  0.82375224  0.44384707  0.61505716  1.0
  O  O11  1  0.67624776  0.94384707  0.88494284  1.0
  O  O12  1  0.55615293  0.82375224  0.38494284  1.0
  O  O13  1  0.94384707  0.32375224  0.11505716  1.0
  O  O14  1  0.17624776  0.55615293  0.61505716  1.0
  O  O15  1  0.32375224  0.05615293  0.88494284  1.0
  O  O16  1  0.25732872  0.41368184  0.20980703  1.0
  O  O17  1  0.24267128  0.91368184  0.29019297  1.0
  O  O18  1  0.58631816  0.25732872  0.79019297  1.0
  O  O19  1  0.91368184  0.75732872  0.70980703  1.0
  O  O20  1  0.74267128  0.58631816  0.20980703  1.0
  O  O21  1  0.75732872  0.08631816  0.29019297  1.0
  O  O22  1  0.41368184  0.74267128  0.79019297  1.0
  O  O23  1  0.08631816  0.24267128  0.70980703  1.0
  O  O24  1  0.09905216  0.11494660  0.14827973  1.0
  O  O25  1  0.40094784  0.61494660  0.35172027  1.0
  O  O26  1  0.88505340  0.09905216  0.85172027  1.0
  O  O27  1  0.61494660  0.59905216  0.64827973  1.0
  O  O28  1  0.90094784  0.88505340  0.14827973  1.0
  O  O29  1  0.59905216  0.38505340  0.35172027  1.0
  O  O30  1  0.11494660  0.90094784  0.85172027  1.0
  O  O31  1  0.38505340  0.40094784  0.64827973  1.0
