# generated using pymatgen
data_NaCdPO4
_symmetry_space_group_name_H-M   'P 1'
_cell_length_a   11.02343168
_cell_length_b   5.12043263
_cell_length_c   6.60451234
_cell_angle_alpha   90.00000000
_cell_angle_beta   90.00000000
_cell_angle_gamma   90.00000000
_symmetry_Int_Tables_number   1
_chemical_formula_structural   NaCdPO4
_chemical_formula_sum   'Na4 Cd4 P4 O16'
_cell_volume   372.78997756
_cell_formula_units_Z   4
loop_
 _symmetry_equiv_pos_site_id
 _symmetry_equiv_pos_as_xyz
  1  'x, y, z'
loop_
 _atom_site_type_symbol
 _atom_site_label
 _atom_site_symmetry_multiplicity
 _atom_site_fract_x
 _atom_site_fract_y
 _atom_site_fract_z
 _atom_site_occupancy
  Na  Na0  1  0.50000259  0.49982470  0.75055364  1.0
  Na  Na1  1  1.00000259  1.00017530  0.75055364  1.0
  Na  Na2  1  0.49999741  0.50017530  0.25055364  1.0
  Na  Na3  1  -0.00000259  -0.00017530  0.25055364  1.0
  Cd  Cd4  1  0.21424208  0.51515018  0.50043272  1.0
  Cd  Cd5  1  0.71424208  0.98484982  0.50043272  1.0
  Cd  Cd6  1  0.78575792  0.48484982  0.00043272  1.0
  Cd  Cd7  1  0.28575792  0.01515018  0.00043272  1.0
  P  P8  1  0.39650568  0.06771203  0.50039524  1.0
  P  P9  1  0.89650568  0.43228797  0.50039524  1.0
  P  P10  1  0.60349432  0.93228797  0.00039524  1.0
  P  P11  1  0.10349432  0.56771203  0.00039524  1.0
  O  O12  1  0.47064596  0.82613108  0.00033311  1.0
  O  O13  1  0.97064596  0.67386892  0.00033311  1.0
  O  O14  1  0.52935404  0.17386892  0.50033311  1.0
  O  O15  1  0.02935404  0.32613108  0.50033311  1.0
  O  O16  1  0.39316540  0.76515303  0.50034219  1.0
  O  O17  1  0.89316540  0.73484697  0.50034219  1.0
  O  O18  1  0.60683460  0.23484697  1.00034219  1.0
  O  O19  1  0.10683460  0.26515303  1.00034219  1.0
  O  O20  1  0.32919648  0.19242644  0.68809392  1.0
  O  O21  1  0.82919648  0.30757356  0.68809392  1.0
  O  O22  1  0.67080352  0.80757356  0.18809392  1.0
  O  O23  1  0.17080352  0.69242644  0.18809392  1.0
  O  O24  1  0.17083005  0.69250207  0.81274919  1.0
  O  O25  1  0.67083005  0.80749793  0.81274919  1.0
  O  O26  1  0.82916995  0.30749793  0.31274919  1.0
  O  O27  1  0.32916995  0.19250207  0.31274919  1.0
