# generated using pymatgen
data_Mn(ReO4)2
_symmetry_space_group_name_H-M   'P 1'
_cell_length_a   5.85876078
_cell_length_b   5.85876078
_cell_length_c   6.67360705
_cell_angle_alpha   90.00000000
_cell_angle_beta   90.00000000
_cell_angle_gamma   120.00000000
_symmetry_Int_Tables_number   1
_chemical_formula_structural   Mn(ReO4)2
_chemical_formula_sum   'Mn1 Re2 O8'
_cell_volume   198.38224194
_cell_formula_units_Z   1
loop_
 _symmetry_equiv_pos_site_id
 _symmetry_equiv_pos_as_xyz
  1  'x, y, z'
loop_
 _atom_site_type_symbol
 _atom_site_label
 _atom_site_symmetry_multiplicity
 _atom_site_fract_x
 _atom_site_fract_y
 _atom_site_fract_z
 _atom_site_occupancy
  Mn  Mn0  1  -0.00000000  -0.00000000  0.00000000  1.0
  Re  Re1  1  0.33333333  0.66666667  0.27092682  1.0
  Re  Re2  1  0.66666667  0.33333333  0.72907318  1.0
  O  O3  1  0.17041791  0.82923477  0.18302682  1.0
  O  O4  1  0.82923477  0.65881687  0.81697318  1.0
  O  O5  1  0.65881687  0.82958209  0.18302682  1.0
  O  O6  1  0.17076523  0.34118313  0.18302682  1.0
  O  O7  1  0.82958209  0.17076523  0.81697318  1.0
  O  O8  1  0.34118313  0.17041791  0.81697318  1.0
  O  O9  1  0.33333333  0.66666667  0.52912279  1.0
  O  O10  1  0.66666667  0.33333333  0.47087721  1.0
