# generated using pymatgen
data_BaWO2
_symmetry_space_group_name_H-M   'P 1'
_cell_length_a   7.56916366
_cell_length_b   7.56916366
_cell_length_c   7.56916366
_cell_angle_alpha   122.41056164
_cell_angle_beta   122.41056164
_cell_angle_gamma   85.87315042
_symmetry_Int_Tables_number   1
_chemical_formula_structural   BaWO2
_chemical_formula_sum   'Ba4 W4 O8'
_cell_volume   294.63435619
_cell_formula_units_Z   4
loop_
 _symmetry_equiv_pos_site_id
 _symmetry_equiv_pos_as_xyz
  1  'x, y, z'
loop_
 _atom_site_type_symbol
 _atom_site_label
 _atom_site_symmetry_multiplicity
 _atom_site_fract_x
 _atom_site_fract_y
 _atom_site_fract_z
 _atom_site_occupancy
  Ba  Ba0  1  0.87500000  0.62500000  1.25000000  1.0
  Ba  Ba1  1  0.37500000  0.62500000  0.25000000  1.0
  Ba  Ba2  1  0.37500000  1.12500000  0.75000000  1.0
  Ba  Ba3  1  0.37500000  0.62500000  0.75000000  1.0
  W  W4  1  0.37500000  0.12500000  0.25000000  1.0
  W  W5  1  0.87500000  1.12500000  1.25000000  1.0
  W  W6  1  0.87500000  0.62500000  0.75000000  1.0
  W  W7  1  0.87500000  0.12500000  0.75000000  1.0
  O  O8  1  0.56940227  0.43059660  0.49999527  1.0
  O  O9  1  1.18059660  1.18060133  1.36119434  1.0
  O  O10  1  0.81940699  0.81940227  0.63880566  1.0
  O  O11  1  0.93060133  1.06940699  1.50000473  1.0
  O  O12  1  1.18059773  0.81940340  1.00000473  1.0
  O  O13  1  0.56940340  1.06939867  1.13880566  1.0
  O  O14  1  0.93059301  0.43059773  0.86119434  1.0
  O  O15  1  0.81939867  1.18059301  0.99999527  1.0
