# generated using pymatgen
data_Ca(C4N3)2
_symmetry_space_group_name_H-M   'P 1'
_cell_length_a   8.12457991
_cell_length_b   5.60498475
_cell_length_c   11.21365661
_cell_angle_alpha   90.00000000
_cell_angle_beta   90.00000000
_cell_angle_gamma   90.00000000
_symmetry_Int_Tables_number   1
_chemical_formula_structural   Ca(C4N3)2
_chemical_formula_sum   'Ca2 C16 N12'
_cell_volume   510.64913808
_cell_formula_units_Z   2
loop_
 _symmetry_equiv_pos_site_id
 _symmetry_equiv_pos_as_xyz
  1  'x, y, z'
loop_
 _atom_site_type_symbol
 _atom_site_label
 _atom_site_symmetry_multiplicity
 _atom_site_fract_x
 _atom_site_fract_y
 _atom_site_fract_z
 _atom_site_occupancy
  Ca  Ca0  1  0.00000000  0.00000000  0.00000000  1.0
  Ca  Ca1  1  0.50000000  0.00000000  0.50000000  1.0
  C  C2  1  0.64804037  0.68684618  0.11996415  1.0
  C  C3  1  0.64804037  0.31315382  0.88003585  1.0
  C  C4  1  0.14804037  0.68684618  0.38003585  1.0
  C  C5  1  0.14804037  0.31315382  0.61996415  1.0
  C  C6  1  0.35195963  0.68684618  0.11996415  1.0
  C  C7  1  0.35195963  0.31315382  0.88003585  1.0
  C  C8  1  0.85195963  0.68684618  0.38003585  1.0
  C  C9  1  0.85195963  0.31315382  0.61996415  1.0
  C  C10  1  0.00000000  0.58821025  0.33884028  1.0
  C  C11  1  0.00000000  0.41178975  0.66115972  1.0
  C  C12  1  0.50000000  0.58821025  0.16115972  1.0
  C  C13  1  0.50000000  0.41178975  0.83884028  1.0
  C  C14  1  0.00000000  0.40434414  0.25384964  1.0
  C  C15  1  0.00000000  0.59565586  0.74615036  1.0
  C  C16  1  0.50000000  0.40434414  0.24615036  1.0
  C  C17  1  0.50000000  0.59565586  0.75384964  1.0
  N  N18  1  0.76984858  0.77179513  0.08421058  1.0
  N  N19  1  0.76984858  0.22820487  0.91578942  1.0
  N  N20  1  0.26984858  0.77179513  0.41578942  1.0
  N  N21  1  0.26984858  0.22820487  0.58421058  1.0
  N  N22  1  0.23015142  0.77179513  0.08421058  1.0
  N  N23  1  0.23015142  0.22820487  0.91578942  1.0
  N  N24  1  0.73015142  0.77179513  0.41578942  1.0
  N  N25  1  0.73015142  0.22820487  0.58421058  1.0
  N  N26  1  0.00000000  0.25289898  0.18205785  1.0
  N  N27  1  0.00000000  0.74710102  0.81794215  1.0
  N  N28  1  0.50000000  0.25289898  0.31794215  1.0
  N  N29  1  0.50000000  0.74710102  0.68205785  1.0
