# generated using pymatgen
data_ZnS
_symmetry_space_group_name_H-M   'P 1'
_cell_length_a   3.84929506
_cell_length_b   3.84929506
_cell_length_c   56.65515448
_cell_angle_alpha   90.00000000
_cell_angle_beta   90.00000000
_cell_angle_gamma   120.00000000
_symmetry_Int_Tables_number   1
_chemical_formula_structural   ZnS
_chemical_formula_sum   'Zn18 S18'
_cell_volume   726.99674222
_cell_formula_units_Z   18
loop_
 _symmetry_equiv_pos_site_id
 _symmetry_equiv_pos_as_xyz
  1  'x, y, z'
loop_
 _atom_site_type_symbol
 _atom_site_label
 _atom_site_symmetry_multiplicity
 _atom_site_fract_x
 _atom_site_fract_y
 _atom_site_fract_z
 _atom_site_occupancy
  Zn  Zn0  1  -0.00000000  -0.00000000  0.05554025  1.0
  Zn  Zn1  1  -0.00000000  -0.00000000  0.27777500  1.0
  Zn  Zn2  1  0.00000000  0.00000000  0.49998910  1.0
  Zn  Zn3  1  0.00000000  0.00000000  0.72222867  1.0
  Zn  Zn4  1  -0.00000000  -0.00000000  0.88887312  1.0
  Zn  Zn5  1  0.66666667  0.33333333  0.16666459  1.0
  Zn  Zn6  1  0.66666667  0.33333333  0.38887597  1.0
  Zn  Zn7  1  0.66666667  0.33333333  0.61111481  1.0
  Zn  Zn8  1  0.66666667  0.33333333  0.77777242  1.0
  Zn  Zn9  1  0.66666667  0.33333333  0.94442418  1.0
  Zn  Zn10  1  0.33333333  0.66666667  -0.00005400  1.0
  Zn  Zn11  1  0.33333333  0.66666667  0.11110309  1.0
  Zn  Zn12  1  0.33333333  0.66666667  0.22221848  1.0
  Zn  Zn13  1  0.33333333  0.66666667  0.33332006  1.0
  Zn  Zn14  1  0.33333333  0.66666667  0.44442546  1.0
  Zn  Zn15  1  0.33333333  0.66666667  0.55553991  1.0
  Zn  Zn16  1  0.33333333  0.66666667  0.66669959  1.0
  Zn  Zn17  1  0.33333333  0.66666667  0.83332437  1.0
  S  S18  1  -0.00000000  -0.00000000  0.01383841  1.0
  S  S19  1  -0.00000000  -0.00000000  0.23608666  1.0
  S  S20  1  -0.00000000  -0.00000000  0.45829760  1.0
  S  S21  1  -0.00000000  -0.00000000  0.68058675  1.0
  S  S22  1  -0.00000000  -0.00000000  0.84722641  1.0
  S  S23  1  0.66666667  0.33333333  0.12497392  1.0
  S  S24  1  0.66666667  0.33333333  0.34718800  1.0
  S  S25  1  0.66666667  0.33333333  0.56941821  1.0
  S  S26  1  0.66666667  0.33333333  0.73612768  1.0
  S  S27  1  0.66666667  0.33333333  0.90277655  1.0
  S  S28  1  0.33333333  0.66666667  0.06949381  1.0
  S  S29  1  0.33333333  0.66666667  0.18061276  1.0
  S  S30  1  0.33333333  0.66666667  0.29171675  1.0
  S  S31  1  0.33333333  0.66666667  0.40282041  1.0
  S  S32  1  0.33333333  0.66666667  0.51393343  1.0
  S  S33  1  0.33333333  0.66666667  0.62507128  1.0
  S  S34  1  0.33333333  0.66666667  0.79167635  1.0
  S  S35  1  0.33333333  0.66666667  0.95831996  1.0
