# generated using pymatgen
data_BaMn3(PO4)3
_symmetry_space_group_name_H-M   'P 1'
_cell_length_a   9.39485462
_cell_length_b   9.39485462
_cell_length_c   9.39485462
_cell_angle_alpha   83.90410337
_cell_angle_beta   111.62474926
_cell_angle_gamma   137.53303325
_symmetry_Int_Tables_number   1
_chemical_formula_structural   BaMn3(PO4)3
_chemical_formula_sum   'Ba2 Mn6 P6 O24'
_cell_volume   502.00148195
_cell_formula_units_Z   2
loop_
 _symmetry_equiv_pos_site_id
 _symmetry_equiv_pos_as_xyz
  1  'x, y, z'
loop_
 _atom_site_type_symbol
 _atom_site_label
 _atom_site_symmetry_multiplicity
 _atom_site_fract_x
 _atom_site_fract_y
 _atom_site_fract_z
 _atom_site_occupancy
  Ba  Ba0  1  1.61093015  1.36093015  1.25000000  1.0
  Ba  Ba1  1  1.38906985  0.63906985  0.75000000  1.0
  Mn  Mn2  1  -0.00000000  0.11865634  0.11865634  1.0
  Mn  Mn3  1  0.50000000  0.11865634  0.61865634  1.0
  Mn  Mn4  1  0.50000000  0.88134366  0.38134366  1.0
  Mn  Mn5  1  1.00000000  0.88134366  0.88134366  1.0
  Mn  Mn6  1  1.00000000  1.00000000  0.50000000  1.0
  Mn  Mn7  1  1.00000000  0.50000000  1.00000000  1.0
  P  P8  1  1.00000000  0.68039967  0.68039967  1.0
  P  P9  1  0.50000000  0.68039967  0.18039967  1.0
  P  P10  1  0.50000000  0.31960033  0.81960033  1.0
  P  P11  1  -0.00000000  0.31960033  0.31960033  1.0
  P  P12  1  1.09759627  0.84759627  1.25000000  1.0
  P  P13  1  0.90240373  0.15240373  0.75000000  1.0
  O  O14  1  1.06072557  1.19520837  0.35549889  1.0
  O  O15  1  0.66029052  0.29477332  0.85549889  1.0
  O  O16  1  0.66029052  0.80479163  0.36551720  1.0
  O  O17  1  1.06072557  0.70522668  0.86551720  1.0
  O  O18  1  1.33970948  1.19520837  0.63448280  1.0
  O  O19  1  0.93927443  0.29477332  1.13448280  1.0
  O  O20  1  0.93927443  0.80479163  0.64450111  1.0
  O  O21  1  1.33970948  0.70522668  1.14450111  1.0
  O  O22  1  0.36117183  0.44135413  0.15917403  1.0
  O  O23  1  1.21781990  0.79800219  0.65917403  1.0
  O  O24  1  0.21781990  0.55864587  0.41981770  1.0
  O  O25  1  1.36117183  1.20199781  0.91981770  1.0
  O  O26  1  0.78218010  0.44135413  0.58018230  1.0
  O  O27  1  1.63882817  0.79800219  1.08018230  1.0
  O  O28  1  0.63882817  0.55864587  0.84082597  1.0
  O  O29  1  1.78218010  1.20199781  1.34082597  1.0
  O  O30  1  1.12040751  0.98938551  1.13102200  1.0
  O  O31  1  0.64163649  0.01061449  0.63102200  1.0
  O  O32  1  1.35836351  0.98938551  1.36897800  1.0
  O  O33  1  0.87959249  0.01061449  0.86897800  1.0
  O  O34  1  1.03006385  0.37094061  0.84087676  1.0
  O  O35  1  0.96993615  0.81081292  1.34087676  1.0
  O  O36  1  0.96993615  0.62905939  1.15912324  1.0
  O  O37  1  1.03006385  1.18918708  1.65912324  1.0
