# generated using pymatgen
data_Ba6Ti2Nb3O18
_symmetry_space_group_name_H-M   'P 1'
_cell_length_a   14.66228743
_cell_length_b   14.66228743
_cell_length_c   14.66228743
_cell_angle_alpha   22.88504205
_cell_angle_beta   22.88504205
_cell_angle_gamma   22.88504205
_symmetry_Int_Tables_number   1
_chemical_formula_structural   Ba6Ti2Nb3O18
_chemical_formula_sum   'Ba6 Ti2 Nb3 O18'
_cell_volume   418.31915391
_cell_formula_units_Z   1
loop_
 _symmetry_equiv_pos_site_id
 _symmetry_equiv_pos_as_xyz
  1  'x, y, z'
loop_
 _atom_site_type_symbol
 _atom_site_label
 _atom_site_symmetry_multiplicity
 _atom_site_fract_x
 _atom_site_fract_y
 _atom_site_fract_z
 _atom_site_occupancy
  O  O0  1  1.30483207  0.30483207  0.79504501  1.0
  O  O1  1  1.30483207  0.79504501  0.30483207  1.0
  O  O2  1  1.20495499  0.69516793  0.69516793  1.0
  O  O3  1  1.69516793  0.20495499  0.69516793  1.0
  O  O4  1  1.69516793  0.69516793  0.20495499  1.0
  O  O5  1  0.79504501  1.30483207  0.30483207  1.0
  O  O6  1  1.13817471  1.13817471  0.64341862  1.0
  O  O7  1  1.13817471  1.64341862  0.13817471  1.0
  O  O8  1  1.35658138  0.86182529  -0.13817471  1.0
  O  O9  1  0.86182529  1.35658138  -0.13817471  1.0
  O  O10  1  0.86182529  0.86182529  0.35658138  1.0
  O  O11  1  1.64341862  1.13817471  0.13817471  1.0
  O  O12  1  1.41534323  0.41534323  0.92823686  1.0
  O  O13  1  1.41534323  0.92823686  0.41534323  1.0
  O  O14  1  1.07176314  0.58465677  0.58465677  1.0
  O  O15  1  1.58465677  0.07176314  0.58465677  1.0
  O  O16  1  1.58465677  0.58465677  0.07176314  1.0
  O  O17  1  0.92823686  1.41534323  0.41534323  1.0
  Ti  Ti18  1  0.72554171  0.72554171  0.72554171  1.0
  Ti  Ti19  1  1.27445829  1.27445829  0.27445829  1.0
  Nb  Nb20  1  0.00000000  0.00000000  0.00000000  1.0
  Nb  Nb21  1  1.55178157  0.55178157  0.55178157  1.0
  Nb  Nb22  1  1.44821843  0.44821843  0.44821843  1.0
  Ba  Ba23  1  0.91498750  0.91498750  0.91498750  1.0
  Ba  Ba24  1  1.08501250  1.08501250  0.08501250  1.0
  Ba  Ba25  1  0.81334852  0.81334852  0.81334852  1.0
  Ba  Ba26  1  1.18665148  1.18665148  0.18665148  1.0
  Ba  Ba27  1  1.63880627  0.63880627  0.63880627  1.0
  Ba  Ba28  1  1.36119373  0.36119373  0.36119373  1.0
