# generated using pymatgen
data_KAlF4
_symmetry_space_group_name_H-M   'P 1'
_cell_length_a   8.53631275
_cell_length_b   7.38111487
_cell_length_c   12.06161366
_cell_angle_alpha   90.00000000
_cell_angle_beta   90.00000000
_cell_angle_gamma   90.00000000
_symmetry_Int_Tables_number   1
_chemical_formula_structural   KAlF4
_chemical_formula_sum   'K8 Al8 F32'
_cell_volume   759.97218362
_cell_formula_units_Z   8
loop_
 _symmetry_equiv_pos_site_id
 _symmetry_equiv_pos_as_xyz
  1  'x, y, z'
loop_
 _atom_site_type_symbol
 _atom_site_label
 _atom_site_symmetry_multiplicity
 _atom_site_fract_x
 _atom_site_fract_y
 _atom_site_fract_z
 _atom_site_occupancy
  K  K0  1  0.86926964  0.75000000  0.25168307  1.0
  K  K1  1  0.36926964  0.75000000  0.24831693  1.0
  K  K2  1  0.13073036  0.25000000  0.74831693  1.0
  K  K3  1  0.63073036  0.25000000  0.75168307  1.0
  K  K4  1  0.43509502  0.75000000  0.60479484  1.0
  K  K5  1  0.93509502  0.75000000  0.89520516  1.0
  K  K6  1  0.56490498  0.25000000  0.39520516  1.0
  K  K7  1  0.06490498  0.25000000  0.10479484  1.0
  Al  Al8  1  0.62954961  1.00269558  0.08251903  1.0
  Al  Al9  1  0.62954961  0.49730442  0.08251903  1.0
  Al  Al10  1  0.12954961  1.00269558  0.41748097  1.0
  Al  Al11  1  0.12954961  0.49730442  0.41748097  1.0
  Al  Al12  1  0.37045039  0.50269558  0.91748097  1.0
  Al  Al13  1  0.37045039  -0.00269558  0.91748097  1.0
  Al  Al14  1  0.87045039  0.50269558  0.58251903  1.0
  Al  Al15  1  0.87045039  -0.00269558  0.58251903  1.0
  F  F16  1  0.90622353  0.49497135  0.42825776  1.0
  F  F17  1  0.90622353  0.00502865  0.42825776  1.0
  F  F18  1  0.40622353  0.49497135  0.07174224  1.0
  F  F19  1  0.40622353  0.00502865  0.07174224  1.0
  F  F20  1  0.09377647  0.99497135  0.57174224  1.0
  F  F21  1  0.09377647  0.50502865  0.57174224  1.0
  F  F22  1  0.59377647  0.99497135  0.92825776  1.0
  F  F23  1  0.59377647  0.50502865  0.92825776  1.0
  F  F24  1  0.83516986  0.98552175  0.06842021  1.0
  F  F25  1  0.83516986  0.51447825  0.06842021  1.0
  F  F26  1  0.33516986  0.98552175  0.43157979  1.0
  F  F27  1  0.33516986  0.51447825  0.43157979  1.0
  F  F28  1  0.16483014  0.48552175  0.93157979  1.0
  F  F29  1  0.16483014  0.01447825  0.93157979  1.0
  F  F30  1  0.66483014  0.48552175  0.56842021  1.0
  F  F31  1  0.66483014  0.01447825  0.56842021  1.0
  F  F32  1  0.61898215  0.50179836  0.22932718  1.0
  F  F33  1  0.61898215  -0.00179836  0.22932718  1.0
  F  F34  1  0.11898215  0.50179836  0.27067282  1.0
  F  F35  1  0.11898215  -0.00179836  0.27067282  1.0
  F  F36  1  0.38101785  1.00179836  0.77067282  1.0
  F  F37  1  0.38101785  0.49820164  0.77067282  1.0
  F  F38  1  0.88101785  1.00179836  0.72932718  1.0
  F  F39  1  0.88101785  0.49820164  0.72932718  1.0
  F  F40  1  0.86588721  0.75000000  0.57708551  1.0
  F  F41  1  0.36588721  0.75000000  0.92291449  1.0
  F  F42  1  0.13411279  0.25000000  0.42291449  1.0
  F  F43  1  0.63411279  0.25000000  0.07708551  1.0
  F  F44  1  0.61443123  0.75000000  0.08289262  1.0
  F  F45  1  0.11443123  0.75000000  0.41710738  1.0
  F  F46  1  0.38556877  0.25000000  0.91710738  1.0
  F  F47  1  0.88556877  0.25000000  0.58289262  1.0
