# generated using pymatgen
data_ZnH4(ClO3)2
_symmetry_space_group_name_H-M   'P 1'
_cell_length_a   6.42686709
_cell_length_b   7.04577405
_cell_length_c   8.69364940
_cell_angle_alpha   90.00000000
_cell_angle_beta   130.20439028
_cell_angle_gamma   90.00000000
_symmetry_Int_Tables_number   1
_chemical_formula_structural   ZnH4(ClO3)2
_chemical_formula_sum   'Zn2 H8 Cl4 O12'
_cell_volume   300.66261033
_cell_formula_units_Z   2
loop_
 _symmetry_equiv_pos_site_id
 _symmetry_equiv_pos_as_xyz
  1  'x, y, z'
loop_
 _atom_site_type_symbol
 _atom_site_label
 _atom_site_symmetry_multiplicity
 _atom_site_fract_x
 _atom_site_fract_y
 _atom_site_fract_z
 _atom_site_occupancy
  Zn  Zn0  1  -0.00000000  0.50000000  0.50000000  1.0
  Zn  Zn1  1  0.00000000  0.00000000  0.00000000  1.0
  H  H2  1  0.23642325  0.36284586  0.34417909  1.0
  H  H3  1  0.23642325  0.13715414  0.84417909  1.0
  H  H4  1  0.76357675  0.86284586  0.15582091  1.0
  H  H5  1  0.76357675  0.63715414  0.65582091  1.0
  H  H6  1  0.80988352  0.08576651  0.19957526  1.0
  H  H7  1  0.80988352  0.41423349  0.69957526  1.0
  H  H8  1  0.19011648  0.58576651  0.30042474  1.0
  H  H9  1  0.19011648  0.91423349  0.80042474  1.0
  Cl  Cl10  1  0.62503916  0.12532731  0.39708790  1.0
  Cl  Cl11  1  0.62503916  0.37467269  0.89708790  1.0
  Cl  Cl12  1  0.37496084  0.62532731  0.10291210  1.0
  Cl  Cl13  1  0.37496084  0.87467269  0.60291210  1.0
  O  O14  1  0.81772840  0.98103090  0.12650612  1.0
  O  O15  1  0.81772840  0.51896910  0.62650612  1.0
  O  O16  1  0.18227160  0.48103090  0.37349388  1.0
  O  O17  1  0.18227160  0.01896910  0.87349388  1.0
  O  O18  1  0.30939106  0.17666900  0.25732478  1.0
  O  O19  1  0.30939106  0.32333100  0.75732478  1.0
  O  O20  1  0.69060894  0.67666900  0.24267522  1.0
  O  O21  1  0.69060894  0.82333100  0.74267522  1.0
  O  O22  1  0.77990319  0.24218715  0.33941414  1.0
  O  O23  1  0.77990319  0.25781285  0.83941414  1.0
  O  O24  1  0.22009681  0.74218715  0.16058586  1.0
  O  O25  1  0.22009681  0.75781285  0.66058586  1.0
