# generated using pymatgen
data_Ca(BO4)2
_symmetry_space_group_name_H-M   'P 1'
_cell_length_a   6.17785362
_cell_length_b   6.65543257
_cell_length_c   8.44253414
_cell_angle_alpha   65.02682397
_cell_angle_beta   68.51682149
_cell_angle_gamma   62.34250315
_symmetry_Int_Tables_number   1
_chemical_formula_structural   Ca(BO4)2
_chemical_formula_sum   'Ca2 B4 O16'
_cell_volume   272.37874227
_cell_formula_units_Z   2
loop_
 _symmetry_equiv_pos_site_id
 _symmetry_equiv_pos_as_xyz
  1  'x, y, z'
loop_
 _atom_site_type_symbol
 _atom_site_label
 _atom_site_symmetry_multiplicity
 _atom_site_fract_x
 _atom_site_fract_y
 _atom_site_fract_z
 _atom_site_occupancy
  Ca  Ca0  1  -0.75081543  -0.74985505  0.74999050  1.0
  Ca  Ca1  1  -0.24918457  0.74985505  0.25000950  1.0
  B  B2  1  -0.93576693  0.11017702  0.26248765  1.0
  B  B3  1  -0.06423307  -0.11017702  0.73751235  1.0
  B  B4  1  -0.56293460  0.38956949  0.23755394  1.0
  B  B5  1  -0.43706540  -0.38956949  0.76244606  1.0
  O  O6  1  -0.92162882  0.03874411  0.68488817  1.0
  O  O7  1  -0.07837118  -0.03874411  0.31511183  1.0
  O  O8  1  -0.42881278  0.18792930  0.17143158  1.0
  O  O9  1  -0.57118722  -0.18792930  0.82856842  1.0
  O  O10  1  -0.86419767  0.15560439  0.07316104  1.0
  O  O11  1  -0.13580233  -0.15560439  0.92683896  1.0
  O  O12  1  -0.63556585  0.34432187  0.42686419  1.0
  O  O13  1  -0.36443415  -0.34432187  0.57313581  1.0
  O  O14  1  -1.06951480  0.31176878  0.32867678  1.0
  O  O15  1  0.06951480  -0.31176878  0.67132322  1.0
  O  O16  1  -0.80173804  0.53843607  0.18481151  1.0
  O  O17  1  -0.19826196  -0.53843607  0.81518849  1.0
  O  O18  1  -0.42036849  0.53829590  0.18556770  1.0
  O  O19  1  -0.57963151  -0.53829590  0.81443230  1.0
  O  O20  1  -0.69652201  -0.03856035  0.31453373  1.0
  O  O21  1  -0.30347799  0.03856035  0.68546627  1.0
