# generated using pymatgen
data_Ga2Sn2S5
_symmetry_space_group_name_H-M   'P 1'
_cell_length_a   12.70586788
_cell_length_b   6.40603022
_cell_length_c   10.98781590
_cell_angle_alpha   90.00000000
_cell_angle_beta   90.00000000
_cell_angle_gamma   90.00000000
_symmetry_Int_Tables_number   1
_chemical_formula_structural   Ga2Sn2S5
_chemical_formula_sum   'Ga8 Sn8 S20'
_cell_volume   894.34419451
_cell_formula_units_Z   4
loop_
 _symmetry_equiv_pos_site_id
 _symmetry_equiv_pos_as_xyz
  1  'x, y, z'
loop_
 _atom_site_type_symbol
 _atom_site_label
 _atom_site_symmetry_multiplicity
 _atom_site_fract_x
 _atom_site_fract_y
 _atom_site_fract_z
 _atom_site_occupancy
  Ga  Ga0  1  0.31815434  0.84665705  0.97468489  1.0
  Ga  Ga1  1  0.81815434  0.65334295  0.97468489  1.0
  Ga  Ga2  1  0.68184566  0.15334295  0.47468489  1.0
  Ga  Ga3  1  0.18184566  0.34665705  0.47468489  1.0
  Ga  Ga4  1  0.23124590  0.85291390  0.64037296  1.0
  Ga  Ga5  1  0.73124590  0.64708610  0.64037296  1.0
  Ga  Ga6  1  0.76875410  0.14708610  0.14037296  1.0
  Ga  Ga7  1  0.26875410  0.35291390  0.14037296  1.0
  Sn  Sn8  1  0.48052123  0.55041657  0.49800480  1.0
  Sn  Sn9  1  0.98052123  0.94958343  0.49800480  1.0
  Sn  Sn10  1  0.51947877  0.44958343  -0.00199520  1.0
  Sn  Sn11  1  0.01947877  0.05041657  -0.00199520  1.0
  Sn  Sn12  1  0.46202231  0.95800771  0.27510335  1.0
  Sn  Sn13  1  0.96202231  0.54199229  0.27510335  1.0
  Sn  Sn14  1  0.53797769  0.04199229  0.77510335  1.0
  Sn  Sn15  1  0.03797769  0.45800771  0.77510335  1.0
  S  S16  1  0.49360126  0.85880623  0.03280909  1.0
  S  S17  1  0.99360126  0.64119377  0.03280909  1.0
  S  S18  1  0.50639874  0.14119377  0.53280909  1.0
  S  S19  1  0.00639874  0.35880623  0.53280909  1.0
  S  S20  1  0.32674686  0.02226553  0.78969033  1.0
  S  S21  1  0.82674686  0.47773447  0.78969033  1.0
  S  S22  1  0.67325314  0.97773447  0.28969033  1.0
  S  S23  1  0.17325314  0.52226553  0.28969033  1.0
  S  S24  1  0.28750806  0.51066799  0.61713905  1.0
  S  S25  1  0.78750806  0.98933201  0.61713905  1.0
  S  S26  1  0.71249194  0.48933201  0.11713905  1.0
  S  S27  1  0.21249194  0.01066799  0.11713905  1.0
  S  S28  1  0.27360708  0.50519446  0.95267590  1.0
  S  S29  1  0.77360708  0.99480554  0.95267590  1.0
  S  S30  1  0.72639292  0.49480554  0.45267590  1.0
  S  S31  1  0.22639292  0.00519446  0.45267590  1.0
  S  S32  1  0.06077850  0.85754187  0.71771964  1.0
  S  S33  1  0.56077850  0.64245813  0.71771964  1.0
  S  S34  1  0.93922150  0.14245813  0.21771964  1.0
  S  S35  1  0.43922150  0.35754187  0.21771964  1.0
