# generated using pymatgen
data_Mg4Si7
_symmetry_space_group_name_H-M   'P 1'
_cell_length_a   8.19870453
_cell_length_b   8.19870453
_cell_length_c   6.85388412
_cell_angle_alpha   89.52664566
_cell_angle_beta   90.47335434
_cell_angle_gamma   154.57644366
_symmetry_Int_Tables_number   1
_chemical_formula_structural   Mg4Si7
_chemical_formula_sum   'Mg4 Si7'
_cell_volume   197.77851308
_cell_formula_units_Z   1
loop_
 _symmetry_equiv_pos_site_id
 _symmetry_equiv_pos_as_xyz
  1  'x, y, z'
loop_
 _atom_site_type_symbol
 _atom_site_label
 _atom_site_symmetry_multiplicity
 _atom_site_fract_x
 _atom_site_fract_y
 _atom_site_fract_z
 _atom_site_occupancy
  Mg  Mg0  1  0.92048951  -0.92048951  0.60295272  1.0
  Mg  Mg1  1  1.07951049  -0.07951049  0.39704728  1.0
  Mg  Mg2  1  1.16639599  -0.16639599  0.99590882  1.0
  Mg  Mg3  1  0.83360401  -0.83360401  0.00409118  1.0
  Si  Si4  1  0.68900287  -0.68900287  0.65813169  1.0
  Si  Si5  1  1.31099713  -0.31099713  0.34186831  1.0
  Si  Si6  1  0.54492062  -0.54492062  0.76200261  1.0
  Si  Si7  1  1.45507938  -0.45507938  0.23799739  1.0
  Si  Si8  1  1.28794512  -0.28794512  0.70974143  1.0
  Si  Si9  1  0.71205488  -0.71205488  0.29025857  1.0
  Si  Si10  1  0.00000000  0.00000000  0.00000000  1.0
