# generated using pymatgen
data_GdSiNi
_symmetry_space_group_name_H-M   'P 1'
_cell_length_a   6.98485018
_cell_length_b   4.20522428
_cell_length_c   7.14713143
_cell_angle_alpha   90.00000000
_cell_angle_beta   90.00000000
_cell_angle_gamma   90.00000000
_symmetry_Int_Tables_number   1
_chemical_formula_structural   GdSiNi
_chemical_formula_sum   'Gd4 Si4 Ni4'
_cell_volume   209.93170214
_cell_formula_units_Z   4
loop_
 _symmetry_equiv_pos_site_id
 _symmetry_equiv_pos_as_xyz
  1  'x, y, z'
loop_
 _atom_site_type_symbol
 _atom_site_label
 _atom_site_symmetry_multiplicity
 _atom_site_fract_x
 _atom_site_fract_y
 _atom_site_fract_z
 _atom_site_occupancy
  Gd  Gd0  1  1.01104220  0.75000000  0.69891183  1.0
  Gd  Gd1  1  0.51104220  0.75000000  0.80108817  1.0
  Gd  Gd2  1  -0.01104220  0.25000000  0.30108817  1.0
  Gd  Gd3  1  0.48895780  0.25000000  0.19891183  1.0
  Si  Si4  1  0.68828361  0.75000000  0.41166047  1.0
  Si  Si5  1  0.18828361  0.75000000  0.08833953  1.0
  Si  Si6  1  0.31171639  0.25000000  0.58833953  1.0
  Si  Si7  1  0.81171639  0.25000000  0.91166047  1.0
  Ni  Ni8  1  0.81482905  0.75000000  0.08316284  1.0
  Ni  Ni9  1  0.31482905  0.75000000  0.41683716  1.0
  Ni  Ni10  1  0.18517095  0.25000000  0.91683716  1.0
  Ni  Ni11  1  0.68517095  0.25000000  0.58316284  1.0
