# generated using pymatgen
data_SiO2
_symmetry_space_group_name_H-M   'P 1'
_cell_length_a   4.52905501
_cell_length_b   4.11621609
_cell_length_c   5.08359551
_cell_angle_alpha   90.00000000
_cell_angle_beta   90.00000000
_cell_angle_gamma   90.00000000
_symmetry_Int_Tables_number   1
_chemical_formula_structural   SiO2
_chemical_formula_sum   'Si4 O8'
_cell_volume   94.77128045
_cell_formula_units_Z   4
loop_
 _symmetry_equiv_pos_site_id
 _symmetry_equiv_pos_as_xyz
  1  'x, y, z'
loop_
 _atom_site_type_symbol
 _atom_site_label
 _atom_site_symmetry_multiplicity
 _atom_site_fract_x
 _atom_site_fract_y
 _atom_site_fract_z
 _atom_site_occupancy
  Si  Si0  1  0.50000000  0.00000000  0.31073403  1.0
  Si  Si1  1  0.50000000  0.50000000  0.81073403  1.0
  Si  Si2  1  0.00000000  0.00000000  0.00656568  1.0
  Si  Si3  1  0.00000000  0.50000000  0.50656568  1.0
  O  O4  1  0.82995399  0.76908546  0.27622487  1.0
  O  O5  1  0.82995399  0.73091454  0.77622487  1.0
  O  O6  1  0.17004601  0.26908546  0.77622487  1.0
  O  O7  1  0.17004601  0.23091454  0.27622487  1.0
  O  O8  1  0.32995382  0.76908498  0.04107527  1.0
  O  O9  1  0.32995382  0.73091502  0.54107527  1.0
  O  O10  1  0.67004618  0.26908498  0.54107527  1.0
  O  O11  1  0.67004618  0.23091502  0.04107527  1.0
