# generated using pymatgen
data_NaAlH2
_symmetry_space_group_name_H-M   'P 1'
_cell_length_a   6.86321144
_cell_length_b   6.86321144
_cell_length_c   6.86321144
_cell_angle_alpha   124.66543979
_cell_angle_beta   124.66543977
_cell_angle_gamma   82.09291533
_symmetry_Int_Tables_number   1
_chemical_formula_structural   NaAlH2
_chemical_formula_sum   'Na4 Al4 H8'
_cell_volume   210.27177922
_cell_formula_units_Z   4
loop_
 _symmetry_equiv_pos_site_id
 _symmetry_equiv_pos_as_xyz
  1  'x, y, z'
loop_
 _atom_site_type_symbol
 _atom_site_label
 _atom_site_symmetry_multiplicity
 _atom_site_fract_x
 _atom_site_fract_y
 _atom_site_fract_z
 _atom_site_occupancy
  Na  Na0  1  0.37500000  0.62500000  0.75000000  1.0
  Na  Na1  1  0.87500000  0.62500000  1.25000000  1.0
  Na  Na2  1  0.37500000  1.12500000  0.75000000  1.0
  Na  Na3  1  0.37500000  0.62500000  0.25000000  1.0
  Al  Al4  1  0.87500000  0.12500000  0.75000000  1.0
  Al  Al5  1  0.37500000  0.12500000  0.25000000  1.0
  Al  Al6  1  0.87500000  0.62500000  0.75000000  1.0
  Al  Al7  1  0.87500000  1.12500000  1.25000000  1.0
  H  H8  1  0.20057028  0.79936720  0.99982876  1.0
  H  H9  1  0.95046156  1.04925848  1.49982876  1.0
  H  H10  1  1.20063280  1.20046156  1.40120308  1.0
  H  H11  1  0.95074152  0.45057029  0.90120308  1.0
  H  H12  1  0.79953844  0.20074152  1.00017124  1.0
  H  H13  1  0.54942972  0.45063280  0.50017124  1.0
  H  H14  1  0.79925848  0.79942971  0.59879692  1.0
  H  H15  1  0.54936720  1.04953844  1.09879692  1.0
