# generated using pymatgen
data_K2Sn2O3
_symmetry_space_group_name_H-M   'P 1'
_cell_length_a   5.96678728
_cell_length_b   5.96678728
_cell_length_c   5.96678728
_cell_angle_alpha   61.88098511
_cell_angle_beta   61.88098511
_cell_angle_gamma   61.88098511
_symmetry_Int_Tables_number   1
_chemical_formula_structural   K2Sn2O3
_chemical_formula_sum   'K2 Sn2 O3'
_cell_volume   156.53804794
_cell_formula_units_Z   1
loop_
 _symmetry_equiv_pos_site_id
 _symmetry_equiv_pos_as_xyz
  1  'x, y, z'
loop_
 _atom_site_type_symbol
 _atom_site_label
 _atom_site_symmetry_multiplicity
 _atom_site_fract_x
 _atom_site_fract_y
 _atom_site_fract_z
 _atom_site_occupancy
  K  K0  1  0.00903154  0.00903154  0.00903154  1.0
  K  K1  1  0.50906464  0.50906464  -0.49093536  1.0
  Sn  Sn2  1  1.26788673  1.26788673  0.26788673  1.0
  Sn  Sn3  1  0.75020353  0.75020353  -0.24979647  1.0
  O  O4  1  0.00902895  0.50904230  -0.49095770  1.0
  O  O5  1  0.50904230  0.00902895  -0.49095770  1.0
  O  O6  1  0.50904230  0.50904230  -0.99097105  1.0
