# generated using pymatgen
data_Ag5IO6
_symmetry_space_group_name_H-M   'P 1'
_cell_length_a   11.53156219
_cell_length_b   11.53156219
_cell_length_c   11.53156219
_cell_angle_alpha   30.25114570
_cell_angle_beta   30.25114570
_cell_angle_gamma   30.25114570
_symmetry_Int_Tables_number   1
_chemical_formula_structural   Ag5IO6
_chemical_formula_sum   'Ag10 I2 O12'
_cell_volume   344.86953793
_cell_formula_units_Z   2
loop_
 _symmetry_equiv_pos_site_id
 _symmetry_equiv_pos_as_xyz
  1  'x, y, z'
loop_
 _atom_site_type_symbol
 _atom_site_label
 _atom_site_symmetry_multiplicity
 _atom_site_fract_x
 _atom_site_fract_y
 _atom_site_fract_z
 _atom_site_occupancy
  Ag  Ag0  1  0.45865090  0.75000000  0.04134910  1.0
  Ag  Ag1  1  0.95865090  -0.45865090  0.25000000  1.0
  Ag  Ag2  1  0.25000000  0.95865090  -0.45865090  1.0
  Ag  Ag3  1  0.75000000  1.04134910  -0.54134910  1.0
  Ag  Ag4  1  0.54134910  0.25000000  -0.04134910  1.0
  Ag  Ag5  1  1.04134910  0.45865090  -0.25000000  1.0
  Ag  Ag6  1  0.85155101  -0.14844899  -0.14844899  1.0
  Ag  Ag7  1  0.35155101  0.35155101  0.35155101  1.0
  Ag  Ag8  1  0.64844899  0.64844899  -0.35155101  1.0
  Ag  Ag9  1  1.14844899  0.14844899  0.14844899  1.0
  I  I10  1  1.00000000  0.00000000  0.00000000  1.0
  I  I11  1  0.50000000  0.50000000  0.50000000  1.0
  O  O12  1  0.67015770  0.01887285  0.20780392  1.0
  O  O13  1  1.17015770  0.70780392  -0.48112715  1.0
  O  O14  1  0.29219608  0.48112715  -0.17015770  1.0
  O  O15  1  0.79219608  0.32984230  -0.01887285  1.0
  O  O16  1  0.98112715  -0.20780392  0.32984230  1.0
  O  O17  1  0.48112715  0.82984230  -0.70780392  1.0
  O  O18  1  1.32984230  -0.01887285  -0.20780392  1.0
  O  O19  1  0.82984230  0.29219608  -0.51887285  1.0
  O  O20  1  1.20780392  -0.32984230  0.01887285  1.0
  O  O21  1  0.70780392  0.51887285  0.17015770  1.0
  O  O22  1  0.51887285  1.17015770  -0.29219608  1.0
  O  O23  1  1.01887285  0.20780392  -0.32984230  1.0
