# generated using pymatgen
data_SiO2
_symmetry_space_group_name_H-M   'P 1'
_cell_length_a   5.18187554
_cell_length_b   5.18187554
_cell_length_c   6.80974999
_cell_angle_alpha   81.51307850
_cell_angle_beta   98.48692150
_cell_angle_gamma   83.49767469
_symmetry_Int_Tables_number   1
_chemical_formula_structural   SiO2
_chemical_formula_sum   'Si4 O8'
_cell_volume   177.15936755
_cell_formula_units_Z   4
loop_
 _symmetry_equiv_pos_site_id
 _symmetry_equiv_pos_as_xyz
  1  'x, y, z'
loop_
 _atom_site_type_symbol
 _atom_site_label
 _atom_site_symmetry_multiplicity
 _atom_site_fract_x
 _atom_site_fract_y
 _atom_site_fract_z
 _atom_site_occupancy
  Si  Si0  1  0.99635724  -0.99123286  0.76282198  1.0
  Si  Si1  1  0.00876714  -0.00364276  0.23717802  1.0
  Si  Si2  1  1.55495265  0.18392617  0.43036400  1.0
  Si  Si3  1  1.18392617  0.55495265  0.56963600  1.0
  O  O4  1  1.46610248  0.46610248  0.50000000  1.0
  O  O5  1  0.98598977  -0.01401023  0.00000000  1.0
  O  O6  1  1.08143052  0.29276580  0.67773320  1.0
  O  O7  1  1.29276580  0.08143052  0.32226680  1.0
  O  O8  1  0.70525588  -0.01131072  0.63800838  1.0
  O  O9  1  0.98868928  -0.29474412  0.36199162  1.0
  O  O10  1  0.76270722  -0.79501414  0.27086979  1.0
  O  O11  1  0.20498586  -0.23729278  0.72913021  1.0
