# generated using pymatgen
data_Y3CuSnSe7
_symmetry_space_group_name_H-M   'P 1'
_cell_length_a   10.24263697
_cell_length_b   10.24263697
_cell_length_c   6.51638371
_cell_angle_alpha   90.00000000
_cell_angle_beta   90.00000000
_cell_angle_gamma   120.00000000
_symmetry_Int_Tables_number   1
_chemical_formula_structural   Y3CuSnSe7
_chemical_formula_sum   'Y6 Cu2 Sn2 Se14'
_cell_volume   592.05334926
_cell_formula_units_Z   2
loop_
 _symmetry_equiv_pos_site_id
 _symmetry_equiv_pos_as_xyz
  1  'x, y, z'
loop_
 _atom_site_type_symbol
 _atom_site_label
 _atom_site_symmetry_multiplicity
 _atom_site_fract_x
 _atom_site_fract_y
 _atom_site_fract_z
 _atom_site_occupancy
  Y  Y0  1  0.20670125  0.84932546  0.10440544  1.0
  Y  Y1  1  0.84932546  0.64262421  0.60440544  1.0
  Y  Y2  1  0.64262421  0.79329875  0.10440544  1.0
  Y  Y3  1  0.15067454  0.35737579  0.10440544  1.0
  Y  Y4  1  0.79329875  0.15067454  0.60440544  1.0
  Y  Y5  1  0.35737579  0.20670125  0.60440544  1.0
  Cu  Cu6  1  0.00000000  0.00000000  0.00267722  1.0
  Cu  Cu7  1  0.00000000  0.00000000  0.50267722  1.0
  Sn  Sn8  1  0.33333333  0.66666667  0.67518645  1.0
  Sn  Sn9  1  0.66666667  0.33333333  0.17518645  1.0
  Se  Se10  1  0.88329991  0.73535331  0.02977956  1.0
  Se  Se11  1  0.73535331  0.85205340  0.52977956  1.0
  Se  Se12  1  0.85205340  0.11670009  0.02977956  1.0
  Se  Se13  1  0.26464669  0.14794660  0.02977956  1.0
  Se  Se14  1  0.11670009  0.26464669  0.52977956  1.0
  Se  Se15  1  0.14794660  0.88329991  0.52977956  1.0
  Se  Se16  1  0.56086169  0.48210178  0.35931137  1.0
  Se  Se17  1  0.48210178  0.92124009  0.85931137  1.0
  Se  Se18  1  0.92124009  0.43913831  0.35931137  1.0
  Se  Se19  1  0.51789822  0.07875991  0.35931137  1.0
  Se  Se20  1  0.43913831  0.51789822  0.85931137  1.0
  Se  Se21  1  0.07875991  0.56086169  0.85931137  1.0
  Se  Se22  1  0.33333333  0.66666667  0.28264721  1.0
  Se  Se23  1  0.66666667  0.33333333  0.78264721  1.0
