# generated using pymatgen
data_Bi2Se3
_symmetry_space_group_name_H-M   'P 1'
_cell_length_a   7.82164188
_cell_length_b   7.82164188
_cell_length_c   10.18454303
_cell_angle_alpha   85.99793879
_cell_angle_beta   94.00206121
_cell_angle_gamma   149.73937948
_symmetry_Int_Tables_number   1
_chemical_formula_structural   Bi2Se3
_chemical_formula_sum   'Bi4 Se6'
_cell_volume   313.16492709
_cell_formula_units_Z   2
loop_
 _symmetry_equiv_pos_site_id
 _symmetry_equiv_pos_as_xyz
  1  'x, y, z'
loop_
 _atom_site_type_symbol
 _atom_site_label
 _atom_site_symmetry_multiplicity
 _atom_site_fract_x
 _atom_site_fract_y
 _atom_site_fract_z
 _atom_site_occupancy
  Bi  Bi0  1  0.52281296  0.47718704  0.79850873  1.0
  Bi  Bi1  1  0.47718704  -0.47718704  0.20149127  1.0
  Bi  Bi2  1  0.26616273  -0.26616273  0.81345304  1.0
  Bi  Bi3  1  0.73383727  0.26616273  0.18654696  1.0
  Se  Se4  1  0.93396532  0.06603468  0.65777860  1.0
  Se  Se5  1  0.06603468  -0.06603468  0.34222140  1.0
  Se  Se6  1  0.86045152  0.13954848  0.00418468  1.0
  Se  Se7  1  0.13954848  -0.13954848  -0.00418468  1.0
  Se  Se8  1  0.67164438  0.32835562  0.65756512  1.0
  Se  Se9  1  0.32835562  -0.32835562  0.34243488  1.0
