# generated using pymatgen
data_KCe2F9
_symmetry_space_group_name_H-M   'P 1'
_cell_length_a   8.71146512
_cell_length_b   11.56600725
_cell_length_c   7.09547211
_cell_angle_alpha   90.00000000
_cell_angle_beta   90.00000000
_cell_angle_gamma   90.00000000
_symmetry_Int_Tables_number   1
_chemical_formula_structural   KCe2F9
_chemical_formula_sum   'K4 Ce8 F36'
_cell_volume   714.91755208
_cell_formula_units_Z   4
loop_
 _symmetry_equiv_pos_site_id
 _symmetry_equiv_pos_as_xyz
  1  'x, y, z'
loop_
 _atom_site_type_symbol
 _atom_site_label
 _atom_site_symmetry_multiplicity
 _atom_site_fract_x
 _atom_site_fract_y
 _atom_site_fract_z
 _atom_site_occupancy
  K  K0  1  0.46485313  0.75000000  0.14401664  1.0
  K  K1  1  0.96485313  0.75000000  0.35598336  1.0
  K  K2  1  0.53514687  0.25000000  0.85598336  1.0
  K  K3  1  0.03514687  0.25000000  0.64401664  1.0
  Ce  Ce4  1  0.32269490  0.94969371  0.64834666  1.0
  Ce  Ce5  1  0.32269490  0.55030629  0.64834666  1.0
  Ce  Ce6  1  0.82269490  0.94969371  0.85165334  1.0
  Ce  Ce7  1  0.82269490  0.55030629  0.85165334  1.0
  Ce  Ce8  1  0.67730510  0.44969371  0.35165334  1.0
  Ce  Ce9  1  0.67730510  0.05030629  0.35165334  1.0
  Ce  Ce10  1  0.17730510  0.44969371  0.14834666  1.0
  Ce  Ce11  1  0.17730510  0.05030629  0.14834666  1.0
  F  F12  1  0.49465611  0.40075258  0.57016628  1.0
  F  F13  1  0.49465611  0.09924742  0.57016628  1.0
  F  F14  1  0.99465611  0.40075258  0.92983372  1.0
  F  F15  1  0.99465611  0.09924742  0.92983372  1.0
  F  F16  1  0.50534389  0.90075258  0.42983372  1.0
  F  F17  1  0.50534389  0.59924742  0.42983372  1.0
  F  F18  1  0.00534389  0.90075258  0.07016628  1.0
  F  F19  1  0.00534389  0.59924742  0.07016628  1.0
  F  F20  1  0.29176108  0.90346150  0.96392695  1.0
  F  F21  1  0.29176108  0.59653850  0.96392695  1.0
  F  F22  1  0.79176108  0.90346150  0.53607305  1.0
  F  F23  1  0.79176108  0.59653850  0.53607305  1.0
  F  F24  1  0.70823892  0.40346150  0.03607305  1.0
  F  F25  1  0.70823892  0.09653850  0.03607305  1.0
  F  F26  1  0.20823892  0.40346150  0.46392695  1.0
  F  F27  1  0.20823892  0.09653850  0.46392695  1.0
  F  F28  1  0.28276941  0.39435078  0.84544601  1.0
  F  F29  1  0.28276941  0.10564922  0.84544601  1.0
  F  F30  1  0.78276941  0.39435078  0.65455399  1.0
  F  F31  1  0.78276941  0.10564922  0.65455399  1.0
  F  F32  1  0.71723059  0.89435078  0.15455399  1.0
  F  F33  1  0.71723059  0.60564922  0.15455399  1.0
  F  F34  1  0.21723059  0.89435078  0.34544601  1.0
  F  F35  1  0.21723059  0.60564922  0.34544601  1.0
  F  F36  1  0.06892477  0.92244370  0.69169044  1.0
  F  F37  1  0.06892477  0.57755630  0.69169044  1.0
  F  F38  1  0.56892477  0.92244370  0.80830956  1.0
  F  F39  1  0.56892477  0.57755630  0.80830956  1.0
  F  F40  1  0.93107523  0.42244370  0.30830956  1.0
  F  F41  1  0.93107523  0.07755630  0.30830956  1.0
  F  F42  1  0.43107523  0.42244370  0.19169044  1.0
  F  F43  1  0.43107523  0.07755630  0.19169044  1.0
  F  F44  1  0.32295405  0.75000000  0.65556695  1.0
  F  F45  1  0.82295405  0.75000000  0.84443305  1.0
  F  F46  1  0.67704595  0.25000000  0.34443305  1.0
  F  F47  1  0.17704595  0.25000000  0.15556695  1.0
