# generated using pymatgen
data_NaI3O8
_symmetry_space_group_name_H-M   'P 1'
_cell_length_a   8.21102353
_cell_length_b   8.21102353
_cell_length_c   5.95151291
_cell_angle_alpha   90.00000000
_cell_angle_beta   90.00000000
_cell_angle_gamma   90.00000000
_symmetry_Int_Tables_number   1
_chemical_formula_structural   NaI3O8
_chemical_formula_sum   'Na2 I6 O16'
_cell_volume   401.25640098
_cell_formula_units_Z   2
loop_
 _symmetry_equiv_pos_site_id
 _symmetry_equiv_pos_as_xyz
  1  'x, y, z'
loop_
 _atom_site_type_symbol
 _atom_site_label
 _atom_site_symmetry_multiplicity
 _atom_site_fract_x
 _atom_site_fract_y
 _atom_site_fract_z
 _atom_site_occupancy
  Na  Na0  1  0.50000000  0.50000000  0.00000000  1.0
  Na  Na1  1  0.00000000  0.00000000  0.00000000  1.0
  I  I2  1  0.22076730  0.74903585  0.38681169  1.0
  I  I3  1  0.74903585  0.77923270  0.61318831  1.0
  I  I4  1  0.77923270  0.25096415  0.38681169  1.0
  I  I5  1  0.25096415  0.22076730  0.61318831  1.0
  I  I6  1  0.50000000  0.00000000  0.11781931  1.0
  I  I7  1  0.00000000  0.50000000  0.88218069  1.0
  O  O8  1  0.26003288  0.91956588  0.14558603  1.0
  O  O9  1  0.91956588  0.73996712  0.85441397  1.0
  O  O10  1  0.73996712  0.08043412  0.14558603  1.0
  O  O11  1  0.08043412  0.26003288  0.85441397  1.0
  O  O12  1  0.54477157  0.82283819  0.31721955  1.0
  O  O13  1  0.82283819  0.45522843  0.68278045  1.0
  O  O14  1  0.45522843  0.17716181  0.31721955  1.0
  O  O15  1  0.17716181  0.54477157  0.68278045  1.0
  O  O16  1  -0.00278076  0.77790352  0.34431765  1.0
  O  O17  1  0.77790352  1.00278076  0.65568235  1.0
  O  O18  1  1.00278076  0.22209647  0.34431765  1.0
  O  O19  1  0.22209647  -0.00278076  0.65568235  1.0
  O  O20  1  0.25596894  0.56991651  0.19778756  1.0
  O  O21  1  0.56991651  0.74403106  0.80221244  1.0
  O  O22  1  0.74403106  0.43008349  0.19778756  1.0
  O  O23  1  0.43008349  0.25596894  0.80221244  1.0
