# generated using pymatgen
data_BaMnOF5
_symmetry_space_group_name_H-M   'P 1'
_cell_length_a   5.43029877
_cell_length_b   7.66362057
_cell_length_c   6.76173607
_cell_angle_alpha   90.00000000
_cell_angle_beta   111.74308745
_cell_angle_gamma   90.00000000
_symmetry_Int_Tables_number   1
_chemical_formula_structural   BaMnOF5
_chemical_formula_sum   'Ba2 Mn2 O2 F10'
_cell_volume   261.37467625
_cell_formula_units_Z   2
loop_
 _symmetry_equiv_pos_site_id
 _symmetry_equiv_pos_as_xyz
  1  'x, y, z'
loop_
 _atom_site_type_symbol
 _atom_site_label
 _atom_site_symmetry_multiplicity
 _atom_site_fract_x
 _atom_site_fract_y
 _atom_site_fract_z
 _atom_site_occupancy
  Ba  Ba0  1  0.36878538  0.25000000  0.60212046  1.0
  Ba  Ba1  1  0.63121462  0.75000000  0.39787954  1.0
  Mn  Mn2  1  0.00000000  0.50000000  0.00000000  1.0
  Mn  Mn3  1  0.00000000  0.00000000  0.00000000  1.0
  O  O4  1  0.82339264  0.25000000  0.48674061  1.0
  O  O5  1  0.17660736  0.75000000  0.51325939  1.0
  F  F6  1  0.71840244  0.96516355  0.74449544  1.0
  F  F7  1  0.71840244  0.53483645  0.74449544  1.0
  F  F8  1  0.28159756  0.46516355  0.25550456  1.0
  F  F9  1  0.28159756  0.03483645  0.25550456  1.0
  F  F10  1  0.21493643  0.45781256  0.85464547  1.0
  F  F11  1  0.21493643  0.04218744  0.85464547  1.0
  F  F12  1  0.78506357  0.95781256  0.14535453  1.0
  F  F13  1  0.78506357  0.54218744  0.14535453  1.0
  F  F14  1  0.90330357  0.25000000  0.98138518  1.0
  F  F15  1  0.09669643  0.75000000  0.01861482  1.0
