# generated using pymatgen
data_K3PS4
_symmetry_space_group_name_H-M   'P 1'
_cell_length_a   9.15232720
_cell_length_b   10.61020600
_cell_length_c   9.33070591
_cell_angle_alpha   90.00000000
_cell_angle_beta   90.00000000
_cell_angle_gamma   90.00000000
_symmetry_Int_Tables_number   1
_chemical_formula_structural   K3PS4
_chemical_formula_sum   'K12 P4 S16'
_cell_volume   906.08690768
_cell_formula_units_Z   4
loop_
 _symmetry_equiv_pos_site_id
 _symmetry_equiv_pos_as_xyz
  1  'x, y, z'
loop_
 _atom_site_type_symbol
 _atom_site_label
 _atom_site_symmetry_multiplicity
 _atom_site_fract_x
 _atom_site_fract_y
 _atom_site_fract_z
 _atom_site_occupancy
  K  K0  1  0.44440317  0.45516796  0.79784048  1.0
  K  K1  1  0.44440317  0.04483204  0.79784048  1.0
  K  K2  1  0.94440317  0.45516796  0.70215952  1.0
  K  K3  1  0.94440317  0.04483204  0.70215952  1.0
  K  K4  1  0.55559683  0.95516796  0.20215952  1.0
  K  K5  1  0.55559683  0.54483204  0.20215952  1.0
  K  K6  1  0.05559683  0.95516796  0.29784048  1.0
  K  K7  1  0.05559683  0.54483204  0.29784048  1.0
  K  K8  1  0.36060369  0.75000000  0.57799072  1.0
  K  K9  1  0.86060369  0.75000000  0.92200928  1.0
  K  K10  1  0.63939631  0.25000000  0.42200928  1.0
  K  K11  1  0.13939631  0.25000000  0.07799072  1.0
  P  P12  1  0.27790790  0.75000000  0.01930279  1.0
  P  P13  1  0.77790790  0.75000000  0.48069721  1.0
  P  P14  1  0.72209210  0.25000000  0.98069721  1.0
  P  P15  1  0.22209210  0.25000000  0.51930279  1.0
  S  S16  1  0.16533399  0.91099456  0.96265905  1.0
  S  S17  1  0.16533399  0.58900544  0.96265905  1.0
  S  S18  1  0.66533399  0.91099456  0.53734095  1.0
  S  S19  1  0.66533399  0.58900544  0.53734095  1.0
  S  S20  1  0.83466601  0.41099456  0.03734095  1.0
  S  S21  1  0.83466601  0.08900544  0.03734095  1.0
  S  S22  1  0.33466601  0.41099456  0.46265905  1.0
  S  S23  1  0.33466601  0.08900544  0.46265905  1.0
  S  S24  1  0.47967305  0.75000000  0.91755139  1.0
  S  S25  1  0.97967305  0.75000000  0.58244861  1.0
  S  S26  1  0.52032695  0.25000000  0.08244861  1.0
  S  S27  1  0.02032695  0.25000000  0.41755139  1.0
  S  S28  1  0.30685752  0.75000000  0.23926784  1.0
  S  S29  1  0.80685752  0.75000000  0.26073216  1.0
  S  S30  1  0.69314248  0.25000000  0.76073216  1.0
  S  S31  1  0.19314248  0.25000000  0.73926784  1.0
