# generated using pymatgen
data_RbHg2
_symmetry_space_group_name_H-M   'P 1'
_cell_length_a   6.97591573
_cell_length_b   6.97591573
_cell_length_c   6.97591573
_cell_angle_alpha   133.44241428
_cell_angle_beta   103.49664953
_cell_angle_gamma   94.53030145
_symmetry_Int_Tables_number   1
_chemical_formula_structural   RbHg2
_chemical_formula_sum   'Rb2 Hg4'
_cell_volume   225.46409365
_cell_formula_units_Z   2
loop_
 _symmetry_equiv_pos_site_id
 _symmetry_equiv_pos_as_xyz
  1  'x, y, z'
loop_
 _atom_site_type_symbol
 _atom_site_label
 _atom_site_symmetry_multiplicity
 _atom_site_fract_x
 _atom_site_fract_y
 _atom_site_fract_z
 _atom_site_occupancy
  Rb  Rb0  1  1.69916867  1.44916867  1.25000000  1.0
  Rb  Rb1  1  0.30083133  0.55083133  0.75000000  1.0
  Hg  Hg2  1  1.27299365  0.83504762  1.43794603  1.0
  Hg  Hg3  1  1.10289842  0.16495238  0.93794603  1.0
  Hg  Hg4  1  0.72700635  1.16495238  0.56205397  1.0
  Hg  Hg5  1  0.89710159  0.83504762  0.06205397  1.0
