# generated using pymatgen
data_RbInSe2
_symmetry_space_group_name_H-M   'P 1'
_cell_length_a   8.32490719
_cell_length_b   8.32490719
_cell_length_c   16.57753761
_cell_angle_alpha   82.78479610
_cell_angle_beta   97.21520390
_cell_angle_gamma   90.00184160
_symmetry_Int_Tables_number   1
_chemical_formula_structural   RbInSe2
_chemical_formula_sum   'Rb8 In8 Se16'
_cell_volume   1130.62317900
_cell_formula_units_Z   8
loop_
 _symmetry_equiv_pos_site_id
 _symmetry_equiv_pos_as_xyz
  1  'x, y, z'
loop_
 _atom_site_type_symbol
 _atom_site_label
 _atom_site_symmetry_multiplicity
 _atom_site_fract_x
 _atom_site_fract_y
 _atom_site_fract_z
 _atom_site_occupancy
  Rb  Rb0  1  0.65417676  0.22105519  0.61538703  1.0
  Rb  Rb1  1  0.77894481  0.34582324  0.11538703  1.0
  Rb  Rb2  1  1.22105519  -0.34582324  0.88461297  1.0
  Rb  Rb3  1  1.34582324  -0.22105519  0.38461297  1.0
  Rb  Rb4  1  0.22228113  0.15176044  0.89070589  1.0
  Rb  Rb5  1  0.84823956  0.77771887  0.39070589  1.0
  Rb  Rb6  1  1.15176044  -0.77771887  0.60929411  1.0
  Rb  Rb7  1  1.77771887  -0.15176044  0.10929411  1.0
  In  In8  1  1.70971725  -0.08668578  0.83893575  1.0
  In  In9  1  1.08668578  -0.70971725  0.33893575  1.0
  In  In10  1  0.91331422  0.70971725  0.66106425  1.0
  In  In11  1  0.29028275  0.08668578  0.16106425  1.0
  In  In12  1  1.41709442  -0.29034103  0.66124924  1.0
  In  In13  1  1.29034103  -0.41709442  0.16124924  1.0
  In  In14  1  0.70965897  0.41709442  0.83875076  1.0
  In  In15  1  0.58290558  0.29034103  0.33875076  1.0
  Se  Se16  1  1.64017428  -0.26562429  0.56220695  1.0
  Se  Se17  1  1.26562429  -0.64017428  0.06220695  1.0
  Se  Se18  1  0.73437571  0.64017428  0.93779305  1.0
  Se  Se19  1  0.35982572  0.26562429  0.43779305  1.0
  Se  Se20  1  0.73437097  0.14107600  0.93642962  1.0
  Se  Se21  1  0.85892400  0.26562903  0.43642962  1.0
  Se  Se22  1  1.14107600  -0.26562903  0.56357038  1.0
  Se  Se23  1  1.26562903  -0.14107600  0.06357038  1.0
  Se  Se24  1  1.42543293  -0.05042935  0.75005018  1.0
  Se  Se25  1  1.05042935  -0.42543293  0.25005018  1.0
  Se  Se26  1  0.94957065  0.42543293  0.74994982  1.0
  Se  Se27  1  0.57456707  0.05042935  0.24994982  1.0
  Se  Se28  1  0.94947981  0.94947981  0.75000000  1.0
  Se  Se29  1  0.05052019  0.05052019  0.25000000  1.0
  Se  Se30  1  0.42529109  0.42529109  0.75000000  1.0
  Se  Se31  1  0.57470891  0.57470891  0.25000000  1.0
