# generated using pymatgen
data_SbSe3N2Cl7
_symmetry_space_group_name_H-M   'P 1'
_cell_length_a   16.08702960
_cell_length_b   7.38128064
_cell_length_c   7.50064675
_cell_angle_alpha   111.27254083
_cell_angle_beta   97.11832712
_cell_angle_gamma   89.64200186
_symmetry_Int_Tables_number   1
_chemical_formula_structural   SbSe3N2Cl7
_chemical_formula_sum   'Sb2 Se6 N4 Cl14'
_cell_volume   822.84520551
_cell_formula_units_Z   2
loop_
 _symmetry_equiv_pos_site_id
 _symmetry_equiv_pos_as_xyz
  1  'x, y, z'
loop_
 _atom_site_type_symbol
 _atom_site_label
 _atom_site_symmetry_multiplicity
 _atom_site_fract_x
 _atom_site_fract_y
 _atom_site_fract_z
 _atom_site_occupancy
  Sb  Sb0  1  0.51076823  0.06177307  -0.21151044  1.0
  Sb  Sb1  1  0.01438944  0.14525423  -0.23180477  1.0
  Se  Se2  1  0.20110048  0.72822800  -0.01292405  1.0
  Se  Se3  1  0.82980647  0.65150090  -0.41428059  1.0
  Se  Se4  1  0.68690772  0.34263722  -0.61816988  1.0
  Se  Se5  1  0.27465405  0.82151324  -0.59025218  1.0
  Se  Se6  1  0.84104400  0.45936998  -0.76281038  1.0
  Se  Se7  1  0.37029852  0.64247696  -0.82701567  1.0
  N  N8  1  0.29778592  0.62169662  -0.02835263  1.0
  N  N9  1  0.73547213  0.53353826  -0.41892472  1.0
  N  N10  1  0.76032664  0.29349258  -0.79031427  1.0
  N  N11  1  0.20030481  0.86044745  -0.76008124  1.0
  Cl  Cl12  1  0.00327036  -0.02492835  -0.01497962  1.0
  Cl  Cl13  1  0.38297890  0.08762267  -0.06627496  1.0
  Cl  Cl14  1  0.54992798  0.39704881  -0.01375715  1.0
  Cl  Cl15  1  0.16481630  0.10807768  -0.20530672  1.0
  Cl  Cl16  1  0.86376915  0.18161085  -0.25571808  1.0
  Cl  Cl17  1  0.46925006  0.72143593  -0.41041868  1.0
  Cl  Cl18  1  0.63665544  1.03031100  -0.36227964  1.0
  Cl  Cl19  1  0.43779986  0.16381223  -0.45934265  1.0
  Cl  Cl20  1  0.02559777  0.30929237  -0.45248403  1.0
  Cl  Cl21  1  -0.00591967  0.83330531  -0.50235019  1.0
  Cl  Cl22  1  0.22601342  0.56011973  -0.53004318  1.0
  Cl  Cl23  1  0.78889012  0.68889221  -0.87974944  1.0
  Cl  Cl24  1  0.03443447  0.45221084  -0.96159522  1.0
  Cl  Cl25  1  0.58165741  0.95156020  -0.96875959  1.0
