# generated using pymatgen
data_SrCuN
_symmetry_space_group_name_H-M   'P 1'
_cell_length_a   9.08413429
_cell_length_b   13.28408535
_cell_length_c   5.39594781
_cell_angle_alpha   90.00000000
_cell_angle_beta   90.00000000
_cell_angle_gamma   90.00000000
_symmetry_Int_Tables_number   1
_chemical_formula_structural   SrCuN
_chemical_formula_sum   'Sr12 Cu12 N12'
_cell_volume   651.15284679
_cell_formula_units_Z   12
loop_
 _symmetry_equiv_pos_site_id
 _symmetry_equiv_pos_as_xyz
  1  'x, y, z'
loop_
 _atom_site_type_symbol
 _atom_site_label
 _atom_site_symmetry_multiplicity
 _atom_site_fract_x
 _atom_site_fract_y
 _atom_site_fract_z
 _atom_site_occupancy
  Sr  Sr0  1  0.33911399  0.91397785  0.98403428  1.0
  Sr  Sr1  1  0.33911399  0.58602215  0.98403428  1.0
  Sr  Sr2  1  0.83911399  0.91397785  0.51596572  1.0
  Sr  Sr3  1  0.83911399  0.58602215  0.51596572  1.0
  Sr  Sr4  1  0.66088601  0.41397785  0.01596572  1.0
  Sr  Sr5  1  0.66088601  0.08602215  0.01596572  1.0
  Sr  Sr6  1  0.16088601  0.41397785  0.48403428  1.0
  Sr  Sr7  1  0.16088601  0.08602215  0.48403428  1.0
  Sr  Sr8  1  0.52105908  0.75000000  0.50345703  1.0
  Sr  Sr9  1  0.02105908  0.75000000  0.99654297  1.0
  Sr  Sr10  1  0.47894092  0.25000000  0.49654297  1.0
  Sr  Sr11  1  0.97894092  0.25000000  0.00345703  1.0
  Cu  Cu12  1  0.32243193  0.34366790  0.98558217  1.0
  Cu  Cu13  1  0.32243193  0.15633210  0.98558217  1.0
  Cu  Cu14  1  0.82243193  0.34366790  0.51441783  1.0
  Cu  Cu15  1  0.82243193  0.15633210  0.51441783  1.0
  Cu  Cu16  1  0.67756807  0.84366790  0.01441783  1.0
  Cu  Cu17  1  0.67756807  0.65633210  0.01441783  1.0
  Cu  Cu18  1  0.17756807  0.84366790  0.48558217  1.0
  Cu  Cu19  1  0.17756807  0.65633210  0.48558217  1.0
  Cu  Cu20  1  0.50000000  0.00000000  0.50000000  1.0
  Cu  Cu21  1  0.50000000  0.50000000  0.50000000  1.0
  Cu  Cu22  1  0.00000000  0.00000000  0.00000000  1.0
  Cu  Cu23  1  0.00000000  0.50000000  0.00000000  1.0
  N  N24  1  0.41291288  0.41922632  0.73907921  1.0
  N  N25  1  0.41291288  0.08077368  0.73907921  1.0
  N  N26  1  0.91291288  0.41922632  0.76092079  1.0
  N  N27  1  0.91291288  0.08077368  0.76092079  1.0
  N  N28  1  0.58708712  0.91922632  0.26092079  1.0
  N  N29  1  0.58708712  0.58077368  0.26092079  1.0
  N  N30  1  0.08708712  0.91922632  0.23907921  1.0
  N  N31  1  0.08708712  0.58077368  0.23907921  1.0
  N  N32  1  0.25741953  0.75000000  0.71368234  1.0
  N  N33  1  0.75741953  0.75000000  0.78631766  1.0
  N  N34  1  0.74258047  0.25000000  0.28631766  1.0
  N  N35  1  0.24258047  0.25000000  0.21368234  1.0
