# generated using pymatgen
data_FeF3
_symmetry_space_group_name_H-M   'P 1'
_cell_length_a   7.54361880
_cell_length_b   7.54361880
_cell_length_c   7.74930503
_cell_angle_alpha   90.00000000
_cell_angle_beta   90.00000000
_cell_angle_gamma   120.00000000
_symmetry_Int_Tables_number   1
_chemical_formula_structural   FeF3
_chemical_formula_sum   'Fe6 F18'
_cell_volume   381.90281166
_cell_formula_units_Z   6
loop_
 _symmetry_equiv_pos_site_id
 _symmetry_equiv_pos_as_xyz
  1  'x, y, z'
loop_
 _atom_site_type_symbol
 _atom_site_label
 _atom_site_symmetry_multiplicity
 _atom_site_fract_x
 _atom_site_fract_y
 _atom_site_fract_z
 _atom_site_occupancy
  Fe  Fe0  1  0.50000000  0.50000000  0.50000000  1.0
  Fe  Fe1  1  0.50000000  0.50000000  -0.00000000  1.0
  Fe  Fe2  1  0.50000000  -0.00000000  -0.00000000  1.0
  Fe  Fe3  1  0.50000000  0.00000000  0.50000000  1.0
  Fe  Fe4  1  0.00000000  0.50000000  0.50000000  1.0
  Fe  Fe5  1  0.00000000  0.50000000  -0.00000000  1.0
  F  F6  1  0.21064580  0.78927458  0.52812428  1.0
  F  F7  1  0.21064580  0.78927458  -0.02812428  1.0
  F  F8  1  0.78927458  0.57862878  0.02812428  1.0
  F  F9  1  0.78927458  0.57862878  0.47187572  1.0
  F  F10  1  0.57862878  0.78935420  0.52812428  1.0
  F  F11  1  0.57862878  0.78935420  -0.02812428  1.0
  F  F12  1  0.21072542  0.42137122  0.52812428  1.0
  F  F13  1  0.21072542  0.42137122  -0.02812428  1.0
  F  F14  1  0.78935420  0.21072542  0.02812428  1.0
  F  F15  1  0.78935420  0.21072542  0.47187572  1.0
  F  F16  1  0.42137122  0.21064580  0.02812428  1.0
  F  F17  1  0.42137122  0.21064580  0.47187572  1.0
  F  F18  1  0.47604383  0.95211956  0.25000000  1.0
  F  F19  1  0.95211956  0.47607574  0.75000000  1.0
  F  F20  1  0.47607574  0.52395617  0.25000000  1.0
  F  F21  1  0.04788044  0.52392426  0.25000000  1.0
  F  F22  1  0.52395617  0.04788044  0.75000000  1.0
  F  F23  1  0.52392426  0.47604383  0.75000000  1.0
