# generated using pymatgen
data_BaV2(CuO4)2
_symmetry_space_group_name_H-M   'P 1'
_cell_length_a   10.10591749
_cell_length_b   10.10591749
_cell_length_c   10.10591749
_cell_angle_alpha   99.40223494
_cell_angle_beta   99.40223494
_cell_angle_gamma   132.32003540
_symmetry_Int_Tables_number   1
_chemical_formula_structural   BaV2(CuO4)2
_chemical_formula_sum   'Ba4 V8 Cu8 O32'
_cell_volume   698.02717025
_cell_formula_units_Z   4
loop_
 _symmetry_equiv_pos_site_id
 _symmetry_equiv_pos_as_xyz
  1  'x, y, z'
loop_
 _atom_site_type_symbol
 _atom_site_label
 _atom_site_symmetry_multiplicity
 _atom_site_fract_x
 _atom_site_fract_y
 _atom_site_fract_z
 _atom_site_occupancy
  V  V0  1  0.77311267  0.62500000  0.64811267  1.0
  V  V1  1  0.37500000  1.02311267  1.14811267  1.0
  V  V2  1  0.87500000  0.22688733  0.85188733  1.0
  V  V3  1  0.97688733  1.12500000  1.35188733  1.0
  V  V4  1  1.32945264  1.62500000  1.20445264  1.0
  V  V5  1  1.37500000  1.57945264  1.70445264  1.0
  V  V6  1  0.87500000  0.67054736  0.29554736  1.0
  V  V7  1  1.42054736  1.12500000  0.79554736  1.0
  Cu  Cu8  1  1.66677141  1.83215232  1.51896703  1.0
  Cu  Cu9  1  0.43681471  0.41784768  0.33461908  1.0
  Cu  Cu10  1  0.58215232  0.91677141  1.01896703  1.0
  Cu  Cu11  1  0.85219562  1.33322859  1.16538092  1.0
  Cu  Cu12  1  1.08322859  1.10219562  1.66538092  1.0
  Cu  Cu13  1  1.31318529  1.14780438  0.48103297  1.0
  Cu  Cu14  1  1.16784768  0.68681471  0.83461908  1.0
  Cu  Cu15  1  0.89780438  0.56318529  0.98103297  1.0
  O  O16  1  0.76104083  0.62591199  0.81232418  1.0
  O  O17  1  0.93641219  0.62408801  0.63512884  1.0
  O  O18  1  0.37591199  1.01104083  1.31232418  1.0
  O  O19  1  1.05128335  0.23895917  0.86487116  1.0
  O  O20  1  0.98895917  1.30128335  1.36487116  1.0
  O  O21  1  0.81358781  0.94871665  1.18767582  1.0
  O  O22  1  0.37408801  1.18641219  1.13512884  1.0
  O  O23  1  0.69871665  0.06358781  0.68767582  1.0
  O  O24  1  1.44772045  1.64217314  1.56410166  1.0
  O  O25  1  0.67192852  0.60782686  0.30554731  1.0
  O  O26  1  0.39217314  0.69772045  1.06410166  1.0
  O  O27  1  1.11638120  1.55227955  1.19445269  1.0
  O  O28  1  1.30227955  1.36638120  1.69445269  1.0
  O  O29  1  1.07807148  0.88361880  0.43589834  1.0
  O  O30  1  1.35782686  0.92192852  0.80554731  1.0
  O  O31  1  0.63361880  0.32807148  0.93589834  1.0
  O  O32  1  1.50282259  1.81604429  1.37024633  1.0
  O  O33  1  1.30420204  1.43395571  1.18677829  1.0
  O  O34  1  1.56604429  0.75282259  0.87024633  1.0
  O  O35  1  0.86742374  1.49717741  1.31322171  1.0
  O  O36  1  1.24717741  1.11742374  0.81322171  1.0
  O  O37  1  1.44579796  1.13257626  0.62975367  1.0
  O  O38  1  1.18395571  0.55420204  0.68677829  1.0
  O  O39  1  0.88257626  1.69579796  1.12975367  1.0
  O  O40  1  0.55194312  0.40701391  0.50408764  1.0
  O  O41  1  0.84707373  0.84298609  0.64492921  1.0
  O  O42  1  1.15701391  1.80194312  1.00408764  1.0
  O  O43  1  0.95214452  0.44805688  0.85507079  1.0
  O  O44  1  1.19805688  1.20214452  1.35507079  1.0
  O  O45  1  0.90292627  1.04785548  1.49591236  1.0
  O  O46  1  0.59298609  1.09707373  1.14492921  1.0
  O  O47  1  1.79785548  1.15292627  0.99591236  1.0
  Ba  Ba48  1  0.50000000  0.50000000  0.00000000  1.0
  Ba  Ba49  1  1.25000000  0.75000000  0.50000000  1.0
  Ba  Ba50  1  0.00000000  0.00000000  0.00000000  1.0
  Ba  Ba51  1  0.75000000  0.25000000  0.50000000  1.0
