# generated using pymatgen
data_NaSnN
_symmetry_space_group_name_H-M   'P 1'
_cell_length_a   3.36913422
_cell_length_b   3.36913422
_cell_length_c   11.00870310
_cell_angle_alpha   90.00000000
_cell_angle_beta   90.00000000
_cell_angle_gamma   120.00000000
_symmetry_Int_Tables_number   1
_chemical_formula_structural   NaSnN
_chemical_formula_sum   'Na2 Sn2 N2'
_cell_volume   108.21897536
_cell_formula_units_Z   2
loop_
 _symmetry_equiv_pos_site_id
 _symmetry_equiv_pos_as_xyz
  1  'x, y, z'
loop_
 _atom_site_type_symbol
 _atom_site_label
 _atom_site_symmetry_multiplicity
 _atom_site_fract_x
 _atom_site_fract_y
 _atom_site_fract_z
 _atom_site_occupancy
  Na  Na0  1  0.33333333  0.66666667  0.24472149  1.0
  Na  Na1  1  0.66666667  0.33333333  0.74472149  1.0
  Sn  Sn2  1  0.00000000  0.00000000  0.00066695  1.0
  Sn  Sn3  1  0.00000000  0.00000000  0.50066695  1.0
  N  N4  1  0.33333333  0.66666667  0.59921156  1.0
  N  N5  1  0.66666667  0.33333333  0.09921156  1.0
