# generated using pymatgen
data_KP(HO)4
_symmetry_space_group_name_H-M   'P 1'
_cell_length_a   7.74548471
_cell_length_b   7.74548471
_cell_length_c   7.74548471
_cell_angle_alpha   102.29933138
_cell_angle_beta   102.29933138
_cell_angle_gamma   125.02697496
_symmetry_Int_Tables_number   1
_chemical_formula_structural   KP(HO)4
_chemical_formula_sum   'K2 P2 H8 O8'
_cell_volume   337.55862533
_cell_formula_units_Z   2
loop_
 _symmetry_equiv_pos_site_id
 _symmetry_equiv_pos_as_xyz
  1  'x, y, z'
loop_
 _atom_site_type_symbol
 _atom_site_label
 _atom_site_symmetry_multiplicity
 _atom_site_fract_x
 _atom_site_fract_y
 _atom_site_fract_z
 _atom_site_occupancy
  K  K0  1  0.50000000  0.50000000  0.00000000  1.0
  K  K1  1  1.25000000  0.75000000  0.50000000  1.0
  P  P2  1  0.00000000  0.00000000  0.00000000  1.0
  P  P3  1  0.75000000  1.25000000  0.50000000  1.0
  H  H4  1  0.94892405  0.92707413  0.68290547  1.0
  H  H5  1  0.80107595  0.98398141  0.47815008  1.0
  H  H6  1  0.67707413  1.19892405  1.18290547  1.0
  H  H7  1  1.07292587  1.75583133  1.02184992  1.0
  H  H8  1  0.50583133  0.32292587  0.52184992  1.0
  H  H9  1  0.24416867  0.26601859  0.31709453  1.0
  H  H10  1  0.73398141  1.05107595  0.97815008  1.0
  H  H11  1  1.01601859  1.49416867  0.81709453  1.0
  O  O12  1  1.07267976  1.03605185  0.82673898  1.0
  O  O13  1  0.67732024  1.00405921  0.46337209  1.0
  O  O14  1  0.78605185  1.32267976  1.32673898  1.0
  O  O15  1  0.96394815  1.79068712  1.03662791  1.0
  O  O16  1  0.54068712  0.21394815  0.53662791  1.0
  O  O17  1  1.20931288  1.24594079  1.17326102  1.0
  O  O18  1  1.75405921  0.92732024  0.96337209  1.0
  O  O19  1  0.99594079  1.45931288  0.67326102  1.0
