# generated using pymatgen
data_Gd2Se2O7
_symmetry_space_group_name_H-M   'P 1'
_cell_length_a   10.81156462
_cell_length_b   10.81156462
_cell_length_c   5.32901050
_cell_angle_alpha   90.00000000
_cell_angle_beta   90.00000000
_cell_angle_gamma   90.00000000
_symmetry_Int_Tables_number   1
_chemical_formula_structural   Gd2Se2O7
_chemical_formula_sum   'Gd8 Se8 O28'
_cell_volume   622.90766295
_cell_formula_units_Z   4
loop_
 _symmetry_equiv_pos_site_id
 _symmetry_equiv_pos_as_xyz
  1  'x, y, z'
loop_
 _atom_site_type_symbol
 _atom_site_label
 _atom_site_symmetry_multiplicity
 _atom_site_fract_x
 _atom_site_fract_y
 _atom_site_fract_z
 _atom_site_occupancy
  Gd  Gd0  1  0.62246081  0.37753919  0.75000000  1.0
  Gd  Gd1  1  0.62246081  0.62246081  0.25000000  1.0
  Gd  Gd2  1  0.37753919  0.37753919  0.25000000  1.0
  Gd  Gd3  1  0.37753919  0.62246081  0.75000000  1.0
  Gd  Gd4  1  0.87753919  0.12246081  0.75000000  1.0
  Gd  Gd5  1  0.12246081  0.12246081  0.25000000  1.0
  Gd  Gd6  1  0.87753919  0.87753919  0.25000000  1.0
  Gd  Gd7  1  0.12246081  0.87753919  0.75000000  1.0
  Se  Se8  1  0.87742175  0.37742175  0.21538108  1.0
  Se  Se9  1  0.87742175  0.62257825  0.71538108  1.0
  Se  Se10  1  0.12257825  0.37742175  0.71538108  1.0
  Se  Se11  1  0.12257825  0.62257825  0.21538108  1.0
  Se  Se12  1  0.62257825  0.12257825  0.28461892  1.0
  Se  Se13  1  0.62257825  0.87742175  0.78461892  1.0
  Se  Se14  1  0.37742175  0.12257825  0.78461892  1.0
  Se  Se15  1  0.37742175  0.87742175  0.28461892  1.0
  O  O16  1  0.00000000  0.00000000  0.00000000  1.0
  O  O17  1  0.00000000  0.00000000  0.50000000  1.0
  O  O18  1  0.50000000  0.50000000  0.00000000  1.0
  O  O19  1  0.50000000  0.50000000  0.50000000  1.0
  O  O20  1  0.81384465  0.31384465  0.94597428  1.0
  O  O21  1  0.81384465  0.68615535  0.44597428  1.0
  O  O22  1  0.18615535  0.31384465  0.44597428  1.0
  O  O23  1  0.18615535  0.68615535  0.94597428  1.0
  O  O24  1  0.68615535  0.18615535  0.55402572  1.0
  O  O25  1  0.68615535  0.81384465  0.05402572  1.0
  O  O26  1  0.31384465  0.18615535  0.05402572  1.0
  O  O27  1  0.31384465  0.81384465  0.55402572  1.0
  O  O28  1  0.42996630  0.25097735  0.62183347  1.0
  O  O29  1  0.42996630  0.74902265  0.12183347  1.0
  O  O30  1  0.57003370  0.25097735  0.12183347  1.0
  O  O31  1  0.57003370  0.74902265  0.62183347  1.0
  O  O32  1  0.75097735  0.92996630  0.62183347  1.0
  O  O33  1  0.24902265  0.92996630  0.12183347  1.0
  O  O34  1  0.75097735  0.07003370  0.12183347  1.0
  O  O35  1  0.24902265  0.07003370  0.62183347  1.0
  O  O36  1  0.07003370  0.24902265  0.87816653  1.0
  O  O37  1  0.07003370  0.75097735  0.37816653  1.0
  O  O38  1  0.92996630  0.24902265  0.37816653  1.0
  O  O39  1  0.92996630  0.75097735  0.87816653  1.0
  O  O40  1  0.74902265  0.57003370  0.87816653  1.0
  O  O41  1  0.25097735  0.57003370  0.37816653  1.0
  O  O42  1  0.74902265  0.42996630  0.37816653  1.0
  O  O43  1  0.25097735  0.42996630  0.87816653  1.0
