# generated using pymatgen
data_Ba2Ca(BO2)6
_symmetry_space_group_name_H-M   'P 1'
_cell_length_a   12.88650138
_cell_length_b   12.88650138
_cell_length_c   12.88650138
_cell_angle_alpha   32.47878523
_cell_angle_beta   32.47878523
_cell_angle_gamma   32.47878523
_symmetry_Int_Tables_number   1
_chemical_formula_structural   Ba2Ca(BO2)6
_chemical_formula_sum   'Ba4 Ca2 B12 O24'
_cell_volume   548.67743517
_cell_formula_units_Z   2
loop_
 _symmetry_equiv_pos_site_id
 _symmetry_equiv_pos_as_xyz
  1  'x, y, z'
loop_
 _atom_site_type_symbol
 _atom_site_label
 _atom_site_symmetry_multiplicity
 _atom_site_fract_x
 _atom_site_fract_y
 _atom_site_fract_z
 _atom_site_occupancy
  Ba  Ba0  1  0.85235216  -0.14764784  -0.14764784  1.0
  Ba  Ba1  1  0.35235216  0.35235216  0.35235216  1.0
  Ba  Ba2  1  0.64764784  0.64764784  -0.35235216  1.0
  Ba  Ba3  1  1.14764784  0.14764784  0.14764784  1.0
  Ca  Ca4  1  0.75000000  0.75000000  -0.25000000  1.0
  Ca  Ca5  1  0.25000000  0.25000000  0.25000000  1.0
  B  B6  1  0.74035237  0.12991350  0.00451433  1.0
  B  B7  1  1.24035237  0.50451433  -0.37008650  1.0
  B  B8  1  0.49548567  0.37008650  -0.24035237  1.0
  B  B9  1  0.99548567  0.25964763  -0.12991350  1.0
  B  B10  1  0.87008650  -0.00451433  0.25964763  1.0
  B  B11  1  0.37008650  0.75964763  -0.50451433  1.0
  B  B12  1  1.25964763  -0.12991350  -0.00451433  1.0
  B  B13  1  0.75964763  0.49548567  -0.62991350  1.0
  B  B14  1  1.00451433  -0.25964763  0.12991350  1.0
  B  B15  1  0.50451433  0.62991350  0.24035237  1.0
  B  B16  1  0.62991350  1.24035237  -0.49548567  1.0
  B  B17  1  1.12991350  0.00451433  -0.25964763  1.0
  O  O18  1  0.91308660  0.16837910  -0.20908642  1.0
  O  O19  1  1.41308660  0.29091358  -0.33162090  1.0
  O  O20  1  0.70908642  0.33162090  -0.41308660  1.0
  O  O21  1  1.20908642  0.08691340  -0.16837910  1.0
  O  O22  1  0.83162090  0.20908642  0.08691340  1.0
  O  O23  1  0.33162090  0.58691340  -0.29091358  1.0
  O  O24  1  1.08691340  -0.16837910  0.20908642  1.0
  O  O25  1  0.58691340  0.70908642  -0.66837910  1.0
  O  O26  1  0.79091358  -0.08691340  0.16837910  1.0
  O  O27  1  1.29091358  -0.33162090  0.41308660  1.0
  O  O28  1  0.66837910  0.41308660  0.29091358  1.0
  O  O29  1  1.16837910  -0.20908642  -0.08691340  1.0
  O  O30  1  0.54383283  0.79460515  0.04219599  1.0
  O  O31  1  1.04383283  0.54219599  -0.70539485  1.0
  O  O32  1  0.45780401  0.70539485  -0.04383283  1.0
  O  O33  1  0.95780401  -0.54383283  0.20539485  1.0
  O  O34  1  1.20539485  -0.04219599  -0.54383283  1.0
  O  O35  1  0.70539485  0.95616717  -0.54219599  1.0
  O  O36  1  0.45616717  0.20539485  -0.04219599  1.0
  O  O37  1  0.95616717  0.45780401  -0.29460515  1.0
  O  O38  1  1.04219599  0.54383283  -0.20539485  1.0
  O  O39  1  0.54219599  0.29460515  0.04383283  1.0
  O  O40  1  0.29460515  1.04383283  -0.45780401  1.0
  O  O41  1  0.79460515  1.04219599  -0.45616717  1.0
