# generated using pymatgen
data_Sr3Nb5O15
_symmetry_space_group_name_H-M   'P 1'
_cell_length_a   12.55914118
_cell_length_b   12.55914118
_cell_length_c   3.97226031
_cell_angle_alpha   90.00000000
_cell_angle_beta   90.00000000
_cell_angle_gamma   90.00000000
_symmetry_Int_Tables_number   1
_chemical_formula_structural   Sr3Nb5O15
_chemical_formula_sum   'Sr6 Nb10 O30'
_cell_volume   626.55267127
_cell_formula_units_Z   2
loop_
 _symmetry_equiv_pos_site_id
 _symmetry_equiv_pos_as_xyz
  1  'x, y, z'
loop_
 _atom_site_type_symbol
 _atom_site_label
 _atom_site_symmetry_multiplicity
 _atom_site_fract_x
 _atom_site_fract_y
 _atom_site_fract_z
 _atom_site_occupancy
  Sr  Sr0  1  0.83777254  0.66222746  0.00063540  1.0
  Sr  Sr1  1  0.33777254  0.83777254  0.00063540  1.0
  Sr  Sr2  1  0.16222746  0.33777254  0.00063540  1.0
  Sr  Sr3  1  0.66222746  0.16222746  0.00063540  1.0
  Sr  Sr4  1  0.50000000  0.50000000  0.00042068  1.0
  Sr  Sr5  1  0.00000000  0.00000000  0.00042068  1.0
  Nb  Nb6  1  0.29036559  0.58184892  0.50031311  1.0
  Nb  Nb7  1  0.79036559  0.91815108  0.50031311  1.0
  Nb  Nb8  1  0.41815108  0.29036559  0.50031311  1.0
  Nb  Nb9  1  0.91815108  0.20963441  0.50031311  1.0
  Nb  Nb10  1  0.70963441  0.41815108  0.50031311  1.0
  Nb  Nb11  1  0.20963441  0.08184892  0.50031311  1.0
  Nb  Nb12  1  0.58184892  0.70963441  0.50031311  1.0
  Nb  Nb13  1  0.08184892  0.79036559  0.50031311  1.0
  Nb  Nb14  1  0.00000000  0.50000000  0.50063731  1.0
  Nb  Nb15  1  0.50000000  0.00000000  0.50063731  1.0
  O  O16  1  0.00000000  0.50000000  1.00048274  1.0
  O  O17  1  0.50000000  0.00000000  1.00048274  1.0
  O  O18  1  0.49182618  0.84100258  0.50048942  1.0
  O  O19  1  0.99182618  0.65899742  0.50048942  1.0
  O  O20  1  0.15899742  0.49182618  0.50048942  1.0
  O  O21  1  0.65899742  0.00817382  0.50048942  1.0
  O  O22  1  0.50817382  0.15899742  0.50048942  1.0
  O  O23  1  0.00817382  0.34100258  0.50048942  1.0
  O  O24  1  0.84100258  0.50817382  0.50048942  1.0
  O  O25  1  0.34100258  0.99182618  0.50048942  1.0
  O  O26  1  0.43737976  0.63572871  0.50025604  1.0
  O  O27  1  0.93737976  0.86427129  0.50025604  1.0
  O  O28  1  0.36427129  0.43737976  0.50025604  1.0
  O  O29  1  0.86427129  0.06262024  0.50025604  1.0
  O  O30  1  0.56262024  0.36427129  0.50025604  1.0
  O  O31  1  0.06262024  0.13572871  0.50025604  1.0
  O  O32  1  0.63572871  0.56262024  0.50025604  1.0
  O  O33  1  0.13572871  0.93737976  0.50025604  1.0
  O  O34  1  0.29413530  0.58288535  0.00033779  1.0
  O  O35  1  0.79413530  0.91711465  0.00033779  1.0
  O  O36  1  0.41711465  0.29413530  0.00033779  1.0
  O  O37  1  0.91711465  0.20586470  0.00033779  1.0
  O  O38  1  0.70586470  0.41711465  0.00033779  1.0
  O  O39  1  0.20586470  0.08288535  0.00033779  1.0
  O  O40  1  0.58288535  0.70586470  0.00033779  1.0
  O  O41  1  0.08288535  0.79413530  0.00033779  1.0
  O  O42  1  0.26823483  0.23176517  0.50030153  1.0
  O  O43  1  0.76823483  0.26823483  0.50030153  1.0
  O  O44  1  0.73176517  0.76823483  0.50030153  1.0
  O  O45  1  0.23176517  0.73176517  0.50030153  1.0
