# generated using pymatgen
data_Al4Si2C5
_symmetry_space_group_name_H-M   'P 1'
_cell_length_a   13.60001296
_cell_length_b   13.60001296
_cell_length_c   13.60001296
_cell_angle_alpha   13.75227544
_cell_angle_beta   13.75227544
_cell_angle_gamma   13.75227544
_symmetry_Int_Tables_number   1
_chemical_formula_structural   Al4Si2C5
_chemical_formula_sum   'Al4 Si2 C5'
_cell_volume   123.70186722
_cell_formula_units_Z   1
loop_
 _symmetry_equiv_pos_site_id
 _symmetry_equiv_pos_as_xyz
  1  'x, y, z'
loop_
 _atom_site_type_symbol
 _atom_site_label
 _atom_site_symmetry_multiplicity
 _atom_site_fract_x
 _atom_site_fract_y
 _atom_site_fract_z
 _atom_site_occupancy
  Al  Al0  1  0.81020328  0.81020328  0.81020328  1.0
  Al  Al1  1  1.18979672  1.18979672  0.18979672  1.0
  Al  Al2  1  0.69161046  0.69161046  0.69161046  1.0
  Al  Al3  1  1.30838954  1.30838954  0.30838954  1.0
  Si  Si4  1  0.91144288  0.91144288  0.91144288  1.0
  Si  Si5  1  1.08855712  1.08855712  0.08855712  1.0
  C  C6  1  0.74025702  0.74025702  0.74025702  1.0
  C  C7  1  1.25974298  1.25974298  0.25974298  1.0
  C  C8  1  0.86514288  0.86514288  0.86514288  1.0
  C  C9  1  1.13485712  1.13485712  0.13485712  1.0
  C  C10  1  0.00000000  0.00000000  0.00000000  1.0
