# generated using pymatgen
data_GdRh3
_symmetry_space_group_name_H-M   'P 1'
_cell_length_a   5.27237194
_cell_length_b   5.27237194
_cell_length_c   17.53182350
_cell_angle_alpha   90.00000000
_cell_angle_beta   90.00000000
_cell_angle_gamma   120.00000000
_symmetry_Int_Tables_number   1
_chemical_formula_structural   GdRh3
_chemical_formula_sum   'Gd6 Rh18'
_cell_volume   422.05573046
_cell_formula_units_Z   6
loop_
 _symmetry_equiv_pos_site_id
 _symmetry_equiv_pos_as_xyz
  1  'x, y, z'
loop_
 _atom_site_type_symbol
 _atom_site_label
 _atom_site_symmetry_multiplicity
 _atom_site_fract_x
 _atom_site_fract_y
 _atom_site_fract_z
 _atom_site_occupancy
  Gd  Gd0  1  0.33333333  0.66666667  0.95797469  1.0
  Gd  Gd1  1  0.33333333  0.66666667  0.54202531  1.0
  Gd  Gd2  1  0.66666667  0.33333333  0.45797469  1.0
  Gd  Gd3  1  0.66666667  0.33333333  0.04202531  1.0
  Gd  Gd4  1  0.33333333  0.66666667  0.75000000  1.0
  Gd  Gd5  1  0.66666667  0.33333333  0.25000000  1.0
  Rh  Rh6  1  0.16710637  0.83289363  0.37339671  1.0
  Rh  Rh7  1  0.16710637  0.83289363  0.12660329  1.0
  Rh  Rh8  1  0.16710637  0.33421274  0.37339671  1.0
  Rh  Rh9  1  0.16710637  0.33421274  0.12660329  1.0
  Rh  Rh10  1  0.83289363  0.16710637  0.87339671  1.0
  Rh  Rh11  1  0.83289363  0.16710637  0.62660329  1.0
  Rh  Rh12  1  0.83289363  0.66578726  0.87339671  1.0
  Rh  Rh13  1  0.83289363  0.66578726  0.62660329  1.0
  Rh  Rh14  1  0.66578726  0.83289363  0.37339671  1.0
  Rh  Rh15  1  0.66578726  0.83289363  0.12660329  1.0
  Rh  Rh16  1  0.33421274  0.16710637  0.87339671  1.0
  Rh  Rh17  1  0.33421274  0.16710637  0.62660329  1.0
  Rh  Rh18  1  0.33333333  0.66666667  0.25000000  1.0
  Rh  Rh19  1  0.66666667  0.33333333  0.75000000  1.0
  Rh  Rh20  1  0.00000000  0.00000000  0.25000000  1.0
  Rh  Rh21  1  0.00000000  0.00000000  0.75000000  1.0
  Rh  Rh22  1  0.00000000  0.00000000  0.50000000  1.0
  Rh  Rh23  1  0.00000000  0.00000000  0.00000000  1.0
