# generated using pymatgen
data_Na3SrPCO7
_symmetry_space_group_name_H-M   'P 1'
_cell_length_a   5.33982241
_cell_length_b   7.25561464
_cell_length_c   9.41699572
_cell_angle_alpha   90.00000000
_cell_angle_beta   88.86058349
_cell_angle_gamma   90.00000000
_symmetry_Int_Tables_number   1
_chemical_formula_structural   Na3SrPCO7
_chemical_formula_sum   'Na6 Sr2 P2 C2 O14'
_cell_volume   364.77705522
_cell_formula_units_Z   2
loop_
 _symmetry_equiv_pos_site_id
 _symmetry_equiv_pos_as_xyz
  1  'x, y, z'
loop_
 _atom_site_type_symbol
 _atom_site_label
 _atom_site_symmetry_multiplicity
 _atom_site_fract_x
 _atom_site_fract_y
 _atom_site_fract_z
 _atom_site_occupancy
  Na  Na0  1  0.46418449  0.24450104  0.82737748  1.0
  Na  Na1  1  0.53581551  0.74450104  0.17262252  1.0
  Na  Na2  1  1.00122577  0.49744637  0.99886919  1.0
  Na  Na3  1  -0.00122577  0.99744637  0.00113081  1.0
  Na  Na4  1  0.50133641  -0.00476906  0.50212512  1.0
  Na  Na5  1  0.49866359  0.49523094  0.49787488  1.0
  Sr  Sr6  1  0.99690797  0.24900662  0.29785131  1.0
  Sr  Sr7  1  0.00309203  0.74900662  0.70214869  1.0
  P  P8  1  1.00772235  0.24818239  0.66447818  1.0
  P  P9  1  -0.00772235  0.74818239  0.33552182  1.0
  C  C10  1  0.50159741  0.75062188  0.86858517  1.0
  C  C11  1  0.49840259  0.25062188  0.13141483  1.0
  O  O12  1  0.50426325  0.25583043  0.26942153  1.0
  O  O13  1  0.49573675  0.75583043  0.73057847  1.0
  O  O14  1  0.28193290  0.24716398  0.06911984  1.0
  O  O15  1  0.71806710  0.74716398  0.93088016  1.0
  O  O16  1  0.07071724  0.42245894  0.75495781  1.0
  O  O17  1  0.92928276  0.92245894  0.24504219  1.0
  O  O18  1  0.72964066  0.24992716  0.61602472  1.0
  O  O19  1  0.27035934  0.74992716  0.38397528  1.0
  O  O20  1  0.70328040  0.24875106  0.05507464  1.0
  O  O21  1  0.29671960  0.74875106  0.94492536  1.0
  O  O22  1  0.18637019  0.24424748  0.53067269  1.0
  O  O23  1  0.81362981  0.74424748  0.46932731  1.0
  O  O24  1  -0.06323426  0.57563172  0.24167856  1.0
  O  O25  1  1.06323426  0.07563172  0.75832144  1.0
