# generated using pymatgen
data_Ba2Y2Co4O11
_symmetry_space_group_name_H-M   'P 1'
_cell_length_a   3.75597231
_cell_length_b   7.47356312
_cell_length_c   8.02200574
_cell_angle_alpha   90.00000000
_cell_angle_beta   90.00000000
_cell_angle_gamma   90.00000000
_symmetry_Int_Tables_number   1
_chemical_formula_structural   Ba2Y2Co4O11
_chemical_formula_sum   'Ba2 Y2 Co4 O11'
_cell_volume   225.18168105
_cell_formula_units_Z   1
loop_
 _symmetry_equiv_pos_site_id
 _symmetry_equiv_pos_as_xyz
  1  'x, y, z'
loop_
 _atom_site_type_symbol
 _atom_site_label
 _atom_site_symmetry_multiplicity
 _atom_site_fract_x
 _atom_site_fract_y
 _atom_site_fract_z
 _atom_site_occupancy
  Ba  Ba0  1  0.50000000  0.00000000  0.74498575  1.0
  Ba  Ba1  1  0.50000000  0.00000000  0.25501425  1.0
  Y  Y2  1  0.50000000  0.50000000  0.77058146  1.0
  Y  Y3  1  0.50000000  0.50000000  0.22941854  1.0
  Co  Co4  1  0.00000000  0.73986817  0.50000000  1.0
  Co  Co5  1  -0.00000000  0.26013183  0.50000000  1.0
  Co  Co6  1  -0.00000000  0.75049059  0.00000000  1.0
  Co  Co7  1  0.00000000  0.24950941  0.00000000  1.0
  O  O8  1  0.00000000  0.70082976  0.73334433  1.0
  O  O9  1  -0.00000000  0.70082976  0.26665567  1.0
  O  O10  1  -0.00000000  0.29917024  0.73334433  1.0
  O  O11  1  0.00000000  0.29917024  0.26665567  1.0
  O  O12  1  0.50000000  0.68814641  0.50000000  1.0
  O  O13  1  0.50000000  0.31185359  0.50000000  1.0
  O  O14  1  0.50000000  0.72734525  -0.00000000  1.0
  O  O15  1  0.50000000  0.27265475  -0.00000000  1.0
  O  O16  1  0.00000000  0.50000000  0.00000000  1.0
  O  O17  1  0.00000000  0.00000000  0.50000000  1.0
  O  O18  1  0.00000000  0.00000000  0.00000000  1.0
