# generated using pymatgen
data_Fe2NiSe4
_symmetry_space_group_name_H-M   'P 1'
_cell_length_a   6.47997484
_cell_length_b   6.47997484
_cell_length_c   6.12393787
_cell_angle_alpha   62.96399142
_cell_angle_beta   117.03600858
_cell_angle_gamma   148.65395547
_symmetry_Int_Tables_number   1
_chemical_formula_structural   Fe2NiSe4
_chemical_formula_sum   'Fe2 Ni1 Se4'
_cell_volume   117.92230899
_cell_formula_units_Z   1
loop_
 _symmetry_equiv_pos_site_id
 _symmetry_equiv_pos_as_xyz
  1  'x, y, z'
loop_
 _atom_site_type_symbol
 _atom_site_label
 _atom_site_symmetry_multiplicity
 _atom_site_fract_x
 _atom_site_fract_y
 _atom_site_fract_z
 _atom_site_occupancy
  Fe  Fe0  1  0.74565863  -0.74565863  0.70012535  1.0
  Fe  Fe1  1  1.25434137  -0.25434137  0.29987465  1.0
  Ni  Ni2  1  0.00000000  0.00000000  0.00000000  1.0
  Se  Se3  1  0.88831632  -0.88831632  0.54810414  1.0
  Se  Se4  1  1.11168368  -0.11168368  0.45189586  1.0
  Se  Se5  1  0.63959139  -0.63959139  0.97964094  1.0
  Se  Se6  1  1.36040861  -0.36040861  0.02035906  1.0
