# generated using pymatgen
data_Li5Tl2
_symmetry_space_group_name_H-M   'P 1'
_cell_length_a   7.36410311
_cell_length_b   7.36410311
_cell_length_c   7.36410311
_cell_angle_alpha   37.47014177
_cell_angle_beta   37.47014177
_cell_angle_gamma   37.47014177
_symmetry_Int_Tables_number   1
_chemical_formula_structural   Li5Tl2
_chemical_formula_sum   'Li5 Tl2'
_cell_volume   132.54025334
_cell_formula_units_Z   1
loop_
 _symmetry_equiv_pos_site_id
 _symmetry_equiv_pos_as_xyz
  1  'x, y, z'
loop_
 _atom_site_type_symbol
 _atom_site_label
 _atom_site_symmetry_multiplicity
 _atom_site_fract_x
 _atom_site_fract_y
 _atom_site_fract_z
 _atom_site_occupancy
  Li  Li0  1  0.85452740  0.85452740  0.85452740  1.0
  Li  Li1  1  1.14547260  1.14547260  0.14547260  1.0
  Li  Li2  1  0.71354149  0.71354149  0.71354149  1.0
  Li  Li3  1  1.28645851  1.28645851  0.28645851  1.0
  Li  Li4  1  0.00000000  0.00000000  0.00000000  1.0
  Tl  Tl5  1  1.57535049  0.57535049  0.57535049  1.0
  Tl  Tl6  1  1.42464951  0.42464951  0.42464951  1.0
