# generated using pymatgen
data_Ta3S2
_symmetry_space_group_name_H-M   'P 1'
_cell_length_a   9.12226579
_cell_length_b   9.12226579
_cell_length_c   7.51587996
_cell_angle_alpha   90.00000000
_cell_angle_beta   90.00000000
_cell_angle_gamma   36.00274980
_symmetry_Int_Tables_number   1
_chemical_formula_structural   Ta3S2
_chemical_formula_sum   'Ta12 S8'
_cell_volume   367.64837483
_cell_formula_units_Z   4
loop_
 _symmetry_equiv_pos_site_id
 _symmetry_equiv_pos_as_xyz
  1  'x, y, z'
loop_
 _atom_site_type_symbol
 _atom_site_label
 _atom_site_symmetry_multiplicity
 _atom_site_fract_x
 _atom_site_fract_y
 _atom_site_fract_z
 _atom_site_occupancy
  Ta  Ta0  1  0.48455811  1.01544189  0.99474679  1.0
  Ta  Ta1  1  -0.01544189  1.51544189  0.00525321  1.0
  Ta  Ta2  1  0.31290932  1.35368185  0.71913277  1.0
  Ta  Ta3  1  0.14631815  1.18709068  0.71913277  1.0
  Ta  Ta4  1  0.81290932  0.85368185  0.28086723  1.0
  Ta  Ta5  1  0.64631815  0.68709068  0.28086723  1.0
  Ta  Ta6  1  0.87784909  0.90663158  0.89509468  1.0
  Ta  Ta7  1  0.59336842  0.62215091  0.89509468  1.0
  Ta  Ta8  1  0.37784909  1.40663158  0.10490532  1.0
  Ta  Ta9  1  0.09336842  1.12215091  0.10490532  1.0
  Ta  Ta10  1  0.75015565  0.74984435  0.65582276  1.0
  Ta  Ta11  1  0.25015565  1.24984435  0.34417724  1.0
  S  S12  1  0.49238911  1.27453029  0.41612029  1.0
  S  S13  1  0.22546971  1.00761089  0.41612029  1.0
  S  S14  1  -0.00761089  1.77453029  0.58387971  1.0
  S  S15  1  -0.27453029  1.50761089  0.58387971  1.0
  S  S16  1  0.56986010  1.34947767  0.82799776  1.0
  S  S17  1  0.15052233  0.93013990  0.82799776  1.0
  S  S18  1  0.06986010  1.84947767  0.17200224  1.0
  S  S19  1  -0.34947767  1.43013990  0.17200224  1.0
