# generated using pymatgen
data_Ba2NbCrO6
_symmetry_space_group_name_H-M   'P 1'
_cell_length_a   5.78403101
_cell_length_b   5.78403101
_cell_length_c   18.98618030
_cell_angle_alpha   90.00000000
_cell_angle_beta   90.00000000
_cell_angle_gamma   120.00000000
_symmetry_Int_Tables_number   1
_chemical_formula_structural   Ba2NbCrO6
_chemical_formula_sum   'Ba8 Nb4 Cr4 O24'
_cell_volume   550.08456323
_cell_formula_units_Z   4
loop_
 _symmetry_equiv_pos_site_id
 _symmetry_equiv_pos_as_xyz
  1  'x, y, z'
loop_
 _atom_site_type_symbol
 _atom_site_label
 _atom_site_symmetry_multiplicity
 _atom_site_fract_x
 _atom_site_fract_y
 _atom_site_fract_z
 _atom_site_occupancy
  Ba  Ba0  1  0.33333333  0.66666667  0.35922134  1.0
  Ba  Ba1  1  0.33333333  0.66666667  0.14077866  1.0
  Ba  Ba2  1  0.66666667  0.33333333  0.85922134  1.0
  Ba  Ba3  1  0.66666667  0.33333333  0.64077866  1.0
  Ba  Ba4  1  0.33333333  0.66666667  0.75000000  1.0
  Ba  Ba5  1  0.66666667  0.33333333  0.25000000  1.0
  Ba  Ba6  1  0.00000000  0.00000000  0.50000000  1.0
  Ba  Ba7  1  0.00000000  0.00000000  0.00000000  1.0
  Nb  Nb8  1  0.33333333  0.66666667  0.93573954  1.0
  Nb  Nb9  1  0.33333333  0.66666667  0.56426046  1.0
  Nb  Nb10  1  0.66666667  0.33333333  0.43573954  1.0
  Nb  Nb11  1  0.66666667  0.33333333  0.06426046  1.0
  Cr  Cr12  1  0.00000000  0.00000000  0.31859550  1.0
  Cr  Cr13  1  0.00000000  0.00000000  0.18140450  1.0
  Cr  Cr14  1  0.00000000  0.00000000  0.81859550  1.0
  Cr  Cr15  1  0.00000000  0.00000000  0.68140450  1.0
  O  O16  1  0.16916250  0.83083750  0.87857570  1.0
  O  O17  1  0.16916250  0.83083750  0.62142430  1.0
  O  O18  1  0.16916250  0.33832500  0.87857570  1.0
  O  O19  1  0.16916250  0.33832500  0.62142430  1.0
  O  O20  1  0.83083750  0.16916250  0.37857570  1.0
  O  O21  1  0.83083750  0.16916250  0.12142430  1.0
  O  O22  1  0.83083750  0.66167500  0.37857570  1.0
  O  O23  1  0.83083750  0.66167500  0.12142430  1.0
  O  O24  1  0.66167500  0.83083750  0.87857570  1.0
  O  O25  1  0.66167500  0.83083750  0.62142430  1.0
  O  O26  1  0.33832500  0.16916250  0.37857570  1.0
  O  O27  1  0.33832500  0.16916250  0.12142430  1.0
  O  O28  1  0.14815943  0.85184057  0.25000000  1.0
  O  O29  1  0.14815943  0.29631886  0.25000000  1.0
  O  O30  1  0.85184057  0.14815943  0.75000000  1.0
  O  O31  1  0.85184057  0.70368114  0.75000000  1.0
  O  O32  1  0.70368114  0.85184057  0.25000000  1.0
  O  O33  1  0.29631886  0.14815943  0.75000000  1.0
  O  O34  1  0.50000000  0.50000000  0.50000000  1.0
  O  O35  1  0.50000000  0.50000000  0.00000000  1.0
  O  O36  1  0.50000000  0.00000000  0.50000000  1.0
  O  O37  1  0.50000000  0.00000000  0.00000000  1.0
  O  O38  1  -0.00000000  0.50000000  0.50000000  1.0
  O  O39  1  -0.00000000  0.50000000  0.00000000  1.0
