# generated using pymatgen
data_Zn(GaS2)2
_symmetry_space_group_name_H-M   'P 1'
_cell_length_a   6.58692690
_cell_length_b   6.58692690
_cell_length_c   6.58692690
_cell_angle_alpha   133.10796596
_cell_angle_beta   133.10796596
_cell_angle_gamma   68.48464468
_symmetry_Int_Tables_number   1
_chemical_formula_structural   Zn(GaS2)2
_chemical_formula_sum   'Zn1 Ga2 S4'
_cell_volume   149.60736514
_cell_formula_units_Z   1
loop_
 _symmetry_equiv_pos_site_id
 _symmetry_equiv_pos_as_xyz
  1  'x, y, z'
loop_
 _atom_site_type_symbol
 _atom_site_label
 _atom_site_symmetry_multiplicity
 _atom_site_fract_x
 _atom_site_fract_y
 _atom_site_fract_z
 _atom_site_occupancy
  Zn  Zn0  1  0.00000000  0.00000000  0.00000000  1.0
  Ga  Ga1  1  0.25000000  0.75000000  0.50000000  1.0
  Ga  Ga2  1  0.75000000  0.25000000  0.50000000  1.0
  S  S3  1  0.38428538  0.86060623  1.00000000  1.0
  S  S4  1  1.13939377  1.13939377  1.52367915  1.0
  S  S5  1  0.61571462  0.61571462  0.47632085  1.0
  S  S6  1  0.86060623  0.38428538  1.00000000  1.0
