# generated using pymatgen
data_Rb2SbCl3F2
_symmetry_space_group_name_H-M   'P 1'
_cell_length_a   13.41934529
_cell_length_b   7.65591606
_cell_length_c   7.64601026
_cell_angle_alpha   119.21185371
_cell_angle_beta   101.02736062
_cell_angle_gamma   84.53629582
_symmetry_Int_Tables_number   1
_chemical_formula_structural   Rb2SbCl3F2
_chemical_formula_sum   'Rb6 Sb3 Cl9 F6'
_cell_volume   672.96705227
_cell_formula_units_Z   3
loop_
 _symmetry_equiv_pos_site_id
 _symmetry_equiv_pos_as_xyz
  1  'x, y, z'
loop_
 _atom_site_type_symbol
 _atom_site_label
 _atom_site_symmetry_multiplicity
 _atom_site_fract_x
 _atom_site_fract_y
 _atom_site_fract_z
 _atom_site_occupancy
  Rb  Rb0  1  -0.31607033  -1.00093609  0.89879608  1.0
  Rb  Rb1  1  -0.68392967  0.00093609  0.10120392  1.0
  Rb  Rb2  1  -0.91065902  -0.66867179  0.69322582  1.0
  Rb  Rb3  1  -0.08934098  -0.33132821  0.30677418  1.0
  Rb  Rb4  1  -0.30516213  -0.66237634  0.56446120  1.0
  Rb  Rb5  1  -0.69483787  -0.33762366  0.43553880  1.0
  Sb  Sb6  1  -0.60300155  -0.66589810  0.79934359  1.0
  Sb  Sb7  1  -0.39699845  -0.33410190  0.20065641  1.0
  Sb  Sb8  1  0.00000000  0.00000000  0.00000000  1.0
  Cl  Cl9  1  -0.11743262  -0.89867256  0.73787329  1.0
  Cl  Cl10  1  -0.88256738  -0.10132744  0.26212671  1.0
  Cl  Cl11  1  -0.88436277  -0.67665857  0.13902024  1.0
  Cl  Cl12  1  -0.11563723  -0.32334143  0.86097976  1.0
  Cl  Cl13  1  -0.50146847  -0.31984902  0.81706722  1.0
  Cl  Cl14  1  -0.49853153  -0.68015098  0.18293278  1.0
  Cl  Cl15  1  -0.88394552  -0.21965651  0.71595864  1.0
  Cl  Cl16  1  -0.11605448  -0.78034349  0.28404136  1.0
  Cl  Cl17  1  -0.50000000  -0.00000000  0.50000000  1.0
  F  F18  1  -0.69581383  -0.87296404  0.77033277  1.0
  F  F19  1  -0.30418617  -0.12703596  0.22966723  1.0
  F  F20  1  -0.69670880  -0.66056037  0.56322983  1.0
  F  F21  1  -0.30329120  -0.33943963  0.43677017  1.0
  F  F22  1  -0.69095165  -0.45300464  0.98579905  1.0
  F  F23  1  -0.30904835  -0.54699536  0.01420095  1.0
