# generated using pymatgen
data_Nb4Co4Si7
_symmetry_space_group_name_H-M   'P 1'
_cell_length_a   9.22434123
_cell_length_b   9.22434123
_cell_length_c   9.22434123
_cell_angle_alpha   94.19023462
_cell_angle_beta   94.19023462
_cell_angle_gamma   148.63441258
_symmetry_Int_Tables_number   1
_chemical_formula_structural   Nb4Co4Si7
_chemical_formula_sum   'Nb8 Co8 Si14'
_cell_volume   393.32187639
_cell_formula_units_Z   2
loop_
 _symmetry_equiv_pos_site_id
 _symmetry_equiv_pos_as_xyz
  1  'x, y, z'
loop_
 _atom_site_type_symbol
 _atom_site_label
 _atom_site_symmetry_multiplicity
 _atom_site_fract_x
 _atom_site_fract_y
 _atom_site_fract_z
 _atom_site_occupancy
  Nb  Nb0  1  0.00000000  0.80881037  0.80881037  1.0
  Nb  Nb1  1  0.80881037  1.00000000  0.80881037  1.0
  Nb  Nb2  1  1.19118963  1.00000000  1.19118963  1.0
  Nb  Nb3  1  0.00000000  0.19118963  0.19118963  1.0
  Nb  Nb4  1  0.63408563  0.63408563  0.26817125  1.0
  Nb  Nb5  1  1.36591437  0.63408563  1.00000000  1.0
  Nb  Nb6  1  0.63408563  0.36591437  1.00000000  1.0
  Nb  Nb7  1  0.36591437  0.36591437  0.73182875  1.0
  Co  Co8  1  1.10123269  0.60123269  1.20246539  1.0
  Co  Co9  1  1.60123269  1.10123269  1.20246539  1.0
  Co  Co10  1  0.39876731  0.60123269  0.50000000  1.0
  Co  Co11  1  0.89876731  1.10123269  0.50000000  1.0
  Co  Co12  1  1.10123269  0.89876731  1.50000000  1.0
  Co  Co13  1  1.60123269  1.39876731  1.50000000  1.0
  Co  Co14  1  0.39876731  0.89876731  0.79753461  1.0
  Co  Co15  1  0.89876731  1.39876731  0.79753461  1.0
  Si  Si16  1  0.50000000  0.79695094  0.29695094  1.0
  Si  Si17  1  0.79695094  0.50000000  1.29695094  1.0
  Si  Si18  1  0.20304906  0.50000000  0.70304906  1.0
  Si  Si19  1  0.50000000  1.20304906  0.70304906  1.0
  Si  Si20  1  0.00000000  0.59432515  0.59432515  1.0
  Si  Si21  1  0.59432515  1.00000000  0.59432515  1.0
  Si  Si22  1  1.40567485  1.00000000  1.40567485  1.0
  Si  Si23  1  0.00000000  0.40567485  0.40567485  1.0
  Si  Si24  1  0.79161350  0.79161350  0.58322699  1.0
  Si  Si25  1  1.20838650  0.79161350  1.00000000  1.0
  Si  Si26  1  0.79161350  0.20838650  1.00000000  1.0
  Si  Si27  1  0.20838650  0.20838650  0.41677301  1.0
  Si  Si28  1  0.74911912  0.74911912  -0.00000000  1.0
  Si  Si29  1  0.25088088  0.25088088  -0.00000000  1.0
