# generated using pymatgen
data_RbZnH2Se2ClO6
_symmetry_space_group_name_H-M   'P 1'
_cell_length_a   6.55941288
_cell_length_b   6.28728346
_cell_length_c   10.89349745
_cell_angle_alpha   90.00000000
_cell_angle_beta   102.97154447
_cell_angle_gamma   90.00000000
_symmetry_Int_Tables_number   1
_chemical_formula_structural   RbZnH2Se2ClO6
_chemical_formula_sum   'Rb2 Zn2 H4 Se4 Cl2 O12'
_cell_volume   437.79320608
_cell_formula_units_Z   2
loop_
 _symmetry_equiv_pos_site_id
 _symmetry_equiv_pos_as_xyz
  1  'x, y, z'
loop_
 _atom_site_type_symbol
 _atom_site_label
 _atom_site_symmetry_multiplicity
 _atom_site_fract_x
 _atom_site_fract_y
 _atom_site_fract_z
 _atom_site_occupancy
  Rb  Rb0  1  0.50000000  0.15835612  0.25000000  1.0
  Rb  Rb1  1  0.50000000  0.84164388  0.75000000  1.0
  Zn  Zn2  1  0.00000000  0.56494485  0.25000000  1.0
  Zn  Zn3  1  0.00000000  0.43505515  0.75000000  1.0
  H  H4  1  0.56484401  0.65620937  0.08869874  1.0
  H  H5  1  0.56484401  0.34379063  0.58869874  1.0
  H  H6  1  0.43515599  0.65620937  0.41130126  1.0
  H  H7  1  0.43515599  0.34379063  0.91130126  1.0
  Se  Se8  1  0.20284801  0.68008601  0.00992102  1.0
  Se  Se9  1  0.20284801  0.31991399  0.50992102  1.0
  Se  Se10  1  0.79715199  0.68008601  0.49007898  1.0
  Se  Se11  1  0.79715199  0.31991399  0.99007898  1.0
  Cl  Cl12  1  0.00000000  0.93101856  0.25000000  1.0
  Cl  Cl13  1  0.00000000  0.06898144  0.75000000  1.0
  O  O14  1  0.18272472  0.48420507  0.11494711  1.0
  O  O15  1  0.18272472  0.51579493  0.61494711  1.0
  O  O16  1  0.81727528  0.48420507  0.38505289  1.0
  O  O17  1  0.81727528  0.51579493  0.88505289  1.0
  O  O18  1  0.25511034  0.45942685  0.38340376  1.0
  O  O19  1  0.25511034  0.54057315  0.88340376  1.0
  O  O20  1  0.74488966  0.45942685  0.11659624  1.0
  O  O21  1  0.74488966  0.54057315  0.61659624  1.0
  O  O22  1  0.46183986  0.77852359  0.07307973  1.0
  O  O23  1  0.46183986  0.22147641  0.57307973  1.0
  O  O24  1  0.53816014  0.77852359  0.42692027  1.0
  O  O25  1  0.53816014  0.22147641  0.92692027  1.0
