# generated using pymatgen
data_TiNi
_symmetry_space_group_name_H-M   'P 1'
_cell_length_a   4.21459236
_cell_length_b   4.21804344
_cell_length_c   3.06431289
_cell_angle_alpha   90.00000000
_cell_angle_beta   90.00290345
_cell_angle_gamma   90.00000000
_symmetry_Int_Tables_number   1
_chemical_formula_structural   TiNi
_chemical_formula_sum   'Ti2 Ni2'
_cell_volume   54.47531265
_cell_formula_units_Z   2
loop_
 _symmetry_equiv_pos_site_id
 _symmetry_equiv_pos_as_xyz
  1  'x, y, z'
loop_
 _atom_site_type_symbol
 _atom_site_label
 _atom_site_symmetry_multiplicity
 _atom_site_fract_x
 _atom_site_fract_y
 _atom_site_fract_z
 _atom_site_occupancy
  Ti  Ti0  1  0.74999110  0.75000000  0.50000208  1.0
  Ti  Ti1  1  0.25000890  0.25000000  0.49999792  1.0
  Ni  Ni2  1  0.75002847  0.25000000  0.99981128  1.0
  Ni  Ni3  1  0.24997153  0.75000000  0.00018872  1.0
