# generated using pymatgen
data_KBi(PSe3)2
_symmetry_space_group_name_H-M   'P 1'
_cell_length_a   12.53669959
_cell_length_b   7.74082292
_cell_length_c   12.88857127
_cell_angle_alpha   90.00000000
_cell_angle_beta   109.68905023
_cell_angle_gamma   90.00000000
_symmetry_Int_Tables_number   1
_chemical_formula_structural   KBi(PSe3)2
_chemical_formula_sum   'K4 Bi4 P8 Se24'
_cell_volume   1177.63735987
_cell_formula_units_Z   4
loop_
 _symmetry_equiv_pos_site_id
 _symmetry_equiv_pos_as_xyz
  1  'x, y, z'
loop_
 _atom_site_type_symbol
 _atom_site_label
 _atom_site_symmetry_multiplicity
 _atom_site_fract_x
 _atom_site_fract_y
 _atom_site_fract_z
 _atom_site_occupancy
  K  K0  1  0.40395450  0.40399178  0.12071432  1.0
  K  K1  1  0.40395450  0.09600822  0.62071432  1.0
  K  K2  1  0.59604550  0.90399178  0.37928568  1.0
  K  K3  1  0.59604550  0.59600822  0.87928568  1.0
  Bi  Bi4  1  0.88155970  0.14717651  0.17502457  1.0
  Bi  Bi5  1  0.88155970  0.35282349  0.67502457  1.0
  Bi  Bi6  1  0.11844030  0.64717651  0.32497543  1.0
  Bi  Bi7  1  0.11844030  0.85282349  0.82497543  1.0
  P  P8  1  0.76542009  0.39979305  0.32589158  1.0
  P  P9  1  0.76542009  0.10020695  0.82589158  1.0
  P  P10  1  0.23457991  0.89979305  0.17410842  1.0
  P  P11  1  0.23457991  0.60020695  0.67410842  1.0
  P  P12  1  0.23354018  0.12031943  0.29246872  1.0
  P  P13  1  0.23354018  0.37968057  0.79246872  1.0
  P  P14  1  0.76645982  0.62031943  0.20753128  1.0
  P  P15  1  0.76645982  0.87968057  0.70753128  1.0
  Se  Se16  1  0.94473947  0.30605883  0.38750678  1.0
  Se  Se17  1  0.94473947  0.19394117  0.88750678  1.0
  Se  Se18  1  0.05526053  0.80605883  0.11249322  1.0
  Se  Se19  1  0.05526053  0.69394117  0.61249322  1.0
  Se  Se20  1  0.88934187  0.80869561  0.31518530  1.0
  Se  Se21  1  0.88934187  0.69130439  0.81518530  1.0
  Se  Se22  1  0.11065813  0.30869561  0.18481470  1.0
  Se  Se23  1  0.11065813  0.19130439  0.68481470  1.0
  Se  Se24  1  0.69853903  0.49083834  0.45172597  1.0
  Se  Se25  1  0.69853903  0.00916166  0.95172597  1.0
  Se  Se26  1  0.30146097  0.99083834  0.04827403  1.0
  Se  Se27  1  0.30146097  0.50916166  0.54827403  1.0
  Se  Se28  1  0.66703823  0.19365130  0.21334078  1.0
  Se  Se29  1  0.66703823  0.30634870  0.71334078  1.0
  Se  Se30  1  0.33296177  0.69365130  0.28665922  1.0
  Se  Se31  1  0.33296177  0.80634870  0.78665922  1.0
  Se  Se32  1  0.40263751  0.22816866  0.36518377  1.0
  Se  Se33  1  0.40263751  0.27183134  0.86518377  1.0
  Se  Se34  1  0.59736249  0.72816866  0.13481623  1.0
  Se  Se35  1  0.59736249  0.77183134  0.63481623  1.0
  Se  Se36  1  0.16333722  -0.00274610  0.41370564  1.0
  Se  Se37  1  0.16333722  0.50274610  0.91370564  1.0
  Se  Se38  1  0.83666278  0.49725390  0.08629436  1.0
  Se  Se39  1  0.83666278  1.00274610  0.58629436  1.0
