# generated using pymatgen
data_CuB2(CN)8
_symmetry_space_group_name_H-M   'P 1'
_cell_length_a   7.65795587
_cell_length_b   7.65795587
_cell_length_c   6.36749044
_cell_angle_alpha   87.49835733
_cell_angle_beta   92.50164267
_cell_angle_gamma   122.77299846
_symmetry_Int_Tables_number   1
_chemical_formula_structural   CuB2(CN)8
_chemical_formula_sum   'Cu1 B2 C8 N8'
_cell_volume   313.58877267
_cell_formula_units_Z   1
loop_
 _symmetry_equiv_pos_site_id
 _symmetry_equiv_pos_as_xyz
  1  'x, y, z'
loop_
 _atom_site_type_symbol
 _atom_site_label
 _atom_site_symmetry_multiplicity
 _atom_site_fract_x
 _atom_site_fract_y
 _atom_site_fract_z
 _atom_site_occupancy
  N  N0  1  0.85925254  0.14074746  0.22723342  1.0
  N  N1  1  0.14074746  -0.14074746  0.77276658  1.0
  N  N2  1  0.65294306  0.34705694  0.75814191  1.0
  N  N3  1  0.34705694  -0.34705694  0.24185809  1.0
  N  N4  1  0.73540509  -0.12507729  0.83561458  1.0
  N  N5  1  1.12507729  0.26459491  0.83561458  1.0
  N  N6  1  0.87492271  0.73540509  0.16438542  1.0
  N  N7  1  0.26459491  0.12507729  0.16438542  1.0
  Cu  Cu8  1  0.00000000  0.00000000  0.00000000  1.0
  B  B9  1  0.66317280  0.33682720  0.32839449  1.0
  B  B10  1  0.33682720  -0.33682720  0.67160551  1.0
  C  C11  1  0.56729616  -0.21459547  0.76740985  1.0
  C  C12  1  1.21459547  0.43270384  0.76740985  1.0
  C  C13  1  0.78540453  0.56729616  0.23259015  1.0
  C  C14  1  0.43270384  0.21459547  0.23259015  1.0
  C  C15  1  0.77607091  0.22392909  0.26795090  1.0
  C  C16  1  0.22392909  -0.22392909  0.73204910  1.0
  C  C17  1  0.65674714  0.34325286  0.57608399  1.0
  C  C18  1  0.34325286  -0.34325286  0.42391601  1.0
