# generated using pymatgen
data_CsLa(MoO4)2
_symmetry_space_group_name_H-M   'P 1'
_cell_length_a   7.77078154
_cell_length_b   7.77078154
_cell_length_c   8.19107603
_cell_angle_alpha   61.58109383
_cell_angle_beta   118.41890617
_cell_angle_gamma   91.80569652
_symmetry_Int_Tables_number   1
_chemical_formula_structural   CsLa(MoO4)2
_chemical_formula_sum   'Cs2 La2 Mo4 O16'
_cell_volume   370.23499558
_cell_formula_units_Z   2
loop_
 _symmetry_equiv_pos_site_id
 _symmetry_equiv_pos_as_xyz
  1  'x, y, z'
loop_
 _atom_site_type_symbol
 _atom_site_label
 _atom_site_symmetry_multiplicity
 _atom_site_fract_x
 _atom_site_fract_y
 _atom_site_fract_z
 _atom_site_occupancy
  Cs  Cs0  1  0.18861127  0.18861127  0.25000000  1.0
  Cs  Cs1  1  0.81138873  0.81138873  0.75000000  1.0
  La  La2  1  0.77093562  0.77093562  0.25000000  1.0
  La  La3  1  0.22906438  0.22906438  0.75000000  1.0
  Mo  Mo4  1  0.68586231  0.31109967  0.23305539  1.0
  Mo  Mo5  1  0.68890033  0.31413769  0.73305539  1.0
  Mo  Mo6  1  1.31109967  -0.31413769  0.26694461  1.0
  Mo  Mo7  1  1.31413769  -0.31109967  0.76694461  1.0
  O  O8  1  1.57801635  -0.37222963  0.02864997  1.0
  O  O9  1  1.37222963  -0.57801635  0.52864997  1.0
  O  O10  1  0.62777037  0.57801635  0.47135003  1.0
  O  O11  1  0.42198365  0.37222963  0.97135003  1.0
  O  O12  1  0.78623020  0.07201936  0.28939097  1.0
  O  O13  1  0.92798064  0.21376980  0.78939097  1.0
  O  O14  1  1.07201936  -0.21376980  0.21060903  1.0
  O  O15  1  1.21376980  -0.07201936  0.71060903  1.0
  O  O16  1  1.38740206  -0.08454797  0.13599842  1.0
  O  O17  1  1.08454797  -0.38740206  0.63599842  1.0
  O  O18  1  0.91545203  0.38740206  0.36400158  1.0
  O  O19  1  0.61259794  0.08454797  0.86400158  1.0
  O  O20  1  0.60565843  0.24175599  0.41633036  1.0
  O  O21  1  0.75824401  0.39434157  0.91633036  1.0
  O  O22  1  1.24175599  -0.39434157  0.08366964  1.0
  O  O23  1  1.39434157  -0.24175599  0.58366964  1.0
