# generated using pymatgen
data_B
_symmetry_space_group_name_H-M   'P 1'
_cell_length_a   5.04216908
_cell_length_b   5.04216908
_cell_length_c   5.04216908
_cell_angle_alpha   58.06090229
_cell_angle_beta   58.06090229
_cell_angle_gamma   58.06090229
_symmetry_Int_Tables_number   1
_chemical_formula_structural   B
_chemical_formula_sum   B12
_cell_volume   86.61305107
_cell_formula_units_Z   12
loop_
 _symmetry_equiv_pos_site_id
 _symmetry_equiv_pos_as_xyz
  1  'x, y, z'
loop_
 _atom_site_type_symbol
 _atom_site_label
 _atom_site_symmetry_multiplicity
 _atom_site_fract_x
 _atom_site_fract_y
 _atom_site_fract_z
 _atom_site_occupancy
  B  B0  1  1.48975053  0.48975053  0.84594759  1.0
  B  B1  1  1.48975053  0.84594759  0.48975053  1.0
  B  B2  1  1.15405241  0.51024947  0.51024947  1.0
  B  B3  1  1.51024947  0.15405241  0.51024947  1.0
  B  B4  1  1.51024947  0.51024947  0.15405241  1.0
  B  B5  1  1.84594759  0.48975053  0.48975053  1.0
  B  B6  1  1.27893398  1.27893398  -0.13060236  1.0
  B  B7  1  1.27893398  0.86939764  0.27893398  1.0
  B  B8  1  1.13060236  0.72106602  0.72106602  1.0
  B  B9  1  1.72106602  0.13060236  0.72106602  1.0
  B  B10  1  1.72106602  0.72106602  0.13060236  1.0
  B  B11  1  0.86939764  1.27893398  0.27893398  1.0
