# generated using pymatgen
data_Pb3Se2(IO3)2
_symmetry_space_group_name_H-M   'P 1'
_cell_length_a   7.44379782
_cell_length_b   7.44379782
_cell_length_c   15.04498238
_cell_angle_alpha   85.26717680
_cell_angle_beta   94.73282320
_cell_angle_gamma   133.38993664
_symmetry_Int_Tables_number   1
_chemical_formula_structural   Pb3Se2(IO3)2
_chemical_formula_sum   'Pb6 Se4 I4 O12'
_cell_volume   603.35576648
_cell_formula_units_Z   2
loop_
 _symmetry_equiv_pos_site_id
 _symmetry_equiv_pos_as_xyz
  1  'x, y, z'
loop_
 _atom_site_type_symbol
 _atom_site_label
 _atom_site_symmetry_multiplicity
 _atom_site_fract_x
 _atom_site_fract_y
 _atom_site_fract_z
 _atom_site_occupancy
  Pb  Pb0  1  0.23993132  -0.17146623  0.84513410  1.0
  Pb  Pb1  1  1.17146623  0.76006868  0.34513410  1.0
  Pb  Pb2  1  0.82853377  0.23993132  0.65486590  1.0
  Pb  Pb3  1  0.76006868  0.17146623  0.15486590  1.0
  Pb  Pb4  1  0.58083393  0.58083393  0.75000000  1.0
  Pb  Pb5  1  0.41916607  0.41916607  0.25000000  1.0
  Se  Se6  1  0.91187950  0.11050253  0.86674832  1.0
  Se  Se7  1  0.88949747  0.08812050  0.36674832  1.0
  Se  Se8  1  0.11050253  -0.08812050  0.63325168  1.0
  Se  Se9  1  1.08812050  0.88949747  0.13325168  1.0
  I  I10  1  0.63620100  0.34694785  0.94259020  1.0
  I  I11  1  0.65305215  0.36379900  0.44259020  1.0
  I  I12  1  1.34694785  0.63620100  0.55740980  1.0
  I  I13  1  0.36379900  -0.34694785  0.05740980  1.0
  O  O14  1  0.92792664  -0.03264161  0.64842509  1.0
  O  O15  1  1.03264161  0.07207336  0.14842509  1.0
  O  O16  1  0.96735839  0.92792664  0.85157491  1.0
  O  O17  1  0.07207336  0.03264161  0.35157491  1.0
  O  O18  1  0.63365536  -0.05663244  0.80133341  1.0
  O  O19  1  1.05663244  0.36634464  0.30133341  1.0
  O  O20  1  0.94336756  0.63365536  0.69866659  1.0
  O  O21  1  0.36634464  0.05663244  0.19866659  1.0
  O  O22  1  0.36747242  0.10107491  0.70558726  1.0
  O  O23  1  0.89892509  0.63252758  0.20558726  1.0
  O  O24  1  1.10107491  0.36747242  0.79441274  1.0
  O  O25  1  0.63252758  -0.10107491  0.29441274  1.0
