# generated using pymatgen
data_Cu2AgBi5PbS10
_symmetry_space_group_name_H-M   'P 1'
_cell_length_a   7.06001103
_cell_length_b   7.06001103
_cell_length_c   33.49030981
_cell_angle_alpha   87.05682536
_cell_angle_beta   92.94317464
_cell_angle_gamma   146.91595542
_symmetry_Int_Tables_number   1
_chemical_formula_structural   Cu2AgBi5PbS10
_chemical_formula_sum   'Cu4 Ag2 Bi10 Pb2 S20'
_cell_volume   909.90113593
_cell_formula_units_Z   2
loop_
 _symmetry_equiv_pos_site_id
 _symmetry_equiv_pos_as_xyz
  1  'x, y, z'
loop_
 _atom_site_type_symbol
 _atom_site_label
 _atom_site_symmetry_multiplicity
 _atom_site_fract_x
 _atom_site_fract_y
 _atom_site_fract_z
 _atom_site_occupancy
  Cu  Cu0  1  0.93744508  0.06255492  0.79116253  1.0
  Cu  Cu1  1  0.06255492  -0.06255492  0.20883747  1.0
  Cu  Cu2  1  0.37721958  -0.37721958  0.73668364  1.0
  Cu  Cu3  1  0.62278042  0.37721958  0.26331636  1.0
  Ag  Ag4  1  0.61817694  0.38182306  0.47575605  1.0
  Ag  Ag5  1  0.38182306  -0.38182306  0.52424395  1.0
  Bi  Bi6  1  0.89811984  0.10188016  0.90962839  1.0
  Bi  Bi7  1  0.10188016  -0.10188016  0.09037161  1.0
  Bi  Bi8  1  0.89488052  0.10511948  0.42579967  1.0
  Bi  Bi9  1  0.10511948  -0.10511948  0.57420033  1.0
  Bi  Bi10  1  0.83700809  0.16299191  0.62945945  1.0
  Bi  Bi11  1  0.16299191  -0.16299191  0.37054055  1.0
  Bi  Bi12  1  0.63180987  0.36819013  0.97079699  1.0
  Bi  Bi13  1  0.36819013  -0.36819013  0.02920301  1.0
  Bi  Bi14  1  0.60226455  0.39773545  0.71501322  1.0
  Bi  Bi15  1  0.39773545  -0.39773545  0.28498678  1.0
  Pb  Pb16  1  0.16594933  -0.16594933  0.82977433  1.0
  Pb  Pb17  1  0.83405067  0.16594933  0.17022567  1.0
  S  S18  1  0.93146345  0.06853655  0.70479379  1.0
  S  S19  1  0.06853655  -0.06853655  0.29520621  1.0
  S  S20  1  0.82030582  0.17969418  0.83741132  1.0
  S  S21  1  0.17969418  -0.17969418  0.16258868  1.0
  S  S22  1  0.79919288  0.20080712  0.34999458  1.0
  S  S23  1  0.20080712  -0.20080712  0.65000542  1.0
  S  S24  1  0.78332118  0.21667882  0.24876791  1.0
  S  S25  1  0.21667882  -0.21667882  0.75123209  1.0
  S  S26  1  0.72535101  0.27464899  0.54820586  1.0
  S  S27  1  0.27464899  -0.27464899  0.45179414  1.0
  S  S28  1  0.53163749  0.46836251  0.89736803  1.0
  S  S29  1  0.46836251  -0.46836251  0.10263197  1.0
  S  S30  1  0.51745379  0.48254621  0.78653817  1.0
  S  S31  1  0.48254621  -0.48254621  0.21346183  1.0
  S  S32  1  0.45762055  -0.45762055  0.59861773  1.0
  S  S33  1  0.54237945  0.45762055  0.40138227  1.0
  S  S34  1  0.26163347  -0.26163347  0.94780383  1.0
  S  S35  1  0.73836653  0.26163347  0.05219617  1.0
  S  S36  1  0.00000000  -0.00000000  0.50000000  1.0
  S  S37  1  0.00000000  0.00000000  0.00000000  1.0
