# generated using pymatgen
data_EuSi
_symmetry_space_group_name_H-M   'P 1'
_cell_length_a   5.94140500
_cell_length_b   5.94140500
_cell_length_c   3.93165392
_cell_angle_alpha   90.00000000
_cell_angle_beta   90.00000000
_cell_angle_gamma   135.28457431
_symmetry_Int_Tables_number   1
_chemical_formula_structural   EuSi
_chemical_formula_sum   'Eu2 Si2'
_cell_volume   97.64967773
_cell_formula_units_Z   2
loop_
 _symmetry_equiv_pos_site_id
 _symmetry_equiv_pos_as_xyz
  1  'x, y, z'
loop_
 _atom_site_type_symbol
 _atom_site_label
 _atom_site_symmetry_multiplicity
 _atom_site_fract_x
 _atom_site_fract_y
 _atom_site_fract_z
 _atom_site_occupancy
  Eu  Eu0  1  0.35850502  0.64149498  0.75000000  1.0
  Eu  Eu1  1  -0.35850502  0.35850502  0.25000000  1.0
  Si  Si2  1  0.06688098  0.93311902  0.75000000  1.0
  Si  Si3  1  -0.06688098  0.06688098  0.25000000  1.0
