# generated using pymatgen
data_Ba3MgIr2O9
_symmetry_space_group_name_H-M   'P 1'
_cell_length_a   5.80949300
_cell_length_b   5.80949300
_cell_length_c   14.30847399
_cell_angle_alpha   90.00000000
_cell_angle_beta   90.00000000
_cell_angle_gamma   120.00000000
_symmetry_Int_Tables_number   1
_chemical_formula_structural   Ba3MgIr2O9
_chemical_formula_sum   'Ba6 Mg2 Ir4 O18'
_cell_volume   418.21578028
_cell_formula_units_Z   2
loop_
 _symmetry_equiv_pos_site_id
 _symmetry_equiv_pos_as_xyz
  1  'x, y, z'
loop_
 _atom_site_type_symbol
 _atom_site_label
 _atom_site_symmetry_multiplicity
 _atom_site_fract_x
 _atom_site_fract_y
 _atom_site_fract_z
 _atom_site_occupancy
  O  O0  1  0.51048161  0.48951839  0.25000000  1.0
  O  O1  1  0.51048161  0.02096322  0.25000000  1.0
  O  O2  1  0.48951839  0.51048161  0.75000000  1.0
  O  O3  1  0.48951839  0.97903678  0.75000000  1.0
  O  O4  1  0.97903678  0.48951839  0.25000000  1.0
  O  O5  1  0.02096322  0.51048161  0.75000000  1.0
  O  O6  1  0.17235155  0.82764845  0.91714438  1.0
  O  O7  1  0.17235155  0.82764845  0.58285562  1.0
  O  O8  1  0.17235155  0.34470309  0.91714438  1.0
  O  O9  1  0.17235155  0.34470309  0.58285562  1.0
  O  O10  1  0.82764845  0.17235155  0.41714438  1.0
  O  O11  1  0.82764845  0.17235155  0.08285562  1.0
  O  O12  1  0.82764845  0.65529691  0.41714438  1.0
  O  O13  1  0.82764845  0.65529691  0.08285562  1.0
  O  O14  1  0.65529691  0.82764845  0.91714438  1.0
  O  O15  1  0.65529691  0.82764845  0.58285562  1.0
  O  O16  1  0.34470309  0.17235155  0.41714438  1.0
  O  O17  1  0.34470309  0.17235155  0.08285562  1.0
  Ir  Ir18  1  0.33333333  0.66666667  0.84052005  1.0
  Ir  Ir19  1  0.33333333  0.66666667  0.65947995  1.0
  Ir  Ir20  1  0.66666667  0.33333333  0.34052005  1.0
  Ir  Ir21  1  0.66666667  0.33333333  0.15947995  1.0
  Ba  Ba22  1  0.33333333  0.66666667  0.41498305  1.0
  Ba  Ba23  1  0.33333333  0.66666667  0.08501695  1.0
  Ba  Ba24  1  0.66666667  0.33333333  0.91498305  1.0
  Ba  Ba25  1  0.66666667  0.33333333  0.58501695  1.0
  Ba  Ba26  1  0.00000000  0.00000000  0.25000000  1.0
  Ba  Ba27  1  0.00000000  0.00000000  0.75000000  1.0
  Mg  Mg28  1  0.00000000  0.00000000  0.50000000  1.0
  Mg  Mg29  1  0.00000000  0.00000000  0.00000000  1.0
