# generated using pymatgen
data_Lu2Co12P7
_symmetry_space_group_name_H-M   'P 1'
_cell_length_a   8.96995654
_cell_length_b   8.96995654
_cell_length_c   3.55286814
_cell_angle_alpha   90.00000000
_cell_angle_beta   90.00000000
_cell_angle_gamma   120.00000000
_symmetry_Int_Tables_number   1
_chemical_formula_structural   Lu2Co12P7
_chemical_formula_sum   'Lu2 Co12 P7'
_cell_volume   247.56565730
_cell_formula_units_Z   1
loop_
 _symmetry_equiv_pos_site_id
 _symmetry_equiv_pos_as_xyz
  1  'x, y, z'
loop_
 _atom_site_type_symbol
 _atom_site_label
 _atom_site_symmetry_multiplicity
 _atom_site_fract_x
 _atom_site_fract_y
 _atom_site_fract_z
 _atom_site_occupancy
  P  P0  1  0.44750874  0.37583957  0.50000000  1.0
  P  P1  1  0.92833083  0.55249126  0.50000000  1.0
  P  P2  1  0.62416043  0.07166917  0.50000000  1.0
  P  P3  1  0.04029683  0.25828817  -0.00000000  1.0
  P  P4  1  0.21799134  0.95970317  0.00000000  1.0
  P  P5  1  0.74171183  0.78200866  0.00000000  1.0
  P  P6  1  0.33333333  0.66666667  0.00000000  1.0
  Lu  Lu7  1  0.00000000  0.00000000  0.50000000  1.0
  Lu  Lu8  1  0.66666667  0.33333333  -0.00000000  1.0
  Co  Co9  1  0.71652087  0.61333744  0.50000000  1.0
  Co  Co10  1  0.89681657  0.28347913  0.50000000  1.0
  Co  Co11  1  0.38666256  0.10318343  0.50000000  1.0
  Co  Co12  1  0.23055409  0.43025208  0.50000000  1.0
  Co  Co13  1  0.19969799  0.76944591  0.50000000  1.0
  Co  Co14  1  0.56974792  0.80030201  0.50000000  1.0
  Co  Co15  1  0.27288860  0.23135693  -0.00000000  1.0
  Co  Co16  1  0.95846833  0.72711140  0.00000000  1.0
  Co  Co17  1  0.76864307  0.04153167  0.00000000  1.0
  Co  Co18  1  0.48811768  0.54822394  0.00000000  1.0
  Co  Co19  1  0.06010626  0.51188232  0.00000000  1.0
  Co  Co20  1  0.45177606  0.93989374  0.00000000  1.0
