# generated using pymatgen
data_Co2As2O5
_symmetry_space_group_name_H-M   'P 1'
_cell_length_a   6.20767207
_cell_length_b   9.48643172
_cell_length_c   9.64079271
_cell_angle_alpha   63.85029028
_cell_angle_beta   78.77805858
_cell_angle_gamma   83.05632967
_symmetry_Int_Tables_number   1
_chemical_formula_structural   Co2As2O5
_chemical_formula_sum   'Co8 As8 O20'
_cell_volume   499.48173240
_cell_formula_units_Z   4
loop_
 _symmetry_equiv_pos_site_id
 _symmetry_equiv_pos_as_xyz
  1  'x, y, z'
loop_
 _atom_site_type_symbol
 _atom_site_label
 _atom_site_symmetry_multiplicity
 _atom_site_fract_x
 _atom_site_fract_y
 _atom_site_fract_z
 _atom_site_occupancy
  Co  Co0  1  -0.07413606  -0.64422668  -0.89474704  1.0
  Co  Co1  1  -0.92586394  -0.35577332  -0.10525296  1.0
  Co  Co2  1  -0.32503417  -0.95108740  -0.77081582  1.0
  Co  Co3  1  -0.67496583  -0.04891260  -0.22918418  1.0
  Co  Co4  1  -0.85659312  -0.87574745  -0.55018842  1.0
  Co  Co5  1  -0.14340688  -0.12425255  -0.44981158  1.0
  Co  Co6  1  -0.60300925  -0.64957404  -0.91541646  1.0
  Co  Co7  1  -0.39699075  -0.35042596  -0.08458354  1.0
  O  O8  1  -0.99326082  -0.62037759  -0.30646434  1.0
  O  O9  1  -0.00673918  -0.37962241  -0.69353566  1.0
  O  O10  1  -0.76396059  -0.87809581  -0.11096928  1.0
  O  O11  1  -0.23603941  -0.12190419  -0.88903072  1.0
  O  O12  1  -0.63239495  -0.86502916  -0.43876894  1.0
  O  O13  1  -0.36760505  -0.13497084  -0.56123106  1.0
  O  O14  1  -0.69439849  -0.40814396  -0.94422735  1.0
  O  O15  1  -0.30560151  -0.59185604  -0.05577265  1.0
  O  O16  1  -0.58326907  -0.87708579  -0.86929680  1.0
  O  O17  1  -0.41673093  -0.12291421  -0.13070320  1.0
  O  O18  1  -0.87530723  -0.66786865  -0.73040891  1.0
  O  O19  1  -0.12469277  -0.33213135  -0.26959109  1.0
  O  O20  1  -0.18320454  -0.41319712  -0.92385659  1.0
  O  O21  1  -0.81679546  -0.58680288  -0.07614341  1.0
  O  O22  1  -0.36945704  -0.74343575  -0.73345126  1.0
  O  O23  1  -0.63054296  -0.25656425  -0.26654874  1.0
  O  O24  1  -0.17283751  -0.91200366  -0.46045406  1.0
  O  O25  1  -0.82716249  -0.08799634  -0.53954594  1.0
  O  O26  1  -0.02833710  -0.88086906  -0.84270972  1.0
  O  O27  1  -0.97166290  -0.11913094  -0.15729028  1.0
  As  As28  1  -0.78604762  -0.98785594  -0.88859598  1.0
  As  As29  1  -0.21395238  -0.01214406  -0.11140402  1.0
  As  As30  1  -0.76149560  -0.49354316  -0.73019418  1.0
  As  As31  1  -0.23850440  -0.50645684  -0.26980582  1.0
  As  As32  1  -0.73660905  -0.66334994  -0.22579052  1.0
  As  As33  1  -0.26339095  -0.33665006  -0.77420948  1.0
  As  As34  1  -0.38068786  -0.75362615  -0.53773228  1.0
  As  As35  1  -0.61931214  -0.24637385  -0.46226772  1.0
