# generated using pymatgen
data_KCN5O2
_symmetry_space_group_name_H-M   'P 1'
_cell_length_a   5.03413443
_cell_length_b   13.41372237
_cell_length_c   8.14981719
_cell_angle_alpha   90.00000000
_cell_angle_beta   92.61918374
_cell_angle_gamma   90.00000000
_symmetry_Int_Tables_number   1
_chemical_formula_structural   KCN5O2
_chemical_formula_sum   'K4 C4 N20 O8'
_cell_volume   549.75356597
_cell_formula_units_Z   4
loop_
 _symmetry_equiv_pos_site_id
 _symmetry_equiv_pos_as_xyz
  1  'x, y, z'
loop_
 _atom_site_type_symbol
 _atom_site_label
 _atom_site_symmetry_multiplicity
 _atom_site_fract_x
 _atom_site_fract_y
 _atom_site_fract_z
 _atom_site_occupancy
  K  K0  1  0.34685795  0.86775226  0.24022760  1.0
  K  K1  1  0.65314205  0.36775226  0.25977240  1.0
  K  K2  1  0.65314205  0.13224774  0.75977240  1.0
  K  K3  1  0.34685795  0.63224774  0.74022760  1.0
  C  C4  1  0.05101155  0.12291320  0.22054982  1.0
  C  C5  1  0.94898845  0.62291320  0.27945018  1.0
  C  C6  1  0.94898845  0.87708680  0.77945018  1.0
  C  C7  1  0.05101155  0.37708680  0.72054982  1.0
  N  N8  1  0.22988501  0.07120283  0.13836929  1.0
  N  N9  1  0.77011499  0.57120283  0.36163071  1.0
  N  N10  1  0.77011499  0.92879717  0.86163071  1.0
  N  N11  1  0.22988501  0.42879717  0.63836929  1.0
  N  N12  1  0.36622824  0.14140616  0.06396865  1.0
  N  N13  1  0.63377176  0.64140616  0.43603135  1.0
  N  N14  1  0.63377176  0.85859384  0.93603135  1.0
  N  N15  1  0.36622824  0.35859384  0.56396865  1.0
  N  N16  1  0.26945993  0.23190638  0.10104924  1.0
  N  N17  1  0.73054007  0.73190638  0.39895076  1.0
  N  N18  1  0.73054007  0.76809362  0.89895076  1.0
  N  N19  1  0.26945993  0.26809362  0.60104924  1.0
  N  N20  1  0.06933000  0.22172827  0.20022026  1.0
  N  N21  1  0.93067000  0.72172827  0.29977974  1.0
  N  N22  1  0.93067000  0.77827173  0.79977974  1.0
  N  N23  1  0.06933000  0.27827173  0.70022026  1.0
  N  N24  1  0.86270825  0.07699806  0.32310899  1.0
  N  N25  1  0.13729175  0.57699806  0.17689101  1.0
  N  N26  1  0.13729175  0.92300194  0.67689101  1.0
  N  N27  1  0.86270825  0.42300194  0.82310899  1.0
  O  O28  1  0.85587420  0.98444141  0.32736252  1.0
  O  O29  1  0.14412580  0.48444141  0.17263748  1.0
  O  O30  1  0.14412580  0.01555859  0.67263748  1.0
  O  O31  1  0.85587420  0.51555859  0.82736252  1.0
  O  O32  1  0.71806261  0.13188615  0.40214502  1.0
  O  O33  1  0.28193739  0.63188615  0.09785498  1.0
  O  O34  1  0.28193739  0.86811385  0.59785498  1.0
  O  O35  1  0.71806261  0.36811385  0.90214502  1.0
