# generated using pymatgen
data_CaP6(HN3)4
_symmetry_space_group_name_H-M   'P 1'
_cell_length_a   4.99755216
_cell_length_b   4.99755216
_cell_length_c   22.58356515
_cell_angle_alpha   90.00000000
_cell_angle_beta   90.00000000
_cell_angle_gamma   59.46931035
_symmetry_Int_Tables_number   1
_chemical_formula_structural   CaP6(HN3)4
_chemical_formula_sum   'Ca2 P12 H8 N24'
_cell_volume   485.83685112
_cell_formula_units_Z   2
loop_
 _symmetry_equiv_pos_site_id
 _symmetry_equiv_pos_as_xyz
  1  'x, y, z'
loop_
 _atom_site_type_symbol
 _atom_site_label
 _atom_site_symmetry_multiplicity
 _atom_site_fract_x
 _atom_site_fract_y
 _atom_site_fract_z
 _atom_site_occupancy
  Ca  Ca0  1  -0.50000000  0.50000000  0.00000000  1.0
  Ca  Ca1  1  0.00000000  0.00000000  0.50000000  1.0
  P  P2  1  -0.16848855  0.84034783  0.90648485  1.0
  P  P3  1  0.33151145  0.34034783  0.59351515  1.0
  P  P4  1  -0.15965217  0.83151145  0.09351515  1.0
  P  P5  1  -0.65965217  1.33151145  0.40648485  1.0
  P  P6  1  0.15965217  0.16848855  0.90648485  1.0
  P  P7  1  -0.34034783  0.66848855  0.59351515  1.0
  P  P8  1  -0.83151145  1.15965217  0.09351515  1.0
  P  P9  1  -0.33151145  0.65965217  0.40648485  1.0
  P  P10  1  -0.92201720  0.92201720  0.78708415  1.0
  P  P11  1  -0.42201720  0.42201720  0.71291585  1.0
  P  P12  1  -0.07798280  0.07798280  0.21291585  1.0
  P  P13  1  -0.57798280  0.57798280  0.28708415  1.0
  H  H14  1  -0.26126063  0.75215877  0.80986948  1.0
  H  H15  1  0.23873937  0.25215877  0.69013052  1.0
  H  H16  1  -0.24784123  0.73873937  0.19013052  1.0
  H  H17  1  -0.74784123  1.23873937  0.30986948  1.0
  H  H18  1  0.24784123  0.26126063  0.80986948  1.0
  H  H19  1  -0.25215877  0.76126063  0.69013052  1.0
  H  H20  1  -0.73873937  1.24784123  0.19013052  1.0
  H  H21  1  -0.23873937  0.74784123  0.30986948  1.0
  N  N22  1  -0.14129083  0.84090393  0.83100744  1.0
  N  N23  1  -0.64129083  1.34090393  0.66899256  1.0
  N  N24  1  -0.15909607  0.85870917  0.16899256  1.0
  N  N25  1  0.34090393  0.35870917  0.33100744  1.0
  N  N26  1  -0.84090393  1.14129083  0.83100744  1.0
  N  N27  1  -0.34090393  0.64129083  0.66899256  1.0
  N  N28  1  0.14129083  0.15909607  0.16899256  1.0
  N  N29  1  -0.35870917  0.65909607  0.33100744  1.0
  N  N30  1  -0.60141071  0.60141071  0.77202696  1.0
  N  N31  1  -0.10141071  0.10141071  0.72797304  1.0
  N  N32  1  -0.39858929  0.39858929  0.22797304  1.0
  N  N33  1  -0.89858929  0.89858929  0.27202696  1.0
  N  N34  1  -0.11970938  0.50855112  0.92750219  1.0
  N  N35  1  -0.61970938  1.00855112  0.57249781  1.0
  N  N36  1  -0.49144888  0.88029062  0.07249781  1.0
  N  N37  1  0.00855112  0.38029062  0.42750219  1.0
  N  N38  1  -0.50855112  1.11970938  0.92750219  1.0
  N  N39  1  -0.00855112  0.61970938  0.57249781  1.0
  N  N40  1  0.11970938  0.49144888  0.07249781  1.0
  N  N41  1  -0.38029062  0.99144888  0.42750219  1.0
  N  N42  1  -0.89854893  0.89854893  0.93120629  1.0
  N  N43  1  -0.39854893  0.39854893  0.56879371  1.0
  N  N44  1  -0.10145107  0.10145107  0.06879371  1.0
  N  N45  1  -0.60145107  0.60145107  0.43120629  1.0
