# generated using pymatgen
data_Ba3NiO4
_symmetry_space_group_name_H-M   'P 1'
_cell_length_a   7.23966260
_cell_length_b   7.23966260
_cell_length_c   7.23966260
_cell_angle_alpha   66.01913435
_cell_angle_beta   66.01913435
_cell_angle_gamma   66.01913435
_symmetry_Int_Tables_number   1
_chemical_formula_structural   Ba3NiO4
_chemical_formula_sum   'Ba6 Ni2 O8'
_cell_volume   303.25523055
_cell_formula_units_Z   2
loop_
 _symmetry_equiv_pos_site_id
 _symmetry_equiv_pos_as_xyz
  1  'x, y, z'
loop_
 _atom_site_type_symbol
 _atom_site_label
 _atom_site_symmetry_multiplicity
 _atom_site_fract_x
 _atom_site_fract_y
 _atom_site_fract_z
 _atom_site_occupancy
  Ni  Ni0  1  1.25000000  1.25000000  0.25000000  1.0
  Ni  Ni1  1  0.75000000  0.75000000  -0.25000000  1.0
  O  O2  1  0.50000000  0.50000000  -0.50000000  1.0
  O  O3  1  0.00000000  0.00000000  0.00000000  1.0
  O  O4  1  1.01721877  1.25000000  0.48278123  1.0
  O  O5  1  0.51721877  0.98278123  -0.25000000  1.0
  O  O6  1  0.75000000  -0.48278123  -0.01721877  1.0
  O  O7  1  1.25000000  1.48278123  0.01721877  1.0
  O  O8  1  0.98278123  -0.25000000  -0.48278123  1.0
  O  O9  1  0.48278123  0.01721877  0.25000000  1.0
  Ba  Ba10  1  0.66485175  0.25000000  -0.16485175  1.0
  Ba  Ba11  1  0.16485175  0.33514825  -0.25000000  1.0
  Ba  Ba12  1  0.75000000  0.16485175  -0.66485175  1.0
  Ba  Ba13  1  0.25000000  0.83514825  -0.33514825  1.0
  Ba  Ba14  1  0.33514825  0.75000000  -0.83514825  1.0
  Ba  Ba15  1  0.83514825  -0.33514825  0.25000000  1.0
