# generated using pymatgen
data_Cr(Re4Mo3)2
_symmetry_space_group_name_H-M   'P 1'
_cell_length_a   9.52364239
_cell_length_b   9.52364239
_cell_length_c   5.03558344
_cell_angle_alpha   90.00000000
_cell_angle_beta   90.00000000
_cell_angle_gamma   90.00000000
_symmetry_Int_Tables_number   1
_chemical_formula_structural   Cr(Re4Mo3)2
_chemical_formula_sum   'Cr2 Re16 Mo12'
_cell_volume   456.72623185
_cell_formula_units_Z   2
loop_
 _symmetry_equiv_pos_site_id
 _symmetry_equiv_pos_as_xyz
  1  'x, y, z'
loop_
 _atom_site_type_symbol
 _atom_site_label
 _atom_site_symmetry_multiplicity
 _atom_site_fract_x
 _atom_site_fract_y
 _atom_site_fract_z
 _atom_site_occupancy
  Cr  Cr0  1  0.50000000  0.50000000  0.50000000  1.0
  Cr  Cr1  1  0.00000000  0.00000000  0.00000000  1.0
  Re  Re2  1  0.43565361  0.24487407  0.50000000  1.0
  Re  Re3  1  0.56434639  0.75512593  0.50000000  1.0
  Re  Re4  1  0.06434639  0.74487407  0.00000000  1.0
  Re  Re5  1  0.93565361  0.25512593  0.00000000  1.0
  Re  Re6  1  0.24487407  0.43565361  0.50000000  1.0
  Re  Re7  1  0.75512593  0.56434639  0.50000000  1.0
  Re  Re8  1  0.74487407  0.06434639  0.00000000  1.0
  Re  Re9  1  0.25512593  0.93565361  0.00000000  1.0
  Re  Re10  1  0.31802384  0.68197616  0.24987703  1.0
  Re  Re11  1  0.68197616  0.31802384  0.24987703  1.0
  Re  Re12  1  0.18197616  0.18197616  0.74987703  1.0
  Re  Re13  1  0.81802384  0.81802384  0.74987703  1.0
  Re  Re14  1  0.68197616  0.31802384  0.75012297  1.0
  Re  Re15  1  0.31802384  0.68197616  0.75012297  1.0
  Re  Re16  1  0.81802384  0.81802384  0.25012297  1.0
  Re  Re17  1  0.18197616  0.18197616  0.25012297  1.0
  Mo  Mo18  1  0.09848568  0.90151432  0.50000000  1.0
  Mo  Mo19  1  0.90151432  0.09848568  0.50000000  1.0
  Mo  Mo20  1  0.40151432  0.40151432  0.00000000  1.0
  Mo  Mo21  1  0.59848568  0.59848568  0.00000000  1.0
  Mo  Mo22  1  0.36840630  0.96468115  0.50000000  1.0
  Mo  Mo23  1  0.63159370  0.03531885  0.50000000  1.0
  Mo  Mo24  1  0.13159370  0.46468115  0.00000000  1.0
  Mo  Mo25  1  0.86840630  0.53531885  0.00000000  1.0
  Mo  Mo26  1  0.96468115  0.36840630  0.50000000  1.0
  Mo  Mo27  1  0.03531885  0.63159370  0.50000000  1.0
  Mo  Mo28  1  0.46468115  0.13159370  0.00000000  1.0
  Mo  Mo29  1  0.53531885  0.86840630  0.00000000  1.0
