# generated using pymatgen
data_Rb2LiCo(CN)6
_symmetry_space_group_name_H-M   'P 1'
_cell_length_a   7.21212883
_cell_length_b   7.48418856
_cell_length_c   12.54286905
_cell_angle_alpha   90.00000000
_cell_angle_beta   124.76987786
_cell_angle_gamma   90.00000000
_symmetry_Int_Tables_number   1
_chemical_formula_structural   Rb2LiCo(CN)6
_chemical_formula_sum   'Rb4 Li2 Co2 C12 N12'
_cell_volume   556.14208710
_cell_formula_units_Z   2
loop_
 _symmetry_equiv_pos_site_id
 _symmetry_equiv_pos_as_xyz
  1  'x, y, z'
loop_
 _atom_site_type_symbol
 _atom_site_label
 _atom_site_symmetry_multiplicity
 _atom_site_fract_x
 _atom_site_fract_y
 _atom_site_fract_z
 _atom_site_occupancy
  Rb  Rb0  1  0.73608238  0.05367974  0.25039169  1.0
  Rb  Rb1  1  0.73608238  0.44632026  0.75039169  1.0
  Rb  Rb2  1  0.26391762  0.55367974  0.24960831  1.0
  Rb  Rb3  1  0.26391762  0.94632026  0.74960831  1.0
  Li  Li4  1  0.50000000  0.50000000  -0.00000000  1.0
  Li  Li5  1  0.50000000  0.00000000  0.50000000  1.0
  Co  Co6  1  -0.00000000  0.50000000  0.50000000  1.0
  Co  Co7  1  0.00000000  0.00000000  0.00000000  1.0
  C  C8  1  0.87183701  0.49002868  0.32142932  1.0
  C  C9  1  0.87183701  0.00997132  0.82142932  1.0
  C  C10  1  0.12816299  0.99002868  0.17857068  1.0
  C  C11  1  0.12816299  0.50997132  0.67857068  1.0
  C  C12  1  0.76746293  0.35410796  0.47628464  1.0
  C  C13  1  0.76746293  0.14589204  0.97628464  1.0
  C  C14  1  0.23253707  0.85410796  0.02371536  1.0
  C  C15  1  0.23253707  0.64589204  0.52371536  1.0
  C  C16  1  0.17300675  0.29558993  0.52758366  1.0
  C  C17  1  0.17300675  0.20441007  0.02758366  1.0
  C  C18  1  0.82699325  0.79558993  0.97241634  1.0
  C  C19  1  0.82699325  0.70441007  0.47241634  1.0
  N  N20  1  0.71800529  0.83159960  0.45487568  1.0
  N  N21  1  0.71800529  0.66840040  0.95487568  1.0
  N  N22  1  0.28199471  0.33159960  0.04512432  1.0
  N  N23  1  0.28199471  0.16840040  0.54512432  1.0
  N  N24  1  0.78867191  0.48218921  0.20949176  1.0
  N  N25  1  0.78867191  0.01781079  0.70949176  1.0
  N  N26  1  0.21132809  0.98218921  0.29050824  1.0
  N  N27  1  0.21132809  0.51781079  0.79050824  1.0
  N  N28  1  0.62291766  0.26158247  0.46102834  1.0
  N  N29  1  0.62291766  0.23841753  0.96102834  1.0
  N  N30  1  0.37708234  0.76158247  0.03897166  1.0
  N  N31  1  0.37708234  0.73841753  0.53897166  1.0
