# generated using pymatgen
data_Na(CO)2
_symmetry_space_group_name_H-M   'P 1'
_cell_length_a   12.95981646
_cell_length_b   11.64392679
_cell_length_c   7.69868402
_cell_angle_alpha   81.37273402
_cell_angle_beta   62.66012792
_cell_angle_gamma   35.96713806
_symmetry_Int_Tables_number   1
_chemical_formula_structural   Na(CO)2
_chemical_formula_sum   'Na8 C16 O16'
_cell_volume   548.65732774
_cell_formula_units_Z   8
loop_
 _symmetry_equiv_pos_site_id
 _symmetry_equiv_pos_as_xyz
  1  'x, y, z'
loop_
 _atom_site_type_symbol
 _atom_site_label
 _atom_site_symmetry_multiplicity
 _atom_site_fract_x
 _atom_site_fract_y
 _atom_site_fract_z
 _atom_site_occupancy
  C  C0  1  0.05165746  -0.09335134  1.71350146  1.0
  C  C1  1  0.53649854  -0.07819242  1.19834254  1.0
  C  C2  1  0.71350146  0.32819242  1.05165746  1.0
  C  C3  1  0.19834254  0.34335134  1.53649854  1.0
  C  C4  1  0.32819242  0.71350146  0.90664866  1.0
  C  C5  1  0.34335134  0.19834254  0.92180758  1.0
  C  C6  1  -0.09335134  0.05165746  1.32819242  1.0
  C  C7  1  -0.07819242  0.53649854  1.34335134  1.0
  C  C8  1  0.19237882  -0.15124181  1.54108799  1.0
  C  C9  1  0.70891201  -0.16777500  1.05762118  1.0
  C  C10  1  0.54108799  0.41777500  1.19237882  1.0
  C  C11  1  1.05762118  -0.59875819  0.70891201  1.0
  C  C12  1  0.41777500  0.54108799  -0.15124181  1.0
  C  C13  1  -0.16777500  0.70891201  0.40124181  1.0
  C  C14  1  -0.59875819  1.05762118  0.83222500  1.0
  C  C15  1  -0.15124181  0.19237882  0.41777500  1.0
  Na  Na16  1  -0.12367204  0.36188888  0.13170401  1.0
  Na  Na17  1  0.63007915  0.13170402  1.36188888  1.0
  Na  Na18  1  -0.11188888  0.37367204  0.61992085  1.0
  Na  Na19  1  0.11829598  0.61992085  0.37367204  1.0
  Na  Na20  1  0.13170401  0.63007915  -0.12367204  1.0
  Na  Na21  1  0.36188888  -0.12367204  1.63007915  1.0
  Na  Na22  1  -0.38007915  1.11829599  0.88811112  1.0
  Na  Na23  1  -0.62632796  0.88811112  1.11829599  1.0
  O  O24  1  0.35467257  -0.23010514  1.39039100  1.0
  O  O25  1  0.48504158  0.39039100  -0.23010514  1.0
  O  O26  1  -0.51989486  0.89532743  0.76495842  1.0
  O  O27  1  -0.14039100  0.76495842  0.89532743  1.0
  O  O28  1  0.39039100  0.48504158  1.35467257  1.0
  O  O29  1  -0.23010514  0.35467257  0.48504158  1.0
  O  O30  1  -0.23504158  0.85960900  0.48010514  1.0
  O  O31  1  -0.10467257  0.48010514  0.85960900  1.0
  O  O32  1  0.35826641  0.26618040  1.38092135  1.0
  O  O33  1  -0.00536817  0.38092135  0.26618040  1.0
  O  O34  1  -0.01618040  0.89173359  0.25536817  1.0
  O  O35  1  -0.13092135  0.25536817  0.89173359  1.0
  O  O36  1  0.38092135  -0.00536817  1.35826642  1.0
  O  O37  1  0.26618040  0.35826642  -0.00536817  1.0
  O  O38  1  -0.74463183  0.86907865  0.98381960  1.0
  O  O39  1  -0.10826642  0.98381960  0.86907865  1.0
