# generated using pymatgen
data_Sn3IF5
_symmetry_space_group_name_H-M   'P 1'
_cell_length_a   4.47791522
_cell_length_b   13.25643842
_cell_length_c   14.16225061
_cell_angle_alpha   90.00000000
_cell_angle_beta   109.06394430
_cell_angle_gamma   90.00000000
_symmetry_Int_Tables_number   1
_chemical_formula_structural   Sn3IF5
_chemical_formula_sum   'Sn12 I4 F20'
_cell_volume   794.58044265
_cell_formula_units_Z   4
loop_
 _symmetry_equiv_pos_site_id
 _symmetry_equiv_pos_as_xyz
  1  'x, y, z'
loop_
 _atom_site_type_symbol
 _atom_site_label
 _atom_site_symmetry_multiplicity
 _atom_site_fract_x
 _atom_site_fract_y
 _atom_site_fract_z
 _atom_site_occupancy
  Sn  Sn0  1  0.99095609  0.39142385  0.39254357  1.0
  Sn  Sn1  1  0.99095609  0.10857615  0.89254357  1.0
  Sn  Sn2  1  0.00904391  0.89142385  0.10745643  1.0
  Sn  Sn3  1  0.00904391  0.60857615  0.60745643  1.0
  Sn  Sn4  1  0.94058274  0.84790095  0.36682183  1.0
  Sn  Sn5  1  0.94058274  0.65209905  0.86682183  1.0
  Sn  Sn6  1  0.05941726  0.34790095  0.13317817  1.0
  Sn  Sn7  1  0.05941726  0.15209905  0.63317817  1.0
  Sn  Sn8  1  0.49974421  0.12710780  0.35016540  1.0
  Sn  Sn9  1  0.49974421  0.37289220  0.85016540  1.0
  Sn  Sn10  1  0.50025579  0.62710780  0.14983460  1.0
  Sn  Sn11  1  0.50025579  0.87289220  0.64983460  1.0
  I  I12  1  0.62820020  0.12103338  0.11678837  1.0
  I  I13  1  0.62820020  0.37896662  0.61678837  1.0
  I  I14  1  0.37179980  0.62103338  0.38321163  1.0
  I  I15  1  0.37179980  0.87896662  0.88321163  1.0
  F  F16  1  0.91932821  0.22337957  0.39409807  1.0
  F  F17  1  0.91932821  0.27662043  0.89409807  1.0
  F  F18  1  0.08067179  0.72337957  0.10590193  1.0
  F  F19  1  0.08067179  0.77662043  0.60590193  1.0
  F  F20  1  0.86659668  0.01086169  0.37435741  1.0
  F  F21  1  0.86659668  0.48913831  0.87435741  1.0
  F  F22  1  0.13340332  0.51086169  0.12564259  1.0
  F  F23  1  0.13340332  0.98913831  0.62564259  1.0
  F  F24  1  0.77292786  0.39683975  0.22415863  1.0
  F  F25  1  0.77292786  0.10316025  0.72415863  1.0
  F  F26  1  0.22707214  0.89683975  0.27584137  1.0
  F  F27  1  0.22707214  0.60316025  0.77584137  1.0
  F  F28  1  0.61362671  0.38091132  0.01231601  1.0
  F  F29  1  0.61362671  0.11908868  0.51231601  1.0
  F  F30  1  0.38637329  0.88091132  0.48768399  1.0
  F  F31  1  0.38637329  0.61908868  0.98768399  1.0
  F  F32  1  0.35421615  0.33609725  0.33630548  1.0
  F  F33  1  0.35421615  0.16390275  0.83630548  1.0
  F  F34  1  0.64578385  0.83609725  0.16369452  1.0
  F  F35  1  0.64578385  0.66390275  0.66369452  1.0
