# generated using pymatgen
data_Nb3Cl5O2
_symmetry_space_group_name_H-M   'P 1'
_cell_length_a   8.13649941
_cell_length_b   14.81643906
_cell_length_c   6.75949372
_cell_angle_alpha   90.00000000
_cell_angle_beta   90.00000000
_cell_angle_gamma   90.00000000
_symmetry_Int_Tables_number   1
_chemical_formula_structural   Nb3Cl5O2
_chemical_formula_sum   'Nb12 Cl20 O8'
_cell_volume   814.88365230
_cell_formula_units_Z   4
loop_
 _symmetry_equiv_pos_site_id
 _symmetry_equiv_pos_as_xyz
  1  'x, y, z'
loop_
 _atom_site_type_symbol
 _atom_site_label
 _atom_site_symmetry_multiplicity
 _atom_site_fract_x
 _atom_site_fract_y
 _atom_site_fract_z
 _atom_site_occupancy
  Nb  Nb0  1  0.26214982  0.74031353  0.28948716  1.0
  Nb  Nb1  1  0.26214982  0.74031353  0.71051284  1.0
  Nb  Nb2  1  0.76214982  0.75968647  0.78948716  1.0
  Nb  Nb3  1  0.76214982  0.75968647  0.21051284  1.0
  Nb  Nb4  1  0.73785018  0.25968647  0.28948716  1.0
  Nb  Nb5  1  0.73785018  0.25968647  0.71051284  1.0
  Nb  Nb6  1  0.23785018  0.24031353  0.78948716  1.0
  Nb  Nb7  1  0.23785018  0.24031353  0.21051284  1.0
  Nb  Nb8  1  0.47486740  0.63585986  0.50000000  1.0
  Nb  Nb9  1  0.97486740  0.86414014  -0.00000000  1.0
  Nb  Nb10  1  0.52513260  0.36414014  0.50000000  1.0
  Nb  Nb11  1  0.02513260  0.13585986  -0.00000000  1.0
  Cl  Cl12  1  0.29292931  0.87155673  0.50000000  1.0
  Cl  Cl13  1  0.79292931  0.62844327  -0.00000000  1.0
  Cl  Cl14  1  0.70707069  0.12844327  0.50000000  1.0
  Cl  Cl15  1  0.20707069  0.37155673  -0.00000000  1.0
  Cl  Cl16  1  0.27224092  0.13178893  0.50000000  1.0
  Cl  Cl17  1  0.77224092  0.36821107  -0.00000000  1.0
  Cl  Cl18  1  0.72775908  0.86821107  0.50000000  1.0
  Cl  Cl19  1  0.22775908  0.63178893  -0.00000000  1.0
  Cl  Cl20  1  0.17576727  0.61393538  0.50000000  1.0
  Cl  Cl21  1  0.67576727  0.88606462  -0.00000000  1.0
  Cl  Cl22  1  0.82423273  0.38606462  0.50000000  1.0
  Cl  Cl23  1  0.32423273  0.11393538  -0.00000000  1.0
  Cl  Cl24  1  0.79576465  0.64271811  0.50000000  1.0
  Cl  Cl25  1  0.29576465  0.85728189  -0.00000000  1.0
  Cl  Cl26  1  0.20423535  0.35728189  0.50000000  1.0
  Cl  Cl27  1  0.70423535  0.14271811  -0.00000000  1.0
  Cl  Cl28  1  0.50000000  0.50000000  0.26322315  1.0
  Cl  Cl29  1  0.50000000  0.50000000  0.73677685  1.0
  Cl  Cl30  1  0.00000000  0.00000000  0.76322315  1.0
  Cl  Cl31  1  0.00000000  0.00000000  0.23677685  1.0
  O  O32  1  0.01082328  0.77421878  0.22042574  1.0
  O  O33  1  0.01082328  0.77421878  0.77957426  1.0
  O  O34  1  0.51082328  0.72578122  0.72042574  1.0
  O  O35  1  0.51082328  0.72578122  0.27957426  1.0
  O  O36  1  0.98917672  0.22578122  0.22042574  1.0
  O  O37  1  0.98917672  0.22578122  0.77957426  1.0
  O  O38  1  0.48917672  0.27421878  0.72042574  1.0
  O  O39  1  0.48917672  0.27421878  0.27957426  1.0
