# generated using pymatgen
data_BiPO4
_symmetry_space_group_name_H-M   'P 1'
_cell_length_a   6.55617864
_cell_length_b   7.05264613
_cell_length_c   8.25251417
_cell_angle_alpha   90.00000000
_cell_angle_beta   126.04964428
_cell_angle_gamma   90.00000000
_symmetry_Int_Tables_number   1
_chemical_formula_structural   BiPO4
_chemical_formula_sum   'Bi4 P4 O16'
_cell_volume   308.51277386
_cell_formula_units_Z   4
loop_
 _symmetry_equiv_pos_site_id
 _symmetry_equiv_pos_as_xyz
  1  'x, y, z'
loop_
 _atom_site_type_symbol
 _atom_site_label
 _atom_site_symmetry_multiplicity
 _atom_site_fract_x
 _atom_site_fract_y
 _atom_site_fract_z
 _atom_site_occupancy
  Bi  Bi0  1  0.79800211  0.85828335  0.21413369  1.0
  Bi  Bi1  1  0.79800211  0.64171665  0.71413369  1.0
  Bi  Bi2  1  0.20199789  0.35828335  0.28586631  1.0
  Bi  Bi3  1  0.20199789  0.14171665  0.78586631  1.0
  P  P4  1  0.68733656  0.33802344  0.29817071  1.0
  P  P5  1  0.68733656  0.16197656  0.79817071  1.0
  P  P6  1  0.31266344  0.83802344  0.20182929  1.0
  P  P7  1  0.31266344  0.66197656  0.70182929  1.0
  O  O8  1  0.85951186  0.15766340  0.37780060  1.0
  O  O9  1  0.85951186  0.34233660  0.87780060  1.0
  O  O10  1  0.14048814  0.65766340  0.12219940  1.0
  O  O11  1  0.14048814  0.84233660  0.62219940  1.0
  O  O12  1  0.82284732  0.49219805  0.26064693  1.0
  O  O13  1  0.82284732  0.00780195  0.76064693  1.0
  O  O14  1  0.17715268  0.99219805  0.23935307  1.0
  O  O15  1  0.17715268  0.50780195  0.73935307  1.0
  O  O16  1  0.64536943  0.40038176  0.46112847  1.0
  O  O17  1  0.64536943  0.09961824  0.96112847  1.0
  O  O18  1  0.35463057  0.90038176  0.03887153  1.0
  O  O19  1  0.35463057  0.59961824  0.53887153  1.0
  O  O20  1  0.41031232  0.29658768  0.11620724  1.0
  O  O21  1  0.41031232  0.20341232  0.61620724  1.0
  O  O22  1  0.58968768  0.79658768  0.38379276  1.0
  O  O23  1  0.58968768  0.70341232  0.88379276  1.0
