# generated using pymatgen
data_Li2WO4
_symmetry_space_group_name_H-M   'P 1'
_cell_length_a   9.00362576
_cell_length_b   9.00362576
_cell_length_c   9.00362576
_cell_angle_alpha   107.94554026
_cell_angle_beta   107.94554026
_cell_angle_gamma   107.94554026
_symmetry_Int_Tables_number   1
_chemical_formula_structural   Li2WO4
_chemical_formula_sum   'Li12 W6 O24'
_cell_volume   591.47370544
_cell_formula_units_Z   6
loop_
 _symmetry_equiv_pos_site_id
 _symmetry_equiv_pos_as_xyz
  1  'x, y, z'
loop_
 _atom_site_type_symbol
 _atom_site_label
 _atom_site_symmetry_multiplicity
 _atom_site_fract_x
 _atom_site_fract_y
 _atom_site_fract_z
 _atom_site_occupancy
  Li  Li0  1  0.70284200  1.10652807  -0.06869022  1.0
  Li  Li1  1  0.89347193  0.06869022  0.29715800  1.0
  Li  Li2  1  1.06869022  0.29715800  -0.10652807  1.0
  Li  Li3  1  1.29715800  -0.10652807  0.06869022  1.0
  Li  Li4  1  1.10652807  0.93130978  -0.29715800  1.0
  Li  Li5  1  0.93130978  0.70284200  0.10652807  1.0
  Li  Li6  1  1.37225453  0.77719365  -0.39327762  1.0
  Li  Li7  1  1.22280635  0.39327762  -0.37225453  1.0
  Li  Li8  1  1.39327762  -0.37225453  0.22280635  1.0
  Li  Li9  1  0.62774547  0.22280635  0.39327762  1.0
  Li  Li10  1  0.77719365  0.60672238  0.37225453  1.0
  Li  Li11  1  0.60672238  1.37225453  -0.22280635  1.0
  W  W12  1  1.55471413  0.73280908  -0.03607080  1.0
  W  W13  1  0.26719092  1.03607080  -0.55471413  1.0
  W  W14  1  1.03607080  0.44528587  -0.73280908  1.0
  W  W15  1  0.44528587  0.26719092  0.03607080  1.0
  W  W16  1  1.73280908  -0.03607080  0.55471413  1.0
  W  W17  1  0.96392920  0.55471413  0.73280908  1.0
  O  O18  1  1.57507055  0.24954830  -0.07983179  1.0
  O  O19  1  0.75045170  1.07983179  -0.57507055  1.0
  O  O20  1  1.07983179  0.42492945  -0.24954830  1.0
  O  O21  1  0.42492945  0.75045170  0.07983179  1.0
  O  O22  1  1.24954830  -0.07983179  0.57507055  1.0
  O  O23  1  0.92016821  0.57507055  0.24954830  1.0
  O  O24  1  0.77873246  0.81872199  0.11627321  1.0
  O  O25  1  1.18127801  -0.11627321  0.22126754  1.0
  O  O26  1  0.88372679  0.22126754  0.18127801  1.0
  O  O27  1  1.22126754  0.18127801  -0.11627321  1.0
  O  O28  1  0.81872199  1.11627321  -0.22126754  1.0
  O  O29  1  1.11627321  0.77873246  -0.18127801  1.0
  O  O30  1  1.47089885  0.50901593  -0.18979513  1.0
  O  O31  1  0.49098407  1.18979513  -0.47089885  1.0
  O  O32  1  1.18979513  0.52910115  -0.50901593  1.0
  O  O33  1  0.52910115  0.49098407  0.18979513  1.0
  O  O34  1  1.50901593  -0.18979513  0.47089885  1.0
  O  O35  1  0.81020487  0.47089885  0.50901593  1.0
  O  O36  1  1.54033333  0.86110911  -0.15302812  1.0
  O  O37  1  1.13889089  0.15302812  -0.54033333  1.0
  O  O38  1  1.15302812  -0.54033333  0.13889089  1.0
  O  O39  1  0.45966667  0.13889089  0.15302812  1.0
  O  O40  1  0.86110911  0.84697188  0.54033333  1.0
  O  O41  1  0.84697188  1.54033333  -0.13889089  1.0
