# generated using pymatgen
data_CuH6BrN2
_symmetry_space_group_name_H-M   'P 1'
_cell_length_a   7.37970149
_cell_length_b   7.37970149
_cell_length_c   5.65083730
_cell_angle_alpha   79.65599259
_cell_angle_beta   100.34400741
_cell_angle_gamma   57.54678290
_symmetry_Int_Tables_number   1
_chemical_formula_structural   CuH6BrN2
_chemical_formula_sum   'Cu2 H12 Br2 N4'
_cell_volume   240.93963565
_cell_formula_units_Z   2
loop_
 _symmetry_equiv_pos_site_id
 _symmetry_equiv_pos_as_xyz
  1  'x, y, z'
loop_
 _atom_site_type_symbol
 _atom_site_label
 _atom_site_symmetry_multiplicity
 _atom_site_fract_x
 _atom_site_fract_y
 _atom_site_fract_z
 _atom_site_occupancy
  Cu  Cu0  1  0.00000000  0.00000000  0.00000000  1.0
  Cu  Cu1  1  0.00000000  -0.00000000  0.50000000  1.0
  H  H2  1  0.70747684  -0.07516467  0.90186901  1.0
  H  H3  1  1.07516467  -0.70747684  0.40186901  1.0
  H  H4  1  0.92483533  -0.29252316  0.59813099  1.0
  H  H5  1  0.29252316  0.07516467  0.09813099  1.0
  H  H6  1  0.61170852  0.14413385  1.01156104  1.0
  H  H7  1  0.85586615  -0.61170852  0.51156104  1.0
  H  H8  1  1.14413385  -0.38829148  0.48843896  1.0
  H  H9  1  0.38829148  -0.14413385  -0.01156104  1.0
  H  H10  1  0.60964868  0.17633361  0.71247251  1.0
  H  H11  1  0.82366639  -0.60964868  0.21247251  1.0
  H  H12  1  1.17633361  -0.39035132  0.78752749  1.0
  H  H13  1  0.39035132  -0.17633361  0.28752749  1.0
  Br  Br14  1  0.64335424  -0.35664576  0.75000000  1.0
  Br  Br15  1  0.35664576  0.35664576  0.25000000  1.0
  N  N16  1  0.70392127  0.06704065  0.89826943  1.0
  N  N17  1  0.93295935  -0.70392127  0.39826943  1.0
  N  N18  1  1.06704065  -0.29607873  0.60173057  1.0
  N  N19  1  0.29607873  -0.06704065  0.10173057  1.0
