# generated using pymatgen
data_SrBr2
_symmetry_space_group_name_H-M   'P 1'
_cell_length_a   11.75303021
_cell_length_b   11.75303021
_cell_length_c   7.29022121
_cell_angle_alpha   90.00000000
_cell_angle_beta   90.00000000
_cell_angle_gamma   90.00000000
_symmetry_Int_Tables_number   1
_chemical_formula_structural   SrBr2
_chemical_formula_sum   'Sr10 Br20'
_cell_volume   1007.02536828
_cell_formula_units_Z   10
loop_
 _symmetry_equiv_pos_site_id
 _symmetry_equiv_pos_as_xyz
  1  'x, y, z'
loop_
 _atom_site_type_symbol
 _atom_site_label
 _atom_site_symmetry_multiplicity
 _atom_site_fract_x
 _atom_site_fract_y
 _atom_site_fract_z
 _atom_site_occupancy
  Sr  Sr0  1  0.66833919  0.35784290  0.75345813  1.0
  Sr  Sr1  1  0.33166081  0.64215710  0.75345813  1.0
  Sr  Sr2  1  0.85784290  0.83166081  0.75345813  1.0
  Sr  Sr3  1  0.14215710  0.16833919  0.75345813  1.0
  Sr  Sr4  1  0.83166081  0.14215710  0.24654187  1.0
  Sr  Sr5  1  0.16833919  0.85784290  0.24654187  1.0
  Sr  Sr6  1  0.64215710  0.66833919  0.24654187  1.0
  Sr  Sr7  1  0.35784290  0.33166081  0.24654187  1.0
  Sr  Sr8  1  0.00000000  0.50000000  0.16108027  1.0
  Sr  Sr9  1  0.50000000  0.00000000  0.83891973  1.0
  Br  Br10  1  0.79287668  0.39600142  0.38089344  1.0
  Br  Br11  1  0.20712332  0.60399858  0.38089344  1.0
  Br  Br12  1  0.89600142  0.70712332  0.38089344  1.0
  Br  Br13  1  0.10399858  0.29287668  0.38089344  1.0
  Br  Br14  1  0.70712332  0.10399858  0.61910656  1.0
  Br  Br15  1  0.29287668  0.89600142  0.61910656  1.0
  Br  Br16  1  0.60399858  0.79287668  0.61910656  1.0
  Br  Br17  1  0.39600142  0.20712332  0.61910656  1.0
  Br  Br18  1  0.79324470  0.58898899  0.91222588  1.0
  Br  Br19  1  0.20675530  0.41101101  0.91222588  1.0
  Br  Br20  1  0.08898899  0.70675530  0.91222588  1.0
  Br  Br21  1  0.91101101  0.29324470  0.91222588  1.0
  Br  Br22  1  0.70675530  0.91101101  0.08777412  1.0
  Br  Br23  1  0.29324470  0.08898899  0.08777412  1.0
  Br  Br24  1  0.41101101  0.79324470  0.08777412  1.0
  Br  Br25  1  0.58898899  0.20675530  0.08777412  1.0
  Br  Br26  1  0.50000000  0.50000000  0.00000000  1.0
  Br  Br27  1  0.00000000  0.00000000  0.00000000  1.0
  Br  Br28  1  0.50000000  0.50000000  0.50000000  1.0
  Br  Br29  1  0.00000000  0.00000000  0.50000000  1.0
