# generated using pymatgen
data_YRe2
_symmetry_space_group_name_H-M   'P 1'
_cell_length_a   5.41945460
_cell_length_b   5.41945460
_cell_length_c   8.82258328
_cell_angle_alpha   90.00000000
_cell_angle_beta   90.00000000
_cell_angle_gamma   120.00000000
_symmetry_Int_Tables_number   1
_chemical_formula_structural   YRe2
_chemical_formula_sum   'Y4 Re8'
_cell_volume   224.40760096
_cell_formula_units_Z   4
loop_
 _symmetry_equiv_pos_site_id
 _symmetry_equiv_pos_as_xyz
  1  'x, y, z'
loop_
 _atom_site_type_symbol
 _atom_site_label
 _atom_site_symmetry_multiplicity
 _atom_site_fract_x
 _atom_site_fract_y
 _atom_site_fract_z
 _atom_site_occupancy
  Y  Y0  1  0.33333333  0.66666667  0.93784110  1.0
  Y  Y1  1  0.33333333  0.66666667  0.56215890  1.0
  Y  Y2  1  0.66666667  0.33333333  0.43784110  1.0
  Y  Y3  1  0.66666667  0.33333333  0.06215890  1.0
  Re  Re4  1  0.17069969  0.82930031  0.25000000  1.0
  Re  Re5  1  0.17069969  0.34139937  0.25000000  1.0
  Re  Re6  1  0.82930031  0.17069969  0.75000000  1.0
  Re  Re7  1  0.82930031  0.65860063  0.75000000  1.0
  Re  Re8  1  0.65860063  0.82930031  0.25000000  1.0
  Re  Re9  1  0.34139937  0.17069969  0.75000000  1.0
  Re  Re10  1  0.00000000  0.00000000  0.50000000  1.0
  Re  Re11  1  0.00000000  0.00000000  0.00000000  1.0
