# generated using pymatgen
data_K2HgBr2(NO6)2
_symmetry_space_group_name_H-M   'P 1'
_cell_length_a   7.52211042
_cell_length_b   14.42851711
_cell_length_c   5.72151040
_cell_angle_alpha   90.00000000
_cell_angle_beta   90.00000000
_cell_angle_gamma   90.00000000
_symmetry_Int_Tables_number   1
_chemical_formula_structural   K2HgBr2(NO6)2
_chemical_formula_sum   'K4 Hg2 Br4 N4 O24'
_cell_volume   620.97210938
_cell_formula_units_Z   2
loop_
 _symmetry_equiv_pos_site_id
 _symmetry_equiv_pos_as_xyz
  1  'x, y, z'
loop_
 _atom_site_type_symbol
 _atom_site_label
 _atom_site_symmetry_multiplicity
 _atom_site_fract_x
 _atom_site_fract_y
 _atom_site_fract_z
 _atom_site_occupancy
  K  K0  1  0.24454207  0.22224964  0.50000000  1.0
  K  K1  1  0.74454207  0.27775036  -0.00000000  1.0
  K  K2  1  0.75545793  0.77775036  0.50000000  1.0
  K  K3  1  0.25545793  0.72224964  -0.00000000  1.0
  Hg  Hg4  1  0.50000000  0.50000000  0.50000000  1.0
  Hg  Hg5  1  0.00000000  0.00000000  0.00000000  1.0
  Br  Br6  1  0.23440555  0.88572411  0.50000000  1.0
  Br  Br7  1  0.73440555  0.61427589  0.00000000  1.0
  Br  Br8  1  0.76559445  0.11427589  0.50000000  1.0
  Br  Br9  1  0.26559445  0.38572411  0.00000000  1.0
  N  N10  1  0.14016300  0.58686942  0.50000000  1.0
  N  N11  1  0.64016300  0.91313058  -0.00000000  1.0
  N  N12  1  0.85983700  0.41313058  0.50000000  1.0
  N  N13  1  0.35983700  0.08686942  -0.00000000  1.0
  O  O14  1  0.21974880  0.56836509  0.30884085  1.0
  O  O15  1  0.21974880  0.56836509  0.69115915  1.0
  O  O16  1  0.71974880  0.93163491  0.80884085  1.0
  O  O17  1  0.71974880  0.93163491  0.19115915  1.0
  O  O18  1  0.78025120  0.43163491  0.30884085  1.0
  O  O19  1  0.78025120  0.43163491  0.69115915  1.0
  O  O20  1  0.28025120  0.06836509  0.80884085  1.0
  O  O21  1  0.28025120  0.06836509  0.19115915  1.0
  O  O22  1  0.09289983  0.87422642  0.26708159  1.0
  O  O23  1  0.09289983  0.87422642  0.73291841  1.0
  O  O24  1  0.59289983  0.62577358  0.76708159  1.0
  O  O25  1  0.59289983  0.62577358  0.23291841  1.0
  O  O26  1  0.90710017  0.12577358  0.26708159  1.0
  O  O27  1  0.90710017  0.12577358  0.73291841  1.0
  O  O28  1  0.40710017  0.37422642  0.76708159  1.0
  O  O29  1  0.40710017  0.37422642  0.23291841  1.0
  O  O30  1  0.34940079  0.78626379  0.50000000  1.0
  O  O31  1  0.84940079  0.71373621  -0.00000000  1.0
  O  O32  1  0.65059921  0.21373621  0.50000000  1.0
  O  O33  1  0.15059921  0.28626379  -0.00000000  1.0
  O  O34  1  0.98946431  0.62202427  0.50000000  1.0
  O  O35  1  0.48946431  0.87797573  -0.00000000  1.0
  O  O36  1  0.01053569  0.37797573  0.50000000  1.0
  O  O37  1  0.51053569  0.12202427  -0.00000000  1.0
