# generated using pymatgen
data_Ba4Ir3O10
_symmetry_space_group_name_H-M   'P 1'
_cell_length_a   7.27572852
_cell_length_b   7.27572852
_cell_length_c   13.47580125
_cell_angle_alpha   90.00000000
_cell_angle_beta   90.00000000
_cell_angle_gamma   132.93419308
_symmetry_Int_Tables_number   1
_chemical_formula_structural   Ba4Ir3O10
_chemical_formula_sum   'Ba8 Ir6 O20'
_cell_volume   522.27548772
_cell_formula_units_Z   2
loop_
 _symmetry_equiv_pos_site_id
 _symmetry_equiv_pos_as_xyz
  1  'x, y, z'
loop_
 _atom_site_type_symbol
 _atom_site_label
 _atom_site_symmetry_multiplicity
 _atom_site_fract_x
 _atom_site_fract_y
 _atom_site_fract_z
 _atom_site_occupancy
  O  O0  1  -0.11548728  0.65881092  0.96596633  1.0
  O  O1  1  0.38451272  1.15881092  0.53403367  1.0
  O  O2  1  0.65881092  0.88451272  0.03403367  1.0
  O  O3  1  0.15881092  0.38451272  0.46596633  1.0
  O  O4  1  0.34118908  1.11548728  0.96596633  1.0
  O  O5  1  -0.15881092  0.61548728  0.53403367  1.0
  O  O6  1  0.11548728  0.34118908  0.03403367  1.0
  O  O7  1  0.61548728  0.84118908  0.46596633  1.0
  O  O8  1  0.26876478  0.73123522  0.83538742  1.0
  O  O9  1  -0.23123522  0.23123522  0.66461258  1.0
  O  O10  1  -0.26876478  0.26876478  0.16461258  1.0
  O  O11  1  0.23123522  0.76876478  0.33538742  1.0
  O  O12  1  0.45926026  0.54073974  0.64691345  1.0
  O  O13  1  -0.04073974  0.04073974  0.85308655  1.0
  O  O14  1  -0.45926026  0.45926026  0.35308655  1.0
  O  O15  1  0.04073974  0.95926026  0.14691345  1.0
  O  O16  1  -0.14779548  0.64779548  0.75000000  1.0
  O  O17  1  0.35220452  1.14779548  0.75000000  1.0
  O  O18  1  0.64779548  0.85220452  0.25000000  1.0
  O  O19  1  0.14779548  0.35220452  0.25000000  1.0
  Ir  Ir20  1  0.00000000  0.00000000  0.00000000  1.0
  Ir  Ir21  1  0.50000000  0.50000000  0.50000000  1.0
  Ir  Ir22  1  0.12027734  0.87972266  0.85033940  1.0
  Ir  Ir23  1  -0.37972266  0.37972266  0.64966060  1.0
  Ir  Ir24  1  -0.12027734  0.12027734  0.14966060  1.0
  Ir  Ir25  1  0.37972266  0.62027734  0.35033940  1.0
  Ba  Ba26  1  0.25726703  0.74273297  0.62084326  1.0
  Ba  Ba27  1  -0.24273297  0.24273297  0.87915674  1.0
  Ba  Ba28  1  -0.25726703  0.25726703  0.37915674  1.0
  Ba  Ba29  1  0.24273297  0.75726703  0.12084326  1.0
  Ba  Ba30  1  0.46010924  0.53989076  0.86036166  1.0
  Ba  Ba31  1  -0.03989076  0.03989076  0.63963834  1.0
  Ba  Ba32  1  -0.46010924  0.46010924  0.13963834  1.0
  Ba  Ba33  1  0.03989076  0.96010924  0.36036166  1.0
