# generated using pymatgen
data_Y(CO2)4
_symmetry_space_group_name_H-M   'P 1'
_cell_length_a   8.45275745
_cell_length_b   8.45275745
_cell_length_c   5.34034023
_cell_angle_alpha   90.00000000
_cell_angle_beta   90.00000000
_cell_angle_gamma   90.00000000
_symmetry_Int_Tables_number   1
_chemical_formula_structural   Y(CO2)4
_chemical_formula_sum   'Y2 C8 O16'
_cell_volume   381.56254919
_cell_formula_units_Z   2
loop_
 _symmetry_equiv_pos_site_id
 _symmetry_equiv_pos_as_xyz
  1  'x, y, z'
loop_
 _atom_site_type_symbol
 _atom_site_label
 _atom_site_symmetry_multiplicity
 _atom_site_fract_x
 _atom_site_fract_y
 _atom_site_fract_z
 _atom_site_occupancy
  Y  Y0  1  0.50000000  0.50000000  -0.00000000  1.0
  Y  Y1  1  0.00000000  0.00000000  -0.00000000  1.0
  C  C2  1  0.23675128  0.76169156  0.65358570  1.0
  C  C3  1  0.76324872  0.23830844  0.65358570  1.0
  C  C4  1  0.26169156  0.26324872  0.65358570  1.0
  C  C5  1  0.73830844  0.73675128  0.65358570  1.0
  C  C6  1  0.26324872  0.73830844  0.34641430  1.0
  C  C7  1  0.73675128  0.26169156  0.34641430  1.0
  C  C8  1  0.23830844  0.23675128  0.34641430  1.0
  C  C9  1  0.76169156  0.76324872  0.34641430  1.0
  O  O10  1  0.29431891  0.65722749  0.78939242  1.0
  O  O11  1  0.70568109  0.34277251  0.78939242  1.0
  O  O12  1  0.15722749  0.20568109  0.78939242  1.0
  O  O13  1  0.84277251  0.79431891  0.78939242  1.0
  O  O14  1  0.20568109  0.84277251  0.21060758  1.0
  O  O15  1  0.79431891  0.15722749  0.21060758  1.0
  O  O16  1  0.34277251  0.29431891  0.21060758  1.0
  O  O17  1  0.65722749  0.70568109  0.21060758  1.0
  O  O18  1  0.16080749  0.88321225  0.70807325  1.0
  O  O19  1  0.83919251  0.11678775  0.70807325  1.0
  O  O20  1  0.38321225  0.33919251  0.70807325  1.0
  O  O21  1  0.61678775  0.66080749  0.70807325  1.0
  O  O22  1  0.33919251  0.61678775  0.29192675  1.0
  O  O23  1  0.66080749  0.38321225  0.29192675  1.0
  O  O24  1  0.11678775  0.16080749  0.29192675  1.0
  O  O25  1  0.88321225  0.83919251  0.29192675  1.0
