# generated using pymatgen
data_La2TeO6
_symmetry_space_group_name_H-M   'P 1'
_cell_length_a   5.59935437
_cell_length_b   9.62416114
_cell_length_c   10.56397520
_cell_angle_alpha   90.00000000
_cell_angle_beta   90.00000000
_cell_angle_gamma   90.00000000
_symmetry_Int_Tables_number   1
_chemical_formula_structural   La2TeO6
_chemical_formula_sum   'La8 Te4 O24'
_cell_volume   569.28299650
_cell_formula_units_Z   4
loop_
 _symmetry_equiv_pos_site_id
 _symmetry_equiv_pos_as_xyz
  1  'x, y, z'
loop_
 _atom_site_type_symbol
 _atom_site_label
 _atom_site_symmetry_multiplicity
 _atom_site_fract_x
 _atom_site_fract_y
 _atom_site_fract_z
 _atom_site_occupancy
  La  La0  1  0.46887052  0.78256911  0.63976875  1.0
  La  La1  1  0.96887052  0.71743089  0.36023125  1.0
  La  La2  1  0.53112948  0.28256911  0.86023125  1.0
  La  La3  1  0.03112948  0.21743089  0.13976875  1.0
  La  La4  1  0.47658196  0.89613969  0.04262776  1.0
  La  La5  1  0.97658196  0.60386031  0.95737224  1.0
  La  La6  1  0.52341804  0.39613969  0.45737224  1.0
  La  La7  1  0.02341804  0.10386031  0.54262776  1.0
  Te  Te8  1  0.96060979  0.99591961  0.85763352  1.0
  Te  Te9  1  0.46060979  0.50408039  0.14236648  1.0
  Te  Te10  1  0.03939021  0.49591961  0.64236648  1.0
  Te  Te11  1  0.53939021  0.00408039  0.35763352  1.0
  O  O12  1  0.18047279  0.63777742  0.75620470  1.0
  O  O13  1  0.68047279  0.86222258  0.24379530  1.0
  O  O14  1  0.81952721  0.13777742  0.74379530  1.0
  O  O15  1  0.31952721  0.36222258  0.25620470  1.0
  O  O16  1  0.16996847  0.94748924  0.71290376  1.0
  O  O17  1  0.66996847  0.55251076  0.28709624  1.0
  O  O18  1  0.83003153  0.44748924  0.78709624  1.0
  O  O19  1  0.33003153  0.05251076  0.21290376  1.0
  O  O20  1  0.07646901  0.84928540  0.97690927  1.0
  O  O21  1  0.57646901  0.65071460  0.02309073  1.0
  O  O22  1  0.92353099  0.34928540  0.52309073  1.0
  O  O23  1  0.42353099  0.15071460  0.47690927  1.0
  O  O24  1  0.77616118  0.61302831  0.56410452  1.0
  O  O25  1  0.27616118  0.88697169  0.43589548  1.0
  O  O26  1  0.22383882  0.11302831  0.93589548  1.0
  O  O27  1  0.72383882  0.38697169  0.06410452  1.0
  O  O28  1  0.30624462  0.36071683  0.67555894  1.0
  O  O29  1  0.80624462  0.13928317  0.32444106  1.0
  O  O30  1  0.69375538  0.86071683  0.82444106  1.0
  O  O31  1  0.19375538  0.63928317  0.17555894  1.0
  O  O32  1  0.24644872  0.58591937  0.50702043  1.0
  O  O33  1  0.74644872  0.91408063  0.49297957  1.0
  O  O34  1  0.75355128  0.08591937  0.99297957  1.0
  O  O35  1  0.25355128  0.41408063  0.00702043  1.0
