# generated using pymatgen
data_Nb2CuS4
_symmetry_space_group_name_H-M   'P 1'
_cell_length_a   11.58022714
_cell_length_b   3.35223792
_cell_length_c   13.20748044
_cell_angle_alpha   90.00000000
_cell_angle_beta   90.00000000
_cell_angle_gamma   90.00000000
_symmetry_Int_Tables_number   1
_chemical_formula_structural   Nb2CuS4
_chemical_formula_sum   'Nb8 Cu4 S16'
_cell_volume   512.71011835
_cell_formula_units_Z   4
loop_
 _symmetry_equiv_pos_site_id
 _symmetry_equiv_pos_as_xyz
  1  'x, y, z'
loop_
 _atom_site_type_symbol
 _atom_site_label
 _atom_site_symmetry_multiplicity
 _atom_site_fract_x
 _atom_site_fract_y
 _atom_site_fract_z
 _atom_site_occupancy
  Nb  Nb0  1  0.06806123  0.25000000  0.57734119  1.0
  Nb  Nb1  1  0.56806123  0.25000000  0.92265881  1.0
  Nb  Nb2  1  0.93193877  0.75000000  0.42265881  1.0
  Nb  Nb3  1  0.43193877  0.75000000  0.07734119  1.0
  Nb  Nb4  1  0.03819536  0.25000000  0.09167924  1.0
  Nb  Nb5  1  0.53819536  0.25000000  0.40832076  1.0
  Nb  Nb6  1  0.96180464  0.75000000  0.90832076  1.0
  Nb  Nb7  1  0.46180464  0.75000000  0.59167924  1.0
  Cu  Cu8  1  0.15868779  0.25000000  0.26789916  1.0
  Cu  Cu9  1  0.65868779  0.25000000  0.23210084  1.0
  Cu  Cu10  1  0.84131221  0.75000000  0.73210084  1.0
  Cu  Cu11  1  0.34131221  0.75000000  0.76789916  1.0
  S  S12  1  0.36123123  0.25000000  0.95526525  1.0
  S  S13  1  0.86123123  0.25000000  0.54473475  1.0
  S  S14  1  0.63876877  0.75000000  0.04473475  1.0
  S  S15  1  0.13876877  0.75000000  0.45526525  1.0
  S  S16  1  0.29927586  0.25000000  0.64829051  1.0
  S  S17  1  0.79927586  0.25000000  0.85170949  1.0
  S  S18  1  0.70072414  0.75000000  0.35170949  1.0
  S  S19  1  0.20072414  0.75000000  0.14829051  1.0
  S  S20  1  0.11306984  0.25000000  0.92242005  1.0
  S  S21  1  0.61306984  0.25000000  0.57757995  1.0
  S  S22  1  0.88693016  0.75000000  0.07757995  1.0
  S  S23  1  0.38693016  0.75000000  0.42242005  1.0
  S  S24  1  -0.03824247  0.25000000  0.28511097  1.0
  S  S25  1  0.46175753  0.25000000  0.21488903  1.0
  S  S26  1  1.03824247  0.75000000  0.71488903  1.0
  S  S27  1  0.53824247  0.75000000  0.78511097  1.0
