# generated using pymatgen
data_Ba3Ta5O15
_symmetry_space_group_name_H-M   'P 1'
_cell_length_a   12.73766361
_cell_length_b   12.73766361
_cell_length_c   4.01077987
_cell_angle_alpha   90.00000000
_cell_angle_beta   90.00000000
_cell_angle_gamma   90.00000000
_symmetry_Int_Tables_number   1
_chemical_formula_structural   Ba3Ta5O15
_chemical_formula_sum   'Ba6 Ta10 O30'
_cell_volume   650.74131004
_cell_formula_units_Z   2
loop_
 _symmetry_equiv_pos_site_id
 _symmetry_equiv_pos_as_xyz
  1  'x, y, z'
loop_
 _atom_site_type_symbol
 _atom_site_label
 _atom_site_symmetry_multiplicity
 _atom_site_fract_x
 _atom_site_fract_y
 _atom_site_fract_z
 _atom_site_occupancy
  Ba  Ba0  1  0.83148775  0.66851225  0.50000000  1.0
  Ba  Ba1  1  0.33148775  0.83148775  0.50000000  1.0
  Ba  Ba2  1  0.16851225  0.33148775  0.50000000  1.0
  Ba  Ba3  1  0.66851225  0.16851225  0.50000000  1.0
  Ba  Ba4  1  0.50000000  0.50000000  0.50000000  1.0
  Ba  Ba5  1  0.00000000  0.00000000  0.50000000  1.0
  Ta  Ta6  1  0.28729569  0.57674351  0.00000000  1.0
  Ta  Ta7  1  0.78729569  0.92325649  0.00000000  1.0
  Ta  Ta8  1  0.42325649  0.28729569  0.00000000  1.0
  Ta  Ta9  1  0.92325649  0.21270431  0.00000000  1.0
  Ta  Ta10  1  0.71270431  0.42325649  0.00000000  1.0
  Ta  Ta11  1  0.21270431  0.07674351  0.00000000  1.0
  Ta  Ta12  1  0.57674351  0.71270431  0.00000000  1.0
  Ta  Ta13  1  0.07674351  0.78729569  0.00000000  1.0
  Ta  Ta14  1  0.50000000  0.00000000  0.00000000  1.0
  Ta  Ta15  1  0.00000000  0.50000000  0.00000000  1.0
  O  O16  1  0.29191457  0.57787901  0.50000000  1.0
  O  O17  1  0.79191457  0.92212099  0.50000000  1.0
  O  O18  1  0.42212099  0.29191457  0.50000000  1.0
  O  O19  1  0.92212099  0.20808543  0.50000000  1.0
  O  O20  1  0.70808543  0.42212099  0.50000000  1.0
  O  O21  1  0.20808543  0.07787901  0.50000000  1.0
  O  O22  1  0.57787901  0.70808543  0.50000000  1.0
  O  O23  1  0.07787901  0.79191457  0.50000000  1.0
  O  O24  1  0.49364663  0.84364611  0.00000000  1.0
  O  O25  1  0.99364663  0.65635389  0.00000000  1.0
  O  O26  1  0.15635389  0.49364663  0.00000000  1.0
  O  O27  1  0.65635389  0.00635337  0.00000000  1.0
  O  O28  1  0.50635337  0.15635389  0.00000000  1.0
  O  O29  1  0.00635337  0.34364611  0.00000000  1.0
  O  O30  1  0.84364611  0.50635337  0.00000000  1.0
  O  O31  1  0.34364611  0.99364663  0.00000000  1.0
  O  O32  1  0.43191991  0.64045090  0.00000000  1.0
  O  O33  1  0.93191991  0.85954910  0.00000000  1.0
  O  O34  1  0.35954910  0.43191991  0.00000000  1.0
  O  O35  1  0.85954910  0.06808009  0.00000000  1.0
  O  O36  1  0.56808009  0.35954910  0.00000000  1.0
  O  O37  1  0.06808009  0.14045090  0.00000000  1.0
  O  O38  1  0.64045090  0.56808009  0.00000000  1.0
  O  O39  1  0.14045090  0.93191991  0.00000000  1.0
  O  O40  1  0.28128176  0.21871824  0.00000000  1.0
  O  O41  1  0.78128176  0.28128176  0.00000000  1.0
  O  O42  1  0.71871824  0.78128176  0.00000000  1.0
  O  O43  1  0.21871824  0.71871824  0.00000000  1.0
  O  O44  1  0.50000000  0.00000000  0.50000000  1.0
  O  O45  1  0.00000000  0.50000000  0.50000000  1.0
