# generated using pymatgen
data_Ta2InCuTe4
_symmetry_space_group_name_H-M   'P 1'
_cell_length_a   8.61253055
_cell_length_b   8.61253055
_cell_length_c   8.61253055
_cell_angle_alpha   141.53933144
_cell_angle_beta   141.53933144
_cell_angle_gamma   55.52333044
_symmetry_Int_Tables_number   1
_chemical_formula_structural   Ta2InCuTe4
_chemical_formula_sum   'Ta2 In1 Cu1 Te4'
_cell_volume   245.30254959
_cell_formula_units_Z   1
loop_
 _symmetry_equiv_pos_site_id
 _symmetry_equiv_pos_as_xyz
  1  'x, y, z'
loop_
 _atom_site_type_symbol
 _atom_site_label
 _atom_site_symmetry_multiplicity
 _atom_site_fract_x
 _atom_site_fract_y
 _atom_site_fract_z
 _atom_site_occupancy
  Ta  Ta0  1  0.25000000  0.75000000  0.50000000  1.0
  Ta  Ta1  1  0.75000000  0.25000000  0.50000000  1.0
  In  In2  1  0.50000000  0.50000000  1.00000000  1.0
  Cu  Cu3  1  -0.00000000  -0.00000000  -0.00000000  1.0
  Te  Te4  1  0.35244940  0.90748680  1.00000000  1.0
  Te  Te5  1  1.09251320  1.09251320  1.44496261  1.0
  Te  Te6  1  0.64755060  0.64755060  0.55503739  1.0
  Te  Te7  1  0.90748680  0.35244940  1.00000000  1.0
