# generated using pymatgen
data_CuN8
_symmetry_space_group_name_H-M   'P 1'
_cell_length_a   5.59595565
_cell_length_b   7.24700564
_cell_length_c   15.71416227
_cell_angle_alpha   90.00000000
_cell_angle_beta   90.00000000
_cell_angle_gamma   90.00000000
_symmetry_Int_Tables_number   1
_chemical_formula_structural   CuN8
_chemical_formula_sum   'Cu4 N32'
_cell_volume   637.27091279
_cell_formula_units_Z   4
loop_
 _symmetry_equiv_pos_site_id
 _symmetry_equiv_pos_as_xyz
  1  'x, y, z'
loop_
 _atom_site_type_symbol
 _atom_site_label
 _atom_site_symmetry_multiplicity
 _atom_site_fract_x
 _atom_site_fract_y
 _atom_site_fract_z
 _atom_site_occupancy
  N  N0  1  0.44945307  0.75000000  0.61675833  1.0
  N  N1  1  0.94945307  0.75000000  0.88324167  1.0
  N  N2  1  0.55054693  0.25000000  0.38324167  1.0
  N  N3  1  0.05054693  0.25000000  0.11675833  1.0
  N  N4  1  0.29083716  0.75000000  0.66456345  1.0
  N  N5  1  0.79083716  0.75000000  0.83543655  1.0
  N  N6  1  0.70916284  0.25000000  0.33543655  1.0
  N  N7  1  0.20916284  0.25000000  0.16456345  1.0
  N  N8  1  0.30677513  0.75000000  0.01076658  1.0
  N  N9  1  0.80677513  0.75000000  0.48923342  1.0
  N  N10  1  0.69322487  0.25000000  0.98923342  1.0
  N  N11  1  0.19322487  0.25000000  0.51076658  1.0
  N  N12  1  0.20666267  0.75000000  0.07537108  1.0
  N  N13  1  0.70666267  0.75000000  0.42462892  1.0
  N  N14  1  0.79333733  0.25000000  0.92462892  1.0
  N  N15  1  0.29333733  0.25000000  0.57537108  1.0
  N  N16  1  0.28688184  0.32616682  0.81805003  1.0
  N  N17  1  0.28688184  0.17383318  0.81805003  1.0
  N  N18  1  0.78688184  0.32616682  0.68194997  1.0
  N  N19  1  0.78688184  0.17383318  0.68194997  1.0
  N  N20  1  0.71311816  0.82616682  0.18194997  1.0
  N  N21  1  0.71311816  0.67383318  0.18194997  1.0
  N  N22  1  0.21311816  0.82616682  0.31805003  1.0
  N  N23  1  0.21311816  0.67383318  0.31805003  1.0
  N  N24  1  0.42188913  0.75000000  -0.05398201  1.0
  N  N25  1  0.92188913  0.75000000  0.55398201  1.0
  N  N26  1  0.57811087  0.25000000  1.05398201  1.0
  N  N27  1  0.07811087  0.25000000  0.44601799  1.0
  N  N28  1  0.13480022  0.75000000  0.71735472  1.0
  N  N29  1  0.63480022  0.75000000  0.78264528  1.0
  N  N30  1  0.86519978  0.25000000  0.28264528  1.0
  N  N31  1  0.36519978  0.25000000  0.21735472  1.0
  Cu  Cu32  1  0.28463551  0.75000000  0.83453633  1.0
  Cu  Cu33  1  0.78463551  0.75000000  0.66546367  1.0
  Cu  Cu34  1  0.71536449  0.25000000  0.16546367  1.0
  Cu  Cu35  1  0.21536449  0.25000000  0.33453633  1.0
