# generated using pymatgen
data_Zn3(AsO4)2
_symmetry_space_group_name_H-M   'P 1'
_cell_length_a   5.36024757
_cell_length_b   8.64121223
_cell_length_c   9.07202209
_cell_angle_alpha   90.00000000
_cell_angle_beta   119.40914704
_cell_angle_gamma   90.00000000
_symmetry_Int_Tables_number   1
_chemical_formula_structural   Zn3(AsO4)2
_chemical_formula_sum   'Zn6 As4 O16'
_cell_volume   366.05748856
_cell_formula_units_Z   2
loop_
 _symmetry_equiv_pos_site_id
 _symmetry_equiv_pos_as_xyz
  1  'x, y, z'
loop_
 _atom_site_type_symbol
 _atom_site_label
 _atom_site_symmetry_multiplicity
 _atom_site_fract_x
 _atom_site_fract_y
 _atom_site_fract_z
 _atom_site_occupancy
  Zn  Zn0  1  0.98028796  0.85917521  0.39036511  1.0
  Zn  Zn1  1  0.98028796  0.64082479  0.89036511  1.0
  Zn  Zn2  1  0.01971204  0.35917521  0.10963489  1.0
  Zn  Zn3  1  0.01971204  0.14082479  0.60963489  1.0
  Zn  Zn4  1  0.00000000  0.50000000  0.50000000  1.0
  Zn  Zn5  1  0.00000000  0.00000000  0.00000000  1.0
  As  As6  1  0.65211305  0.19187419  0.19395203  1.0
  As  As7  1  0.65211305  0.30812581  0.69395203  1.0
  As  As8  1  0.34788695  0.69187419  0.30604797  1.0
  As  As9  1  0.34788695  0.80812581  0.80604797  1.0
  O  O10  1  0.82894239  0.37095114  0.25375751  1.0
  O  O11  1  0.82894239  0.12904886  0.75375751  1.0
  O  O12  1  0.17105761  0.87095114  0.24624249  1.0
  O  O13  1  0.17105761  0.62904886  0.74624249  1.0
  O  O14  1  0.79439588  0.06516496  0.36518173  1.0
  O  O15  1  0.79439588  0.43483504  0.86518173  1.0
  O  O16  1  0.20560412  0.56516496  0.13481827  1.0
  O  O17  1  0.20560412  0.93483504  0.63481827  1.0
  O  O18  1  0.72589586  0.13866004  0.03455930  1.0
  O  O19  1  0.72589586  0.36133996  0.53455930  1.0
  O  O20  1  0.27410414  0.63866004  0.46544070  1.0
  O  O21  1  0.27410414  0.86133996  0.96544070  1.0
  O  O22  1  0.28508043  0.19596321  0.11660814  1.0
  O  O23  1  0.28508043  0.30403679  0.61660814  1.0
  O  O24  1  0.71491957  0.69596321  0.38339186  1.0
  O  O25  1  0.71491957  0.80403679  0.88339186  1.0
