# generated using pymatgen
data_VTeHO5
_symmetry_space_group_name_H-M   'P 1'
_cell_length_a   11.20177445
_cell_length_b   7.02492274
_cell_length_c   5.07794461
_cell_angle_alpha   90.00000000
_cell_angle_beta   90.00000000
_cell_angle_gamma   90.00000000
_symmetry_Int_Tables_number   1
_chemical_formula_structural   VTeHO5
_chemical_formula_sum   'V4 Te4 H4 O20'
_cell_volume   399.59158649
_cell_formula_units_Z   4
loop_
 _symmetry_equiv_pos_site_id
 _symmetry_equiv_pos_as_xyz
  1  'x, y, z'
loop_
 _atom_site_type_symbol
 _atom_site_label
 _atom_site_symmetry_multiplicity
 _atom_site_fract_x
 _atom_site_fract_y
 _atom_site_fract_z
 _atom_site_occupancy
  V  V0  1  0.33893227  0.21241147  0.43333320  1.0
  V  V1  1  0.66106773  0.78758853  0.93333320  1.0
  V  V2  1  0.16106773  0.21241147  0.93333320  1.0
  V  V3  1  0.83893227  0.78758853  0.43333320  1.0
  Te  Te4  1  0.39557879  0.65017115  0.62458020  1.0
  Te  Te5  1  0.60442121  0.34982885  0.12458020  1.0
  Te  Te6  1  0.10442121  0.65017115  0.12458020  1.0
  Te  Te7  1  0.89557879  0.34982885  0.62458020  1.0
  H  H8  1  0.33029605  0.88841918  0.98953302  1.0
  H  H9  1  0.66970395  0.11158082  0.48953302  1.0
  H  H10  1  0.16970395  0.88841918  0.48953302  1.0
  H  H11  1  0.83029605  0.11158082  0.98953302  1.0
  O  O12  1  0.29726724  0.12046353  0.12162720  1.0
  O  O13  1  0.70273276  0.87953647  0.62162720  1.0
  O  O14  1  0.20273276  0.12046353  0.62162720  1.0
  O  O15  1  0.79726724  0.87953647  0.12162720  1.0
  O  O16  1  0.31958758  0.74870945  0.96313648  1.0
  O  O17  1  0.68041242  0.25129055  0.46313648  1.0
  O  O18  1  0.18041242  0.74870945  0.46313648  1.0
  O  O19  1  0.81958758  0.25129055  0.96313648  1.0
  O  O20  1  0.31882025  0.41041307  0.70893093  1.0
  O  O21  1  0.68117975  0.58958693  0.20893093  1.0
  O  O22  1  0.18117975  0.41041307  0.20893093  1.0
  O  O23  1  0.81882025  0.58958693  0.70893093  1.0
  O  O24  1  0.55011991  0.59242696  0.81177828  1.0
  O  O25  1  0.44988009  0.40757304  0.31177828  1.0
  O  O26  1  0.94988009  0.59242696  0.31177828  1.0
  O  O27  1  0.05011991  0.40757304  0.81177828  1.0
  O  O28  1  0.43293480  0.05805287  0.54122069  1.0
  O  O29  1  0.56706520  0.94194713  0.04122069  1.0
  O  O30  1  0.06706520  0.05805287  0.04122069  1.0
  O  O31  1  0.93293480  0.94194713  0.54122069  1.0
