# generated using pymatgen
data_RbCr2GaO8
_symmetry_space_group_name_H-M   'P 1'
_cell_length_a   5.21855469
_cell_length_b   5.21855469
_cell_length_c   8.18906250
_cell_angle_alpha   86.39178346
_cell_angle_beta   93.60821654
_cell_angle_gamma   116.64232389
_symmetry_Int_Tables_number   1
_chemical_formula_structural   RbCr2GaO8
_chemical_formula_sum   'Rb1 Cr2 Ga1 O8'
_cell_volume   198.79043557
_cell_formula_units_Z   1
loop_
 _symmetry_equiv_pos_site_id
 _symmetry_equiv_pos_as_xyz
  1  'x, y, z'
loop_
 _atom_site_type_symbol
 _atom_site_label
 _atom_site_symmetry_multiplicity
 _atom_site_fract_x
 _atom_site_fract_y
 _atom_site_fract_z
 _atom_site_occupancy
  Rb  Rb0  1  -0.00000000  0.00000000  0.50000000  1.0
  Cr  Cr1  1  0.63135292  -0.63135292  0.80356236  1.0
  Cr  Cr2  1  0.36864708  -0.36864708  0.19643764  1.0
  Ga  Ga3  1  0.00000000  0.00000000  0.00000000  1.0
  O  O4  1  1.27637576  0.22136112  0.82958321  1.0
  O  O5  1  0.77863888  -0.27637576  0.82958321  1.0
  O  O6  1  1.22136112  0.27637576  0.17041679  1.0
  O  O7  1  0.72362424  -0.22136112  0.17041679  1.0
  O  O8  1  0.77895035  -0.77895035  0.93696417  1.0
  O  O9  1  0.22104965  -0.22104965  0.06303583  1.0
  O  O10  1  0.68085907  -0.68085907  0.61804437  1.0
  O  O11  1  0.31914093  -0.31914093  0.38195563  1.0
