# generated using pymatgen
data_LiCdMoO5
_symmetry_space_group_name_H-M   'P 1'
_cell_length_a   10.33443783
_cell_length_b   5.78871722
_cell_length_c   7.96216393
_cell_angle_alpha   90.00000000
_cell_angle_beta   107.49989457
_cell_angle_gamma   90.00000000
_symmetry_Int_Tables_number   1
_chemical_formula_structural   LiCdMoO5
_chemical_formula_sum   'Li4 Cd4 Mo4 O20'
_cell_volume   454.27627933
_cell_formula_units_Z   4
loop_
 _symmetry_equiv_pos_site_id
 _symmetry_equiv_pos_as_xyz
  1  'x, y, z'
loop_
 _atom_site_type_symbol
 _atom_site_label
 _atom_site_symmetry_multiplicity
 _atom_site_fract_x
 _atom_site_fract_y
 _atom_site_fract_z
 _atom_site_occupancy
  O  O0  1  0.43344224  0.08060630  0.13932402  1.0
  O  O1  1  0.56655776  0.58060630  0.36067598  1.0
  O  O2  1  0.56655776  0.91939370  0.86067598  1.0
  O  O3  1  0.43344224  0.41939370  0.63932402  1.0
  O  O4  1  0.35891383  0.64074231  0.96954052  1.0
  O  O5  1  0.64108617  0.14074231  0.53045948  1.0
  O  O6  1  0.64108617  0.35925769  0.03045948  1.0
  O  O7  1  0.35891383  0.85925769  0.46954052  1.0
  O  O8  1  0.27394000  0.43612620  0.26823464  1.0
  O  O9  1  0.72606000  0.93612620  0.23176536  1.0
  O  O10  1  0.72606000  0.56387380  0.73176536  1.0
  O  O11  1  0.27394000  0.06387380  0.76823464  1.0
  O  O12  1  0.14861446  0.56241132  0.53444235  1.0
  O  O13  1  0.85138554  0.06241132  0.96555765  1.0
  O  O14  1  0.85138554  0.43758868  0.46555765  1.0
  O  O15  1  0.14861446  0.93758868  0.03444235  1.0
  O  O16  1  0.05457551  0.08131382  0.36916925  1.0
  O  O17  1  0.94542449  0.58131382  0.13083075  1.0
  O  O18  1  0.94542449  0.91868618  0.63083075  1.0
  O  O19  1  0.05457551  0.41868618  0.86916925  1.0
  Cd  Cd20  1  0.06089146  0.25695442  0.12596337  1.0
  Cd  Cd21  1  0.93910854  0.75695442  0.37403663  1.0
  Cd  Cd22  1  0.93910854  0.74304558  0.87403663  1.0
  Cd  Cd23  1  0.06089146  0.24304558  0.62596337  1.0
  Mo  Mo24  1  0.30586723  0.92694644  0.97749602  1.0
  Mo  Mo25  1  0.69413277  0.42694644  0.52250398  1.0
  Mo  Mo26  1  0.69413277  0.07305356  0.02250398  1.0
  Mo  Mo27  1  0.30586723  0.57305356  0.47749602  1.0
  Li  Li28  1  0.43075542  0.42150530  0.16059189  1.0
  Li  Li29  1  0.56924458  0.92150530  0.33940811  1.0
  Li  Li30  1  0.56924458  0.57849470  0.83940811  1.0
  Li  Li31  1  0.43075542  0.07849470  0.66059189  1.0
