# generated using pymatgen
data_LiBrO3
_symmetry_space_group_name_H-M   'P 1'
_cell_length_a   6.97521038
_cell_length_b   12.45770951
_cell_length_c   7.06903443
_cell_angle_alpha   90.00000000
_cell_angle_beta   90.00000000
_cell_angle_gamma   90.00000000
_symmetry_Int_Tables_number   1
_chemical_formula_structural   LiBrO3
_chemical_formula_sum   'Li8 Br8 O24'
_cell_volume   614.26477059
_cell_formula_units_Z   8
loop_
 _symmetry_equiv_pos_site_id
 _symmetry_equiv_pos_as_xyz
  1  'x, y, z'
loop_
 _atom_site_type_symbol
 _atom_site_label
 _atom_site_symmetry_multiplicity
 _atom_site_fract_x
 _atom_site_fract_y
 _atom_site_fract_z
 _atom_site_occupancy
  Li  Li0  1  0.37038649  0.47702772  0.24793062  1.0
  Li  Li1  1  0.37038649  0.02297228  0.74793062  1.0
  Li  Li2  1  0.87038649  0.47702772  0.25206938  1.0
  Li  Li3  1  0.87038649  0.02297228  0.75206938  1.0
  Li  Li4  1  0.62961351  0.97702772  0.25206938  1.0
  Li  Li5  1  0.62961351  0.52297228  0.75206938  1.0
  Li  Li6  1  0.12961351  0.97702772  0.24793062  1.0
  Li  Li7  1  0.12961351  0.52297228  0.74793062  1.0
  O  O8  1  0.37885523  0.03618806  0.28011744  1.0
  O  O9  1  0.37885523  0.46381194  0.78011744  1.0
  O  O10  1  0.87885523  0.03618806  0.21988256  1.0
  O  O11  1  0.87885523  0.46381194  0.71988256  1.0
  O  O12  1  0.62114477  0.53618806  0.21988256  1.0
  O  O13  1  0.62114477  0.96381194  0.71988256  1.0
  O  O14  1  0.12114477  0.53618806  0.28011744  1.0
  O  O15  1  0.12114477  0.96381194  0.78011744  1.0
  O  O16  1  0.42164753  0.37453978  0.47724865  1.0
  O  O17  1  0.42164753  0.12546022  0.97724865  1.0
  O  O18  1  0.92164753  0.37453978  0.02275135  1.0
  O  O19  1  0.92164753  0.12546022  0.52275135  1.0
  O  O20  1  0.57835247  0.87453978  0.02275135  1.0
  O  O21  1  0.57835247  0.62546022  0.52275135  1.0
  O  O22  1  0.07835247  0.87453978  0.47724865  1.0
  O  O23  1  0.07835247  0.62546022  0.97724865  1.0
  O  O24  1  0.32301973  0.36311896  0.04606081  1.0
  O  O25  1  0.32301973  0.13688104  0.54606081  1.0
  O  O26  1  0.82301973  0.36311896  0.45393919  1.0
  O  O27  1  0.82301973  0.13688104  0.95393919  1.0
  O  O28  1  0.67698027  0.86311896  0.45393919  1.0
  O  O29  1  0.67698027  0.63688104  0.95393919  1.0
  O  O30  1  0.17698027  0.86311896  0.04606081  1.0
  O  O31  1  0.17698027  0.63688104  0.54606081  1.0
  Br  Br32  1  0.11485778  0.28666182  0.02082361  1.0
  Br  Br33  1  0.11485778  0.21333818  0.52082361  1.0
  Br  Br34  1  0.61485778  0.28666182  0.47917639  1.0
  Br  Br35  1  0.61485778  0.21333818  0.97917639  1.0
  Br  Br36  1  0.88514222  0.78666182  0.47917639  1.0
  Br  Br37  1  0.88514222  0.71333818  0.97917639  1.0
  Br  Br38  1  0.38514222  0.78666182  0.02082361  1.0
  Br  Br39  1  0.38514222  0.71333818  0.52082361  1.0
