# generated using pymatgen
data_BaIrO3
_symmetry_space_group_name_H-M   'P 1'
_cell_length_a   5.76986463
_cell_length_b   5.76986463
_cell_length_c   14.56773203
_cell_angle_alpha   88.98069253
_cell_angle_beta   91.01930747
_cell_angle_gamma   60.28624370
_symmetry_Int_Tables_number   1
_chemical_formula_structural   BaIrO3
_chemical_formula_sum   'Ba6 Ir6 O18'
_cell_volume   420.94620493
_cell_formula_units_Z   6
loop_
 _symmetry_equiv_pos_site_id
 _symmetry_equiv_pos_as_xyz
  1  'x, y, z'
loop_
 _atom_site_type_symbol
 _atom_site_label
 _atom_site_symmetry_multiplicity
 _atom_site_fract_x
 _atom_site_fract_y
 _atom_site_fract_z
 _atom_site_occupancy
  Ba  Ba0  1  1.32382406  0.34412432  0.40480185  1.0
  Ba  Ba1  1  0.65587568  -0.32382406  0.90480185  1.0
  Ba  Ba2  1  1.34412432  0.32382406  0.09519815  1.0
  Ba  Ba3  1  0.67617594  -0.34412432  0.59519815  1.0
  Ba  Ba4  1  0.99655906  -0.00344094  0.25000000  1.0
  Ba  Ba5  1  1.00344094  0.00344094  0.75000000  1.0
  Ir  Ir6  1  0.65392032  -0.32326660  0.34643154  1.0
  Ir  Ir7  1  1.32326660  0.34607968  0.84643154  1.0
  Ir  Ir8  1  0.67673340  -0.34607968  0.15356846  1.0
  Ir  Ir9  1  1.34607968  0.32326660  0.65356846  1.0
  Ir  Ir10  1  -0.00000000  0.00000000  0.50000000  1.0
  Ir  Ir11  1  0.00000000  0.00000000  0.00000000  1.0
  O  O12  1  0.79798399  -0.09995518  0.40821707  1.0
  O  O13  1  1.09995518  0.20201601  0.90821707  1.0
  O  O14  1  0.90004482  -0.20201601  0.09178293  1.0
  O  O15  1  1.20201601  0.09995518  0.59178293  1.0
  O  O16  1  0.51370225  -0.04252694  0.24128802  1.0
  O  O17  1  1.04252694  0.48629775  0.74128802  1.0
  O  O18  1  0.95747306  -0.48629775  0.25871198  1.0
  O  O19  1  1.48629775  0.04252694  0.75871198  1.0
  O  O20  1  1.62041918  0.19014274  0.94692876  1.0
  O  O21  1  0.80985726  -0.62041918  0.44692876  1.0
  O  O22  1  1.19014274  0.62041918  0.55307124  1.0
  O  O23  1  0.37958082  -0.19014274  0.05307124  1.0
  O  O24  1  0.28894636  -0.10722614  0.40678215  1.0
  O  O25  1  1.10722614  0.71105364  0.90678215  1.0
  O  O26  1  0.89277386  -0.71105364  0.09321785  1.0
  O  O27  1  1.71105364  0.10722614  0.59321785  1.0
  O  O28  1  1.51489468  0.51489468  0.25000000  1.0
  O  O29  1  0.48510532  -0.51489468  0.75000000  1.0
