# generated using pymatgen
data_La2Re3Si5
_symmetry_space_group_name_H-M   'P 1'
_cell_length_a   11.05414758
_cell_length_b   11.05414758
_cell_length_c   5.85767688
_cell_angle_alpha   90.00000000
_cell_angle_beta   90.00000000
_cell_angle_gamma   90.00000000
_symmetry_Int_Tables_number   1
_chemical_formula_structural   La2Re3Si5
_chemical_formula_sum   'La8 Re12 Si20'
_cell_volume   715.77401536
_cell_formula_units_Z   4
loop_
 _symmetry_equiv_pos_site_id
 _symmetry_equiv_pos_as_xyz
  1  'x, y, z'
loop_
 _atom_site_type_symbol
 _atom_site_label
 _atom_site_symmetry_multiplicity
 _atom_site_fract_x
 _atom_site_fract_y
 _atom_site_fract_z
 _atom_site_occupancy
  La  La0  1  0.23598061  0.92345561  0.50000000  1.0
  La  La1  1  0.73598061  0.57654439  0.00000000  1.0
  La  La2  1  0.07654439  0.23598061  0.50000000  1.0
  La  La3  1  0.57654439  0.26401939  0.00000000  1.0
  La  La4  1  0.76401939  0.07654439  0.50000000  1.0
  La  La5  1  0.26401939  0.42345561  0.00000000  1.0
  La  La6  1  0.92345561  0.76401939  0.50000000  1.0
  La  La7  1  0.42345561  0.73598061  0.00000000  1.0
  Re  Re8  1  0.35142984  0.62627298  0.50000000  1.0
  Re  Re9  1  0.85142984  0.87372702  0.00000000  1.0
  Re  Re10  1  0.37372702  0.35142984  0.50000000  1.0
  Re  Re11  1  0.87372702  0.14857016  0.00000000  1.0
  Re  Re12  1  0.64857016  0.37372702  0.50000000  1.0
  Re  Re13  1  0.14857016  0.12627298  0.00000000  1.0
  Re  Re14  1  0.62627298  0.64857016  0.50000000  1.0
  Re  Re15  1  0.12627298  0.85142984  0.00000000  1.0
  Re  Re16  1  0.50000000  0.00000000  0.25000000  1.0
  Re  Re17  1  0.50000000  0.00000000  0.75000000  1.0
  Re  Re18  1  0.00000000  0.50000000  0.75000000  1.0
  Re  Re19  1  0.00000000  0.50000000  0.25000000  1.0
  Si  Si20  1  0.47797729  0.81791034  0.50000000  1.0
  Si  Si21  1  0.97797729  0.68208966  0.00000000  1.0
  Si  Si22  1  0.18208966  0.47797729  0.50000000  1.0
  Si  Si23  1  0.68208966  0.02202271  0.00000000  1.0
  Si  Si24  1  0.52202271  0.18208966  0.50000000  1.0
  Si  Si25  1  0.02202271  0.31791034  0.00000000  1.0
  Si  Si26  1  0.81791034  0.52202271  0.50000000  1.0
  Si  Si27  1  0.31791034  0.97797729  0.00000000  1.0
  Si  Si28  1  0.32909865  0.17090135  0.25000000  1.0
  Si  Si29  1  0.32909865  0.17090135  0.75000000  1.0
  Si  Si30  1  0.82909865  0.32909865  0.75000000  1.0
  Si  Si31  1  0.82909865  0.32909865  0.25000000  1.0
  Si  Si32  1  0.67090135  0.82909865  0.25000000  1.0
  Si  Si33  1  0.67090135  0.82909865  0.75000000  1.0
  Si  Si34  1  0.17090135  0.67090135  0.75000000  1.0
  Si  Si35  1  0.17090135  0.67090135  0.25000000  1.0
  Si  Si36  1  0.50000000  0.50000000  0.27456658  1.0
  Si  Si37  1  0.50000000  0.50000000  0.72543342  1.0
  Si  Si38  1  0.00000000  0.00000000  0.77456658  1.0
  Si  Si39  1  0.00000000  0.00000000  0.22543342  1.0
