# generated using pymatgen
data_Na3AlSe3
_symmetry_space_group_name_H-M   'P 1'
_cell_length_a   7.56325102
_cell_length_b   7.29730432
_cell_length_c   15.27819904
_cell_angle_alpha   90.00000000
_cell_angle_beta   119.50922640
_cell_angle_gamma   90.00000000
_symmetry_Int_Tables_number   1
_chemical_formula_structural   Na3AlSe3
_chemical_formula_sum   'Na12 Al4 Se12'
_cell_volume   733.83823697
_cell_formula_units_Z   4
loop_
 _symmetry_equiv_pos_site_id
 _symmetry_equiv_pos_as_xyz
  1  'x, y, z'
loop_
 _atom_site_type_symbol
 _atom_site_label
 _atom_site_symmetry_multiplicity
 _atom_site_fract_x
 _atom_site_fract_y
 _atom_site_fract_z
 _atom_site_occupancy
  Na  Na0  1  0.43918422  0.02671001  0.71323944  1.0
  Na  Na1  1  0.43918422  0.47328999  0.21323944  1.0
  Na  Na2  1  0.56081578  0.52671001  0.78676056  1.0
  Na  Na3  1  0.56081578  0.97328999  0.28676056  1.0
  Na  Na4  1  0.19091225  0.49676623  0.89765086  1.0
  Na  Na5  1  0.19091225  0.00323377  0.39765086  1.0
  Na  Na6  1  0.80908775  0.99676623  0.60234914  1.0
  Na  Na7  1  0.80908775  0.50323377  0.10234914  1.0
  Na  Na8  1  0.77010959  0.49720432  0.61017503  1.0
  Na  Na9  1  0.77010959  0.00279568  0.11017503  1.0
  Na  Na10  1  0.22989041  0.99720432  0.88982497  1.0
  Na  Na11  1  0.22989041  0.50279568  0.38982497  1.0
  Al  Al12  1  0.16168534  0.64027124  0.57992660  1.0
  Al  Al13  1  0.16168534  0.85972876  0.07992660  1.0
  Al  Al14  1  0.83831466  0.14027124  0.92007340  1.0
  Al  Al15  1  0.83831466  0.35972876  0.42007340  1.0
  Se  Se16  1  0.84538154  0.24083988  0.77391425  1.0
  Se  Se17  1  0.84538154  0.25916012  0.27391425  1.0
  Se  Se18  1  0.15461846  0.74083988  0.72608575  1.0
  Se  Se19  1  0.15461846  0.75916012  0.22608575  1.0
  Se  Se20  1  0.15470890  0.30361757  0.57296359  1.0
  Se  Se21  1  0.15470890  0.19638243  0.07296359  1.0
  Se  Se22  1  0.84529110  0.80361757  0.92703641  1.0
  Se  Se23  1  0.84529110  0.69638243  0.42703641  1.0
  Se  Se24  1  0.55356973  0.25616017  0.92812690  1.0
  Se  Se25  1  0.55356973  0.24383983  0.42812690  1.0
  Se  Se26  1  0.44643027  0.75616017  0.57187310  1.0
  Se  Se27  1  0.44643027  0.74383983  0.07187310  1.0
