# generated using pymatgen
data_SbOsSe
_symmetry_space_group_name_H-M   'P 1'
_cell_length_a   6.46013103
_cell_length_b   6.37654729
_cell_length_c   6.50189324
_cell_angle_alpha   90.00000000
_cell_angle_beta   113.01857147
_cell_angle_gamma   90.00000000
_symmetry_Int_Tables_number   1
_chemical_formula_structural   SbOsSe
_chemical_formula_sum   'Sb4 Os4 Se4'
_cell_volume   246.50915223
_cell_formula_units_Z   4
loop_
 _symmetry_equiv_pos_site_id
 _symmetry_equiv_pos_as_xyz
  1  'x, y, z'
loop_
 _atom_site_type_symbol
 _atom_site_label
 _atom_site_symmetry_multiplicity
 _atom_site_fract_x
 _atom_site_fract_y
 _atom_site_fract_z
 _atom_site_occupancy
  Sb  Sb0  1  0.64399282  0.86379367  0.37960580  1.0
  Sb  Sb1  1  0.64399282  0.63620632  0.87960580  1.0
  Sb  Sb2  1  0.35600718  0.36379367  0.12039420  1.0
  Sb  Sb3  1  0.35600718  0.13620632  0.62039420  1.0
  Os  Os4  1  0.78781694  0.49405487  0.30060715  1.0
  Os  Os5  1  0.78781694  0.00594513  0.80060715  1.0
  Os  Os6  1  0.21218306  0.99405487  0.19939285  1.0
  Os  Os7  1  0.21218306  0.50594513  0.69939285  1.0
  Se  Se8  1  0.84968092  0.13349008  0.18238974  1.0
  Se  Se9  1  0.84968092  0.36650992  0.68238974  1.0
  Se  Se10  1  0.15031908  0.63349008  0.31761026  1.0
  Se  Se11  1  0.15031908  0.86650992  0.81761026  1.0
