# generated using pymatgen
data_LiCaSb
_symmetry_space_group_name_H-M   'P 1'
_cell_length_a   7.66458664
_cell_length_b   4.63709506
_cell_length_c   8.34411469
_cell_angle_alpha   90.00000000
_cell_angle_beta   90.00000000
_cell_angle_gamma   90.00000000
_symmetry_Int_Tables_number   1
_chemical_formula_structural   LiCaSb
_chemical_formula_sum   'Li4 Ca4 Sb4'
_cell_volume   296.56165820
_cell_formula_units_Z   4
loop_
 _symmetry_equiv_pos_site_id
 _symmetry_equiv_pos_as_xyz
  1  'x, y, z'
loop_
 _atom_site_type_symbol
 _atom_site_label
 _atom_site_symmetry_multiplicity
 _atom_site_fract_x
 _atom_site_fract_y
 _atom_site_fract_z
 _atom_site_occupancy
  Li  Li0  1  0.84888980  0.75000000  0.07172181  1.0
  Li  Li1  1  0.34888980  0.75000000  0.42827819  1.0
  Li  Li2  1  0.15111020  0.25000000  0.92827819  1.0
  Li  Li3  1  0.65111020  0.25000000  0.57172181  1.0
  Ca  Ca4  1  0.98956096  0.75000000  0.70155807  1.0
  Ca  Ca5  1  0.48956096  0.75000000  0.79844193  1.0
  Ca  Ca6  1  0.01043904  0.25000000  0.29844193  1.0
  Ca  Ca7  1  0.51043904  0.25000000  0.20155807  1.0
  Sb  Sb8  1  0.73097119  0.75000000  0.39942716  1.0
  Sb  Sb9  1  0.23097119  0.75000000  0.10057284  1.0
  Sb  Sb10  1  0.26902881  0.25000000  0.60057284  1.0
  Sb  Sb11  1  0.76902881  0.25000000  0.89942716  1.0
