# generated using pymatgen
data_LiW6CCl18
_symmetry_space_group_name_H-M   'P 1'
_cell_length_a   9.17076363
_cell_length_b   9.17076363
_cell_length_c   17.56933588
_cell_angle_alpha   90.00000000
_cell_angle_beta   90.00000000
_cell_angle_gamma   120.00000000
_symmetry_Int_Tables_number   1
_chemical_formula_structural   LiW6CCl18
_chemical_formula_sum   'Li2 W12 C2 Cl36'
_cell_volume   1279.66702016
_cell_formula_units_Z   2
loop_
 _symmetry_equiv_pos_site_id
 _symmetry_equiv_pos_as_xyz
  1  'x, y, z'
loop_
 _atom_site_type_symbol
 _atom_site_label
 _atom_site_symmetry_multiplicity
 _atom_site_fract_x
 _atom_site_fract_y
 _atom_site_fract_z
 _atom_site_occupancy
  Li  Li0  1  -0.00000000  -0.00000000  -0.00000000  1.0
  Li  Li1  1  -0.00000000  -0.00000000  0.50000000  1.0
  W  W2  1  0.81413063  0.51896809  0.83531480  1.0
  W  W3  1  0.70483746  0.18586937  0.83531480  1.0
  W  W4  1  0.48103191  0.29516254  0.83531480  1.0
  W  W5  1  0.18586937  0.48103191  0.33531480  1.0
  W  W6  1  0.29516254  0.81413063  0.33531480  1.0
  W  W7  1  0.51896809  0.70483746  0.33531480  1.0
  W  W8  1  0.18586937  0.48103191  0.16468520  1.0
  W  W9  1  0.29516254  0.81413063  0.16468520  1.0
  W  W10  1  0.51896809  0.70483746  0.16468520  1.0
  W  W11  1  0.81413063  0.51896809  0.66468520  1.0
  W  W12  1  0.70483746  0.18586937  0.66468520  1.0
  W  W13  1  0.48103191  0.29516254  0.66468520  1.0
  C  C14  1  0.66666667  0.33333333  0.75000000  1.0
  C  C15  1  0.33333333  0.66666667  0.25000000  1.0
  Cl  Cl16  1  0.05233172  0.58522582  0.75000000  1.0
  Cl  Cl17  1  0.53289410  0.94766828  0.75000000  1.0
  Cl  Cl18  1  0.41477418  0.46710590  0.75000000  1.0
  Cl  Cl19  1  0.94766828  0.41477418  0.25000000  1.0
  Cl  Cl20  1  0.46710590  0.05233172  0.25000000  1.0
  Cl  Cl21  1  0.58522582  0.53289410  0.25000000  1.0
  Cl  Cl22  1  0.78739491  0.71562871  0.75000000  1.0
  Cl  Cl23  1  0.92823380  0.21260509  0.75000000  1.0
  Cl  Cl24  1  0.28437129  0.07176620  0.75000000  1.0
  Cl  Cl25  1  0.21260509  0.28437129  0.25000000  1.0
  Cl  Cl26  1  0.07176620  0.78739491  0.25000000  1.0
  Cl  Cl27  1  0.71562871  0.92823380  0.25000000  1.0
  Cl  Cl28  1  0.62058376  0.51615491  0.92721242  1.0
  Cl  Cl29  1  0.89557114  0.37941624  0.92721242  1.0
  Cl  Cl30  1  0.48384509  0.10442886  0.92721242  1.0
  Cl  Cl31  1  0.37941624  0.48384509  0.42721242  1.0
  Cl  Cl32  1  0.10442886  0.62058376  0.42721242  1.0
  Cl  Cl33  1  0.51615491  0.89557114  0.42721242  1.0
  Cl  Cl34  1  0.37941624  0.48384509  0.07278758  1.0
  Cl  Cl35  1  0.10442886  0.62058376  0.07278758  1.0
  Cl  Cl36  1  0.51615491  0.89557114  0.07278758  1.0
  Cl  Cl37  1  0.62058376  0.51615491  0.57278758  1.0
  Cl  Cl38  1  0.89557114  0.37941624  0.57278758  1.0
  Cl  Cl39  1  0.48384509  0.10442886  0.57278758  1.0
  Cl  Cl40  1  0.01913497  0.77586134  0.90231867  1.0
  Cl  Cl41  1  0.75672638  0.98086503  0.90231867  1.0
  Cl  Cl42  1  0.22413866  0.24327362  0.90231867  1.0
  Cl  Cl43  1  0.98086503  0.22413866  0.40231867  1.0
  Cl  Cl44  1  0.24327362  0.01913497  0.40231867  1.0
  Cl  Cl45  1  0.77586134  0.75672638  0.40231867  1.0
  Cl  Cl46  1  0.98086503  0.22413866  0.09768133  1.0
  Cl  Cl47  1  0.24327362  0.01913497  0.09768133  1.0
  Cl  Cl48  1  0.77586134  0.75672638  0.09768133  1.0
  Cl  Cl49  1  0.01913497  0.77586134  0.59768133  1.0
  Cl  Cl50  1  0.75672638  0.98086503  0.59768133  1.0
  Cl  Cl51  1  0.22413866  0.24327362  0.59768133  1.0
