# generated using pymatgen
data_CaB2H10O9
_symmetry_space_group_name_H-M   'P 1'
_cell_length_a   7.83014745
_cell_length_b   6.51680044
_cell_length_c   8.12397558
_cell_angle_alpha   68.57732309
_cell_angle_beta   69.17672466
_cell_angle_gamma   73.77422617
_symmetry_Int_Tables_number   1
_chemical_formula_structural   CaB2H10O9
_chemical_formula_sum   'Ca2 B4 H20 O18'
_cell_volume   355.32884275
_cell_formula_units_Z   2
loop_
 _symmetry_equiv_pos_site_id
 _symmetry_equiv_pos_as_xyz
  1  'x, y, z'
loop_
 _atom_site_type_symbol
 _atom_site_label
 _atom_site_symmetry_multiplicity
 _atom_site_fract_x
 _atom_site_fract_y
 _atom_site_fract_z
 _atom_site_occupancy
  Ca  Ca0  1  -1.00303857  -0.59530042  -0.23521397  1.0
  Ca  Ca1  1  0.00303857  -0.40469958  -0.76478603  1.0
  B  B2  1  -0.99792164  -0.84973487  -0.79233484  1.0
  B  B3  1  -0.00207836  -0.15026513  -0.20766516  1.0
  B  B4  1  -0.32045340  -0.62358060  -0.84191272  1.0
  B  B5  1  -0.67954660  -0.37641940  -0.15808728  1.0
  H  H6  1  -0.82371284  -1.00660430  -0.99254534  1.0
  H  H7  1  -0.17628716  0.00660430  -0.00745466  1.0
  H  H8  1  -0.92447285  -0.89852181  -0.44200011  1.0
  H  H9  1  -0.07552715  -0.10147819  -0.55799989  1.0
  H  H10  1  -0.76895769  -0.90956856  -0.70057546  1.0
  H  H11  1  -0.23104231  -0.09043144  -0.29942454  1.0
  H  H12  1  -0.47993914  -0.87631571  -0.69447412  1.0
  H  H13  1  -0.52006086  -0.12368429  -0.30552588  1.0
  H  H14  1  -0.43208245  -0.80716222  -0.47642716  1.0
  H  H15  1  -0.56791755  -0.19283778  -0.52357284  1.0
  H  H16  1  -0.49313487  -0.76460069  -0.27385805  1.0
  H  H17  1  -0.50686513  -0.23539931  -0.72614195  1.0
  H  H18  1  -0.67401602  -0.58895904  -0.60411790  1.0
  H  H19  1  -0.32598398  -0.41104096  -0.39588210  1.0
  H  H20  1  -0.74885754  -0.35057018  -0.57636369  1.0
  H  H21  1  -0.25114246  -0.64942982  -0.42363631  1.0
  H  H22  1  -0.30489098  -0.29019508  -0.95176678  1.0
  H  H23  1  -0.69510902  -0.70980492  -0.04823322  1.0
  H  H24  1  -0.60058775  -0.32372172  -0.96007331  1.0
  H  H25  1  -0.39941225  -0.67627828  -0.03992669  1.0
  O  O26  1  -0.94171508  -0.93170542  -0.30911642  1.0
  O  O27  1  -0.05828492  -0.06829458  -0.69088358  1.0
  O  O28  1  -0.41067827  -0.86420607  -0.35106762  1.0
  O  O29  1  -0.58932173  -0.13579393  -0.64893238  1.0
  O  O30  1  -0.88251738  -0.85395185  -0.98361772  1.0
  O  O31  1  -0.11748262  -0.14604815  -0.01638228  1.0
  O  O32  1  -0.88659362  -0.80229830  -0.69727543  1.0
  O  O33  1  -0.11340638  -0.19770170  -0.30272457  1.0
  O  O34  1  -0.46525518  -0.73883312  -0.68112424  1.0
  O  O35  1  -0.53474482  -0.26116688  -0.31887576  1.0
  O  O36  1  -0.14527006  -0.65300728  -0.80499579  1.0
  O  O37  1  -0.85472994  -0.34699272  -0.19500421  1.0
  O  O38  1  -0.79151336  -0.48928215  -0.55612376  1.0
  O  O39  1  -0.20848664  -0.51071785  -0.44387624  1.0
  O  O40  1  -0.40467762  -0.38129446  -0.87966716  1.0
  O  O41  1  -0.59532238  -0.61870554  -0.12033284  1.0
  O  O42  1  -0.71571353  -0.29496100  -0.99674101  1.0
  O  O43  1  -0.28428647  -0.70503900  -0.00325899  1.0
