# generated using pymatgen
data_ZnP2PbO7
_symmetry_space_group_name_H-M   'P 1'
_cell_length_a   5.41432641
_cell_length_b   8.42014981
_cell_length_c   14.14163031
_cell_angle_alpha   90.00000000
_cell_angle_beta   112.11418631
_cell_angle_gamma   90.00000000
_symmetry_Int_Tables_number   1
_chemical_formula_structural   ZnP2PbO7
_chemical_formula_sum   'Zn4 P8 Pb4 O28'
_cell_volume   597.28127177
_cell_formula_units_Z   4
loop_
 _symmetry_equiv_pos_site_id
 _symmetry_equiv_pos_as_xyz
  1  'x, y, z'
loop_
 _atom_site_type_symbol
 _atom_site_label
 _atom_site_symmetry_multiplicity
 _atom_site_fract_x
 _atom_site_fract_y
 _atom_site_fract_z
 _atom_site_occupancy
  Zn  Zn0  1  0.72354827  0.84796581  0.39590919  1.0
  Zn  Zn1  1  0.72354827  0.65203419  0.89590919  1.0
  Zn  Zn2  1  0.27645173  0.34796581  0.10409081  1.0
  Zn  Zn3  1  0.27645173  0.15203419  0.60409081  1.0
  P  P4  1  0.66321299  0.20032321  0.47987225  1.0
  P  P5  1  0.66321299  0.29967679  0.97987225  1.0
  P  P6  1  0.33678701  0.70032321  0.02012775  1.0
  P  P7  1  0.33678701  0.79967679  0.52012775  1.0
  P  P8  1  0.58086466  0.46408582  0.33298955  1.0
  P  P9  1  0.58086466  0.03591418  0.83298955  1.0
  P  P10  1  0.41913534  0.96408582  0.16701045  1.0
  P  P11  1  0.41913534  0.53591418  0.66701045  1.0
  Pb  Pb12  1  -0.01888333  0.17307314  0.27732386  1.0
  Pb  Pb13  1  -0.01888333  0.32692686  0.77732386  1.0
  Pb  Pb14  1  1.01888333  0.67307314  0.22267614  1.0
  Pb  Pb15  1  1.01888333  0.82692686  0.72267614  1.0
  O  O16  1  0.89164084  0.30728578  0.08590316  1.0
  O  O17  1  0.89164084  0.19271422  0.58590316  1.0
  O  O18  1  0.10835916  0.80728578  0.41409684  1.0
  O  O19  1  0.10835916  0.69271422  0.91409684  1.0
  O  O20  1  0.81491952  0.44132680  0.29798576  1.0
  O  O21  1  0.81491952  0.05867320  0.79798576  1.0
  O  O22  1  0.18508048  0.94132680  0.20201424  1.0
  O  O23  1  0.18508048  0.55867320  0.70201424  1.0
  O  O24  1  0.72173341  0.09677488  0.40013904  1.0
  O  O25  1  0.72173341  0.40322512  0.90013904  1.0
  O  O26  1  0.27826659  0.59677488  0.09986096  1.0
  O  O27  1  0.27826659  0.90322512  0.59986096  1.0
  O  O28  1  0.66568754  0.38509951  0.44528878  1.0
  O  O29  1  0.66568754  0.11490049  0.94528878  1.0
  O  O30  1  0.33431246  0.88509951  0.05471122  1.0
  O  O31  1  0.33431246  0.61490049  0.55471122  1.0
  O  O32  1  0.48173764  0.13911173  0.15429932  1.0
  O  O33  1  0.48173764  0.36088827  0.65429932  1.0
  O  O34  1  0.51826236  0.63911173  0.34570068  1.0
  O  O35  1  0.51826236  0.86088827  0.84570068  1.0
  O  O36  1  0.38335137  0.16806447  0.48003600  1.0
  O  O37  1  0.38335137  0.33193553  0.98003600  1.0
  O  O38  1  0.61664863  0.66806447  0.01996400  1.0
  O  O39  1  0.61664863  0.83193553  0.51996400  1.0
  O  O40  1  0.32338226  0.38102781  0.26072765  1.0
  O  O41  1  0.32338226  0.11897219  0.76072765  1.0
  O  O42  1  0.67661774  0.88102781  0.23927235  1.0
  O  O43  1  0.67661774  0.61897219  0.73927235  1.0
