# generated using pymatgen
data_Ca5P12Ir19
_symmetry_space_group_name_H-M   'P 1'
_cell_length_a   12.66049450
_cell_length_b   12.66049450
_cell_length_c   3.99243806
_cell_angle_alpha   90.00000000
_cell_angle_beta   90.00000000
_cell_angle_gamma   120.00000000
_symmetry_Int_Tables_number   1
_chemical_formula_structural   Ca5P12Ir19
_chemical_formula_sum   'Ca5 P12 Ir19'
_cell_volume   554.20463925
_cell_formula_units_Z   1
loop_
 _symmetry_equiv_pos_site_id
 _symmetry_equiv_pos_as_xyz
  1  'x, y, z'
loop_
 _atom_site_type_symbol
 _atom_site_label
 _atom_site_symmetry_multiplicity
 _atom_site_fract_x
 _atom_site_fract_y
 _atom_site_fract_z
 _atom_site_occupancy
  Ca  Ca0  1  0.18256890  0.18256890  0.50000000  1.0
  Ca  Ca1  1  0.00000000  0.81743110  0.50000000  1.0
  Ca  Ca2  1  0.81743110  0.00000000  0.50000000  1.0
  Ca  Ca3  1  0.33333333  0.66666667  0.00000000  1.0
  Ca  Ca4  1  0.66666667  0.33333333  0.00000000  1.0
  P  P5  1  0.31117279  0.82663266  0.50000000  1.0
  P  P6  1  0.82663266  0.31117279  0.50000000  1.0
  P  P7  1  0.51545987  0.68882721  0.50000000  1.0
  P  P8  1  0.17336734  0.48454013  0.50000000  1.0
  P  P9  1  0.68882721  0.51545987  0.50000000  1.0
  P  P10  1  0.48454013  0.17336734  0.50000000  1.0
  P  P11  1  0.81963808  0.81963808  0.00000000  1.0
  P  P12  1  -0.00000000  0.18036192  0.00000000  1.0
  P  P13  1  0.18036192  0.00000000  0.00000000  1.0
  P  P14  1  0.35809191  0.35809191  0.00000000  1.0
  P  P15  1  0.00000000  0.64190809  0.00000000  1.0
  P  P16  1  0.64190809  0.00000000  0.00000000  1.0
  Ir  Ir17  1  0.13042100  0.63855029  0.50000000  1.0
  Ir  Ir18  1  0.63855029  0.13042100  0.50000000  1.0
  Ir  Ir19  1  0.50812930  0.86957900  0.50000000  1.0
  Ir  Ir20  1  0.36144971  0.49187070  0.50000000  1.0
  Ir  Ir21  1  0.86957900  0.50812930  0.50000000  1.0
  Ir  Ir22  1  0.49187070  0.36144971  0.50000000  1.0
  Ir  Ir23  1  0.19747157  0.81928345  0.00000000  1.0
  Ir  Ir24  1  0.81928345  0.19747157  0.00000000  1.0
  Ir  Ir25  1  0.62181188  0.80252843  0.00000000  1.0
  Ir  Ir26  1  0.18071655  0.37818812  0.00000000  1.0
  Ir  Ir27  1  0.80252843  0.62181188  0.00000000  1.0
  Ir  Ir28  1  0.37818812  0.18071655  0.00000000  1.0
  Ir  Ir29  1  0.71236789  0.71236789  0.50000000  1.0
  Ir  Ir30  1  -0.00000000  0.28763211  0.50000000  1.0
  Ir  Ir31  1  0.28763211  0.00000000  0.50000000  1.0
  Ir  Ir32  1  0.53880946  0.53880946  0.00000000  1.0
  Ir  Ir33  1  0.00000000  0.46119054  0.00000000  1.0
  Ir  Ir34  1  0.46119054  0.00000000  0.00000000  1.0
  Ir  Ir35  1  0.00000000  0.00000000  0.00000000  1.0
