# generated using pymatgen
data_MgB2H6O7
_symmetry_space_group_name_H-M   'P 1'
_cell_length_a   7.66265054
_cell_length_b   7.66265054
_cell_length_c   8.24710895
_cell_angle_alpha   90.00000000
_cell_angle_beta   90.00000000
_cell_angle_gamma   90.00000000
_symmetry_Int_Tables_number   1
_chemical_formula_structural   MgB2H6O7
_chemical_formula_sum   'Mg4 B8 H24 O28'
_cell_volume   484.23900839
_cell_formula_units_Z   4
loop_
 _symmetry_equiv_pos_site_id
 _symmetry_equiv_pos_as_xyz
  1  'x, y, z'
loop_
 _atom_site_type_symbol
 _atom_site_label
 _atom_site_symmetry_multiplicity
 _atom_site_fract_x
 _atom_site_fract_y
 _atom_site_fract_z
 _atom_site_occupancy
  Mg  Mg0  1  0.75000743  0.25009330  0.25674692  1.0
  Mg  Mg1  1  0.25009330  0.24999257  0.75674692  1.0
  Mg  Mg2  1  0.24999257  0.74990670  0.25674692  1.0
  Mg  Mg3  1  0.74990670  0.75000743  0.75674692  1.0
  B  B4  1  0.88803415  0.88006413  0.40122157  1.0
  B  B5  1  0.88006413  0.11196585  0.90122157  1.0
  B  B6  1  0.11196585  0.11993587  0.40122157  1.0
  B  B7  1  0.11993587  0.88803415  0.90122157  1.0
  B  B8  1  0.61193790  0.61998468  0.11234246  1.0
  B  B9  1  0.61998468  0.38806210  0.61234246  1.0
  B  B10  1  0.38806210  0.38001532  0.11234246  1.0
  B  B11  1  0.38001532  0.61193790  0.61234246  1.0
  H  H12  1  0.96317369  0.86535310  0.16042956  1.0
  H  H13  1  0.86535310  0.03682631  0.66042956  1.0
  H  H14  1  0.03682631  0.13464690  0.16042956  1.0
  H  H15  1  0.13464690  0.96317369  0.66042956  1.0
  H  H16  1  0.86083744  0.60072040  0.19683091  1.0
  H  H17  1  0.60072040  0.13916256  0.69683091  1.0
  H  H18  1  0.13916256  0.39927960  0.19683091  1.0
  H  H19  1  0.39927960  0.86083744  0.69683091  1.0
  H  H20  1  0.80950858  0.62906413  0.46420033  1.0
  H  H21  1  0.62906413  0.19049142  0.96420033  1.0
  H  H22  1  0.19049142  0.37093587  0.46420033  1.0
  H  H23  1  0.37093587  0.80950858  0.96420033  1.0
  H  H24  1  0.69052571  0.87092729  0.04934227  1.0
  H  H25  1  0.87092729  0.30947429  0.54934227  1.0
  H  H26  1  0.30947429  0.12907271  0.04934227  1.0
  H  H27  1  0.12907271  0.69052571  0.54934227  1.0
  H  H28  1  0.63913492  0.89945940  0.31677225  1.0
  H  H29  1  0.89945940  0.36086508  0.81677225  1.0
  H  H30  1  0.36086508  0.10054060  0.31677225  1.0
  H  H31  1  0.10054060  0.63913492  0.81677225  1.0
  H  H32  1  0.53688525  0.63471164  0.35314927  1.0
  H  H33  1  0.63471164  0.46311475  0.85314927  1.0
  H  H34  1  0.46311475  0.36528836  0.35314927  1.0
  H  H35  1  0.36528836  0.53688525  0.85314927  1.0
  O  O36  1  0.98099030  0.79376774  0.25981443  1.0
  O  O37  1  0.79376774  0.01900970  0.75981443  1.0
  O  O38  1  0.01900970  0.20623226  0.25981443  1.0
  O  O39  1  0.20623226  0.98099030  0.75981443  1.0
  O  O40  1  0.84414080  0.73764858  0.51719331  1.0
  O  O41  1  0.73764858  0.15585920  0.01719331  1.0
  O  O42  1  0.15585920  0.26235142  0.51719331  1.0
  O  O43  1  0.26235142  0.84414080  0.01719331  1.0
  O  O44  1  0.76403553  0.52009915  0.17249252  1.0
  O  O45  1  0.52009915  0.23596447  0.67249252  1.0
  O  O46  1  0.23596447  0.47990085  0.17249252  1.0
  O  O47  1  0.47990085  0.76403553  0.67249252  1.0
  O  O48  1  0.73598866  0.98002377  0.34106180  1.0
  O  O49  1  0.98002377  0.26401134  0.84106180  1.0
  O  O50  1  0.26401134  0.01997623  0.34106180  1.0
  O  O51  1  0.01997623  0.73598866  0.84106180  1.0
  O  O52  1  0.65575240  0.76239635  -0.00366201  1.0
  O  O53  1  0.76239635  0.34424760  0.49633799  1.0
  O  O54  1  0.34424760  0.23760365  -0.00366201  1.0
  O  O55  1  0.23760365  0.65575240  0.49633799  1.0
  O  O56  1  0.51900406  0.70626829  0.25376417  1.0
  O  O57  1  0.70626829  0.48099594  0.75376417  1.0
  O  O58  1  0.48099594  0.29373171  0.25376417  1.0
  O  O59  1  0.29373171  0.51900406  0.75376417  1.0
  O  O60  1  0.50000000  0.50000000  0.02350789  1.0
  O  O61  1  0.50000000  0.50000000  0.52350789  1.0
  O  O62  1  0.00000000  0.00000000  -0.00990741  1.0
  O  O63  1  0.00000000  0.00000000  0.49009259  1.0
