# generated using pymatgen
data_Sr(CdGa)2
_symmetry_space_group_name_H-M   'P 1'
_cell_length_a   6.60014004
_cell_length_b   6.60014004
_cell_length_c   6.60014004
_cell_angle_alpha   139.37626076
_cell_angle_beta   139.37626076
_cell_angle_gamma   58.80159373
_symmetry_Int_Tables_number   1
_chemical_formula_structural   Sr(CdGa)2
_chemical_formula_sum   'Sr1 Cd2 Ga2'
_cell_volume   120.73270735
_cell_formula_units_Z   1
loop_
 _symmetry_equiv_pos_site_id
 _symmetry_equiv_pos_as_xyz
  1  'x, y, z'
loop_
 _atom_site_type_symbol
 _atom_site_label
 _atom_site_symmetry_multiplicity
 _atom_site_fract_x
 _atom_site_fract_y
 _atom_site_fract_z
 _atom_site_occupancy
  Sr  Sr0  1  0.00000000  0.00000000  0.00000000  1.0
  Cd  Cd1  1  0.25000000  0.75000000  0.50000000  1.0
  Cd  Cd2  1  0.75000000  0.25000000  0.50000000  1.0
  Ga  Ga3  1  0.60913072  0.60913072  1.00000000  1.0
  Ga  Ga4  1  0.39086928  0.39086928  -0.00000000  1.0
