# generated using pymatgen
data_Ba8Bi4H2O
_symmetry_space_group_name_H-M   'P 1'
_cell_length_a   19.65641280
_cell_length_b   19.65641280
_cell_length_c   19.65641280
_cell_angle_alpha   164.53978186
_cell_angle_beta   164.53978186
_cell_angle_gamma   21.93142496
_symmetry_Int_Tables_number   1
_chemical_formula_structural   Ba8Bi4H2O
_chemical_formula_sum   'Ba8 Bi4 H2 O1'
_cell_volume   539.58407619
_cell_formula_units_Z   1
loop_
 _symmetry_equiv_pos_site_id
 _symmetry_equiv_pos_as_xyz
  1  'x, y, z'
loop_
 _atom_site_type_symbol
 _atom_site_label
 _atom_site_symmetry_multiplicity
 _atom_site_fract_x
 _atom_site_fract_y
 _atom_site_fract_z
 _atom_site_occupancy
  Ba  Ba0  1  0.91571687  0.91571687  1.00000000  1.0
  Ba  Ba1  1  0.08428313  0.08428313  -0.00000000  1.0
  Ba  Ba2  1  0.66011928  0.66011928  1.00000000  1.0
  Ba  Ba3  1  0.33988072  0.33988072  -0.00000000  1.0
  Ba  Ba4  1  0.25000000  0.75000000  0.50000000  1.0
  Ba  Ba5  1  0.75000000  0.25000000  0.50000000  1.0
  Ba  Ba6  1  0.50000000  0.00000000  0.50000000  1.0
  Ba  Ba7  1  0.00000000  0.50000000  0.50000000  1.0
  Bi  Bi8  1  0.82036417  0.82036417  1.00000000  1.0
  Bi  Bi9  1  0.17963583  0.17963583  -0.00000000  1.0
  Bi  Bi10  1  0.56745188  0.56745188  1.00000000  1.0
  Bi  Bi11  1  0.43254812  0.43254812  -0.00000000  1.0
  H  H12  1  0.72926153  0.72926153  1.00000000  1.0
  H  H13  1  0.27073847  0.27073847  -0.00000000  1.0
  O  O14  1  0.00000000  0.00000000  0.00000000  1.0
