# generated using pymatgen
data_TcOF4
_symmetry_space_group_name_H-M   'P 1'
_cell_length_a   9.48065805
_cell_length_b   9.48065805
_cell_length_c   8.72154974
_cell_angle_alpha   90.00000000
_cell_angle_beta   90.00000000
_cell_angle_gamma   120.00000000
_symmetry_Int_Tables_number   1
_chemical_formula_structural   TcOF4
_chemical_formula_sum   'Tc6 O6 F24'
_cell_volume   678.89288847
_cell_formula_units_Z   6
loop_
 _symmetry_equiv_pos_site_id
 _symmetry_equiv_pos_as_xyz
  1  'x, y, z'
loop_
 _atom_site_type_symbol
 _atom_site_label
 _atom_site_symmetry_multiplicity
 _atom_site_fract_x
 _atom_site_fract_y
 _atom_site_fract_z
 _atom_site_occupancy
  Tc  Tc0  1  0.32741710  0.93405026  0.25000000  1.0
  Tc  Tc1  1  0.93405026  0.60663316  0.75000000  1.0
  Tc  Tc2  1  0.60663316  0.67258290  0.25000000  1.0
  Tc  Tc3  1  0.06594974  0.39336684  0.25000000  1.0
  Tc  Tc4  1  0.67258290  0.06594974  0.75000000  1.0
  Tc  Tc5  1  0.39336684  0.32741710  0.75000000  1.0
  O  O6  1  0.68876288  0.55662348  0.25000000  1.0
  O  O7  1  0.55662348  0.86786060  0.75000000  1.0
  O  O8  1  0.86786060  0.31123712  0.25000000  1.0
  O  O9  1  0.44337652  0.13213940  0.25000000  1.0
  O  O10  1  0.31123712  0.44337652  0.75000000  1.0
  O  O11  1  0.13213940  0.68876288  0.75000000  1.0
  F  F12  1  0.29572747  0.87530047  0.45642159  1.0
  F  F13  1  0.29572747  0.87530047  0.04357841  1.0
  F  F14  1  0.87530047  0.57957300  0.95642159  1.0
  F  F15  1  0.87530047  0.57957300  0.54357841  1.0
  F  F16  1  0.57957300  0.70427253  0.45642159  1.0
  F  F17  1  0.57957300  0.70427253  0.04357841  1.0
  F  F18  1  0.12469953  0.42042700  0.45642159  1.0
  F  F19  1  0.12469953  0.42042700  0.04357841  1.0
  F  F20  1  0.70427253  0.12469953  0.95642159  1.0
  F  F21  1  0.70427253  0.12469953  0.54357841  1.0
  F  F22  1  0.42042700  0.29572747  0.95642159  1.0
  F  F23  1  0.42042700  0.29572747  0.54357841  1.0
  F  F24  1  0.11647349  0.89743196  0.25000000  1.0
  F  F25  1  0.89743196  0.78095847  0.75000000  1.0
  F  F26  1  0.78095847  0.88352651  0.25000000  1.0
  F  F27  1  0.10256804  0.21904153  0.25000000  1.0
  F  F28  1  0.88352651  0.10256804  0.75000000  1.0
  F  F29  1  0.21904153  0.11647349  0.75000000  1.0
  F  F30  1  0.14321348  0.62113349  0.25000000  1.0
  F  F31  1  0.62113349  0.47792000  0.75000000  1.0
  F  F32  1  0.47792000  0.85678652  0.25000000  1.0
  F  F33  1  0.37886651  0.52208000  0.25000000  1.0
  F  F34  1  0.85678652  0.37886651  0.75000000  1.0
  F  F35  1  0.52208000  0.14321348  0.75000000  1.0
