# generated using pymatgen
data_CoAsS
_symmetry_space_group_name_H-M   'P 1'
_cell_length_a   5.57863772
_cell_length_b   5.61226450
_cell_length_c   5.62209258
_cell_angle_alpha   90.00000000
_cell_angle_beta   92.66654610
_cell_angle_gamma   90.00000000
_symmetry_Int_Tables_number   1
_chemical_formula_structural   CoAsS
_chemical_formula_sum   'Co4 As4 S4'
_cell_volume   175.83032443
_cell_formula_units_Z   4
loop_
 _symmetry_equiv_pos_site_id
 _symmetry_equiv_pos_as_xyz
  1  'x, y, z'
loop_
 _atom_site_type_symbol
 _atom_site_label
 _atom_site_symmetry_multiplicity
 _atom_site_fract_x
 _atom_site_fract_y
 _atom_site_fract_z
 _atom_site_occupancy
  Co  Co0  1  0.00000000  0.00000000  0.00000000  1.0
  Co  Co1  1  0.00000000  0.50000000  0.50000000  1.0
  Co  Co2  1  0.50000000  0.00000000  0.50000000  1.0
  Co  Co3  1  0.50000000  0.50000000  0.00000000  1.0
  As  As4  1  0.87728611  0.37657453  0.87216857  1.0
  As  As5  1  0.87728611  0.12342547  0.37216857  1.0
  As  As6  1  0.12271389  0.87657453  0.62783143  1.0
  As  As7  1  0.12271389  0.62342547  0.12783143  1.0
  S  S8  1  0.62677483  0.88167010  0.88616003  1.0
  S  S9  1  0.62677483  0.61832990  0.38616003  1.0
  S  S10  1  0.37322517  0.38167010  0.61383997  1.0
  S  S11  1  0.37322517  0.11832990  0.11383997  1.0
