# generated using pymatgen
data_MnH16C4N(OF2)2
_symmetry_space_group_name_H-M   'P 1'
_cell_length_a   8.74604220
_cell_length_b   8.74604220
_cell_length_c   10.90839684
_cell_angle_alpha   83.63996510
_cell_angle_beta   96.36003490
_cell_angle_gamma   142.70308049
_symmetry_Int_Tables_number   1
_chemical_formula_structural   MnH16C4N(OF2)2
_chemical_formula_sum   'Mn2 H32 C8 N2 O4 F8'
_cell_volume   502.14494595
_cell_formula_units_Z   2
loop_
 _symmetry_equiv_pos_site_id
 _symmetry_equiv_pos_as_xyz
  1  'x, y, z'
loop_
 _atom_site_type_symbol
 _atom_site_label
 _atom_site_symmetry_multiplicity
 _atom_site_fract_x
 _atom_site_fract_y
 _atom_site_fract_z
 _atom_site_occupancy
  Mn  Mn0  1  1.00000000  0.50000000  0.00000000  1.0
  Mn  Mn1  1  0.50000000  -0.00000000  0.50000000  1.0
  H  H2  1  0.75885282  0.21249027  0.77487539  1.0
  H  H3  1  1.21249027  0.75885282  0.72512461  1.0
  H  H4  1  0.24114718  -0.21249027  0.22512461  1.0
  H  H5  1  0.78750973  0.24114718  0.27487539  1.0
  H  H6  1  0.58552727  0.02134928  0.88359494  1.0
  H  H7  1  1.02134928  0.58552727  0.61640506  1.0
  H  H8  1  0.41447273  -0.02134928  0.11640506  1.0
  H  H9  1  0.97865072  0.41447273  0.38359494  1.0
  H  H10  1  1.21071428  0.40794061  0.60954922  1.0
  H  H11  1  0.40794061  0.21071428  0.89045078  1.0
  H  H12  1  0.78928572  0.59205939  0.39045078  1.0
  H  H13  1  0.59205939  -0.21071428  0.10954922  1.0
  H  H14  1  0.98875875  0.17270182  0.72569313  1.0
  H  H15  1  0.17270182  -0.01124125  0.77430687  1.0
  H  H16  1  1.01124125  0.82729818  0.27430687  1.0
  H  H17  1  0.82729818  0.01124125  0.22569313  1.0
  H  H18  1  1.05810423  0.10217664  0.61202721  1.0
  H  H19  1  0.10217664  0.05810423  0.88797279  1.0
  H  H20  1  0.94189577  0.89782336  0.38797279  1.0
  H  H21  1  0.89782336  -0.05810423  0.11202721  1.0
  H  H22  1  0.51994924  -0.30051706  0.76531733  1.0
  H  H23  1  0.69948294  0.51994924  0.73468267  1.0
  H  H24  1  0.48005076  0.30051706  0.23468267  1.0
  H  H25  1  1.30051706  0.48005076  0.26531733  1.0
  H  H26  1  0.61082092  -0.38048950  0.88435410  1.0
  H  H27  1  0.61951050  0.61082092  0.61564590  1.0
  H  H28  1  0.38917908  0.38048950  0.11564590  1.0
  H  H29  1  1.38048950  0.38917908  0.38435410  1.0
  H  H30  1  1.30734578  0.47060930  0.88557607  1.0
  H  H31  1  0.47060930  0.30734578  0.61442393  1.0
  H  H32  1  0.69265422  0.52939070  0.11442393  1.0
  H  H33  1  0.52939070  -0.30734578  0.38557607  1.0
  C  C34  1  1.13495171  0.24988413  0.66807630  1.0
  C  C35  1  0.24988413  0.13495171  0.83192370  1.0
  C  C36  1  0.86504829  0.75011587  0.33192370  1.0
  C  C37  1  0.75011587  -0.13495171  0.16807630  1.0
  C  C38  1  0.45420599  -0.45035384  0.82747823  1.0
  C  C39  1  0.54964616  0.45420599  0.67252177  1.0
  C  C40  1  0.54579401  0.45035384  0.17252177  1.0
  C  C41  1  1.45035384  0.54579401  0.32747823  1.0
  N  N42  1  0.34643141  0.34643141  0.75000000  1.0
  N  N43  1  0.65356859  0.65356859  0.25000000  1.0
  O  O44  1  0.76490250  0.17657071  0.86320031  1.0
  O  O45  1  1.17657071  0.76490250  0.63679969  1.0
  O  O46  1  0.23509750  -0.17657071  0.13679969  1.0
  O  O47  1  0.82342929  0.23509750  0.36320031  1.0
  F  F48  1  0.84165908  0.55468882  0.93786066  1.0
  F  F49  1  0.55468882  -0.15834092  0.56213934  1.0
  F  F50  1  1.15834092  0.44531118  0.06213934  1.0
  F  F51  1  0.44531118  0.15834092  0.43786066  1.0
  F  F52  1  1.25637019  0.74228801  0.88352979  1.0
  F  F53  1  0.74228801  0.25637019  0.61647021  1.0
  F  F54  1  0.74362981  0.25771199  0.11647021  1.0
  F  F55  1  0.25771199  -0.25637019  0.38352979  1.0
