# generated using pymatgen
data_Lu(PO)2
_symmetry_space_group_name_H-M   'P 1'
_cell_length_a   7.88324826
_cell_length_b   7.88324826
_cell_length_c   7.88324826
_cell_angle_alpha   104.39852831
_cell_angle_beta   104.39852831
_cell_angle_gamma   120.17680247
_symmetry_Int_Tables_number   1
_chemical_formula_structural   Lu(PO)2
_chemical_formula_sum   'Lu4 P8 O8'
_cell_volume   367.10183893
_cell_formula_units_Z   4
loop_
 _symmetry_equiv_pos_site_id
 _symmetry_equiv_pos_as_xyz
  1  'x, y, z'
loop_
 _atom_site_type_symbol
 _atom_site_label
 _atom_site_symmetry_multiplicity
 _atom_site_fract_x
 _atom_site_fract_y
 _atom_site_fract_z
 _atom_site_occupancy
  Lu  Lu0  1  1.37500000  1.12500000  1.25000000  1.0
  Lu  Lu1  1  0.87500000  1.12500000  0.75000000  1.0
  Lu  Lu2  1  0.87500000  1.12500000  0.25000000  1.0
  Lu  Lu3  1  0.87500000  1.62500000  0.75000000  1.0
  P  P4  1  1.19572484  1.48750441  0.70822044  1.0
  P  P5  1  0.97071603  0.76249559  0.20822044  1.0
  P  P6  1  0.77928397  0.48750441  0.29177956  1.0
  P  P7  1  1.55427516  0.76249559  0.79177956  1.0
  P  P8  1  0.51249559  0.22071603  0.70822044  1.0
  P  P9  1  1.23750441  1.44572484  1.20822044  1.0
  P  P10  1  0.51249559  0.80427516  0.29177956  1.0
  P  P11  1  1.23750441  1.02928397  0.79177956  1.0
  O  O12  1  1.22107591  1.37544236  0.84563355  1.0
  O  O13  1  1.22019120  0.87455764  1.34563355  1.0
  O  O14  1  0.52980880  0.37544236  0.15436645  1.0
  O  O15  1  0.52892409  0.87455764  0.65436645  1.0
  O  O16  1  0.62455764  0.47019120  0.84563355  1.0
  O  O17  1  1.12544236  1.47107591  0.34563355  1.0
  O  O18  1  0.62455764  0.77892409  0.15436645  1.0
  O  O19  1  1.12544236  1.77980880  0.65436645  1.0
