# generated using pymatgen
data_Na5Zr2MnF15
_symmetry_space_group_name_H-M   'P 1'
_cell_length_a   11.42535245
_cell_length_b   11.42535245
_cell_length_c   7.58385039
_cell_angle_alpha   90.00000000
_cell_angle_beta   90.00000000
_cell_angle_gamma   39.98592793
_symmetry_Int_Tables_number   1
_chemical_formula_structural   Na5Zr2MnF15
_chemical_formula_sum   'Na10 Zr4 Mn2 F30'
_cell_volume   636.16433273
_cell_formula_units_Z   2
loop_
 _symmetry_equiv_pos_site_id
 _symmetry_equiv_pos_as_xyz
  1  'x, y, z'
loop_
 _atom_site_type_symbol
 _atom_site_label
 _atom_site_symmetry_multiplicity
 _atom_site_fract_x
 _atom_site_fract_y
 _atom_site_fract_z
 _atom_site_occupancy
  Na  Na0  1  -0.12917335  0.37695278  0.75000000  1.0
  Na  Na1  1  -0.62304722  0.87082665  0.25000000  1.0
  Na  Na2  1  -0.37695278  1.12917335  0.75000000  1.0
  Na  Na3  1  0.12917335  0.62304722  0.25000000  1.0
  Na  Na4  1  -0.25907733  0.74092267  0.00000000  1.0
  Na  Na5  1  -0.25907733  0.74092267  0.50000000  1.0
  Na  Na6  1  0.25907733  0.25907733  0.00000000  1.0
  Na  Na7  1  0.25907733  0.25907733  0.50000000  1.0
  Na  Na8  1  0.00000000  0.00000000  0.00000000  1.0
  Na  Na9  1  0.00000000  0.00000000  0.50000000  1.0
  Zr  Zr10  1  0.08646107  0.64435869  0.75000000  1.0
  Zr  Zr11  1  -0.35564131  1.08646107  0.25000000  1.0
  Zr  Zr12  1  -0.64435869  0.91353893  0.75000000  1.0
  Zr  Zr13  1  -0.08646107  0.35564131  0.25000000  1.0
  Mn  Mn14  1  -0.50000000  0.50000000  0.00000000  1.0
  Mn  Mn15  1  -0.50000000  0.50000000  0.50000000  1.0
  F  F16  1  0.23190826  0.63615595  0.93547141  1.0
  F  F17  1  0.23190826  0.63615595  0.56452859  1.0
  F  F18  1  -0.36384405  1.23190826  0.43547141  1.0
  F  F19  1  -0.36384405  1.23190826  0.06452859  1.0
  F  F20  1  -0.63615595  0.76809174  0.93547141  1.0
  F  F21  1  -0.63615595  0.76809174  0.56452859  1.0
  F  F22  1  -0.23190826  0.36384405  0.43547141  1.0
  F  F23  1  -0.23190826  0.36384405  0.06452859  1.0
  F  F24  1  0.05708235  0.57714578  0.98356954  1.0
  F  F25  1  0.05708235  0.57714578  0.51643046  1.0
  F  F26  1  -0.42285422  1.05708235  0.48356954  1.0
  F  F27  1  -0.42285422  1.05708235  0.01643046  1.0
  F  F28  1  -0.57714578  0.94291765  0.98356954  1.0
  F  F29  1  -0.57714578  0.94291765  0.51643046  1.0
  F  F30  1  -0.05708235  0.42285422  0.48356954  1.0
  F  F31  1  -0.05708235  0.42285422  0.01643046  1.0
  F  F32  1  -0.06188956  0.91661045  0.75000000  1.0
  F  F33  1  -0.08338955  0.93811044  0.25000000  1.0
  F  F34  1  -0.91661045  1.06188956  0.75000000  1.0
  F  F35  1  0.06188956  0.08338955  0.25000000  1.0
  F  F36  1  0.31334652  0.36407017  0.75000000  1.0
  F  F37  1  -0.63592983  1.31334652  0.25000000  1.0
  F  F38  1  -0.36407017  0.68665348  0.75000000  1.0
  F  F39  1  -0.31334652  0.63592983  0.25000000  1.0
  F  F40  1  -0.18038242  0.79390419  0.75000000  1.0
  F  F41  1  -0.20609581  0.81961758  0.25000000  1.0
  F  F42  1  -0.79390419  1.18038242  0.75000000  1.0
  F  F43  1  0.18038242  0.20609581  0.25000000  1.0
  F  F44  1  -0.39504917  0.39504917  0.75000000  1.0
  F  F45  1  -0.60495083  0.60495083  0.25000000  1.0
