# generated using pymatgen
data_YZn2
_symmetry_space_group_name_H-M   'P 1'
_cell_length_a   5.54622380
_cell_length_b   5.54622380
_cell_length_c   8.68409229
_cell_angle_alpha   90.00000000
_cell_angle_beta   90.00000000
_cell_angle_gamma   120.00000000
_symmetry_Int_Tables_number   1
_chemical_formula_structural   YZn2
_chemical_formula_sum   'Y4 Zn8'
_cell_volume   231.33952659
_cell_formula_units_Z   4
loop_
 _symmetry_equiv_pos_site_id
 _symmetry_equiv_pos_as_xyz
  1  'x, y, z'
loop_
 _atom_site_type_symbol
 _atom_site_label
 _atom_site_symmetry_multiplicity
 _atom_site_fract_x
 _atom_site_fract_y
 _atom_site_fract_z
 _atom_site_occupancy
  Y  Y0  1  0.33333333  0.66666667  0.44182292  1.0
  Y  Y1  1  0.66666667  0.33333333  0.55817708  1.0
  Y  Y2  1  0.66666667  0.33333333  0.94182292  1.0
  Y  Y3  1  0.33333333  0.66666667  0.05817708  1.0
  Zn  Zn4  1  0.00000000  0.00000000  0.50000000  1.0
  Zn  Zn5  1  0.00000000  0.00000000  0.00000000  1.0
  Zn  Zn6  1  0.83135344  0.16864656  0.25000000  1.0
  Zn  Zn7  1  0.83135344  0.66270688  0.25000000  1.0
  Zn  Zn8  1  0.33729312  0.16864656  0.25000000  1.0
  Zn  Zn9  1  0.16864656  0.83135344  0.75000000  1.0
  Zn  Zn10  1  0.16864656  0.33729312  0.75000000  1.0
  Zn  Zn11  1  0.66270688  0.83135344  0.75000000  1.0
