# generated using pymatgen
data_In(IO3)3
_symmetry_space_group_name_H-M   'P 1'
_cell_length_a   9.74114686
_cell_length_b   9.74114686
_cell_length_c   5.35054245
_cell_angle_alpha   90.00000000
_cell_angle_beta   90.00000000
_cell_angle_gamma   120.00000000
_symmetry_Int_Tables_number   1
_chemical_formula_structural   In(IO3)3
_chemical_formula_sum   'In2 I6 O18'
_cell_volume   439.69206422
_cell_formula_units_Z   2
loop_
 _symmetry_equiv_pos_site_id
 _symmetry_equiv_pos_as_xyz
  1  'x, y, z'
loop_
 _atom_site_type_symbol
 _atom_site_label
 _atom_site_symmetry_multiplicity
 _atom_site_fract_x
 _atom_site_fract_y
 _atom_site_fract_z
 _atom_site_occupancy
  In  In0  1  0.33333333  0.66666667  -0.01835412  1.0
  In  In1  1  0.66666667  0.33333333  0.48164588  1.0
  I  I2  1  0.31989976  0.97629414  0.37136311  1.0
  I  I3  1  0.97629414  0.65639438  0.87136311  1.0
  I  I4  1  0.65639438  0.68010024  0.37136311  1.0
  I  I5  1  0.02370586  0.34360562  0.37136311  1.0
  I  I6  1  0.68010024  0.02370586  0.87136311  1.0
  I  I7  1  0.34360562  0.31989976  0.87136311  1.0
  O  O8  1  0.14789206  0.91495128  0.16306662  1.0
  O  O9  1  0.91495128  0.76705922  0.66306662  1.0
  O  O10  1  0.76705922  0.85210794  0.16306662  1.0
  O  O11  1  0.08504872  0.23294078  0.16306662  1.0
  O  O12  1  0.85210794  0.08504872  0.66306662  1.0
  O  O13  1  0.23294078  0.14789206  0.66306662  1.0
  O  O14  1  0.42984550  0.88199920  0.20758186  1.0
  O  O15  1  0.88199920  0.45215371  0.70758186  1.0
  O  O16  1  0.45215371  0.57015450  0.20758186  1.0
  O  O17  1  0.11800080  0.54784629  0.20758186  1.0
  O  O18  1  0.57015450  0.11800080  0.70758186  1.0
  O  O19  1  0.54784629  0.42984550  0.70758186  1.0
  O  O20  1  0.72335726  0.53843291  0.24370644  1.0
  O  O21  1  0.53843291  0.81507565  0.74370644  1.0
  O  O22  1  0.81507565  0.27664274  0.24370644  1.0
  O  O23  1  0.46156709  0.18492435  0.24370644  1.0
  O  O24  1  0.27664274  0.46156709  0.74370644  1.0
  O  O25  1  0.18492435  0.72335726  0.74370644  1.0
