# generated using pymatgen
data_Cs3Sb2I9
_symmetry_space_group_name_H-M   'P 1'
_cell_length_a   8.55325298
_cell_length_b   8.55325298
_cell_length_c   21.76343741
_cell_angle_alpha   90.00000000
_cell_angle_beta   90.00000000
_cell_angle_gamma   120.00000000
_symmetry_Int_Tables_number   1
_chemical_formula_structural   Cs3Sb2I9
_chemical_formula_sum   'Cs6 Sb4 I18'
_cell_volume   1378.86185302
_cell_formula_units_Z   2
loop_
 _symmetry_equiv_pos_site_id
 _symmetry_equiv_pos_as_xyz
  1  'x, y, z'
loop_
 _atom_site_type_symbol
 _atom_site_label
 _atom_site_symmetry_multiplicity
 _atom_site_fract_x
 _atom_site_fract_y
 _atom_site_fract_z
 _atom_site_occupancy
  Cs  Cs0  1  0.33333333  0.66666667  0.42792527  1.0
  Cs  Cs1  1  0.33333333  0.66666667  0.07207473  1.0
  Cs  Cs2  1  0.66666667  0.33333333  0.92792527  1.0
  Cs  Cs3  1  0.66666667  0.33333333  0.57207473  1.0
  Cs  Cs4  1  0.00000000  0.00000000  0.25000000  1.0
  Cs  Cs5  1  0.00000000  0.00000000  0.75000000  1.0
  Sb  Sb6  1  0.33333333  0.66666667  0.84277772  1.0
  Sb  Sb7  1  0.33333333  0.66666667  0.65722228  1.0
  Sb  Sb8  1  0.66666667  0.33333333  0.34277772  1.0
  Sb  Sb9  1  0.66666667  0.33333333  0.15722228  1.0
  I  I10  1  0.16737975  0.83262025  0.91616330  1.0
  I  I11  1  0.16737975  0.83262025  0.58383670  1.0
  I  I12  1  0.16737975  0.33475950  0.91616330  1.0
  I  I13  1  0.16737975  0.33475950  0.58383670  1.0
  I  I14  1  0.83262025  0.16737975  0.41616330  1.0
  I  I15  1  0.83262025  0.16737975  0.08383670  1.0
  I  I16  1  0.83262025  0.66524050  0.41616330  1.0
  I  I17  1  0.83262025  0.66524050  0.08383670  1.0
  I  I18  1  0.66524050  0.83262025  0.91616330  1.0
  I  I19  1  0.66524050  0.83262025  0.58383670  1.0
  I  I20  1  0.33475950  0.16737975  0.41616330  1.0
  I  I21  1  0.33475950  0.16737975  0.08383670  1.0
  I  I22  1  0.49864714  0.50135286  0.25000000  1.0
  I  I23  1  0.49864714  -0.00270571  0.25000000  1.0
  I  I24  1  0.50135286  0.49864714  0.75000000  1.0
  I  I25  1  0.50135286  1.00270571  0.75000000  1.0
  I  I26  1  1.00270571  0.50135286  0.25000000  1.0
  I  I27  1  -0.00270571  0.49864714  0.75000000  1.0
