# generated using pymatgen
data_Ag3AuS2
_symmetry_space_group_name_H-M   'P 1'
_cell_length_a   9.84083817
_cell_length_b   9.84083817
_cell_length_c   9.84083817
_cell_angle_alpha   90.00000000
_cell_angle_beta   90.00000000
_cell_angle_gamma   90.00000000
_symmetry_Int_Tables_number   1
_chemical_formula_structural   Ag3AuS2
_chemical_formula_sum   'Ag24 Au8 S16'
_cell_volume   953.00739463
_cell_formula_units_Z   8
loop_
 _symmetry_equiv_pos_site_id
 _symmetry_equiv_pos_as_xyz
  1  'x, y, z'
loop_
 _atom_site_type_symbol
 _atom_site_label
 _atom_site_symmetry_multiplicity
 _atom_site_fract_x
 _atom_site_fract_y
 _atom_site_fract_z
 _atom_site_occupancy
  Ag  Ag0  1  0.50001907  0.74998299  0.88412331  1.0
  Ag  Ag1  1  0.25001907  0.13412331  0.50001701  1.0
  Ag  Ag2  1  0.75001907  0.36587669  0.49998299  1.0
  Ag  Ag3  1  1.00001907  0.75001701  0.11587669  1.0
  Ag  Ag4  1  0.24998299  0.61587669  0.49998093  1.0
  Ag  Ag5  1  0.99998299  0.74998093  0.63412331  1.0
  Ag  Ag6  1  0.49998299  0.75001907  0.36587669  1.0
  Ag  Ag7  1  0.74998299  0.88412331  0.50001907  1.0
  Ag  Ag8  1  0.11587669  1.00001907  0.75001701  1.0
  Ag  Ag9  1  0.86587669  0.00001701  0.24998093  1.0
  Ag  Ag10  1  0.36587669  0.49998299  0.75001907  1.0
  Ag  Ag11  1  0.61587669  0.49998093  0.24998299  1.0
  Ag  Ag12  1  0.49998093  0.24998299  0.61587669  1.0
  Ag  Ag13  1  0.24998093  0.86587669  0.00001701  1.0
  Ag  Ag14  1  0.74998093  0.63412331  0.99998299  1.0
  Ag  Ag15  1  -0.00001907  0.25001701  0.38412331  1.0
  Ag  Ag16  1  0.75001701  0.11587669  1.00001907  1.0
  Ag  Ag17  1  0.50001701  0.25001907  0.13412331  1.0
  Ag  Ag18  1  0.00001701  0.24998093  0.86587669  1.0
  Ag  Ag19  1  0.25001701  0.38412331  -0.00001907  1.0
  Ag  Ag20  1  0.88412331  0.50001907  0.74998299  1.0
  Ag  Ag21  1  0.63412331  0.99998299  0.74998093  1.0
  Ag  Ag22  1  0.13412331  0.50001701  0.25001907  1.0
  Ag  Ag23  1  0.38412331  -0.00001907  0.25001701  1.0
  Au  Au24  1  0.37501240  0.87501240  0.62498760  1.0
  Au  Au25  1  0.12501240  0.87498760  0.37498760  1.0
  Au  Au26  1  0.62501240  0.62501240  0.62501240  1.0
  Au  Au27  1  0.87501240  0.62498760  0.37501240  1.0
  Au  Au28  1  0.62498760  0.37501240  0.87501240  1.0
  Au  Au29  1  0.37498760  0.12501240  0.87498760  1.0
  Au  Au30  1  0.87498760  0.37498760  0.12501240  1.0
  Au  Au31  1  0.12498760  0.12498760  0.12498760  1.0
  S  S32  1  0.23646152  0.73646152  0.76353848  1.0
  S  S33  1  0.98646152  0.01353848  0.51353848  1.0
  S  S34  1  0.48646152  0.48646152  0.48646152  1.0
  S  S35  1  0.73646152  0.76353848  0.23646152  1.0
  S  S36  1  0.76353848  0.23646152  0.73646152  1.0
  S  S37  1  0.51353848  0.98646152  0.01353848  1.0
  S  S38  1  0.01353848  0.51353848  0.98646152  1.0
  S  S39  1  0.26353848  0.26353848  0.26353848  1.0
  S  S40  1  0.73643484  0.23643484  0.26356516  1.0
  S  S41  1  0.48643484  0.51356516  0.01356516  1.0
  S  S42  1  0.98643484  0.98643484  0.98643484  1.0
  S  S43  1  0.23643484  0.26356516  0.73643484  1.0
  S  S44  1  0.26356516  0.73643484  0.23643484  1.0
  S  S45  1  0.01356516  0.48643484  0.51356516  1.0
  S  S46  1  0.51356516  0.01356516  0.48643484  1.0
  S  S47  1  0.76356516  0.76356516  0.76356516  1.0
