# generated using pymatgen
data_CrAg(SO4)2
_symmetry_space_group_name_H-M   'P 1'
_cell_length_a   4.85260105
_cell_length_b   4.85260105
_cell_length_c   7.58348133
_cell_angle_alpha   92.31093238
_cell_angle_beta   87.68906762
_cell_angle_gamma   115.23442301
_symmetry_Int_Tables_number   1
_chemical_formula_structural   CrAg(SO4)2
_chemical_formula_sum   'Cr1 Ag1 S2 O8'
_cell_volume   161.34847713
_cell_formula_units_Z   1
loop_
 _symmetry_equiv_pos_site_id
 _symmetry_equiv_pos_as_xyz
  1  'x, y, z'
loop_
 _atom_site_type_symbol
 _atom_site_label
 _atom_site_symmetry_multiplicity
 _atom_site_fract_x
 _atom_site_fract_y
 _atom_site_fract_z
 _atom_site_occupancy
  Cr  Cr0  1  -0.00000000  -0.00000000  -0.00000000  1.0
  Ag  Ag1  1  -0.00000000  0.00000000  0.50000000  1.0
  S  S2  1  0.65533963  -0.65533963  0.79392249  1.0
  S  S3  1  0.34466037  -0.34466037  0.20607751  1.0
  O  O4  1  1.31131984  0.21861759  0.81247193  1.0
  O  O5  1  0.78138241  -0.31131984  0.81247193  1.0
  O  O6  1  1.21861759  0.31131984  0.18752807  1.0
  O  O7  1  0.68868016  -0.21861759  0.18752807  1.0
  O  O8  1  0.76849540  -0.76849540  0.94200747  1.0
  O  O9  1  0.23150460  -0.23150460  0.05799253  1.0
  O  O10  1  0.73466940  -0.73466940  0.61700335  1.0
  O  O11  1  0.26533060  -0.26533060  0.38299665  1.0
