# generated using pymatgen
data_LiCoPO4
_symmetry_space_group_name_H-M   'P 1'
_cell_length_a   10.34638763
_cell_length_b   5.91628322
_cell_length_c   4.73811162
_cell_angle_alpha   90.00000000
_cell_angle_beta   90.00000000
_cell_angle_gamma   90.00000000
_symmetry_Int_Tables_number   1
_chemical_formula_structural   LiCoPO4
_chemical_formula_sum   'Li4 Co4 P4 O16'
_cell_volume   290.03004428
_cell_formula_units_Z   4
loop_
 _symmetry_equiv_pos_site_id
 _symmetry_equiv_pos_as_xyz
  1  'x, y, z'
loop_
 _atom_site_type_symbol
 _atom_site_label
 _atom_site_symmetry_multiplicity
 _atom_site_fract_x
 _atom_site_fract_y
 _atom_site_fract_z
 _atom_site_occupancy
  O  O0  1  0.95811904  0.25000000  0.29383253  1.0
  O  O1  1  0.45811904  0.25000000  0.20616747  1.0
  O  O2  1  0.04188096  0.75000000  0.70616747  1.0
  O  O3  1  0.54188096  0.75000000  0.79383253  1.0
  O  O4  1  0.59598281  0.25000000  0.75031365  1.0
  O  O5  1  0.09598281  0.25000000  0.74968635  1.0
  O  O6  1  0.40401719  0.75000000  0.24968635  1.0
  O  O7  1  0.90401719  0.75000000  0.25031365  1.0
  O  O8  1  0.66996434  0.45776210  0.21025124  1.0
  O  O9  1  0.66996434  0.04223790  0.21025124  1.0
  O  O10  1  0.16996434  0.45776210  0.28974876  1.0
  O  O11  1  0.16996434  0.04223790  0.28974876  1.0
  O  O12  1  0.33003566  0.95776210  0.78974876  1.0
  O  O13  1  0.33003566  0.54223790  0.78974876  1.0
  O  O14  1  0.83003566  0.95776210  0.71025124  1.0
  O  O15  1  0.83003566  0.54223790  0.71025124  1.0
  Co  Co16  1  0.78000113  0.25000000  0.51449708  1.0
  Co  Co17  1  0.28000113  0.25000000  0.98550292  1.0
  Co  Co18  1  0.21999887  0.75000000  0.48550292  1.0
  Co  Co19  1  0.71999887  0.75000000  0.01449708  1.0
  P  P20  1  0.59611601  0.25000000  0.07476428  1.0
  P  P21  1  0.09611601  0.25000000  0.42523572  1.0
  P  P22  1  0.40388399  0.75000000  0.92523572  1.0
  P  P23  1  0.90388399  0.75000000  0.57476428  1.0
  Li  Li24  1  0.00000000  0.50000000  0.00000000  1.0
  Li  Li25  1  0.00000000  0.00000000  0.00000000  1.0
  Li  Li26  1  0.50000000  0.50000000  0.50000000  1.0
  Li  Li27  1  0.50000000  0.00000000  0.50000000  1.0
