# generated using pymatgen
data_Cs3Tm2I9
_symmetry_space_group_name_H-M   'P 1'
_cell_length_a   8.47167514
_cell_length_b   8.47167514
_cell_length_c   22.26559522
_cell_angle_alpha   90.00000000
_cell_angle_beta   90.00000000
_cell_angle_gamma   120.00000000
_symmetry_Int_Tables_number   1
_chemical_formula_structural   Cs3Tm2I9
_chemical_formula_sum   'Cs6 Tm4 I18'
_cell_volume   1383.89623916
_cell_formula_units_Z   2
loop_
 _symmetry_equiv_pos_site_id
 _symmetry_equiv_pos_as_xyz
  1  'x, y, z'
loop_
 _atom_site_type_symbol
 _atom_site_label
 _atom_site_symmetry_multiplicity
 _atom_site_fract_x
 _atom_site_fract_y
 _atom_site_fract_z
 _atom_site_occupancy
  Cs  Cs0  1  0.33333333  0.66666667  0.43801478  1.0
  Cs  Cs1  1  0.33333333  0.66666667  0.06198522  1.0
  Cs  Cs2  1  0.66666667  0.33333333  0.93801478  1.0
  Cs  Cs3  1  0.66666667  0.33333333  0.56198522  1.0
  Cs  Cs4  1  0.00000000  0.00000000  0.25000000  1.0
  Cs  Cs5  1  0.00000000  0.00000000  0.75000000  1.0
  Tm  Tm6  1  0.33333333  0.66666667  0.84040524  1.0
  Tm  Tm7  1  0.33333333  0.66666667  0.65959476  1.0
  Tm  Tm8  1  0.66666667  0.33333333  0.34040524  1.0
  Tm  Tm9  1  0.66666667  0.33333333  0.15959476  1.0
  I  I10  1  0.16536616  0.83463384  0.91363039  1.0
  I  I11  1  0.16536616  0.83463384  0.58636961  1.0
  I  I12  1  0.16536616  0.33073231  0.91363039  1.0
  I  I13  1  0.16536616  0.33073231  0.58636961  1.0
  I  I14  1  0.83463384  0.16536616  0.41363039  1.0
  I  I15  1  0.83463384  0.16536616  0.08636961  1.0
  I  I16  1  0.83463384  0.66926769  0.41363039  1.0
  I  I17  1  0.83463384  0.66926769  0.08636961  1.0
  I  I18  1  0.66926769  0.83463384  0.91363039  1.0
  I  I19  1  0.66926769  0.83463384  0.58636961  1.0
  I  I20  1  0.33073231  0.16536616  0.41363039  1.0
  I  I21  1  0.33073231  0.16536616  0.08636961  1.0
  I  I22  1  0.50427208  0.49572792  0.25000000  1.0
  I  I23  1  0.50427208  0.00854417  0.25000000  1.0
  I  I24  1  0.49572792  0.50427208  0.75000000  1.0
  I  I25  1  0.49572792  0.99145583  0.75000000  1.0
  I  I26  1  0.99145583  0.49572792  0.25000000  1.0
  I  I27  1  0.00854417  0.50427208  0.75000000  1.0
