# generated using pymatgen
data_CoH8C2N4(ClO2)2
_symmetry_space_group_name_H-M   'P 1'
_cell_length_a   7.65622112
_cell_length_b   7.64660031
_cell_length_c   9.20935791
_cell_angle_alpha   90.00000000
_cell_angle_beta   111.06219355
_cell_angle_gamma   90.00000000
_symmetry_Int_Tables_number   1
_chemical_formula_structural   CoH8C2N4(ClO2)2
_chemical_formula_sum   'Co2 H16 C4 N8 Cl4 O8'
_cell_volume   503.13287220
_cell_formula_units_Z   2
loop_
 _symmetry_equiv_pos_site_id
 _symmetry_equiv_pos_as_xyz
  1  'x, y, z'
loop_
 _atom_site_type_symbol
 _atom_site_label
 _atom_site_symmetry_multiplicity
 _atom_site_fract_x
 _atom_site_fract_y
 _atom_site_fract_z
 _atom_site_occupancy
  C  C0  1  0.38049121  0.81925485  0.16313174  1.0
  C  C1  1  0.38049121  0.68074515  0.66313174  1.0
  C  C2  1  0.61950879  0.31925485  0.33686826  1.0
  C  C3  1  0.61950879  0.18074515  0.83686826  1.0
  N  N4  1  0.53918000  0.86221359  0.13961818  1.0
  N  N5  1  0.53918000  0.63778641  0.63961818  1.0
  N  N6  1  0.46082000  0.36221359  0.36038182  1.0
  N  N7  1  0.46082000  0.13778641  0.86038182  1.0
  N  N8  1  0.39179517  0.73386416  0.29349490  1.0
  N  N9  1  0.39179517  0.76613584  0.79349490  1.0
  N  N10  1  0.60820483  0.23386416  0.20650510  1.0
  N  N11  1  0.60820483  0.26613584  0.70650510  1.0
  Cl  Cl12  1  0.02020728  1.00044163  0.26922980  1.0
  Cl  Cl13  1  0.02020728  0.49955837  0.76922980  1.0
  Cl  Cl14  1  0.97979272  0.50044163  0.23077020  1.0
  Cl  Cl15  1  0.97979272  -0.00044163  0.73077020  1.0
  O  O16  1  0.16215176  0.23275287  0.04763270  1.0
  O  O17  1  0.16215176  0.26724713  0.54763270  1.0
  O  O18  1  0.83784824  0.73275287  0.45236730  1.0
  O  O19  1  0.83784824  0.76724713  0.95236730  1.0
  O  O20  1  0.22278686  0.85680387  0.05526078  1.0
  O  O21  1  0.22278686  0.64319613  0.55526078  1.0
  O  O22  1  0.77721314  0.35680387  0.44473922  1.0
  O  O23  1  0.77721314  0.14319613  0.94473922  1.0
  Co  Co24  1  0.00000000  0.00000000  0.00000000  1.0
  Co  Co25  1  0.00000000  0.50000000  0.50000000  1.0
  H  H26  1  0.12446416  0.30460009  0.12083212  1.0
  H  H27  1  0.12446416  0.19539991  0.62083212  1.0
  H  H28  1  0.87553584  0.80460009  0.37916788  1.0
  H  H29  1  0.87553584  0.69539991  0.87916788  1.0
  H  H30  1  0.12809760  0.19556310  0.45146659  1.0
  H  H31  1  0.12809760  0.30443690  0.95146659  1.0
  H  H32  1  0.87190240  0.69556310  0.04853341  1.0
  H  H33  1  0.87190240  0.80443690  0.54853341  1.0
  H  H34  1  0.27369195  0.69250450  0.31067138  1.0
  H  H35  1  0.27369195  0.80749550  0.81067138  1.0
  H  H36  1  0.72630805  0.19250450  0.18932862  1.0
  H  H37  1  0.72630805  0.30749550  0.68932862  1.0
  H  H38  1  0.51979866  0.70689325  0.37547851  1.0
  H  H39  1  0.51979866  0.79310675  0.87547851  1.0
  H  H40  1  0.48020134  0.20689325  0.12452149  1.0
  H  H41  1  0.48020134  0.29310675  0.62452149  1.0
