# generated using pymatgen
data_Y2Be2GeO7
_symmetry_space_group_name_H-M   'P 1'
_cell_length_a   7.45031150
_cell_length_b   7.45031150
_cell_length_c   4.82429262
_cell_angle_alpha   90.00000000
_cell_angle_beta   90.00000000
_cell_angle_gamma   90.00000000
_symmetry_Int_Tables_number   1
_chemical_formula_structural   Y2Be2GeO7
_chemical_formula_sum   'Y4 Be4 Ge2 O14'
_cell_volume   267.78269277
_cell_formula_units_Z   2
loop_
 _symmetry_equiv_pos_site_id
 _symmetry_equiv_pos_as_xyz
  1  'x, y, z'
loop_
 _atom_site_type_symbol
 _atom_site_label
 _atom_site_symmetry_multiplicity
 _atom_site_fract_x
 _atom_site_fract_y
 _atom_site_fract_z
 _atom_site_occupancy
  Y  Y0  1  0.84180684  0.34180684  0.49434005  1.0
  Y  Y1  1  0.65819316  0.84180684  0.50565995  1.0
  Y  Y2  1  0.15819316  0.65819316  0.49434005  1.0
  Y  Y3  1  0.34180684  0.15819316  0.50565995  1.0
  Be  Be4  1  0.36492455  0.86492455  0.04779506  1.0
  Be  Be5  1  0.13507545  0.36492455  0.95220494  1.0
  Be  Be6  1  0.63507545  0.13507545  0.04779506  1.0
  Be  Be7  1  0.86492455  0.63507545  0.95220494  1.0
  Ge  Ge8  1  0.50000000  0.50000000  0.00000000  1.0
  Ge  Ge9  1  0.00000000  0.00000000  0.00000000  1.0
  O  O10  1  0.32849157  0.41777540  0.78334568  1.0
  O  O11  1  0.17150843  0.91777540  0.21665432  1.0
  O  O12  1  0.58222460  0.32849157  0.21665432  1.0
  O  O13  1  0.91777540  0.82849157  0.78334568  1.0
  O  O14  1  0.67150843  0.58222460  0.78334568  1.0
  O  O15  1  0.82849157  0.08222460  0.21665432  1.0
  O  O16  1  0.41777540  0.67150843  0.21665432  1.0
  O  O17  1  0.08222460  0.17150843  0.78334568  1.0
  O  O18  1  0.35801084  0.85801084  0.71788162  1.0
  O  O19  1  0.14198916  0.35801084  0.28211838  1.0
  O  O20  1  0.64198916  0.14198916  0.71788162  1.0
  O  O21  1  0.85801084  0.64198916  0.28211838  1.0
  O  O22  1  0.00000000  0.50000000  0.81162325  1.0
  O  O23  1  0.50000000  0.00000000  0.18837675  1.0
