# generated using pymatgen
data_Lu4Ni13C4
_symmetry_space_group_name_H-M   'P 1'
_cell_length_a   8.34921866
_cell_length_b   8.34921866
_cell_length_c   3.82521988
_cell_angle_alpha   90.00000000
_cell_angle_beta   90.00000000
_cell_angle_gamma   91.31387794
_symmetry_Int_Tables_number   1
_chemical_formula_structural   Lu4Ni13C4
_chemical_formula_sum   'Lu4 Ni13 C4'
_cell_volume   266.58387499
_cell_formula_units_Z   1
loop_
 _symmetry_equiv_pos_site_id
 _symmetry_equiv_pos_as_xyz
  1  'x, y, z'
loop_
 _atom_site_type_symbol
 _atom_site_label
 _atom_site_symmetry_multiplicity
 _atom_site_fract_x
 _atom_site_fract_y
 _atom_site_fract_z
 _atom_site_occupancy
  Lu  Lu0  1  0.18719744  0.81280256  0.50000000  1.0
  Lu  Lu1  1  -0.18719744  1.18719744  0.50000000  1.0
  Lu  Lu2  1  0.65152860  0.65152860  0.50000000  1.0
  Lu  Lu3  1  0.34847140  0.34847140  0.50000000  1.0
  Ni  Ni4  1  0.21562959  0.56996684  0.00000000  1.0
  Ni  Ni5  1  -0.43003316  1.21562959  0.00000000  1.0
  Ni  Ni6  1  0.43003316  0.78437041  0.00000000  1.0
  Ni  Ni7  1  -0.21562959  1.43003316  0.00000000  1.0
  Ni  Ni8  1  -0.07480755  1.70869879  0.00000000  1.0
  Ni  Ni9  1  0.70869879  0.92519245  0.00000000  1.0
  Ni  Ni10  1  -0.70869879  1.07480755  0.00000000  1.0
  Ni  Ni11  1  0.07480755  0.29130121  0.00000000  1.0
  Ni  Ni12  1  0.87650778  0.87650778  0.50000000  1.0
  Ni  Ni13  1  0.12349222  0.12349222  0.50000000  1.0
  Ni  Ni14  1  0.00000000  1.50000000  0.50000000  1.0
  Ni  Ni15  1  0.50000000  1.00000000  0.50000000  1.0
  Ni  Ni16  1  0.00000000  0.00000000  0.00000000  1.0
  C  C17  1  0.44297359  0.55702641  0.00000000  1.0
  C  C18  1  -0.44297359  1.44297359  0.00000000  1.0
  C  C19  1  0.00000000  1.50000000  0.00000000  1.0
  C  C20  1  0.50000000  1.00000000  0.00000000  1.0
