# generated using pymatgen
data_In2O3
_symmetry_space_group_name_H-M   'P 1'
_cell_length_a   7.71398594
_cell_length_b   3.12777806
_cell_length_c   10.33905920
_cell_angle_alpha   90.00000000
_cell_angle_beta   90.00000000
_cell_angle_gamma   90.00000000
_symmetry_Int_Tables_number   1
_chemical_formula_structural   In2O3
_chemical_formula_sum   'In8 O12'
_cell_volume   249.45705694
_cell_formula_units_Z   4
loop_
 _symmetry_equiv_pos_site_id
 _symmetry_equiv_pos_as_xyz
  1  'x, y, z'
loop_
 _atom_site_type_symbol
 _atom_site_label
 _atom_site_symmetry_multiplicity
 _atom_site_fract_x
 _atom_site_fract_y
 _atom_site_fract_z
 _atom_site_occupancy
  In  In0  1  0.27510203  0.25000000  0.99710871  1.0
  In  In1  1  0.77510203  0.25000000  0.50289129  1.0
  In  In2  1  0.72489797  0.75000000  0.00289129  1.0
  In  In3  1  0.22489797  0.75000000  0.49710871  1.0
  In  In4  1  0.51725358  0.25000000  0.26004665  1.0
  In  In5  1  1.01725358  0.25000000  0.23995335  1.0
  In  In6  1  0.48274642  0.75000000  0.73995335  1.0
  In  In7  1  -0.01725358  0.75000000  0.76004665  1.0
  O  O8  1  0.26341762  0.25000000  0.35122059  1.0
  O  O9  1  0.76341762  0.25000000  0.14877941  1.0
  O  O10  1  0.73658238  0.75000000  0.64877941  1.0
  O  O11  1  0.23658238  0.75000000  0.85122059  1.0
  O  O12  1  0.54313285  0.25000000  0.88923064  1.0
  O  O13  1  0.04313285  0.25000000  0.61076936  1.0
  O  O14  1  0.45686715  0.75000000  0.11076936  1.0
  O  O15  1  0.95686715  0.75000000  0.38923064  1.0
  O  O16  1  0.89702975  0.25000000  0.89424913  1.0
  O  O17  1  0.39702975  0.25000000  0.60575087  1.0
  O  O18  1  0.10297025  0.75000000  0.10575087  1.0
  O  O19  1  0.60297025  0.75000000  0.39424913  1.0
