# generated using pymatgen
data_KTeOF3
_symmetry_space_group_name_H-M   'P 1'
_cell_length_a   10.41040193
_cell_length_b   10.41040193
_cell_length_c   8.08796692
_cell_angle_alpha   90.00000000
_cell_angle_beta   90.00000000
_cell_angle_gamma   90.00000000
_symmetry_Int_Tables_number   1
_chemical_formula_structural   KTeOF3
_chemical_formula_sum   'K8 Te8 O8 F24'
_cell_volume   876.54529082
_cell_formula_units_Z   8
loop_
 _symmetry_equiv_pos_site_id
 _symmetry_equiv_pos_as_xyz
  1  'x, y, z'
loop_
 _atom_site_type_symbol
 _atom_site_label
 _atom_site_symmetry_multiplicity
 _atom_site_fract_x
 _atom_site_fract_y
 _atom_site_fract_z
 _atom_site_occupancy
  K  K0  1  0.00000000  0.00000000  0.00000000  1.0
  K  K1  1  0.50000000  0.50000000  0.50000000  1.0
  K  K2  1  0.00000000  0.00000000  0.50000000  1.0
  K  K3  1  0.50000000  0.50000000  0.00000000  1.0
  K  K4  1  0.25000000  0.75000000  0.25000000  1.0
  K  K5  1  0.75000000  0.25000000  0.25000000  1.0
  K  K6  1  0.25000000  0.25000000  0.75000000  1.0
  K  K7  1  0.75000000  0.75000000  0.75000000  1.0
  Te  Te8  1  0.65380447  0.13553597  0.79309235  1.0
  Te  Te9  1  0.34619553  0.86446403  0.79309235  1.0
  Te  Te10  1  0.63553597  0.84619553  0.29309235  1.0
  Te  Te11  1  0.36446403  0.15380447  0.29309235  1.0
  Te  Te12  1  0.84619553  0.36446403  0.70690765  1.0
  Te  Te13  1  0.15380447  0.63553597  0.70690765  1.0
  Te  Te14  1  0.86446403  0.65380447  0.20690765  1.0
  Te  Te15  1  0.13553597  0.34619553  0.20690765  1.0
  O  O16  1  0.77808162  0.25115209  0.90502329  1.0
  O  O17  1  0.22191838  0.74884791  0.90502329  1.0
  O  O18  1  0.75115209  0.72191838  0.40502329  1.0
  O  O19  1  0.24884791  0.27808162  0.40502329  1.0
  O  O20  1  0.72191838  0.24884791  0.59497671  1.0
  O  O21  1  0.27808162  0.75115209  0.59497671  1.0
  O  O22  1  0.74884791  0.77808162  0.09497671  1.0
  O  O23  1  0.25115209  0.22191838  0.09497671  1.0
  F  F24  1  0.51111224  0.26951688  0.84587984  1.0
  F  F25  1  0.48888776  0.73048312  0.84587984  1.0
  F  F26  1  0.76951688  0.98888776  0.34587984  1.0
  F  F27  1  0.23048312  0.01111224  0.34587984  1.0
  F  F28  1  0.98888776  0.23048312  0.65412016  1.0
  F  F29  1  0.01111224  0.76951688  0.65412016  1.0
  F  F30  1  0.73048312  0.51111224  0.15412016  1.0
  F  F31  1  0.26951688  0.48888776  0.15412016  1.0
  F  F32  1  0.63168966  0.06978962  0.03520984  1.0
  F  F33  1  0.36831034  0.93021038  0.03520984  1.0
  F  F34  1  0.56978962  0.86831034  0.53520984  1.0
  F  F35  1  0.43021038  0.13168966  0.53520984  1.0
  F  F36  1  0.86831034  0.43021038  0.46479016  1.0
  F  F37  1  0.13168966  0.56978962  0.46479016  1.0
  F  F38  1  0.93021038  0.63168966  0.96479016  1.0
  F  F39  1  0.06978962  0.36831034  0.96479016  1.0
  F  F40  1  0.81083820  0.00474642  0.77206383  1.0
  F  F41  1  0.18916180  0.99525358  0.77206383  1.0
  F  F42  1  0.50474642  0.68916180  0.27206383  1.0
  F  F43  1  0.49525358  0.31083820  0.27206383  1.0
  F  F44  1  0.68916180  0.49525358  0.72793617  1.0
  F  F45  1  0.31083820  0.50474642  0.72793617  1.0
  F  F46  1  0.99525358  0.81083820  0.22793617  1.0
  F  F47  1  0.00474642  0.18916180  0.22793617  1.0
