# generated using pymatgen
data_Co(PO5)2
_symmetry_space_group_name_H-M   'P 1'
_cell_length_a   6.08697931
_cell_length_b   7.97763179
_cell_length_c   9.04856189
_cell_angle_alpha   90.00000000
_cell_angle_beta   117.82896130
_cell_angle_gamma   90.00000000
_symmetry_Int_Tables_number   1
_chemical_formula_structural   Co(PO5)2
_chemical_formula_sum   'Co2 P4 O20'
_cell_volume   388.57705870
_cell_formula_units_Z   2
loop_
 _symmetry_equiv_pos_site_id
 _symmetry_equiv_pos_as_xyz
  1  'x, y, z'
loop_
 _atom_site_type_symbol
 _atom_site_label
 _atom_site_symmetry_multiplicity
 _atom_site_fract_x
 _atom_site_fract_y
 _atom_site_fract_z
 _atom_site_occupancy
  O  O0  1  0.69325305  0.57934174  0.42704895  1.0
  O  O1  1  0.69325305  -0.07934174  0.92704895  1.0
  O  O2  1  0.30674695  1.07934174  0.07295105  1.0
  O  O3  1  0.30674695  0.42065826  0.57295105  1.0
  O  O4  1  0.86040880  0.05745809  0.33974562  1.0
  O  O5  1  0.86040880  0.44254191  0.83974562  1.0
  O  O6  1  0.13959120  0.55745809  0.16025438  1.0
  O  O7  1  0.13959120  0.94254191  0.66025438  1.0
  O  O8  1  0.27358734  0.19089859  0.41267947  1.0
  O  O9  1  0.27358734  0.30910141  0.91267947  1.0
  O  O10  1  0.72641266  0.69089859  0.08732053  1.0
  O  O11  1  0.72641266  0.80910141  0.58732053  1.0
  O  O12  1  0.92470404  0.18164255  0.10459565  1.0
  O  O13  1  0.92470404  0.31835745  0.60459565  1.0
  O  O14  1  0.07529596  0.68164255  0.39540435  1.0
  O  O15  1  0.07529596  0.81835745  0.89540435  1.0
  O  O16  1  1.12393195  0.87284382  0.19696041  1.0
  O  O17  1  1.12393195  0.62715618  0.69696041  1.0
  O  O18  1  -0.12393195  0.37284382  0.30303959  1.0
  O  O19  1  -0.12393195  0.12715618  0.80303959  1.0
  Co  Co20  1  0.00000000  0.50000000  0.50000000  1.0
  Co  Co21  1  0.00000000  0.00000000  0.00000000  1.0
  P  P22  1  1.00842650  0.69797714  0.20609745  1.0
  P  P23  1  1.00842650  0.80202286  0.70609745  1.0
  P  P24  1  -0.00842650  0.19797714  0.29390255  1.0
  P  P25  1  -0.00842650  0.30202286  0.79390255  1.0
