# generated using pymatgen
data_Cs2PbO3
_symmetry_space_group_name_H-M   'P 1'
_cell_length_a   7.00953186
_cell_length_b   7.00953186
_cell_length_c   6.21758222
_cell_angle_alpha   90.00000000
_cell_angle_beta   90.00000000
_cell_angle_gamma   68.34781521
_symmetry_Int_Tables_number   1
_chemical_formula_structural   Cs2PbO3
_chemical_formula_sum   'Cs4 Pb2 O6'
_cell_volume   283.93655198
_cell_formula_units_Z   2
loop_
 _symmetry_equiv_pos_site_id
 _symmetry_equiv_pos_as_xyz
  1  'x, y, z'
loop_
 _atom_site_type_symbol
 _atom_site_label
 _atom_site_symmetry_multiplicity
 _atom_site_fract_x
 _atom_site_fract_y
 _atom_site_fract_z
 _atom_site_occupancy
  Pb  Pb0  1  0.08911713  0.91088287  0.01637061  1.0
  Pb  Pb1  1  -0.08911713  1.08911713  0.51637061  1.0
  O  O2  1  0.86248905  0.88913275  0.26016176  1.0
  O  O3  1  0.88913275  0.86248905  0.76016176  1.0
  O  O4  1  0.11086725  0.13751095  0.26016176  1.0
  O  O5  1  0.13751095  0.11086725  0.76016176  1.0
  O  O6  1  0.35024297  0.64975703  0.05964655  1.0
  O  O7  1  -0.35024297  1.35024297  0.55964655  1.0
  Cs  Cs8  1  -0.19347265  1.51806964  -0.00667034  1.0
  Cs  Cs9  1  0.51806964  0.80652735  0.49332966  1.0
  Cs  Cs10  1  -0.51806964  1.19347265  -0.00667034  1.0
  Cs  Cs11  1  0.19347265  0.48193036  0.49332966  1.0
