# generated using pymatgen
data_K2As2Pd
_symmetry_space_group_name_H-M   'P 1'
_cell_length_a   8.01563604
_cell_length_b   8.01563604
_cell_length_c   6.08070361
_cell_angle_alpha   90.00000000
_cell_angle_beta   90.00000000
_cell_angle_gamma   131.69235741
_symmetry_Int_Tables_number   1
_chemical_formula_structural   K2As2Pd
_chemical_formula_sum   'K4 As4 Pd2'
_cell_volume   291.73706932
_cell_formula_units_Z   2
loop_
 _symmetry_equiv_pos_site_id
 _symmetry_equiv_pos_as_xyz
  1  'x, y, z'
loop_
 _atom_site_type_symbol
 _atom_site_label
 _atom_site_symmetry_multiplicity
 _atom_site_fract_x
 _atom_site_fract_y
 _atom_site_fract_z
 _atom_site_occupancy
  K  K0  1  0.20549548  0.79450452  0.75000000  1.0
  K  K1  1  -0.20549548  0.20549548  0.25000000  1.0
  K  K2  1  -0.42170236  0.42170236  0.75000000  1.0
  K  K3  1  0.42170236  0.57829764  0.25000000  1.0
  As  As4  1  0.07448435  0.29733952  0.75000000  1.0
  As  As5  1  0.29733952  1.07448435  0.25000000  1.0
  As  As6  1  0.70266048  0.92551565  0.75000000  1.0
  As  As7  1  -0.07448435  0.70266048  0.25000000  1.0
  Pd  Pd8  1  0.00000000  0.00000000  0.00000000  1.0
  Pd  Pd9  1  0.00000000  0.00000000  0.50000000  1.0
