# generated using pymatgen
data_Nb2Se3
_symmetry_space_group_name_H-M   'P 1'
_cell_length_a   6.62871229
_cell_length_b   3.43735758
_cell_length_c   9.27756271
_cell_angle_alpha   90.00000000
_cell_angle_beta   104.00288704
_cell_angle_gamma   90.00000000
_symmetry_Int_Tables_number   1
_chemical_formula_structural   Nb2Se3
_chemical_formula_sum   'Nb4 Se6'
_cell_volume   205.10981499
_cell_formula_units_Z   2
loop_
 _symmetry_equiv_pos_site_id
 _symmetry_equiv_pos_as_xyz
  1  'x, y, z'
loop_
 _atom_site_type_symbol
 _atom_site_label
 _atom_site_symmetry_multiplicity
 _atom_site_fract_x
 _atom_site_fract_y
 _atom_site_fract_z
 _atom_site_occupancy
  Nb  Nb0  1  0.38654124  0.25000000  0.86476375  1.0
  Nb  Nb1  1  0.61345876  0.75000000  0.13523625  1.0
  Nb  Nb2  1  0.18257387  0.25000000  0.49840692  1.0
  Nb  Nb3  1  0.81742613  0.75000000  0.50159308  1.0
  Se  Se4  1  0.97845540  0.25000000  0.70342809  1.0
  Se  Se5  1  0.02154460  0.75000000  0.29657191  1.0
  Se  Se6  1  0.77126050  0.25000000  0.98603791  1.0
  Se  Se7  1  0.22873950  0.75000000  0.01396209  1.0
  Se  Se8  1  0.52706689  0.25000000  0.34291091  1.0
  Se  Se9  1  0.47293311  0.75000000  0.65708909  1.0
