# generated using pymatgen
data_La3BCCl3
_symmetry_space_group_name_H-M   'P 1'
_cell_length_a   8.40010519
_cell_length_b   3.77598896
_cell_length_c   11.45246053
_cell_angle_alpha   90.00000000
_cell_angle_beta   100.09235506
_cell_angle_gamma   90.00000000
_symmetry_Int_Tables_number   1
_chemical_formula_structural   La3BCCl3
_chemical_formula_sum   'La6 B2 C2 Cl6'
_cell_volume   357.63637655
_cell_formula_units_Z   2
loop_
 _symmetry_equiv_pos_site_id
 _symmetry_equiv_pos_as_xyz
  1  'x, y, z'
loop_
 _atom_site_type_symbol
 _atom_site_label
 _atom_site_symmetry_multiplicity
 _atom_site_fract_x
 _atom_site_fract_y
 _atom_site_fract_z
 _atom_site_occupancy
  La  La0  1  0.88934578  0.25000000  0.18346656  1.0
  La  La1  1  0.11065422  0.75000000  0.81653344  1.0
  La  La2  1  0.79727690  0.25000000  0.60795898  1.0
  La  La3  1  0.20272310  0.75000000  0.39204102  1.0
  La  La4  1  0.29028626  0.25000000  0.11046411  1.0
  La  La5  1  0.70971374  0.75000000  0.88953589  1.0
  B  B6  1  0.96400888  0.25000000  0.95944367  1.0
  B  B7  1  0.03599112  0.75000000  0.04055633  1.0
  C  C8  1  0.89867973  0.25000000  0.82103134  1.0
  C  C9  1  0.10132027  0.75000000  0.17896866  1.0
  Cl  Cl10  1  0.45497964  0.25000000  0.36104341  1.0
  Cl  Cl11  1  0.54502036  0.75000000  0.63895659  1.0
  Cl  Cl12  1  0.40702962  0.25000000  0.87635270  1.0
  Cl  Cl13  1  0.59297038  0.75000000  0.12364730  1.0
  Cl  Cl14  1  0.14819190  0.25000000  0.59545638  1.0
  Cl  Cl15  1  0.85180810  0.75000000  0.40454362  1.0
