# generated using pymatgen
data_H6CNF
_symmetry_space_group_name_H-M   'P 1'
_cell_length_a   5.33188176
_cell_length_b   5.33188176
_cell_length_c   5.33188176
_cell_angle_alpha   49.04281167
_cell_angle_beta   49.04281167
_cell_angle_gamma   49.04281167
_symmetry_Int_Tables_number   1
_chemical_formula_structural   H6CNF
_chemical_formula_sum   'H6 C1 N1 F1'
_cell_volume   79.38458423
_cell_formula_units_Z   1
loop_
 _symmetry_equiv_pos_site_id
 _symmetry_equiv_pos_as_xyz
  1  'x, y, z'
loop_
 _atom_site_type_symbol
 _atom_site_label
 _atom_site_symmetry_multiplicity
 _atom_site_fract_x
 _atom_site_fract_y
 _atom_site_fract_z
 _atom_site_occupancy
  H  H0  1  0.22926614  0.22926614  -0.38094536  1.0
  H  H1  1  0.22926614  0.61905464  -0.77073386  1.0
  H  H2  1  0.61905464  0.22926614  -0.77073386  1.0
  H  H3  1  0.65178321  0.65178321  -0.75059057  1.0
  H  H4  1  0.65178321  0.24940943  -0.34821679  1.0
  H  H5  1  0.24940943  0.65178321  -0.34821679  1.0
  C  C6  1  0.49060868  0.49060868  -0.50939132  1.0
  N  N7  1  0.38494445  0.38494445  -0.61505555  1.0
  F  F8  1  0.99505075  0.99505075  0.99505075  1.0
