# generated using pymatgen
data_BaNaH3Pd
_symmetry_space_group_name_H-M   'P 1'
_cell_length_a   6.08821038
_cell_length_b   6.08821038
_cell_length_c   6.16340435
_cell_angle_alpha   90.00000000
_cell_angle_beta   90.00000000
_cell_angle_gamma   120.00000000
_symmetry_Int_Tables_number   1
_chemical_formula_structural   BaNaH3Pd
_chemical_formula_sum   'Ba2 Na2 H6 Pd2'
_cell_volume   197.84751286
_cell_formula_units_Z   2
loop_
 _symmetry_equiv_pos_site_id
 _symmetry_equiv_pos_as_xyz
  1  'x, y, z'
loop_
 _atom_site_type_symbol
 _atom_site_label
 _atom_site_symmetry_multiplicity
 _atom_site_fract_x
 _atom_site_fract_y
 _atom_site_fract_z
 _atom_site_occupancy
  Ba  Ba0  1  0.33333333  0.66666667  0.75000000  1.0
  Ba  Ba1  1  0.66666667  0.33333333  0.25000000  1.0
  Na  Na2  1  0.00000000  0.00000000  0.50000000  1.0
  Na  Na3  1  0.00000000  0.00000000  0.00000000  1.0
  H  H4  1  0.16869508  0.83130492  0.25000000  1.0
  H  H5  1  0.16869508  0.33739016  0.25000000  1.0
  H  H6  1  0.83130492  0.16869508  0.75000000  1.0
  H  H7  1  0.83130492  0.66260984  0.75000000  1.0
  H  H8  1  0.66260984  0.83130492  0.25000000  1.0
  H  H9  1  0.33739016  0.16869508  0.75000000  1.0
  Pd  Pd10  1  0.33333333  0.66666667  0.25000000  1.0
  Pd  Pd11  1  0.66666667  0.33333333  0.75000000  1.0
