# generated using pymatgen
data_FeH12N3(OF2)3
_symmetry_space_group_name_H-M   'P 1'
_cell_length_a   7.75404013
_cell_length_b   7.75404013
_cell_length_c   7.75404013
_cell_angle_alpha   95.60333804
_cell_angle_beta   95.60333804
_cell_angle_gamma   95.60333804
_symmetry_Int_Tables_number   1
_chemical_formula_structural   FeH12N3(OF2)3
_chemical_formula_sum   'Fe2 H24 N6 O6 F12'
_cell_volume   459.05669874
_cell_formula_units_Z   2
loop_
 _symmetry_equiv_pos_site_id
 _symmetry_equiv_pos_as_xyz
  1  'x, y, z'
loop_
 _atom_site_type_symbol
 _atom_site_label
 _atom_site_symmetry_multiplicity
 _atom_site_fract_x
 _atom_site_fract_y
 _atom_site_fract_z
 _atom_site_occupancy
  F  F0  1  1.61141363  0.60512729  -0.14770652  1.0
  F  F1  1  1.60512729  -0.14770652  0.61141363  1.0
  F  F2  1  0.85229348  0.61141363  0.60512729  1.0
  F  F3  1  1.11141363  -0.64770652  0.10512729  1.0
  F  F4  1  0.35229348  0.10512729  0.11141363  1.0
  F  F5  1  1.10512729  0.11141363  -0.64770652  1.0
  F  F6  1  0.98666100  0.93015564  0.71843272  1.0
  F  F7  1  0.93015564  1.71843272  -0.01333900  1.0
  F  F8  1  1.71843272  0.98666100  -0.06984436  1.0
  F  F9  1  0.48666100  1.21843272  -0.56984436  1.0
  F  F10  1  1.21843272  0.43015564  -0.51333900  1.0
  F  F11  1  0.43015564  0.48666100  0.21843272  1.0
  H  H12  1  1.43160669  0.65238671  -0.13279340  1.0
  H  H13  1  1.65238671  -0.13279340  0.43160669  1.0
  H  H14  1  0.86720660  0.43160669  0.65238671  1.0
  H  H15  1  0.93160669  0.36720660  0.15238671  1.0
  H  H16  1  1.36720660  0.15238671  -0.06839331  1.0
  H  H17  1  1.15238671  -0.06839331  0.36720660  1.0
  H  H18  1  1.32864633  -0.13898401  0.07365543  1.0
  H  H19  1  0.86101599  0.07365543  0.32864633  1.0
  H  H20  1  1.07365543  0.32864633  -0.13898401  1.0
  H  H21  1  0.82864633  0.57365543  0.36101599  1.0
  H  H22  1  1.57365543  0.36101599  -0.17135367  1.0
  H  H23  1  1.36101599  -0.17135367  0.57365543  1.0
  H  H24  1  1.13966960  -0.27345132  0.03390139  1.0
  H  H25  1  0.72654868  0.03390139  0.13966960  1.0
  H  H26  1  1.03390139  0.13966960  -0.27345132  1.0
  H  H27  1  0.63966960  0.53390139  0.22654868  1.0
  H  H28  1  0.53390139  1.22654868  -0.36033040  1.0
  H  H29  1  1.22654868  0.63966960  -0.46609861  1.0
  H  H30  1  1.32590804  -0.35273642  0.12133822  1.0
  H  H31  1  0.64726358  0.12133822  0.32590804  1.0
  H  H32  1  1.12133822  0.32590804  -0.35273642  1.0
  H  H33  1  0.82590804  0.62133822  0.14726358  1.0
  H  H34  1  0.62133822  1.14726358  -0.17409196  1.0
  H  H35  1  1.14726358  0.82590804  -0.37866178  1.0
  N  N36  1  1.27620834  -0.26772008  0.03668927  1.0
  N  N37  1  0.73227992  0.03668927  0.27620834  1.0
  N  N38  1  1.03668927  0.27620834  -0.26772008  1.0
  N  N39  1  0.77620834  0.53668927  0.23227992  1.0
  N  N40  1  0.53668927  1.23227992  -0.22379166  1.0
  N  N41  1  1.23227992  0.77620834  -0.46331073  1.0
  Fe  Fe42  1  0.78643142  0.78643142  0.78643142  1.0
  Fe  Fe43  1  0.28643142  0.28643142  0.28643142  1.0
  O  O44  1  1.30478122  0.67730087  -0.13630206  1.0
  O  O45  1  0.67730087  0.86369794  0.30478122  1.0
  O  O46  1  0.86369794  1.30478122  -0.32269913  1.0
  O  O47  1  0.80478122  0.36369794  0.17730087  1.0
  O  O48  1  1.36369794  0.17730087  -0.19521878  1.0
  O  O49  1  1.17730087  -0.19521878  0.36369794  1.0
