# generated using pymatgen
data_Ta4CoP
_symmetry_space_group_name_H-M   'P 1'
_cell_length_a   6.13152113
_cell_length_b   6.13152113
_cell_length_c   4.98746631
_cell_angle_alpha   90.00000000
_cell_angle_beta   90.00000000
_cell_angle_gamma   90.00000000
_symmetry_Int_Tables_number   1
_chemical_formula_structural   Ta4CoP
_chemical_formula_sum   'Ta8 Co2 P2'
_cell_volume   187.50654590
_cell_formula_units_Z   2
loop_
 _symmetry_equiv_pos_site_id
 _symmetry_equiv_pos_as_xyz
  1  'x, y, z'
loop_
 _atom_site_type_symbol
 _atom_site_label
 _atom_site_symmetry_multiplicity
 _atom_site_fract_x
 _atom_site_fract_y
 _atom_site_fract_z
 _atom_site_occupancy
  Ta  Ta0  1  0.84289749  0.66755412  0.00000000  1.0
  Ta  Ta1  1  0.84289749  0.33244588  0.50000000  1.0
  Ta  Ta2  1  0.66755412  0.84289749  0.50000000  1.0
  Ta  Ta3  1  0.66755412  0.15710251  0.00000000  1.0
  Ta  Ta4  1  0.15710251  0.66755412  0.50000000  1.0
  Ta  Ta5  1  0.15710251  0.33244588  0.00000000  1.0
  Ta  Ta6  1  0.33244588  0.84289749  0.00000000  1.0
  Ta  Ta7  1  0.33244588  0.15710251  0.50000000  1.0
  Co  Co8  1  0.00000000  0.00000000  0.75000000  1.0
  Co  Co9  1  0.00000000  0.00000000  0.25000000  1.0
  P  P10  1  0.50000000  0.50000000  0.75000000  1.0
  P  P11  1  0.50000000  0.50000000  0.25000000  1.0
