# generated using pymatgen
data_Tl2S
_symmetry_space_group_name_H-M   'P 1'
_cell_length_a   9.69842690
_cell_length_b   9.69842690
_cell_length_c   9.69842690
_cell_angle_alpha   81.59814186
_cell_angle_beta   81.59814186
_cell_angle_gamma   81.59814186
_symmetry_Int_Tables_number   1
_chemical_formula_structural   Tl2S
_chemical_formula_sum   'Tl18 S9'
_cell_volume   885.46859891
_cell_formula_units_Z   9
loop_
 _symmetry_equiv_pos_site_id
 _symmetry_equiv_pos_as_xyz
  1  'x, y, z'
loop_
 _atom_site_type_symbol
 _atom_site_label
 _atom_site_symmetry_multiplicity
 _atom_site_fract_x
 _atom_site_fract_y
 _atom_site_fract_z
 _atom_site_occupancy
  Tl  Tl0  1  0.30949169  0.97889504  -0.66278268  1.0
  Tl  Tl1  1  0.97889504  0.33721732  -0.69050831  1.0
  Tl  Tl2  1  0.33721732  0.30949169  -0.02110496  1.0
  Tl  Tl3  1  0.64149965  0.31285064  -0.32817825  1.0
  Tl  Tl4  1  0.31285064  0.67182175  -0.35850035  1.0
  Tl  Tl5  1  0.67182175  0.64149965  -0.68714936  1.0
  Tl  Tl6  1  0.25896483  0.28813714  -0.40305030  1.0
  Tl  Tl7  1  0.28813714  0.59694970  -0.74103517  1.0
  Tl  Tl8  1  0.59694970  0.25896483  -0.71186286  1.0
  Tl  Tl9  1  0.92681931  -0.04579989  0.28103832  1.0
  Tl  Tl10  1  0.95420011  0.28103832  -0.07318069  1.0
  Tl  Tl11  1  1.28103832  -0.07318069  -0.04579989  1.0
  Tl  Tl12  1  1.00655780  -0.02566790  -0.33767829  1.0
  Tl  Tl13  1  0.97433210  -0.33767829  0.00655780  1.0
  Tl  Tl14  1  0.66232171  0.00655780  -0.02566790  1.0
  Tl  Tl15  1  0.62254023  0.93157015  -0.40912446  1.0
  Tl  Tl16  1  0.93157015  0.59087554  -0.37745977  1.0
  Tl  Tl17  1  0.59087554  0.62254023  -0.06842985  1.0
  S  S18  1  0.31746842  0.98314354  -0.35277897  1.0
  S  S19  1  0.98314354  0.64722103  -0.68253158  1.0
  S  S20  1  0.64722103  0.31746842  -0.01685646  1.0
  S  S21  1  0.94893216  0.27983623  -0.38362237  1.0
  S  S22  1  1.27983623  -0.38362237  -0.05106784  1.0
  S  S23  1  0.61637763  -0.05106784  0.27983623  1.0
  S  S24  1  -0.02787635  -0.02787635  -0.02787635  1.0
  S  S25  1  1.28709311  1.28709311  0.28709311  1.0
  S  S26  1  0.62142120  0.62142120  -0.37857880  1.0
