# generated using pymatgen
data_CO2
_symmetry_space_group_name_H-M   'P 1'
_cell_length_a   7.60788159
_cell_length_b   7.60788159
_cell_length_c   7.60788159
_cell_angle_alpha   89.90211328
_cell_angle_beta   89.90211328
_cell_angle_gamma   89.90211328
_symmetry_Int_Tables_number   1
_chemical_formula_structural   CO2
_chemical_formula_sum   'C8 O16'
_cell_volume   440.34121290
_cell_formula_units_Z   8
loop_
 _symmetry_equiv_pos_site_id
 _symmetry_equiv_pos_as_xyz
  1  'x, y, z'
loop_
 _atom_site_type_symbol
 _atom_site_label
 _atom_site_symmetry_multiplicity
 _atom_site_fract_x
 _atom_site_fract_y
 _atom_site_fract_z
 _atom_site_occupancy
  C  C0  1  0.99395486  1.25000000  0.50604514  1.0
  C  C1  1  0.49395486  1.00604514  -0.25000000  1.0
  C  C2  1  0.75000000  0.49395486  0.00604514  1.0
  C  C3  1  1.25000000  1.50604514  -0.00604514  1.0
  C  C4  1  1.00604514  0.75000000  -0.50604514  1.0
  C  C5  1  1.50604514  0.99395486  0.25000000  1.0
  C  C6  1  0.50000000  0.50000000  -0.50000000  1.0
  C  C7  1  0.00000000  0.00000000  0.00000000  1.0
  O  O8  1  1.09838147  -0.33176749  -0.41369800  1.0
  O  O9  1  1.59838147  1.08630200  0.16823251  1.0
  O  O10  1  0.91369800  0.83176749  -0.59838147  1.0
  O  O11  1  0.41369800  0.90161853  -0.66823251  1.0
  O  O12  1  0.33176749  0.41369800  -0.09838147  1.0
  O  O13  1  0.83176749  0.40161853  -0.08630200  1.0
  O  O14  1  0.90161853  0.33176749  -0.58630200  1.0
  O  O15  1  0.40161853  0.91369800  -0.16823251  1.0
  O  O16  1  0.58630200  0.09838147  -0.33176749  1.0
  O  O17  1  1.08630200  1.16823251  0.59838147  1.0
  O  O18  1  1.16823251  1.59838147  0.08630200  1.0
  O  O19  1  0.66823251  -0.41369800  0.09838147  1.0
  O  O20  1  0.41124017  0.41124017  -0.58875983  1.0
  O  O21  1  0.91124017  0.91124017  -0.08875983  1.0
  O  O22  1  1.08875983  1.08875983  0.08875983  1.0
  O  O23  1  0.58875983  0.58875983  -0.41124017  1.0
