# generated using pymatgen
data_Ba9Y2(SiO4)6
_symmetry_space_group_name_H-M   'P 1'
_cell_length_a   9.50086030
_cell_length_b   9.50086030
_cell_length_c   9.50086030
_cell_angle_alpha   64.50000495
_cell_angle_beta   64.50000495
_cell_angle_gamma   64.50000496
_symmetry_Int_Tables_number   1
_chemical_formula_structural   Ba9Y2(SiO4)6
_chemical_formula_sum   'Ba9 Y2 Si6 O24'
_cell_volume   666.26941928
_cell_formula_units_Z   1
loop_
 _symmetry_equiv_pos_site_id
 _symmetry_equiv_pos_as_xyz
  1  'x, y, z'
loop_
 _atom_site_type_symbol
 _atom_site_label
 _atom_site_symmetry_multiplicity
 _atom_site_fract_x
 _atom_site_fract_y
 _atom_site_fract_z
 _atom_site_occupancy
  Ba  Ba0  1  0.74756476  0.43694009  -0.86017317  1.0
  Ba  Ba1  1  0.56305991  0.86017317  -0.74756476  1.0
  Ba  Ba2  1  0.86017317  0.25243524  -0.43694009  1.0
  Ba  Ba3  1  0.25243524  0.56305991  -0.13982683  1.0
  Ba  Ba4  1  0.43694009  0.13982683  -0.25243524  1.0
  Ba  Ba5  1  0.13982683  0.74756476  -0.56305991  1.0
  Ba  Ba6  1  0.66212792  0.66212792  -0.33787208  1.0
  Ba  Ba7  1  0.33787208  0.33787208  -0.66212792  1.0
  Ba  Ba8  1  0.00000000  0.00000000  0.00000000  1.0
  Y  Y9  1  0.83613531  0.83613531  -0.16386469  1.0
  Y  Y10  1  1.16386469  1.16386469  0.16386469  1.0
  Si  Si11  1  0.58679188  0.24405823  -0.05305297  1.0
  Si  Si12  1  0.75594177  0.05305297  -0.58679188  1.0
  Si  Si13  1  1.05305297  -0.58679188  -0.24405823  1.0
  Si  Si14  1  0.41320812  -0.24405823  0.05305297  1.0
  Si  Si15  1  1.24405823  -0.05305297  -0.41320812  1.0
  Si  Si16  1  0.94694703  -0.41320812  0.24405823  1.0
  O  O17  1  0.57035952  0.38265547  -0.22958395  1.0
  O  O18  1  0.61734453  0.22958395  -0.57035952  1.0
  O  O19  1  0.22958395  0.42964048  -0.38265547  1.0
  O  O20  1  0.42964048  0.61734453  -0.77041605  1.0
  O  O21  1  0.38265547  0.77041605  -0.42964048  1.0
  O  O22  1  0.77041605  0.57035952  -0.61734453  1.0
  O  O23  1  0.72068757  0.07124968  -0.09485929  1.0
  O  O24  1  0.92875032  0.09485929  -0.72068757  1.0
  O  O25  1  1.09485929  -0.72068757  -0.07124968  1.0
  O  O26  1  0.27931243  -0.07124968  0.09485929  1.0
  O  O27  1  1.07124968  -0.09485929  -0.27931243  1.0
  O  O28  1  0.90514071  -0.27931243  0.07124968  1.0
  O  O29  1  0.59663400  0.78759984  -0.04590788  1.0
  O  O30  1  1.21240016  1.04590788  0.40336600  1.0
  O  O31  1  1.04590788  1.40336600  0.21240016  1.0
  O  O32  1  1.40336600  1.21240016  0.04590788  1.0
  O  O33  1  0.78759984  0.95409212  -0.40336600  1.0
  O  O34  1  0.95409212  0.59663400  -0.21240016  1.0
  O  O35  1  1.63340572  1.28999481  0.06391286  1.0
  O  O36  1  0.71000519  0.93608714  -0.63340572  1.0
  O  O37  1  0.93608714  0.36659428  -0.28999481  1.0
  O  O38  1  0.36659428  0.71000519  -0.06391286  1.0
  O  O39  1  1.28999481  1.06391286  0.63340572  1.0
  O  O40  1  1.06391286  1.63340572  0.28999481  1.0
