# generated using pymatgen
data_Ba2CdAs2
_symmetry_space_group_name_H-M   'P 1'
_cell_length_a   9.09845863
_cell_length_b   9.09845863
_cell_length_c   8.19632371
_cell_angle_alpha   90.00000000
_cell_angle_beta   90.00000000
_cell_angle_gamma   150.48962771
_symmetry_Int_Tables_number   1
_chemical_formula_structural   Ba2CdAs2
_chemical_formula_sum   'Ba4 Cd2 As4'
_cell_volume   334.22005592
_cell_formula_units_Z   2
loop_
 _symmetry_equiv_pos_site_id
 _symmetry_equiv_pos_as_xyz
  1  'x, y, z'
loop_
 _atom_site_type_symbol
 _atom_site_label
 _atom_site_symmetry_multiplicity
 _atom_site_fract_x
 _atom_site_fract_y
 _atom_site_fract_z
 _atom_site_occupancy
  Ba  Ba0  1  -0.70423654  0.70423654  0.95957081  1.0
  Ba  Ba1  1  -0.29576346  1.29576346  0.45957081  1.0
  Ba  Ba2  1  -0.53823551  0.53823551  0.30250038  1.0
  Ba  Ba3  1  -0.46176449  1.46176449  0.80250038  1.0
  Cd  Cd4  1  -0.90555209  0.90555209  0.15167416  1.0
  Cd  Cd5  1  -0.09444791  1.09444791  0.65167416  1.0
  As  As6  1  -0.93933815  0.93933815  0.50099508  1.0
  As  As7  1  -0.06066185  1.06066185  0.00099508  1.0
  As  As8  1  -0.67197206  0.67197206  0.57025958  1.0
  As  As9  1  -0.32802794  1.32802794  0.07025958  1.0
