# generated using pymatgen
data_FeSb(OF)2
_symmetry_space_group_name_H-M   'P 1'
_cell_length_a   6.50229620
_cell_length_b   6.50229620
_cell_length_c   5.63250609
_cell_angle_alpha   77.73283033
_cell_angle_beta   102.26716967
_cell_angle_gamma   133.65222808
_symmetry_Int_Tables_number   1
_chemical_formula_structural   FeSb(OF)2
_chemical_formula_sum   'Fe2 Sb2 O4 F4'
_cell_volume   167.64056978
_cell_formula_units_Z   2
loop_
 _symmetry_equiv_pos_site_id
 _symmetry_equiv_pos_as_xyz
  1  'x, y, z'
loop_
 _atom_site_type_symbol
 _atom_site_label
 _atom_site_symmetry_multiplicity
 _atom_site_fract_x
 _atom_site_fract_y
 _atom_site_fract_z
 _atom_site_occupancy
  Fe  Fe0  1  1.00000000  -0.50000000  0.50000000  1.0
  Fe  Fe1  1  1.50000000  0.00000000  0.00000000  1.0
  Sb  Sb2  1  0.82065270  0.82065270  0.75000000  1.0
  Sb  Sb3  1  0.17934730  0.17934730  0.25000000  1.0
  O  O4  1  1.00962596  -0.18837729  0.46910059  1.0
  O  O5  1  1.81162271  0.00962596  0.03089941  1.0
  O  O6  1  0.99037404  -0.81162271  0.53089941  1.0
  O  O7  1  1.18837729  -0.00962596  0.96910059  1.0
  F  F8  1  1.65589800  0.27116413  0.68972319  1.0
  F  F9  1  1.27116413  -0.34410200  0.81027681  1.0
  F  F10  1  1.34410200  -0.27116413  0.31027681  1.0
  F  F11  1  0.72883587  -0.65589800  0.18972319  1.0
