# generated using pymatgen
data_Zr13Ir4
_symmetry_space_group_name_H-M   'P 1'
_cell_length_a   11.86722335
_cell_length_b   11.86722335
_cell_length_c   11.86722335
_cell_angle_alpha   60.00000000
_cell_angle_beta   60.00000000
_cell_angle_gamma   60.00000000
_symmetry_Int_Tables_number   1
_chemical_formula_structural   Zr13Ir4
_chemical_formula_sum   'Zr26 Ir8'
_cell_volume   1181.76834054
_cell_formula_units_Z   2
loop_
 _symmetry_equiv_pos_site_id
 _symmetry_equiv_pos_as_xyz
  1  'x, y, z'
loop_
 _atom_site_type_symbol
 _atom_site_label
 _atom_site_symmetry_multiplicity
 _atom_site_fract_x
 _atom_site_fract_y
 _atom_site_fract_z
 _atom_site_occupancy
  Zr  Zr0  1  0.92870788  -0.54416257  0.68674681  1.0
  Zr  Zr1  1  -0.07129212  0.68674681  0.45583743  1.0
  Zr  Zr2  1  -0.20583743  0.32129212  0.32129212  1.0
  Zr  Zr3  1  0.56325319  0.32129212  0.32129212  1.0
  Zr  Zr4  1  -0.54416257  0.92870788  0.68674681  1.0
  Zr  Zr5  1  0.92870788  -0.07129212  0.68674681  1.0
  Zr  Zr6  1  0.92870788  -0.31325319  0.92870788  1.0
  Zr  Zr7  1  -0.54416257  0.68674681  0.92870788  1.0
  Zr  Zr8  1  0.32129212  -0.20583743  0.32129212  1.0
  Zr  Zr9  1  0.32129212  0.32129212  -0.20583743  1.0
  Zr  Zr10  1  0.56325319  0.32129212  -0.20583743  1.0
  Zr  Zr11  1  0.56325319  -0.20583743  0.32129212  1.0
  Zr  Zr12  1  0.68674681  -0.07129212  0.92870788  1.0
  Zr  Zr13  1  -0.54416257  0.92870788  0.92870788  1.0
  Zr  Zr14  1  0.32129212  0.56325319  -0.20583743  1.0
  Zr  Zr15  1  0.32129212  -0.20583743  0.56325319  1.0
  Zr  Zr16  1  -0.31325319  0.92870788  0.45583743  1.0
  Zr  Zr17  1  0.68674681  -0.54416257  0.92870788  1.0
  Zr  Zr18  1  0.92870788  -0.54416257  0.92870788  1.0
  Zr  Zr19  1  -0.07129212  0.92870788  0.45583743  1.0
  Zr  Zr20  1  0.32129212  0.56325319  0.32129212  1.0
  Zr  Zr21  1  -0.20583743  0.56325319  0.32129212  1.0
  Zr  Zr22  1  -0.20583743  0.32129212  0.56325319  1.0
  Zr  Zr23  1  0.32129212  0.32129212  0.56325319  1.0
  Zr  Zr24  1  0.50000000  0.50000000  -0.50000000  1.0
  Zr  Zr25  1  0.75000000  -0.25000000  0.75000000  1.0
  Ir  Ir26  1  0.66476660  -0.33523340  1.00570020  1.0
  Ir  Ir27  1  0.66476660  0.00570020  0.66476660  1.0
  Ir  Ir28  1  0.58523340  -0.41476660  0.58523340  1.0
  Ir  Ir29  1  1.24429980  -0.41476660  0.58523340  1.0
  Ir  Ir30  1  1.00570020  -0.33523340  0.66476660  1.0
  Ir  Ir31  1  0.66476660  -0.33523340  0.66476660  1.0
  Ir  Ir32  1  0.58523340  0.24429980  0.58523340  1.0
  Ir  Ir33  1  0.58523340  -0.41476660  1.24429980  1.0
