# generated using pymatgen
data_SiO2
_symmetry_space_group_name_H-M   'P 1'
_cell_length_a   4.33459807
_cell_length_b   4.25950108
_cell_length_c   8.01388345
_cell_angle_alpha   90.00000000
_cell_angle_beta   93.29283337
_cell_angle_gamma   90.00000000
_symmetry_Int_Tables_number   1
_chemical_formula_structural   SiO2
_chemical_formula_sum   'Si4 O8'
_cell_volume   147.71785018
_cell_formula_units_Z   4
loop_
 _symmetry_equiv_pos_site_id
 _symmetry_equiv_pos_as_xyz
  1  'x, y, z'
loop_
 _atom_site_type_symbol
 _atom_site_label
 _atom_site_symmetry_multiplicity
 _atom_site_fract_x
 _atom_site_fract_y
 _atom_site_fract_z
 _atom_site_occupancy
  Si  Si0  1  0.86701899  -0.01111295  0.32182757  1.0
  Si  Si1  1  0.13298101  -0.01111295  0.67817243  1.0
  Si  Si2  1  0.54690765  0.58401509  0.80515500  1.0
  Si  Si3  1  0.45309235  0.58401509  0.19484500  1.0
  O  O4  1  0.88537616  0.77540638  0.78464910  1.0
  O  O5  1  0.11462384  0.77540638  0.21535090  1.0
  O  O6  1  0.50000000  0.66491595  -0.00000000  1.0
  O  O7  1  0.62649530  0.71865884  0.36567497  1.0
  O  O8  1  0.37350470  0.71865884  0.63432503  1.0
  O  O9  1  0.00000000  0.14528185  0.50000000  1.0
  O  O10  1  0.36228834  0.23109374  0.79306737  1.0
  O  O11  1  0.63771166  0.23109374  0.20693263  1.0
