# generated using pymatgen
data_BaLaCuSe3
_symmetry_space_group_name_H-M   'P 1'
_cell_length_a   11.28707379
_cell_length_b   4.30205075
_cell_length_c   14.06224058
_cell_angle_alpha   90.00000000
_cell_angle_beta   90.00000000
_cell_angle_gamma   90.00000000
_symmetry_Int_Tables_number   1
_chemical_formula_structural   BaLaCuSe3
_chemical_formula_sum   'Ba4 La4 Cu4 Se12'
_cell_volume   682.82815116
_cell_formula_units_Z   4
loop_
 _symmetry_equiv_pos_site_id
 _symmetry_equiv_pos_as_xyz
  1  'x, y, z'
loop_
 _atom_site_type_symbol
 _atom_site_label
 _atom_site_symmetry_multiplicity
 _atom_site_fract_x
 _atom_site_fract_y
 _atom_site_fract_z
 _atom_site_occupancy
  Ba  Ba0  1  0.71958946  0.75000000  0.00336874  1.0
  Ba  Ba1  1  0.21958946  0.75000000  0.49663126  1.0
  Ba  Ba2  1  0.28041054  0.25000000  0.99663126  1.0
  Ba  Ba3  1  0.78041054  0.25000000  0.50336874  1.0
  La  La4  1  0.98350078  0.75000000  0.76243513  1.0
  La  La5  1  0.48350078  0.75000000  0.73756487  1.0
  La  La6  1  0.01649922  0.25000000  0.23756487  1.0
  La  La7  1  0.51649922  0.25000000  0.26243513  1.0
  Cu  Cu8  1  0.76497775  0.75000000  0.28020144  1.0
  Cu  Cu9  1  0.26497775  0.75000000  0.21979856  1.0
  Cu  Cu10  1  0.23502225  0.25000000  0.71979856  1.0
  Cu  Cu11  1  0.73502225  0.25000000  0.78020144  1.0
  Se  Se12  1  0.94764915  0.75000000  0.37933315  1.0
  Se  Se13  1  0.44764915  0.75000000  0.12066685  1.0
  Se  Se14  1  0.05235085  0.25000000  0.62066685  1.0
  Se  Se15  1  0.55235085  0.25000000  0.87933315  1.0
  Se  Se16  1  0.73909594  0.75000000  0.67962318  1.0
  Se  Se17  1  0.23909594  0.75000000  0.82037682  1.0
  Se  Se18  1  0.26090406  0.25000000  0.32037682  1.0
  Se  Se19  1  0.76090406  0.25000000  0.17962318  1.0
  Se  Se20  1  0.59862102  0.75000000  0.39458011  1.0
  Se  Se21  1  0.09862102  0.75000000  0.10541989  1.0
  Se  Se22  1  0.40137898  0.25000000  0.60541989  1.0
  Se  Se23  1  0.90137898  0.25000000  0.89458011  1.0
