# generated using pymatgen
data_Zr3Rh5
_symmetry_space_group_name_H-M   'P 1'
_cell_length_a   5.61924323
_cell_length_b   5.61924323
_cell_length_c   8.66712352
_cell_angle_alpha   90.00000000
_cell_angle_beta   90.00000000
_cell_angle_gamma   77.45922644
_symmetry_Int_Tables_number   1
_chemical_formula_structural   Zr3Rh5
_chemical_formula_sum   'Zr6 Rh10'
_cell_volume   267.14283404
_cell_formula_units_Z   2
loop_
 _symmetry_equiv_pos_site_id
 _symmetry_equiv_pos_as_xyz
  1  'x, y, z'
loop_
 _atom_site_type_symbol
 _atom_site_label
 _atom_site_symmetry_multiplicity
 _atom_site_fract_x
 _atom_site_fract_y
 _atom_site_fract_z
 _atom_site_occupancy
  Zr  Zr0  1  0.79242694  0.79242694  0.50000000  1.0
  Zr  Zr1  1  0.79242694  0.79242694  0.00000000  1.0
  Zr  Zr2  1  0.20757306  0.20757306  0.50000000  1.0
  Zr  Zr3  1  0.20757306  0.20757306  0.00000000  1.0
  Zr  Zr4  1  -0.43557815  1.43557815  0.25000000  1.0
  Zr  Zr5  1  0.43557815  0.56442185  0.75000000  1.0
  Rh  Rh6  1  0.02370428  0.50595738  0.25000000  1.0
  Rh  Rh7  1  -0.49404262  1.02370428  0.75000000  1.0
  Rh  Rh8  1  0.49404262  0.97629572  0.25000000  1.0
  Rh  Rh9  1  -0.02370428  1.49404262  0.75000000  1.0
  Rh  Rh10  1  0.28838522  0.71161478  0.47398232  1.0
  Rh  Rh11  1  0.28838522  0.71161478  0.02601768  1.0
  Rh  Rh12  1  -0.28838522  1.28838522  0.97398232  1.0
  Rh  Rh13  1  -0.28838522  1.28838522  0.52601768  1.0
  Rh  Rh14  1  -0.01303230  1.01303230  0.25000000  1.0
  Rh  Rh15  1  0.01303230  0.98696770  0.75000000  1.0
