# generated using pymatgen
data_LaPO4
_symmetry_space_group_name_H-M   'P 1'
_cell_length_a   7.28655187
_cell_length_b   7.28655187
_cell_length_c   6.51323742
_cell_angle_alpha   90.00000000
_cell_angle_beta   90.00000000
_cell_angle_gamma   120.00000000
_symmetry_Int_Tables_number   1
_chemical_formula_structural   LaPO4
_chemical_formula_sum   'La3 P3 O12'
_cell_volume   299.48264629
_cell_formula_units_Z   3
loop_
 _symmetry_equiv_pos_site_id
 _symmetry_equiv_pos_as_xyz
  1  'x, y, z'
loop_
 _atom_site_type_symbol
 _atom_site_label
 _atom_site_symmetry_multiplicity
 _atom_site_fract_x
 _atom_site_fract_y
 _atom_site_fract_z
 _atom_site_occupancy
  La  La0  1  0.50000000  0.50000000  0.33333333  1.0
  La  La1  1  0.50000000  -0.00000000  -0.00000000  1.0
  La  La2  1  -0.00000000  0.50000000  0.66666667  1.0
  P  P3  1  0.50000000  0.50000000  0.83333333  1.0
  P  P4  1  0.50000000  0.00000000  0.50000000  1.0
  P  P5  1  -0.00000000  0.50000000  0.16666667  1.0
  O  O6  1  0.31084508  0.86376327  0.64656033  1.0
  O  O7  1  0.31084508  0.44708181  0.68677301  1.0
  O  O8  1  0.86376327  0.31084508  0.02010634  1.0
  O  O9  1  0.86376327  0.55291819  0.31322699  1.0
  O  O10  1  0.55291819  0.86376327  0.35343967  1.0
  O  O11  1  0.55291819  0.68915492  0.97989366  1.0
  O  O12  1  0.13623673  0.68915492  0.02010634  1.0
  O  O13  1  0.13623673  0.44708181  0.31322699  1.0
  O  O14  1  0.68915492  0.55291819  0.68677301  1.0
  O  O15  1  0.68915492  0.13623673  0.64656033  1.0
  O  O16  1  0.44708181  0.31084508  0.97989366  1.0
  O  O17  1  0.44708181  0.13623673  0.35343967  1.0
