# generated using pymatgen
data_KNaReH9
_symmetry_space_group_name_H-M   'P 1'
_cell_length_a   9.21654911
_cell_length_b   5.46716966
_cell_length_c   10.17229951
_cell_angle_alpha   90.00000000
_cell_angle_beta   90.00000000
_cell_angle_gamma   90.00000000
_symmetry_Int_Tables_number   1
_chemical_formula_structural   KNaReH9
_chemical_formula_sum   'K4 Na4 Re4 H36'
_cell_volume   512.56627954
_cell_formula_units_Z   4
loop_
 _symmetry_equiv_pos_site_id
 _symmetry_equiv_pos_as_xyz
  1  'x, y, z'
loop_
 _atom_site_type_symbol
 _atom_site_label
 _atom_site_symmetry_multiplicity
 _atom_site_fract_x
 _atom_site_fract_y
 _atom_site_fract_z
 _atom_site_occupancy
  K  K0  1  0.53072115  0.75000000  0.82669676  1.0
  K  K1  1  0.03072115  0.75000000  0.67330324  1.0
  K  K2  1  0.46927885  0.25000000  0.17330324  1.0
  K  K3  1  0.96927885  0.25000000  0.32669676  1.0
  Na  Na4  1  0.63407467  0.75000000  0.42536628  1.0
  Na  Na5  1  0.13407467  0.75000000  0.07463372  1.0
  Na  Na6  1  0.36592533  0.25000000  0.57463372  1.0
  Na  Na7  1  0.86592533  0.25000000  0.92536628  1.0
  Re  Re8  1  0.77019558  0.75000000  0.11744028  1.0
  Re  Re9  1  0.27019558  0.75000000  0.38255972  1.0
  Re  Re10  1  0.22980442  0.25000000  0.88255972  1.0
  Re  Re11  1  0.72980442  0.25000000  0.61744028  1.0
  H  H12  1  0.90225447  0.96909023  0.10541566  1.0
  H  H13  1  0.90225447  0.53090977  0.10541566  1.0
  H  H14  1  0.40225447  0.96909023  0.39458434  1.0
  H  H15  1  0.40225447  0.53090977  0.39458434  1.0
  H  H16  1  0.09774553  0.46909023  0.89458434  1.0
  H  H17  1  0.09774553  0.03090977  0.89458434  1.0
  H  H18  1  0.59774553  0.46909023  0.60541566  1.0
  H  H19  1  0.59774553  0.03090977  0.60541566  1.0
  H  H20  1  0.71869391  0.97067839  0.22639712  1.0
  H  H21  1  0.71869391  0.52932161  0.22639712  1.0
  H  H22  1  0.21869391  0.97067839  0.27360288  1.0
  H  H23  1  0.21869391  0.52932161  0.27360288  1.0
  H  H24  1  0.28130609  0.47067839  0.77360288  1.0
  H  H25  1  0.28130609  0.02932161  0.77360288  1.0
  H  H26  1  0.78130609  0.47067839  0.72639712  1.0
  H  H27  1  0.78130609  0.02932161  0.72639712  1.0
  H  H28  1  0.69043237  0.97618184  0.02663284  1.0
  H  H29  1  0.69043237  0.52381816  0.02663284  1.0
  H  H30  1  0.19043237  0.97618184  0.47336716  1.0
  H  H31  1  0.19043237  0.52381816  0.47336716  1.0
  H  H32  1  0.30956763  0.47618184  0.97336716  1.0
  H  H33  1  0.30956763  0.02381816  0.97336716  1.0
  H  H34  1  0.80956763  0.47618184  0.52663284  1.0
  H  H35  1  0.80956763  0.02381816  0.52663284  1.0
  H  H36  1  0.87661738  0.75000000  0.25074947  1.0
  H  H37  1  0.37661738  0.75000000  0.24925053  1.0
  H  H38  1  0.12338262  0.25000000  0.74925053  1.0
  H  H39  1  0.62338262  0.25000000  0.75074947  1.0
  H  H40  1  0.58917639  0.75000000  0.13539497  1.0
  H  H41  1  0.08917639  0.75000000  0.36460503  1.0
  H  H42  1  0.41082361  0.25000000  0.86460503  1.0
  H  H43  1  0.91082361  0.25000000  0.63539497  1.0
  H  H44  1  0.33786174  0.75000000  0.53693785  1.0
  H  H45  1  0.83786174  0.75000000  0.96306215  1.0
  H  H46  1  0.66213826  0.25000000  0.46306215  1.0
  H  H47  1  0.16213826  0.25000000  0.03693785  1.0
