# generated using pymatgen
data_AlPS4
_symmetry_space_group_name_H-M   'P 1'
_cell_length_a   5.71997648
_cell_length_b   5.72550281
_cell_length_c   11.61844403
_cell_angle_alpha   90.00000000
_cell_angle_beta   90.00000000
_cell_angle_gamma   90.00000000
_symmetry_Int_Tables_number   1
_chemical_formula_structural   AlPS4
_chemical_formula_sum   'Al2 P2 S8'
_cell_volume   380.50103777
_cell_formula_units_Z   2
loop_
 _symmetry_equiv_pos_site_id
 _symmetry_equiv_pos_as_xyz
  1  'x, y, z'
loop_
 _atom_site_type_symbol
 _atom_site_label
 _atom_site_symmetry_multiplicity
 _atom_site_fract_x
 _atom_site_fract_y
 _atom_site_fract_z
 _atom_site_occupancy
  Al  Al0  1  0.00000000  0.00000000  0.50000000  1.0
  Al  Al1  1  0.50000000  0.00000000  0.00000000  1.0
  P  P2  1  0.00000000  0.50000000  0.50000000  1.0
  P  P3  1  0.00000000  0.00000000  0.00000000  1.0
  S  S4  1  0.80086970  0.72400878  0.60027080  1.0
  S  S5  1  0.80086970  0.27599122  0.39972920  1.0
  S  S6  1  0.19913030  0.72400878  0.39972920  1.0
  S  S7  1  0.19913030  0.27599122  0.60027080  1.0
  S  S8  1  0.77594422  0.80098787  0.10042763  1.0
  S  S9  1  0.77594422  0.19901213  0.89957237  1.0
  S  S10  1  0.22405578  0.80098787  0.89957237  1.0
  S  S11  1  0.22405578  0.19901213  0.10042763  1.0
