# generated using pymatgen
data_H8CN8O5
_symmetry_space_group_name_H-M   'P 1'
_cell_length_a   7.85680928
_cell_length_b   7.85680928
_cell_length_c   7.22842505
_cell_angle_alpha   87.25677083
_cell_angle_beta   92.74322917
_cell_angle_gamma   107.38646222
_symmetry_Int_Tables_number   1
_chemical_formula_structural   H8CN8O5
_chemical_formula_sum   'H16 C2 N16 O10'
_cell_volume   425.06832176
_cell_formula_units_Z   2
loop_
 _symmetry_equiv_pos_site_id
 _symmetry_equiv_pos_as_xyz
  1  'x, y, z'
loop_
 _atom_site_type_symbol
 _atom_site_label
 _atom_site_symmetry_multiplicity
 _atom_site_fract_x
 _atom_site_fract_y
 _atom_site_fract_z
 _atom_site_occupancy
  H  H0  1  1.19761894  0.58371785  0.33684287  1.0
  H  H1  1  0.41628215  -0.19761894  0.83684287  1.0
  H  H2  1  0.55362792  0.01168205  0.86401676  1.0
  H  H3  1  0.98831795  0.44637208  0.36401676  1.0
  H  H4  1  1.04092395  0.66618164  0.43256799  1.0
  H  H5  1  0.33381836  -0.04092395  0.93256799  1.0
  H  H6  1  1.57935811  0.15721201  0.33610004  1.0
  H  H7  1  0.84278799  -0.57935811  0.83610004  1.0
  H  H8  1  1.06919691  0.75949049  0.13574959  1.0
  H  H9  1  0.24050951  -0.06919691  0.63574959  1.0
  H  H10  1  1.35666977  0.11675882  0.26777586  1.0
  H  H11  1  0.88324118  -0.35666977  0.76777586  1.0
  H  H12  1  1.46538072  0.31386572  0.36802756  1.0
  H  H13  1  0.68613428  -0.46538072  0.86802756  1.0
  H  H14  1  1.42258557  0.31079395  0.04503998  1.0
  H  H15  1  0.68920605  -0.42258557  0.54503998  1.0
  C  C16  1  0.77699245  -0.07385577  0.43798251  1.0
  C  C17  1  1.07385577  0.22300755  0.93798251  1.0
  N  N18  1  0.94972049  -0.04691210  0.50202154  1.0
  N  N19  1  1.04691210  0.05027951  0.00202154  1.0
  N  N20  1  0.87305433  -0.03939328  0.98065964  1.0
  N  N21  1  1.03939328  0.12694567  0.48065964  1.0
  N  N22  1  0.66317167  -0.24301684  0.44245603  1.0
  N  N23  1  1.24301684  0.33682833  0.94245603  1.0
  N  N24  1  0.50797879  -0.27622854  0.35079313  1.0
  N  N25  1  1.27622854  0.49202121  0.85079313  1.0
  N  N26  1  1.79565630  0.07632981  0.90948958  1.0
  N  N27  1  0.92367019  -0.79565630  0.40948958  1.0
  N  N28  1  1.76175792  0.08674182  0.38265235  1.0
  N  N29  1  0.91325818  -0.76175792  0.88265235  1.0
  N  N30  1  1.06232708  0.58029733  0.33481681  1.0
  N  N31  1  0.41970267  -0.06232708  0.83481681  1.0
  N  N32  1  1.47795028  0.21534141  0.28411690  1.0
  N  N33  1  0.78465859  -0.47795028  0.78411690  1.0
  O  O34  1  1.41048078  0.56127649  0.35964293  1.0
  O  O35  1  0.43872351  -0.41048078  0.85964293  1.0
  O  O36  1  0.45507230  -0.16027828  0.26202863  1.0
  O  O37  1  1.16027828  0.54492770  0.76202863  1.0
  O  O38  1  1.00671531  0.62762450  0.15547339  1.0
  O  O39  1  0.37237550  -0.00671531  0.65547339  1.0
  O  O40  1  1.53488190  0.29056886  0.10827604  1.0
  O  O41  1  0.70943114  -0.53488190  0.60827604  1.0
  O  O42  1  0.16553280  -0.02354365  0.07756986  1.0
  O  O43  1  1.02354365  0.83446720  0.57756986  1.0
