# generated using pymatgen
data_Y2Se3
_symmetry_space_group_name_H-M   'P 1'
_cell_length_a   13.56495234
_cell_length_b   12.94820932
_cell_length_c   7.09784588
_cell_angle_alpha   79.33157757
_cell_angle_beta   69.72412547
_cell_angle_gamma   30.94429696
_symmetry_Int_Tables_number   1
_chemical_formula_structural   Y2Se3
_chemical_formula_sum   'Y8 Se12'
_cell_volume   584.86247424
_cell_formula_units_Z   4
loop_
 _symmetry_equiv_pos_site_id
 _symmetry_equiv_pos_as_xyz
  1  'x, y, z'
loop_
 _atom_site_type_symbol
 _atom_site_label
 _atom_site_symmetry_multiplicity
 _atom_site_fract_x
 _atom_site_fract_y
 _atom_site_fract_z
 _atom_site_occupancy
  Y  Y0  1  0.83390921  0.83390921  0.66609079  1.0
  Y  Y1  1  0.66609079  0.66609079  0.83390921  1.0
  Y  Y2  1  0.41609079  0.41609079  0.58390921  1.0
  Y  Y3  1  0.58390921  0.58390921  0.41609079  1.0
  Y  Y4  1  0.49714775  0.49714775  0.00285225  1.0
  Y  Y5  1  0.00285225  1.00285225  0.49714775  1.0
  Y  Y6  1  0.75285225  0.75285225  -0.75285225  1.0
  Y  Y7  1  0.24714775  1.24714775  -0.24714775  1.0
  Se  Se8  1  0.50835524  0.99164476  -0.00835524  1.0
  Se  Se9  1  0.99164476  0.50835524  -0.49164476  1.0
  Se  Se10  1  -0.25835524  1.25835524  0.25835524  1.0
  Se  Se11  1  0.25835524  0.74164476  -0.25835524  1.0
  Se  Se12  1  0.16398469  0.67424125  0.34243537  1.0
  Se  Se13  1  0.34243537  0.81933869  0.16398469  1.0
  Se  Se14  1  0.81933869  0.34243537  0.67424125  1.0
  Se  Se15  1  0.67424125  0.16398469  0.81933869  1.0
  Se  Se16  1  1.08601531  0.57575875  0.90756463  1.0
  Se  Se17  1  0.90756463  0.43066131  1.08601531  1.0
  Se  Se18  1  0.43066131  0.90756463  0.57575875  1.0
  Se  Se19  1  0.57575875  1.08601531  0.43066131  1.0
