# generated using pymatgen
data_GdMn2SiC
_symmetry_space_group_name_H-M   'P 1'
_cell_length_a   5.61777977
_cell_length_b   5.61777977
_cell_length_c   7.00368857
_cell_angle_alpha   90.00000000
_cell_angle_beta   90.00000000
_cell_angle_gamma   140.98580816
_symmetry_Int_Tables_number   1
_chemical_formula_structural   GdMn2SiC
_chemical_formula_sum   'Gd2 Mn4 Si2 C2'
_cell_volume   139.14283795
_cell_formula_units_Z   2
loop_
 _symmetry_equiv_pos_site_id
 _symmetry_equiv_pos_as_xyz
  1  'x, y, z'
loop_
 _atom_site_type_symbol
 _atom_site_label
 _atom_site_symmetry_multiplicity
 _atom_site_fract_x
 _atom_site_fract_y
 _atom_site_fract_z
 _atom_site_occupancy
  Gd  Gd0  1  0.45556885  0.54443115  0.75000000  1.0
  Gd  Gd1  1  -0.45556885  0.45556885  0.25000000  1.0
  Mn  Mn2  1  0.16787325  0.83212675  0.93748461  1.0
  Mn  Mn3  1  0.16787325  0.83212675  0.56251539  1.0
  Mn  Mn4  1  -0.16787325  0.16787325  0.43748461  1.0
  Mn  Mn5  1  -0.16787325  0.16787325  0.06251539  1.0
  Si  Si6  1  -0.26507516  0.26507516  0.75000000  1.0
  Si  Si7  1  0.26507516  0.73492484  0.25000000  1.0
  C  C8  1  0.00000000  0.00000000  0.00000000  1.0
  C  C9  1  0.00000000  0.00000000  0.50000000  1.0
