# generated using pymatgen
data_Ba8Nb6CoO24
_symmetry_space_group_name_H-M   'P 1'
_cell_length_a   5.83540318
_cell_length_b   5.83540318
_cell_length_c   19.06908777
_cell_angle_alpha   90.00000000
_cell_angle_beta   90.00000000
_cell_angle_gamma   120.00000000
_symmetry_Int_Tables_number   1
_chemical_formula_structural   Ba8Nb6CoO24
_chemical_formula_sum   'Ba8 Nb6 Co1 O24'
_cell_volume   562.34428353
_cell_formula_units_Z   1
loop_
 _symmetry_equiv_pos_site_id
 _symmetry_equiv_pos_as_xyz
  1  'x, y, z'
loop_
 _atom_site_type_symbol
 _atom_site_label
 _atom_site_symmetry_multiplicity
 _atom_site_fract_x
 _atom_site_fract_y
 _atom_site_fract_z
 _atom_site_occupancy
  Ba  Ba0  1  0.33333333  0.66666667  0.06141450  1.0
  Ba  Ba1  1  0.66666667  0.33333333  0.93858550  1.0
  Ba  Ba2  1  0.33333333  0.66666667  0.45588636  1.0
  Ba  Ba3  1  0.66666667  0.33333333  0.54411364  1.0
  Ba  Ba4  1  0.33333333  0.66666667  0.68317696  1.0
  Ba  Ba5  1  0.66666667  0.33333333  0.31682304  1.0
  Ba  Ba6  1  0.00000000  0.00000000  0.18502057  1.0
  Ba  Ba7  1  0.00000000  0.00000000  0.81497943  1.0
  Nb  Nb8  1  0.33333333  0.66666667  0.25255308  1.0
  Nb  Nb9  1  0.66666667  0.33333333  0.74744692  1.0
  Nb  Nb10  1  0.33333333  0.66666667  0.87962640  1.0
  Nb  Nb11  1  0.66666667  0.33333333  0.12037360  1.0
  Nb  Nb12  1  0.00000000  0.00000000  0.38460327  1.0
  Nb  Nb13  1  0.00000000  0.00000000  0.61539673  1.0
  Co  Co14  1  0.00000000  0.00000000  0.00000000  1.0
  O  O15  1  0.66159766  0.83079883  0.30640985  1.0
  O  O16  1  0.83079883  0.66159766  0.69359015  1.0
  O  O17  1  0.83079883  0.16920117  0.69359015  1.0
  O  O18  1  0.16920117  0.83079883  0.30640985  1.0
  O  O19  1  0.16920117  0.33840234  0.30640985  1.0
  O  O20  1  0.33840234  0.16920117  0.69359015  1.0
  O  O21  1  0.00214046  0.50107023  0.18614376  1.0
  O  O22  1  0.50107023  0.00214046  0.81385624  1.0
  O  O23  1  0.50107023  0.49892977  0.81385624  1.0
  O  O24  1  0.49892977  0.50107023  0.18614376  1.0
  O  O25  1  0.49892977  0.99785954  0.18614376  1.0
  O  O26  1  0.99785954  0.49892977  0.81385624  1.0
  O  O27  1  0.34342506  0.17171253  0.06461422  1.0
  O  O28  1  0.17171253  0.34342506  0.93538578  1.0
  O  O29  1  0.17171253  0.82828747  0.93538578  1.0
  O  O30  1  0.82828747  0.17171253  0.06461422  1.0
  O  O31  1  0.82828747  0.65657494  0.06461422  1.0
  O  O32  1  0.65657494  0.82828747  0.93538578  1.0
  O  O33  1  0.32706838  0.16353419  0.42877358  1.0
  O  O34  1  0.16353419  0.32706838  0.57122642  1.0
  O  O35  1  0.16353419  0.83646581  0.57122642  1.0
  O  O36  1  0.83646581  0.16353419  0.42877358  1.0
  O  O37  1  0.83646581  0.67293162  0.42877358  1.0
  O  O38  1  0.67293162  0.83646581  0.57122642  1.0
