# generated using pymatgen
data_Sn2Au
_symmetry_space_group_name_H-M   'P 1'
_cell_length_a   7.03767300
_cell_length_b   7.16962962
_cell_length_c   12.08721172
_cell_angle_alpha   90.00000000
_cell_angle_beta   90.00000000
_cell_angle_gamma   90.00000000
_symmetry_Int_Tables_number   1
_chemical_formula_structural   Sn2Au
_chemical_formula_sum   'Sn16 Au8'
_cell_volume   609.89059098
_cell_formula_units_Z   8
loop_
 _symmetry_equiv_pos_site_id
 _symmetry_equiv_pos_as_xyz
  1  'x, y, z'
loop_
 _atom_site_type_symbol
 _atom_site_label
 _atom_site_symmetry_multiplicity
 _atom_site_fract_x
 _atom_site_fract_y
 _atom_site_fract_z
 _atom_site_occupancy
  Sn  Sn0  1  0.37230275  0.97625915  0.67308413  1.0
  Sn  Sn1  1  0.37230275  0.52374085  0.17308413  1.0
  Sn  Sn2  1  0.87230275  0.97625915  0.82691587  1.0
  Sn  Sn3  1  0.87230275  0.52374085  0.32691587  1.0
  Sn  Sn4  1  0.62769725  0.47625915  0.82691587  1.0
  Sn  Sn5  1  0.62769725  0.02374085  0.32691587  1.0
  Sn  Sn6  1  0.12769725  0.47625915  0.67308413  1.0
  Sn  Sn7  1  0.12769725  0.02374085  0.17308413  1.0
  Sn  Sn8  1  0.35229450  0.75399258  0.91224668  1.0
  Sn  Sn9  1  0.35229450  0.74600742  0.41224668  1.0
  Sn  Sn10  1  0.85229450  0.75399258  0.58775332  1.0
  Sn  Sn11  1  0.85229450  0.74600742  0.08775332  1.0
  Sn  Sn12  1  0.64770550  0.25399258  0.58775332  1.0
  Sn  Sn13  1  0.64770550  0.24600742  0.08775332  1.0
  Sn  Sn14  1  0.14770550  0.25399258  0.91224668  1.0
  Sn  Sn15  1  0.14770550  0.24600742  0.41224668  1.0
  Au  Au16  1  0.48761228  0.61211532  0.61817337  1.0
  Au  Au17  1  0.48761228  0.88788468  0.11817337  1.0
  Au  Au18  1  0.98761228  0.61211532  0.88182663  1.0
  Au  Au19  1  0.98761228  0.88788468  0.38182663  1.0
  Au  Au20  1  0.51238772  0.11211532  0.88182663  1.0
  Au  Au21  1  0.51238772  0.38788468  0.38182663  1.0
  Au  Au22  1  0.01238772  0.11211532  0.61817337  1.0
  Au  Au23  1  0.01238772  0.38788468  0.11817337  1.0
