# generated using pymatgen
data_SnH7C3NO5F
_symmetry_space_group_name_H-M   'P 1'
_cell_length_a   6.09076263
_cell_length_b   8.17644993
_cell_length_c   8.05389083
_cell_angle_alpha   98.69928760
_cell_angle_beta   102.54697147
_cell_angle_gamma   93.60612302
_symmetry_Int_Tables_number   1
_chemical_formula_structural   SnH7C3NO5F
_chemical_formula_sum   'Sn2 H14 C6 N2 O10 F2'
_cell_volume   385.09714412
_cell_formula_units_Z   2
loop_
 _symmetry_equiv_pos_site_id
 _symmetry_equiv_pos_as_xyz
  1  'x, y, z'
loop_
 _atom_site_type_symbol
 _atom_site_label
 _atom_site_symmetry_multiplicity
 _atom_site_fract_x
 _atom_site_fract_y
 _atom_site_fract_z
 _atom_site_occupancy
  Sn  Sn0  1  -0.78075351  -0.83825017  -0.53778314  1.0
  Sn  Sn1  1  -0.21924649  -0.16174983  -0.46221686  1.0
  H  H2  1  -0.76895949  -0.20002623  -0.86801859  1.0
  H  H3  1  -0.23104051  -0.79997377  -0.13198141  1.0
  H  H4  1  -0.63439284  -0.37619865  -0.88566779  1.0
  H  H5  1  -0.36560716  -0.62380135  -0.11433221  1.0
  H  H6  1  -0.77180498  -0.30595407  -0.06522909  1.0
  H  H7  1  -0.22819502  -0.69404593  -0.93477091  1.0
  H  H8  1  -0.84147207  -0.93636274  -0.13773748  1.0
  H  H9  1  -0.15852793  -0.06363726  -0.86226252  1.0
  H  H10  1  -0.69399509  -0.93269063  0.04170032  1.0
  H  H11  1  -0.30600491  -0.06730937  -1.04170032  1.0
  H  H12  1  -0.97425845  -0.44306510  -0.80525749  1.0
  H  H13  1  -0.02574155  -0.55693490  -0.19474251  1.0
  H  H14  1  -0.12895625  -0.34453325  -0.97060871  1.0
  H  H15  1  -0.87104375  -0.65546675  -0.02939129  1.0
  C  C16  1  -0.50205526  -0.61449789  -0.70261721  1.0
  C  C17  1  -0.49794474  -0.38550211  -0.29738279  1.0
  C  C18  1  -0.33699776  -0.74494943  -0.64407050  1.0
  C  C19  1  -0.66300224  -0.25505057  -0.35592950  1.0
  C  C20  1  -0.98714410  -0.41887069  -0.93705727  1.0
  C  C21  1  -0.01285590  -0.58112931  -0.06294273  1.0
  N  N22  1  -0.77545727  -0.31823010  -0.93932729  1.0
  N  N23  1  -0.22454273  -0.68176990  -0.06067271  1.0
  O  O24  1  -0.69712763  -0.62945630  -0.66626889  1.0
  O  O25  1  -0.30287237  -0.37054370  -0.33373111  1.0
  O  O26  1  -0.43708840  -0.50507107  -0.77804310  1.0
  O  O27  1  -0.56291160  -0.49492893  -0.22195690  1.0
  O  O28  1  -0.15567847  -0.74509845  -0.69406599  1.0
  O  O29  1  -0.84432153  -0.25490155  -0.30593401  1.0
  O  O30  1  -0.40052164  -0.84091550  -0.54841568  1.0
  O  O31  1  -0.59947836  -0.15908450  -0.45158432  1.0
  O  O32  1  -0.69213312  -0.89214386  -0.06609793  1.0
  O  O33  1  -0.30786688  -0.10785614  -0.93390207  1.0
  F  F34  1  -0.83527663  -1.00161363  -0.77523939  1.0
  F  F35  1  -0.16472337  0.00161363  -0.22476061  1.0
