# generated using pymatgen
data_LuAu4
_symmetry_space_group_name_H-M   'P 1'
_cell_length_a   5.19589160
_cell_length_b   5.19589160
_cell_length_c   5.19589160
_cell_angle_alpha   99.23199069
_cell_angle_beta   99.23199069
_cell_angle_gamma   132.77611342
_symmetry_Int_Tables_number   1
_chemical_formula_structural   LuAu4
_chemical_formula_sum   'Lu1 Au4'
_cell_volume   94.34347934
_cell_formula_units_Z   1
loop_
 _symmetry_equiv_pos_site_id
 _symmetry_equiv_pos_as_xyz
  1  'x, y, z'
loop_
 _atom_site_type_symbol
 _atom_site_label
 _atom_site_symmetry_multiplicity
 _atom_site_fract_x
 _atom_site_fract_y
 _atom_site_fract_z
 _atom_site_occupancy
  Lu  Lu0  1  0.00000000  0.00000000  0.00000000  1.0
  Au  Au1  1  0.80024580  0.60054790  0.40079370  1.0
  Au  Au2  1  0.60054790  0.19975420  0.80030210  1.0
  Au  Au3  1  1.19975420  1.39945210  1.59920630  1.0
  Au  Au4  1  0.39945210  0.80024580  1.19969790  1.0
