# generated using pymatgen
data_LuPO4
_symmetry_space_group_name_H-M   'P 1'
_cell_length_a   6.53962227
_cell_length_b   6.53962227
_cell_length_c   6.53962227
_cell_angle_alpha   136.85026193
_cell_angle_beta   136.85026193
_cell_angle_gamma   62.66852033
_symmetry_Int_Tables_number   1
_chemical_formula_structural   LuPO4
_chemical_formula_sum   'Lu2 P2 O8'
_cell_volume   129.20455862
_cell_formula_units_Z   2
loop_
 _symmetry_equiv_pos_site_id
 _symmetry_equiv_pos_as_xyz
  1  'x, y, z'
loop_
 _atom_site_type_symbol
 _atom_site_label
 _atom_site_symmetry_multiplicity
 _atom_site_fract_x
 _atom_site_fract_y
 _atom_site_fract_z
 _atom_site_occupancy
  Lu  Lu0  1  0.25000000  0.75000000  0.50000000  1.0
  Lu  Lu1  1  0.50000000  0.50000000  -0.00000000  1.0
  P  P2  1  0.75000000  0.25000000  0.50000000  1.0
  P  P3  1  1.00000000  1.00000000  1.00000000  1.0
  O  O4  1  0.58008591  0.45413977  0.38600035  1.0
  O  O5  1  1.06813942  1.19408557  1.61399965  1.0
  O  O6  1  0.94408557  0.83008591  0.62594614  1.0
  O  O7  1  1.20413977  1.31813942  1.37405386  1.0
  O  O8  1  1.16991409  0.79586023  1.11399965  1.0
  O  O9  1  0.68186058  1.05591443  0.88600035  1.0
  O  O10  1  0.80591443  0.41991409  0.87405386  1.0
  O  O11  1  0.54586023  0.93186058  1.12594614  1.0
