# generated using pymatgen
data_RbBi
_symmetry_space_group_name_H-M   'P 1'
_cell_length_a   7.10192593
_cell_length_b   7.09677276
_cell_length_c   3.28187309
_cell_angle_alpha   90.00000000
_cell_angle_beta   90.00000000
_cell_angle_gamma   90.00000000
_symmetry_Int_Tables_number   1
_chemical_formula_structural   RbBi
_chemical_formula_sum   'Rb2 Bi2'
_cell_volume   165.40887995
_cell_formula_units_Z   2
loop_
 _symmetry_equiv_pos_site_id
 _symmetry_equiv_pos_as_xyz
  1  'x, y, z'
loop_
 _atom_site_type_symbol
 _atom_site_label
 _atom_site_symmetry_multiplicity
 _atom_site_fract_x
 _atom_site_fract_y
 _atom_site_fract_z
 _atom_site_occupancy
  Rb  Rb0  1  0.00000000  0.50000000  0.50006765  1.0
  Rb  Rb1  1  0.50000000  0.00000000  0.49993235  1.0
  Bi  Bi2  1  0.50000000  0.50000000  0.00000724  1.0
  Bi  Bi3  1  0.00000000  0.00000000  0.99999276  1.0
