# generated using pymatgen
data_NbCoB
_symmetry_space_group_name_H-M   'P 1'
_cell_length_a   3.29771795
_cell_length_b   16.94303013
_cell_length_c   5.89051715
_cell_angle_alpha   90.00000000
_cell_angle_beta   90.00000000
_cell_angle_gamma   90.00000000
_symmetry_Int_Tables_number   1
_chemical_formula_structural   NbCoB
_chemical_formula_sum   'Nb10 Co10 B10'
_cell_volume   329.12283545
_cell_formula_units_Z   10
loop_
 _symmetry_equiv_pos_site_id
 _symmetry_equiv_pos_as_xyz
  1  'x, y, z'
loop_
 _atom_site_type_symbol
 _atom_site_label
 _atom_site_symmetry_multiplicity
 _atom_site_fract_x
 _atom_site_fract_y
 _atom_site_fract_z
 _atom_site_occupancy
  Nb  Nb0  1  0.50000000  0.17909704  0.52641658  1.0
  Nb  Nb1  1  0.50000000  0.82090296  0.52641658  1.0
  Nb  Nb2  1  0.00000000  0.67909704  0.47358342  1.0
  Nb  Nb3  1  0.00000000  0.32090296  0.47358342  1.0
  Nb  Nb4  1  0.50000000  0.00000000  0.64570484  1.0
  Nb  Nb5  1  0.00000000  0.50000000  0.35429516  1.0
  Nb  Nb6  1  0.50000000  0.12477410  0.02160163  1.0
  Nb  Nb7  1  0.50000000  0.87522590  0.02160163  1.0
  Nb  Nb8  1  0.00000000  0.62477410  0.97839837  1.0
  Nb  Nb9  1  0.00000000  0.37522590  0.97839837  1.0
  Co  Co10  1  0.50000000  0.72612007  0.14269352  1.0
  Co  Co11  1  0.50000000  0.27387993  0.14269352  1.0
  Co  Co12  1  0.00000000  0.22612007  0.85730648  1.0
  Co  Co13  1  0.00000000  0.77387993  0.85730648  1.0
  Co  Co14  1  0.50000000  0.57112831  0.65075650  1.0
  Co  Co15  1  0.50000000  0.42887169  0.65075650  1.0
  Co  Co16  1  0.00000000  0.07112831  0.34924350  1.0
  Co  Co17  1  0.00000000  0.92887169  0.34924350  1.0
  Co  Co18  1  0.50000000  0.50000000  0.00579547  1.0
  Co  Co19  1  0.00000000  0.00000000  0.99420453  1.0
  B  B20  1  0.50000000  0.70306037  0.77072559  1.0
  B  B21  1  0.50000000  0.29693963  0.77072559  1.0
  B  B22  1  0.00000000  0.20306037  0.22927441  1.0
  B  B23  1  0.00000000  0.79693963  0.22927441  1.0
  B  B24  1  0.50000000  0.60108262  0.27076893  1.0
  B  B25  1  0.50000000  0.39891738  0.27076893  1.0
  B  B26  1  0.00000000  0.10108262  0.72923107  1.0
  B  B27  1  0.00000000  0.89891738  0.72923107  1.0
  B  B28  1  0.50000000  0.00000000  0.23416995  1.0
  B  B29  1  0.00000000  0.50000000  0.76583005  1.0
