# generated using pymatgen
data_Zr2P3O13
_symmetry_space_group_name_H-M   'P 1'
_cell_length_a   9.17538992
_cell_length_b   9.17538992
_cell_length_c   9.17538992
_cell_angle_alpha   59.06838380
_cell_angle_beta   59.06838380
_cell_angle_gamma   59.06838380
_symmetry_Int_Tables_number   1
_chemical_formula_structural   Zr2P3O13
_chemical_formula_sum   'Zr4 P6 O26'
_cell_volume   534.60605207
_cell_formula_units_Z   2
loop_
 _symmetry_equiv_pos_site_id
 _symmetry_equiv_pos_as_xyz
  1  'x, y, z'
loop_
 _atom_site_type_symbol
 _atom_site_label
 _atom_site_symmetry_multiplicity
 _atom_site_fract_x
 _atom_site_fract_y
 _atom_site_fract_z
 _atom_site_occupancy
  O  O0  1  0.78827343  1.00068311  -0.37145038  1.0
  O  O1  1  1.28827343  0.12854962  -0.49931689  1.0
  O  O2  1  0.87145038  0.49931689  -0.28827343  1.0
  O  O3  1  0.37145038  0.21172657  -0.00068311  1.0
  O  O4  1  0.99931689  0.37145038  -0.78827343  1.0
  O  O5  1  0.49931689  0.71172657  -0.12854962  1.0
  O  O6  1  0.21172657  0.99931689  -0.62854962  1.0
  O  O7  1  0.71172657  0.87145038  -0.50068311  1.0
  O  O8  1  0.62854962  0.78827343  0.00068311  1.0
  O  O9  1  1.12854962  -0.49931689  0.28827343  1.0
  O  O10  1  0.50068311  0.28827343  0.12854962  1.0
  O  O11  1  1.00068311  0.62854962  -0.21172657  1.0
  O  O12  1  1.00000000  0.00000000  0.00000000  1.0
  O  O13  1  0.50000000  0.50000000  0.50000000  1.0
  O  O14  1  0.70702625  0.08362031  -0.05705942  1.0
  O  O15  1  1.20702625  0.44294058  -0.41637969  1.0
  O  O16  1  0.55705942  0.41637969  -0.20702625  1.0
  O  O17  1  1.05705942  0.29297375  -0.08362031  1.0
  O  O18  1  0.91637969  0.05705942  0.29297375  1.0
  O  O19  1  0.41637969  0.79297375  -0.44294058  1.0
  O  O20  1  1.29297375  -0.08362031  0.05705942  1.0
  O  O21  1  0.79297375  0.55705942  -0.58362031  1.0
  O  O22  1  0.94294058  -0.29297375  0.08362031  1.0
  O  O23  1  0.44294058  0.58362031  0.20702625  1.0
  O  O24  1  0.58362031  1.20702625  -0.55705942  1.0
  O  O25  1  1.08362031  -0.05705942  -0.29297375  1.0
  P  P26  1  0.46775205  0.75000000  0.03224795  1.0
  P  P27  1  0.96775205  -0.46775205  0.25000000  1.0
  P  P28  1  0.25000000  0.96775205  -0.46775205  1.0
  P  P29  1  0.75000000  1.03224795  -0.53224795  1.0
  P  P30  1  0.53224795  0.25000000  -0.03224795  1.0
  P  P31  1  1.03224795  0.46775205  -0.25000000  1.0
  Zr  Zr32  1  0.85938387  -0.14061613  -0.14061613  1.0
  Zr  Zr33  1  0.35938387  0.35938387  0.35938387  1.0
  Zr  Zr34  1  0.64061613  0.64061613  -0.35938387  1.0
  Zr  Zr35  1  1.14061613  0.14061613  0.14061613  1.0
