# generated using pymatgen
data_NaCrF6
_symmetry_space_group_name_H-M   'P 1'
_cell_length_a   9.66567988
_cell_length_b   5.93916129
_cell_length_c   8.04474607
_cell_angle_alpha   90.00000000
_cell_angle_beta   90.00000000
_cell_angle_gamma   90.00000000
_symmetry_Int_Tables_number   1
_chemical_formula_structural   NaCrF6
_chemical_formula_sum   'Na4 Cr4 F24'
_cell_volume   461.81694848
_cell_formula_units_Z   4
loop_
 _symmetry_equiv_pos_site_id
 _symmetry_equiv_pos_as_xyz
  1  'x, y, z'
loop_
 _atom_site_type_symbol
 _atom_site_label
 _atom_site_symmetry_multiplicity
 _atom_site_fract_x
 _atom_site_fract_y
 _atom_site_fract_z
 _atom_site_occupancy
  Na  Na0  1  0.49414225  0.75000000  0.17319979  1.0
  Na  Na1  1  0.99414225  0.75000000  0.32680021  1.0
  Na  Na2  1  0.50585775  0.25000000  0.82680021  1.0
  Na  Na3  1  0.00585775  0.25000000  0.67319979  1.0
  Cr  Cr4  1  0.26766814  0.75000000  0.61636231  1.0
  Cr  Cr5  1  0.76766814  0.75000000  0.88363769  1.0
  Cr  Cr6  1  0.73233186  0.25000000  0.38363769  1.0
  Cr  Cr7  1  0.23233186  0.25000000  0.11636231  1.0
  F  F8  1  0.38623688  0.96564801  0.67660956  1.0
  F  F9  1  0.38623688  0.53435199  0.67660956  1.0
  F  F10  1  0.88623688  0.96564801  0.82339044  1.0
  F  F11  1  0.88623688  0.53435199  0.82339044  1.0
  F  F12  1  0.61376312  0.46564801  0.32339044  1.0
  F  F13  1  0.61376312  0.03435199  0.32339044  1.0
  F  F14  1  0.11376312  0.46564801  0.17660956  1.0
  F  F15  1  0.11376312  0.03435199  0.17660956  1.0
  F  F16  1  0.14256652  0.96133740  0.54960447  1.0
  F  F17  1  0.14256652  0.53866260  0.54960447  1.0
  F  F18  1  0.64256652  0.96133740  0.95039553  1.0
  F  F19  1  0.64256652  0.53866260  0.95039553  1.0
  F  F20  1  0.85743348  0.46133740  0.45039553  1.0
  F  F21  1  0.85743348  0.03866260  0.45039553  1.0
  F  F22  1  0.35743348  0.46133740  0.04960447  1.0
  F  F23  1  0.35743348  0.03866260  0.04960447  1.0
  F  F24  1  0.19193154  0.75000000  0.81216976  1.0
  F  F25  1  0.69193154  0.75000000  0.68783024  1.0
  F  F26  1  0.80806846  0.25000000  0.18783024  1.0
  F  F27  1  0.30806846  0.25000000  0.31216976  1.0
  F  F28  1  0.83764172  0.75000000  0.08802844  1.0
  F  F29  1  0.33764172  0.75000000  0.41197156  1.0
  F  F30  1  0.16235828  0.25000000  0.91197156  1.0
  F  F31  1  0.66235828  0.25000000  0.58802844  1.0
