# generated using pymatgen
data_SnPbS3
_symmetry_space_group_name_H-M   'P 1'
_cell_length_a   9.08890013
_cell_length_b   3.86411899
_cell_length_c   14.31506986
_cell_angle_alpha   90.00000000
_cell_angle_beta   90.00000000
_cell_angle_gamma   90.00000000
_symmetry_Int_Tables_number   1
_chemical_formula_structural   SnPbS3
_chemical_formula_sum   'Sn4 Pb4 S12'
_cell_volume   502.75372180
_cell_formula_units_Z   4
loop_
 _symmetry_equiv_pos_site_id
 _symmetry_equiv_pos_as_xyz
  1  'x, y, z'
loop_
 _atom_site_type_symbol
 _atom_site_label
 _atom_site_symmetry_multiplicity
 _atom_site_fract_x
 _atom_site_fract_y
 _atom_site_fract_z
 _atom_site_occupancy
  Sn  Sn0  1  0.83408986  0.75000000  0.45050685  1.0
  Sn  Sn1  1  0.33408986  0.75000000  0.04949315  1.0
  Sn  Sn2  1  0.16591014  0.25000000  0.54949315  1.0
  Sn  Sn3  1  0.66591014  0.25000000  0.95050685  1.0
  Pb  Pb4  1  0.48954118  0.75000000  0.66995252  1.0
  Pb  Pb5  1  -0.01045882  0.75000000  0.83004748  1.0
  Pb  Pb6  1  0.51045882  0.25000000  0.33004748  1.0
  Pb  Pb7  1  1.01045882  0.25000000  0.16995252  1.0
  S  S8  1  0.98472294  0.75000000  0.60427820  1.0
  S  S9  1  0.48472294  0.75000000  0.89572180  1.0
  S  S10  1  0.01527706  0.25000000  0.39572180  1.0
  S  S11  1  0.51527706  0.25000000  0.10427820  1.0
  S  S12  1  0.72052939  0.75000000  0.29002154  1.0
  S  S13  1  0.22052939  0.75000000  0.20997846  1.0
  S  S14  1  0.27947061  0.25000000  0.70997846  1.0
  S  S15  1  0.77947061  0.25000000  0.79002154  1.0
  S  S16  1  0.83649534  0.75000000  0.00775175  1.0
  S  S17  1  0.33649534  0.75000000  0.49224825  1.0
  S  S18  1  0.16350466  0.25000000  0.99224825  1.0
  S  S19  1  0.66350466  0.25000000  0.50775175  1.0
