# generated using pymatgen
data_Li6AsS5I
_symmetry_space_group_name_H-M   'P 1'
_cell_length_a   7.24842144
_cell_length_b   7.24842144
_cell_length_c   12.70991727
_cell_angle_alpha   73.64971669
_cell_angle_beta   106.35028331
_cell_angle_gamma   120.46173189
_symmetry_Int_Tables_number   1
_chemical_formula_structural   Li6AsS5I
_chemical_formula_sum   'Li12 As2 S10 I2'
_cell_volume   544.48987899
_cell_formula_units_Z   2
loop_
 _symmetry_equiv_pos_site_id
 _symmetry_equiv_pos_as_xyz
  1  'x, y, z'
loop_
 _atom_site_type_symbol
 _atom_site_label
 _atom_site_symmetry_multiplicity
 _atom_site_fract_x
 _atom_site_fract_y
 _atom_site_fract_z
 _atom_site_occupancy
  Li  Li0  1  0.98512967  1.01031236  0.53402526  1.0
  Li  Li1  1  -0.01031236  0.01487033  0.03402526  1.0
  Li  Li2  1  1.69436950  0.14572164  0.22237130  1.0
  Li  Li3  1  0.85427836  0.30563050  0.72237130  1.0
  Li  Li4  1  0.42458657  0.07535616  0.95696990  1.0
  Li  Li5  1  0.92464384  0.57541343  0.45696990  1.0
  Li  Li6  1  1.18630611  -0.20301324  0.22746511  1.0
  Li  Li7  1  1.20301324  -0.18630611  0.72746511  1.0
  Li  Li8  1  1.51876045  0.51713425  0.03392320  1.0
  Li  Li9  1  1.48286575  -0.51876045  0.53392320  1.0
  Li  Li10  1  1.33653626  0.32749138  0.23466655  1.0
  Li  Li11  1  1.67250862  -0.33653626  0.73466655  1.0
  As  As12  1  1.48124647  0.00773795  0.48743158  1.0
  As  As13  1  0.99226205  0.51875353  0.98743158  1.0
  S  S14  1  1.78571349  0.20305296  0.41988708  1.0
  S  S15  1  0.79694704  0.21428651  0.91988708  1.0
  S  S16  1  1.29404078  -0.30372623  0.42664357  1.0
  S  S17  1  1.30372623  -0.29404078  0.92664357  1.0
  S  S18  1  1.36227104  0.14195670  0.11483524  1.0
  S  S19  1  0.85804330  0.63772896  0.61483524  1.0
  S  S20  1  1.28877087  0.18502440  0.42843565  1.0
  S  S21  1  0.81497560  0.71122913  0.92843565  1.0
  S  S22  1  1.04797947  0.44543561  0.17030112  1.0
  S  S23  1  1.55456439  -0.04797947  0.67030112  1.0
  I  I24  1  1.74302386  -0.24374938  0.22904447  1.0
  I  I25  1  1.24374938  -0.74302386  0.72904447  1.0
