# generated using pymatgen
data_Sr(NO3)2
_symmetry_space_group_name_H-M   'P 1'
_cell_length_a   7.89218367
_cell_length_b   7.89218367
_cell_length_c   7.89218367
_cell_angle_alpha   90.00000000
_cell_angle_beta   90.00000000
_cell_angle_gamma   90.00000000
_symmetry_Int_Tables_number   1
_chemical_formula_structural   Sr(NO3)2
_chemical_formula_sum   'Sr4 N8 O24'
_cell_volume   491.57699524
_cell_formula_units_Z   4
loop_
 _symmetry_equiv_pos_site_id
 _symmetry_equiv_pos_as_xyz
  1  'x, y, z'
loop_
 _atom_site_type_symbol
 _atom_site_label
 _atom_site_symmetry_multiplicity
 _atom_site_fract_x
 _atom_site_fract_y
 _atom_site_fract_z
 _atom_site_occupancy
  Sr  Sr0  1  0.50000000  0.00000000  0.50000000  1.0
  Sr  Sr1  1  0.50000000  0.50000000  0.00000000  1.0
  Sr  Sr2  1  0.00000000  0.00000000  0.00000000  1.0
  Sr  Sr3  1  0.00000000  0.50000000  0.50000000  1.0
  N  N4  1  0.15780036  0.65780036  0.84219964  1.0
  N  N5  1  0.15780036  0.84219964  0.34219964  1.0
  N  N6  1  0.65780036  0.65780036  0.65780036  1.0
  N  N7  1  0.65780036  0.84219964  0.15780036  1.0
  N  N8  1  0.84219964  0.15780036  0.65780036  1.0
  N  N9  1  0.84219964  0.34219964  0.15780036  1.0
  N  N10  1  0.34219964  0.15780036  0.84219964  1.0
  N  N11  1  0.34219964  0.34219964  0.34219964  1.0
  O  O12  1  0.22953663  0.71659521  0.97246219  1.0
  O  O13  1  0.22953663  0.78340479  0.47246219  1.0
  O  O14  1  0.72953663  0.71659521  0.52753781  1.0
  O  O15  1  0.72953663  0.78340479  0.02753781  1.0
  O  O16  1  0.21659521  0.52753781  0.77046337  1.0
  O  O17  1  0.21659521  0.97246219  0.27046337  1.0
  O  O18  1  0.71659521  0.52753781  0.72953663  1.0
  O  O19  1  0.71659521  0.97246219  0.22953663  1.0
  O  O20  1  0.02753781  0.72953663  0.78340479  1.0
  O  O21  1  0.02753781  0.77046337  0.28340479  1.0
  O  O22  1  0.52753781  0.72953663  0.71659521  1.0
  O  O23  1  0.52753781  0.77046337  0.21659521  1.0
  O  O24  1  0.77046337  0.21659521  0.52753781  1.0
  O  O25  1  0.77046337  0.28340479  0.02753781  1.0
  O  O26  1  0.27046337  0.21659521  0.97246219  1.0
  O  O27  1  0.27046337  0.28340479  0.47246219  1.0
  O  O28  1  0.78340479  0.02753781  0.72953663  1.0
  O  O29  1  0.78340479  0.47246219  0.22953663  1.0
  O  O30  1  0.28340479  0.02753781  0.77046337  1.0
  O  O31  1  0.28340479  0.47246219  0.27046337  1.0
  O  O32  1  0.97246219  0.22953663  0.71659521  1.0
  O  O33  1  0.97246219  0.27046337  0.21659521  1.0
  O  O34  1  0.47246219  0.22953663  0.78340479  1.0
  O  O35  1  0.47246219  0.27046337  0.28340479  1.0
