# generated using pymatgen
data_CaV4O9
_symmetry_space_group_name_H-M   'P 1'
_cell_length_a   8.33388293
_cell_length_b   8.33388293
_cell_length_c   5.22064044
_cell_angle_alpha   90.00000000
_cell_angle_beta   90.00000000
_cell_angle_gamma   90.00000000
_symmetry_Int_Tables_number   1
_chemical_formula_structural   CaV4O9
_chemical_formula_sum   'Ca2 V8 O18'
_cell_volume   362.59229723
_cell_formula_units_Z   2
loop_
 _symmetry_equiv_pos_site_id
 _symmetry_equiv_pos_as_xyz
  1  'x, y, z'
loop_
 _atom_site_type_symbol
 _atom_site_label
 _atom_site_symmetry_multiplicity
 _atom_site_fract_x
 _atom_site_fract_y
 _atom_site_fract_z
 _atom_site_occupancy
  Ca  Ca0  1  0.00000000  0.50000000  0.84535382  1.0
  Ca  Ca1  1  0.50000000  -0.00000000  0.15464618  1.0
  V  V2  1  0.71581093  0.41002316  0.37665956  1.0
  V  V3  1  0.28418907  0.58997684  0.37665956  1.0
  V  V4  1  0.91002316  0.78418907  0.37665956  1.0
  V  V5  1  0.08997684  0.21581093  0.37665956  1.0
  V  V6  1  0.78418907  0.08997684  0.62334044  1.0
  V  V7  1  0.21581093  0.91002316  0.62334044  1.0
  V  V8  1  0.58997684  0.71581093  0.62334044  1.0
  V  V9  1  0.41002316  0.28418907  0.62334044  1.0
  O  O10  1  0.89259108  0.29267762  0.54169113  1.0
  O  O11  1  0.10740892  0.70732238  0.54169113  1.0
  O  O12  1  0.79267762  0.60740892  0.54169113  1.0
  O  O13  1  0.20732238  0.39259108  0.54169113  1.0
  O  O14  1  0.60740892  0.20732238  0.45830887  1.0
  O  O15  1  0.39259108  0.79267762  0.45830887  1.0
  O  O16  1  0.70732238  0.89259108  0.45830887  1.0
  O  O17  1  0.29267762  0.10740892  0.45830887  1.0
  O  O18  1  0.75421077  0.42996103  0.07436149  1.0
  O  O19  1  0.24578923  0.57003897  0.07436149  1.0
  O  O20  1  0.92996103  0.74578923  0.07436149  1.0
  O  O21  1  0.07003897  0.25421077  0.07436149  1.0
  O  O22  1  0.74578923  0.07003897  0.92563851  1.0
  O  O23  1  0.25421077  0.92996103  0.92563851  1.0
  O  O24  1  0.57003897  0.75421077  0.92563851  1.0
  O  O25  1  0.42996103  0.24578923  0.92563851  1.0
  O  O26  1  0.50000000  0.50000000  0.50000000  1.0
  O  O27  1  0.00000000  0.00000000  0.50000000  1.0
