# generated using pymatgen
data_KLiZnP2O7
_symmetry_space_group_name_H-M   'P 1'
_cell_length_a   12.57852176
_cell_length_b   5.15162753
_cell_length_c   10.42234537
_cell_angle_alpha   90.00000000
_cell_angle_beta   90.00000000
_cell_angle_gamma   90.00000000
_symmetry_Int_Tables_number   1
_chemical_formula_structural   KLiZnP2O7
_chemical_formula_sum   'K4 Li4 Zn4 P8 O28'
_cell_volume   675.36650937
_cell_formula_units_Z   4
loop_
 _symmetry_equiv_pos_site_id
 _symmetry_equiv_pos_as_xyz
  1  'x, y, z'
loop_
 _atom_site_type_symbol
 _atom_site_label
 _atom_site_symmetry_multiplicity
 _atom_site_fract_x
 _atom_site_fract_y
 _atom_site_fract_z
 _atom_site_occupancy
  K  K0  1  0.50000000  0.47938257  0.74163967  1.0
  K  K1  1  0.50000000  0.52061743  0.24163967  1.0
  K  K2  1  0.00000000  0.99941309  0.50777623  1.0
  K  K3  1  0.00000000  0.00058691  0.00777623  1.0
  Li  Li4  1  0.75114040  0.96581877  0.22388140  1.0
  Li  Li5  1  0.75114040  0.03418123  0.72388140  1.0
  Li  Li6  1  0.24885960  0.96581877  0.22388140  1.0
  Li  Li7  1  0.24885960  0.03418123  0.72388140  1.0
  Zn  Zn8  1  0.74919213  0.53601930  0.52182867  1.0
  Zn  Zn9  1  0.74919213  0.46398070  0.02182867  1.0
  Zn  Zn10  1  0.25080787  0.53601930  0.52182867  1.0
  Zn  Zn11  1  0.25080787  0.46398070  0.02182867  1.0
  P  P12  1  0.88204929  0.52855565  0.77319477  1.0
  P  P13  1  0.88204929  0.47144435  0.27319477  1.0
  P  P14  1  0.11795071  0.52855565  0.77319477  1.0
  P  P15  1  0.11795071  0.47144435  0.27319477  1.0
  P  P16  1  0.61793483  0.97593627  0.96834135  1.0
  P  P17  1  0.61793483  0.02406373  0.46834135  1.0
  P  P18  1  0.38206517  0.97593627  0.96834135  1.0
  P  P19  1  0.38206517  0.02406373  0.46834135  1.0
  O  O20  1  0.87329968  0.42045457  0.91141570  1.0
  O  O21  1  0.87329968  0.57954543  0.41141570  1.0
  O  O22  1  0.12670032  0.42045457  0.91141570  1.0
  O  O23  1  0.12670032  0.57954543  0.41141570  1.0
  O  O24  1  0.87260692  0.82121343  0.76354839  1.0
  O  O25  1  0.87260692  0.17878657  0.26354839  1.0
  O  O26  1  0.12739308  0.82121343  0.76354839  1.0
  O  O27  1  0.12739308  0.17878657  0.26354839  1.0
  O  O28  1  0.80657744  0.37898925  0.68130767  1.0
  O  O29  1  0.80657744  0.62101075  0.18130767  1.0
  O  O30  1  0.19342256  0.37898925  0.68130767  1.0
  O  O31  1  0.19342256  0.62101075  0.18130767  1.0
  O  O32  1  0.69426728  0.88626486  0.56378251  1.0
  O  O33  1  0.69426728  0.11373514  0.06378251  1.0
  O  O34  1  0.30573272  0.88626486  0.56378251  1.0
  O  O35  1  0.30573272  0.11373514  0.06378251  1.0
  O  O36  1  0.62796981  0.92605289  0.33183229  1.0
  O  O37  1  0.62796981  0.07394711  0.83183229  1.0
  O  O38  1  0.37203019  0.92605289  0.33183229  1.0
  O  O39  1  0.37203019  0.07394711  0.83183229  1.0
  O  O40  1  0.62511338  0.67720132  0.98217761  1.0
  O  O41  1  0.62511338  0.32279868  0.48217761  1.0
  O  O42  1  0.37488662  0.67720132  0.98217761  1.0
  O  O43  1  0.37488662  0.32279868  0.48217761  1.0
  O  O44  1  0.50000000  0.94654798  0.52419652  1.0
  O  O45  1  0.50000000  0.05345202  0.02419652  1.0
  O  O46  1  0.00000000  0.43826191  0.72266685  1.0
  O  O47  1  0.00000000  0.56173809  0.22266685  1.0
