# generated using pymatgen
data_EuGa3Pd
_symmetry_space_group_name_H-M   'P 1'
_cell_length_a   6.11968356
_cell_length_b   6.11968356
_cell_length_c   5.92981503
_cell_angle_alpha   90.00000000
_cell_angle_beta   90.00000000
_cell_angle_gamma   116.65092476
_symmetry_Int_Tables_number   1
_chemical_formula_structural   EuGa3Pd
_chemical_formula_sum   'Eu2 Ga6 Pd2'
_cell_volume   198.48057375
_cell_formula_units_Z   2
loop_
 _symmetry_equiv_pos_site_id
 _symmetry_equiv_pos_as_xyz
  1  'x, y, z'
loop_
 _atom_site_type_symbol
 _atom_site_label
 _atom_site_symmetry_multiplicity
 _atom_site_fract_x
 _atom_site_fract_y
 _atom_site_fract_z
 _atom_site_occupancy
  Eu  Eu0  1  -0.26678941  1.26678941  0.25000000  1.0
  Eu  Eu1  1  0.26678941  0.73321059  0.75000000  1.0
  Ga  Ga2  1  0.78388905  0.78388905  0.50000000  1.0
  Ga  Ga3  1  0.78388905  0.78388905  0.00000000  1.0
  Ga  Ga4  1  0.21611095  0.21611095  0.50000000  1.0
  Ga  Ga5  1  0.21611095  0.21611095  0.00000000  1.0
  Ga  Ga6  1  0.16533609  0.83466391  0.25000000  1.0
  Ga  Ga7  1  -0.16533609  1.16533609  0.75000000  1.0
  Pd  Pd8  1  0.40393819  0.59606181  0.25000000  1.0
  Pd  Pd9  1  -0.40393819  1.40393819  0.75000000  1.0
