# generated using pymatgen
data_PdF3
_symmetry_space_group_name_H-M   'P 1'
_cell_length_a   5.47758076
_cell_length_b   5.47758076
_cell_length_c   7.17772892
_cell_angle_alpha   90.00000000
_cell_angle_beta   90.00000000
_cell_angle_gamma   120.00000000
_symmetry_Int_Tables_number   1
_chemical_formula_structural   PdF3
_chemical_formula_sum   'Pd3 F9'
_cell_volume   186.50705453
_cell_formula_units_Z   3
loop_
 _symmetry_equiv_pos_site_id
 _symmetry_equiv_pos_as_xyz
  1  'x, y, z'
loop_
 _atom_site_type_symbol
 _atom_site_label
 _atom_site_symmetry_multiplicity
 _atom_site_fract_x
 _atom_site_fract_y
 _atom_site_fract_z
 _atom_site_occupancy
  F  F0  1  1.09966525  0.76568295  0.17766579  1.0
  F  F1  1  0.76568295  1.09966525  0.82233421  1.0
  F  F2  1  0.66601770  -0.09966525  0.17766579  1.0
  F  F3  1  0.23431705  0.33398230  0.17766579  1.0
  F  F4  1  -0.09966525  0.66601770  0.82233421  1.0
  F  F5  1  0.33398230  0.23431705  0.82233421  1.0
  F  F6  1  0.59942922  0.59942922  0.50000000  1.0
  F  F7  1  -0.00000000  0.40057078  0.50000000  1.0
  F  F8  1  0.40057078  -0.00000000  0.50000000  1.0
  Pd  Pd9  1  0.00000000  0.00000000  0.00000000  1.0
  Pd  Pd10  1  0.33333333  0.66666667  0.33909082  1.0
  Pd  Pd11  1  0.66666667  0.33333333  0.66090918  1.0
