# generated using pymatgen
data_TcI4
_symmetry_space_group_name_H-M   'P 1'
_cell_length_a   17.01807483
_cell_length_b   6.97178041
_cell_length_c   14.45294788
_cell_angle_alpha   90.00000000
_cell_angle_beta   89.75899447
_cell_angle_gamma   90.00000000
_symmetry_Int_Tables_number   1
_chemical_formula_structural   TcI4
_chemical_formula_sum   'Tc8 I32'
_cell_volume   1714.77334014
_cell_formula_units_Z   8
loop_
 _symmetry_equiv_pos_site_id
 _symmetry_equiv_pos_as_xyz
  1  'x, y, z'
loop_
 _atom_site_type_symbol
 _atom_site_label
 _atom_site_symmetry_multiplicity
 _atom_site_fract_x
 _atom_site_fract_y
 _atom_site_fract_z
 _atom_site_occupancy
  Tc  Tc0  1  0.68285564  0.40219635  0.37171980  1.0
  Tc  Tc1  1  0.31714436  0.90219635  0.12828020  1.0
  Tc  Tc2  1  0.31714436  0.59780365  0.62828020  1.0
  Tc  Tc3  1  0.68285564  0.09780365  0.87171980  1.0
  Tc  Tc4  1  0.18189168  0.09786488  0.62979579  1.0
  Tc  Tc5  1  0.81810832  0.59786488  0.87020421  1.0
  Tc  Tc6  1  0.81810832  0.90213512  0.37020421  1.0
  Tc  Tc7  1  0.18189168  0.40213512  0.12979579  1.0
  I  I8  1  0.30345572  0.92370428  0.73448383  1.0
  I  I9  1  0.69654428  0.42370428  0.76551617  1.0
  I  I10  1  0.69654428  0.07629572  0.26551617  1.0
  I  I11  1  0.30345572  0.57629572  0.23448383  1.0
  I  I12  1  0.19429099  0.77014944  0.52411501  1.0
  I  I13  1  0.80570901  0.27014944  0.97588499  1.0
  I  I14  1  0.80570901  0.22985056  0.47588499  1.0
  I  I15  1  0.19429099  0.72985056  0.02411501  1.0
  I  I16  1  0.07577053  0.96020968  0.74634869  1.0
  I  I17  1  0.92422947  0.46020968  0.75365131  1.0
  I  I18  1  0.92422947  0.03979032  0.25365131  1.0
  I  I19  1  0.07577053  0.53979032  0.24634869  1.0
  I  I20  1  0.07645260  0.23953507  0.51418791  1.0
  I  I21  1  0.92354740  0.73953507  0.98581209  1.0
  I  I22  1  0.92354740  0.76046493  0.48581209  1.0
  I  I23  1  0.07645260  0.26046493  0.01418791  1.0
  I  I24  1  0.80347876  0.57623804  0.26432098  1.0
  I  I25  1  0.19652124  0.07623804  0.23567902  1.0
  I  I26  1  0.19652124  0.42376196  0.73567902  1.0
  I  I27  1  0.80347876  0.92376196  0.76432098  1.0
  I  I28  1  0.69620811  0.72988819  0.47710189  1.0
  I  I29  1  0.30379189  0.22988819  0.02289811  1.0
  I  I30  1  0.30379189  0.27011181  0.52289811  1.0
  I  I31  1  0.69620811  0.77011181  0.97710189  1.0
  I  I32  1  0.57844379  0.26123377  0.48976403  1.0
  I  I33  1  0.42155621  0.76123377  0.01023597  1.0
  I  I34  1  0.42155621  0.73876623  0.51023597  1.0
  I  I35  1  0.57844379  0.23876623  0.98976403  1.0
  I  I36  1  0.57568352  0.53980479  0.25748266  1.0
  I  I37  1  0.42431648  0.03980479  0.24251734  1.0
  I  I38  1  0.42431648  0.46019521  0.74251734  1.0
  I  I39  1  0.57568352  0.96019521  0.75748266  1.0
