# generated using pymatgen
data_Hf(PO5)2
_symmetry_space_group_name_H-M   'P 1'
_cell_length_a   5.43660328
_cell_length_b   6.65276879
_cell_length_c   12.76389286
_cell_angle_alpha   90.00000000
_cell_angle_beta   102.77149754
_cell_angle_gamma   90.00000000
_symmetry_Int_Tables_number   1
_chemical_formula_structural   Hf(PO5)2
_chemical_formula_sum   'Hf2 P4 O20'
_cell_volume   450.22892041
_cell_formula_units_Z   2
loop_
 _symmetry_equiv_pos_site_id
 _symmetry_equiv_pos_as_xyz
  1  'x, y, z'
loop_
 _atom_site_type_symbol
 _atom_site_label
 _atom_site_symmetry_multiplicity
 _atom_site_fract_x
 _atom_site_fract_y
 _atom_site_fract_z
 _atom_site_occupancy
  P  P0  1  0.90748613  0.94496801  0.31306555  1.0
  P  P1  1  0.09251387  0.44496801  0.68693445  1.0
  P  P2  1  0.73193586  -0.00729706  0.94450843  1.0
  P  P3  1  0.26806414  0.49270294  0.05549157  1.0
  O  O4  1  0.44311834  0.49071651  0.97497629  1.0
  O  O5  1  0.55688166  0.99071651  0.02502371  1.0
  O  O6  1  0.76788497  1.05265089  0.60560193  1.0
  O  O7  1  0.23211503  0.55265089  0.39439807  1.0
  O  O8  1  0.25440389  0.74100242  0.52195535  1.0
  O  O9  1  0.74559611  0.24100242  0.47804465  1.0
  O  O10  1  0.89801752  0.72170265  0.35459323  1.0
  O  O11  1  0.10198248  0.22170265  0.64540677  1.0
  O  O12  1  1.01484147  0.06162402  0.42112134  1.0
  O  O13  1  -0.01484147  0.56162402  0.57887866  1.0
  O  O14  1  0.36264485  0.50385203  0.74074167  1.0
  O  O15  1  0.63735515  1.00385203  0.25925833  1.0
  O  O16  1  0.90488621  0.47508184  0.75869055  1.0
  O  O17  1  0.09511379  -0.02491816  0.24130945  1.0
  O  O18  1  0.67683067  0.18210353  0.87311609  1.0
  O  O19  1  0.32316933  0.68210353  0.12688391  1.0
  O  O20  1  0.68379106  0.80348010  0.87258524  1.0
  O  O21  1  0.31620894  0.30348010  0.12741476  1.0
  O  O22  1  0.98994119  0.49447055  -0.00718943  1.0
  O  O23  1  0.01005881  0.99447055  1.00718943  1.0
  Hf  Hf24  1  0.67604581  0.49364453  0.87180177  1.0
  Hf  Hf25  1  0.32395419  -0.00635547  0.12819823  1.0
