# generated using pymatgen
data_La3(SiPd)4
_symmetry_space_group_name_H-M   'P 1'
_cell_length_a   12.76378125
_cell_length_b   12.76378125
_cell_length_c   12.76378125
_cell_angle_alpha   160.86768207
_cell_angle_beta   160.56096679
_cell_angle_gamma   27.40685184
_symmetry_Int_Tables_number   1
_chemical_formula_structural   La3(SiPd)4
_chemical_formula_sum   'La3 Si4 Pd4'
_cell_volume   226.71952563
_cell_formula_units_Z   1
loop_
 _symmetry_equiv_pos_site_id
 _symmetry_equiv_pos_as_xyz
  1  'x, y, z'
loop_
 _atom_site_type_symbol
 _atom_site_label
 _atom_site_symmetry_multiplicity
 _atom_site_fract_x
 _atom_site_fract_y
 _atom_site_fract_z
 _atom_site_occupancy
  La  La0  1  0.64717296  0.14717296  0.50000000  1.0
  La  La1  1  0.35282704  0.85282704  0.50000000  1.0
  La  La2  1  0.00000000  0.00000000  0.00000000  1.0
  Si  Si3  1  0.80201914  0.30201914  0.50000000  1.0
  Si  Si4  1  0.19798086  0.69798086  0.50000000  1.0
  Si  Si5  1  0.54841719  0.54841719  1.00000000  1.0
  Si  Si6  1  0.45158281  0.45158281  -0.00000000  1.0
  Pd  Pd7  1  0.90187291  0.40187291  0.50000000  1.0
  Pd  Pd8  1  0.09812709  0.59812709  0.50000000  1.0
  Pd  Pd9  1  0.75123912  0.75123912  1.00000000  1.0
  Pd  Pd10  1  0.24876088  0.24876088  -0.00000000  1.0
