# generated using pymatgen
data_Ba3BPO7
_symmetry_space_group_name_H-M   'P 1'
_cell_length_a   5.58143040
_cell_length_b   5.58143040
_cell_length_c   14.87844361
_cell_angle_alpha   90.00000000
_cell_angle_beta   90.00000000
_cell_angle_gamma   120.00000000
_symmetry_Int_Tables_number   1
_chemical_formula_structural   Ba3BPO7
_chemical_formula_sum   'Ba6 B2 P2 O14'
_cell_volume   401.40165742
_cell_formula_units_Z   2
loop_
 _symmetry_equiv_pos_site_id
 _symmetry_equiv_pos_as_xyz
  1  'x, y, z'
loop_
 _atom_site_type_symbol
 _atom_site_label
 _atom_site_symmetry_multiplicity
 _atom_site_fract_x
 _atom_site_fract_y
 _atom_site_fract_z
 _atom_site_occupancy
  Ba  Ba0  1  0.33333333  0.66666667  0.38239839  1.0
  Ba  Ba1  1  0.66666667  0.33333333  0.88239839  1.0
  Ba  Ba2  1  0.33333333  0.66666667  0.66563657  1.0
  Ba  Ba3  1  0.66666667  0.33333333  0.16563657  1.0
  Ba  Ba4  1  0.00000000  0.00000000  0.00415205  1.0
  Ba  Ba5  1  0.00000000  0.00000000  0.50415205  1.0
  B  B6  1  0.33333333  0.66666667  0.02469936  1.0
  B  B7  1  0.66666667  0.33333333  0.52469936  1.0
  P  P8  1  0.00000000  0.00000000  0.27954971  1.0
  P  P9  1  0.00000000  0.00000000  0.77954971  1.0
  O  O10  1  0.04391298  0.52195649  0.02535527  1.0
  O  O11  1  0.52195649  0.04391298  0.52535527  1.0
  O  O12  1  0.52195649  0.47804351  0.52535527  1.0
  O  O13  1  0.47804351  0.52195649  0.02535527  1.0
  O  O14  1  0.47804351  0.95608702  0.02535527  1.0
  O  O15  1  0.95608702  0.47804351  0.52535527  1.0
  O  O16  1  0.30278623  0.15139312  0.31598309  1.0
  O  O17  1  0.15139312  0.30278623  0.81598309  1.0
  O  O18  1  0.15139312  0.84860688  0.81598309  1.0
  O  O19  1  0.84860688  0.15139312  0.31598309  1.0
  O  O20  1  0.84860688  0.69721377  0.31598309  1.0
  O  O21  1  0.69721377  0.84860688  0.81598309  1.0
  O  O22  1  0.00000000  0.00000000  0.17484885  1.0
  O  O23  1  0.00000000  0.00000000  0.67484885  1.0
