# generated using pymatgen
data_Y3ReB7
_symmetry_space_group_name_H-M   'P 1'
_cell_length_a   7.76769529
_cell_length_b   7.76769529
_cell_length_c   10.09424797
_cell_angle_alpha   90.00000000
_cell_angle_beta   90.00000000
_cell_angle_gamma   152.90934015
_symmetry_Int_Tables_number   1
_chemical_formula_structural   Y3ReB7
_chemical_formula_sum   'Y6 Re2 B14'
_cell_volume   277.36467531
_cell_formula_units_Z   2
loop_
 _symmetry_equiv_pos_site_id
 _symmetry_equiv_pos_as_xyz
  1  'x, y, z'
loop_
 _atom_site_type_symbol
 _atom_site_label
 _atom_site_symmetry_multiplicity
 _atom_site_fract_x
 _atom_site_fract_y
 _atom_site_fract_z
 _atom_site_occupancy
  Y  Y0  1  0.33494028  0.66505972  0.94367547  1.0
  Y  Y1  1  0.33494028  0.66505972  0.55632453  1.0
  Y  Y2  1  -0.33494028  0.33494028  0.44367547  1.0
  Y  Y3  1  -0.33494028  0.33494028  0.05632453  1.0
  Y  Y4  1  0.52899541  0.47100459  0.75000000  1.0
  Y  Y5  1  -0.52899541  0.52899541  0.25000000  1.0
  Re  Re6  1  -0.27487739  0.27487739  0.75000000  1.0
  Re  Re7  1  0.27487739  0.72512261  0.25000000  1.0
  B  B8  1  0.05138309  0.94861691  0.94564323  1.0
  B  B9  1  0.05138309  0.94861691  0.55435677  1.0
  B  B10  1  -0.05138309  0.05138309  0.44564323  1.0
  B  B11  1  -0.05138309  0.05138309  0.05435677  1.0
  B  B12  1  0.15708450  0.84291550  0.83943762  1.0
  B  B13  1  0.15708450  0.84291550  0.66056238  1.0
  B  B14  1  -0.15708450  0.15708450  0.33943762  1.0
  B  B15  1  -0.15708450  0.15708450  0.16056238  1.0
  B  B16  1  0.05214948  0.94785052  0.11478877  1.0
  B  B17  1  0.05214948  0.94785052  0.38521123  1.0
  B  B18  1  -0.05214948  0.05214948  0.61478877  1.0
  B  B19  1  -0.05214948  0.05214948  0.88521123  1.0
  B  B20  1  -0.11831054  0.11831054  0.75000000  1.0
  B  B21  1  0.11831054  0.88168946  0.25000000  1.0
