# generated using pymatgen
data_LaBMoO6
_symmetry_space_group_name_H-M   'P 1'
_cell_length_a   10.42166915
_cell_length_b   4.23780016
_cell_length_c   16.40548083
_cell_angle_alpha   90.00000000
_cell_angle_beta   97.98696914
_cell_angle_gamma   90.00000000
_symmetry_Int_Tables_number   1
_chemical_formula_structural   LaBMoO6
_chemical_formula_sum   'La6 B6 Mo6 O36'
_cell_volume   717.51893123
_cell_formula_units_Z   6
loop_
 _symmetry_equiv_pos_site_id
 _symmetry_equiv_pos_as_xyz
  1  'x, y, z'
loop_
 _atom_site_type_symbol
 _atom_site_label
 _atom_site_symmetry_multiplicity
 _atom_site_fract_x
 _atom_site_fract_y
 _atom_site_fract_z
 _atom_site_occupancy
  La  La0  1  0.99066958  0.13846539  0.18900103  1.0
  La  La1  1  0.00933042  0.63846539  0.81099897  1.0
  La  La2  1  0.65710892  0.03118038  0.85475555  1.0
  La  La3  1  0.34289108  0.53118038  0.14524445  1.0
  La  La4  1  0.32450688  0.07994597  0.52114759  1.0
  La  La5  1  0.67549312  0.57994597  0.47885241  1.0
  B  B6  1  0.96431493  0.16105659  0.96140691  1.0
  B  B7  1  0.03568507  0.66105659  0.03859309  1.0
  B  B8  1  0.70293048  0.50517663  0.70554125  1.0
  B  B9  1  0.29706952  0.00517663  0.29445875  1.0
  B  B10  1  0.63205144  0.00585370  0.62805351  1.0
  B  B11  1  0.36794856  0.50585370  0.37194649  1.0
  Mo  Mo12  1  0.97720552  0.04720763  0.62061578  1.0
  Mo  Mo13  1  0.02279448  0.54720763  0.37938422  1.0
  Mo  Mo14  1  0.64208799  0.00751139  0.28826274  1.0
  Mo  Mo15  1  0.35791201  0.50751139  0.71173726  1.0
  Mo  Mo16  1  0.31047305  0.12680393  0.95562412  1.0
  Mo  Mo17  1  0.68952695  0.62680393  0.04437588  1.0
  O  O18  1  0.56297371  0.10342508  0.55761038  1.0
  O  O19  1  0.43702629  0.60342508  0.44238962  1.0
  O  O20  1  0.99689558  0.48347757  0.96710644  1.0
  O  O21  1  0.00310442  0.98347757  0.03289356  1.0
  O  O22  1  0.99142595  0.13556007  0.73135462  1.0
  O  O23  1  0.00857405  0.63556007  0.26864538  1.0
  O  O24  1  0.97217531  0.63389494  0.63134015  1.0
  O  O25  1  0.02782469  0.13389494  0.36865985  1.0
  O  O26  1  0.89433490  0.05710219  0.89184801  1.0
  O  O27  1  0.10566510  0.55710219  0.10815199  1.0
  O  O28  1  0.88484627  0.62975064  0.42745057  1.0
  O  O29  1  0.11515373  0.12975064  0.57254943  1.0
  O  O30  1  0.82678547  0.14151479  0.55845800  1.0
  O  O31  1  0.17321453  0.64151479  0.44154200  1.0
  O  O32  1  0.77910463  0.09001613  0.23970771  1.0
  O  O33  1  0.22089537  0.59001613  0.76029229  1.0
  O  O34  1  0.77245221  0.60972124  0.77504521  1.0
  O  O35  1  0.22754779  0.10972124  0.22495479  1.0
  O  O36  1  0.67502219  0.53436274  0.93408808  1.0
  O  O37  1  0.32497781  0.03436274  0.06591192  1.0
  O  O38  1  0.67163194  0.18258147  0.69915979  1.0
  O  O39  1  0.32836806  0.68258147  0.30084021  1.0
  O  O40  1  0.66398789  0.68294658  0.63430180  1.0
  O  O41  1  0.33601211  0.18294658  0.36569820  1.0
  O  O42  1  0.65552937  0.09670981  0.39869462  1.0
  O  O43  1  0.34447063  0.59670981  0.60130538  1.0
  O  O44  1  0.50867545  0.59952075  0.77401442  1.0
  O  O45  1  0.49132455  0.09952075  0.22598558  1.0
  O  O46  1  0.44721409  0.04761571  0.90650611  1.0
  O  O47  1  0.55278591  0.54761571  0.09349389  1.0
  O  O48  1  0.36335023  0.09310286  0.70165742  1.0
  O  O49  1  0.63664977  0.59310286  0.29834258  1.0
  O  O50  1  0.30551479  0.54023379  0.96667458  1.0
  O  O51  1  0.69448521  0.04023379  0.03332542  1.0
  O  O52  1  0.15951859  0.03656205  0.89354807  1.0
  O  O53  1  0.84048141  0.53656205  0.10645193  1.0
