# generated using pymatgen
data_LiPH3NO3
_symmetry_space_group_name_H-M   'P 1'
_cell_length_a   8.92754436
_cell_length_b   8.55660635
_cell_length_c   4.92811639
_cell_angle_alpha   93.94877971
_cell_angle_beta   103.49578997
_cell_angle_gamma   101.18807318
_symmetry_Int_Tables_number   1
_chemical_formula_structural   LiPH3NO3
_chemical_formula_sum   'Li4 P4 H12 N4 O12'
_cell_volume   356.52414951
_cell_formula_units_Z   4
loop_
 _symmetry_equiv_pos_site_id
 _symmetry_equiv_pos_as_xyz
  1  'x, y, z'
loop_
 _atom_site_type_symbol
 _atom_site_label
 _atom_site_symmetry_multiplicity
 _atom_site_fract_x
 _atom_site_fract_y
 _atom_site_fract_z
 _atom_site_occupancy
  Li  Li0  1  -0.50123054  -0.86149040  -0.36558798  1.0
  Li  Li1  1  -0.49876946  -0.13850960  -0.63441202  1.0
  Li  Li2  1  -0.92665425  -0.56918747  -0.30860824  1.0
  Li  Li3  1  -0.07334575  -0.43081253  -0.69139176  1.0
  P  P4  1  -0.73010573  -0.92608595  -0.98179355  1.0
  P  P5  1  -0.26989427  -0.07391405  -0.01820645  1.0
  P  P6  1  -0.00692763  -0.77292960  -0.89680391  1.0
  P  P7  1  -0.99307237  -0.22707040  -0.10319609  1.0
  H  H8  1  -0.33292120  -0.54552199  -1.02274072  1.0
  H  H9  1  -0.66707880  -0.45447801  0.02274072  1.0
  H  H10  1  -0.33293178  -0.38216776  -0.84614678  1.0
  H  H11  1  -0.66706822  -0.61783224  -0.15385322  1.0
  H  H12  1  -0.76357370  -0.30496517  -0.68507150  1.0
  H  H13  1  -0.23642630  -0.69503483  -0.31492850  1.0
  H  H14  1  -0.14551864  -0.89989052  -0.60831811  1.0
  H  H15  1  -0.85448136  -0.10010948  -0.39168189  1.0
  H  H16  1  -0.79063749  -0.82698348  -0.59067466  1.0
  H  H17  1  -0.20936251  -0.17301652  -0.40932534  1.0
  H  H18  1  -0.66039433  -0.39688062  -0.47764513  1.0
  H  H19  1  -0.33960567  -0.60311938  -0.52235487  1.0
  N  N20  1  -0.14833634  -0.91018959  -0.81801563  1.0
  N  N21  1  -0.85166366  -0.08981041  -0.18198437  1.0
  N  N22  1  -0.83530813  -0.83413611  -0.80484393  1.0
  N  N23  1  -0.16469187  -0.16586389  -0.19515607  1.0
  O  O24  1  -0.30506328  -0.48898414  -0.82979587  1.0
  O  O25  1  -0.69493672  -0.51101586  -0.17020413  1.0
  O  O26  1  -0.95072180  -0.23571054  -0.78806972  1.0
  O  O27  1  -0.04927820  -0.76428946  -0.21193028  1.0
  O  O28  1  -0.60550031  -0.96961316  -0.74952310  1.0
  O  O29  1  -0.39449969  -0.03038684  -0.25047690  1.0
  O  O30  1  -0.98660621  -0.61861329  -0.70746172  1.0
  O  O31  1  -0.01339379  -0.38138671  -0.29253828  1.0
  O  O32  1  -0.65985531  -0.33592340  -0.64083267  1.0
  O  O33  1  -0.34014469  -0.66407660  -0.35916733  1.0
  O  O34  1  -0.66942971  -0.82220474  -0.19143699  1.0
  O  O35  1  -0.33057029  -0.17779526  -0.80856301  1.0
