# generated using pymatgen
data_LiYF4
_symmetry_space_group_name_H-M   'P 1'
_cell_length_a   5.10312142
_cell_length_b   5.34250433
_cell_length_c   5.34011850
_cell_angle_alpha   90.00000000
_cell_angle_beta   90.31734196
_cell_angle_gamma   90.00000000
_symmetry_Int_Tables_number   1
_chemical_formula_structural   LiYF4
_chemical_formula_sum   'Li2 Y2 F8'
_cell_volume   145.58781134
_cell_formula_units_Z   2
loop_
 _symmetry_equiv_pos_site_id
 _symmetry_equiv_pos_as_xyz
  1  'x, y, z'
loop_
 _atom_site_type_symbol
 _atom_site_label
 _atom_site_symmetry_multiplicity
 _atom_site_fract_x
 _atom_site_fract_y
 _atom_site_fract_z
 _atom_site_occupancy
  Li  Li0  1  -0.00000000  0.75215097  0.25000000  1.0
  Li  Li1  1  0.00000000  0.24784903  0.75000000  1.0
  Y  Y2  1  0.50000000  0.25025878  0.25000000  1.0
  Y  Y3  1  0.50000000  0.74974122  0.75000000  1.0
  F  F4  1  0.26306636  0.93573597  0.06318938  1.0
  F  F5  1  0.73693364  0.93573597  0.43681062  1.0
  F  F6  1  0.73693364  0.06426403  0.93681062  1.0
  F  F7  1  0.26306636  0.06426403  0.56318938  1.0
  F  F8  1  0.26329395  0.56472530  0.43407645  1.0
  F  F9  1  0.73670605  0.56472530  0.06592355  1.0
  F  F10  1  0.73670605  0.43527470  0.56592355  1.0
  F  F11  1  0.26329395  0.43527470  0.93407645  1.0
