# generated using pymatgen
data_WBr6
_symmetry_space_group_name_H-M   'P 1'
_cell_length_a   7.31604450
_cell_length_b   7.31604450
_cell_length_c   7.31604450
_cell_angle_alpha   55.85128713
_cell_angle_beta   55.85128713
_cell_angle_gamma   55.85128713
_symmetry_Int_Tables_number   1
_chemical_formula_structural   WBr6
_chemical_formula_sum   'W1 Br6'
_cell_volume   250.26326527
_cell_formula_units_Z   1
loop_
 _symmetry_equiv_pos_site_id
 _symmetry_equiv_pos_as_xyz
  1  'x, y, z'
loop_
 _atom_site_type_symbol
 _atom_site_label
 _atom_site_symmetry_multiplicity
 _atom_site_fract_x
 _atom_site_fract_y
 _atom_site_fract_z
 _atom_site_occupancy
  W  W0  1  0.00000000  0.00000000  0.00000000  1.0
  Br  Br1  1  0.07993469  0.78088769  -0.62868140  1.0
  Br  Br2  1  0.62868140  -0.07993469  0.21911231  1.0
  Br  Br3  1  1.21911231  -0.37131860  -0.07993469  1.0
  Br  Br4  1  0.92006531  0.21911231  -0.37131860  1.0
  Br  Br5  1  0.37131860  0.07993469  -0.21911231  1.0
  Br  Br6  1  0.78088769  0.37131860  -0.92006531  1.0
