# generated using pymatgen
data_CsBr3
_symmetry_space_group_name_H-M   'P 1'
_cell_length_a   10.30252894
_cell_length_b   6.88288812
_cell_length_c   9.78733067
_cell_angle_alpha   90.00000000
_cell_angle_beta   90.00000000
_cell_angle_gamma   90.00000000
_symmetry_Int_Tables_number   1
_chemical_formula_structural   CsBr3
_chemical_formula_sum   'Cs4 Br12'
_cell_volume   694.03091316
_cell_formula_units_Z   4
loop_
 _symmetry_equiv_pos_site_id
 _symmetry_equiv_pos_as_xyz
  1  'x, y, z'
loop_
 _atom_site_type_symbol
 _atom_site_label
 _atom_site_symmetry_multiplicity
 _atom_site_fract_x
 _atom_site_fract_y
 _atom_site_fract_z
 _atom_site_occupancy
  Cs  Cs0  1  0.31139748  0.75000000  0.53590587  1.0
  Cs  Cs1  1  0.81139748  0.75000000  0.96409413  1.0
  Cs  Cs2  1  0.68860252  0.25000000  0.46409413  1.0
  Cs  Cs3  1  0.18860252  0.25000000  0.03590587  1.0
  Br  Br4  1  0.36655590  0.75000000  0.06205099  1.0
  Br  Br5  1  0.86655590  0.75000000  0.43794901  1.0
  Br  Br6  1  0.63344410  0.25000000  0.93794901  1.0
  Br  Br7  1  0.13344410  0.25000000  0.56205099  1.0
  Br  Br8  1  0.17276159  0.75000000  0.88393013  1.0
  Br  Br9  1  0.67276159  0.75000000  0.61606987  1.0
  Br  Br10  1  0.82723841  0.25000000  0.11606987  1.0
  Br  Br11  1  0.32723841  0.25000000  0.38393013  1.0
  Br  Br12  1  0.04976181  0.75000000  0.26559426  1.0
  Br  Br13  1  0.54976181  0.75000000  0.23440574  1.0
  Br  Br14  1  0.95023819  0.25000000  0.73440574  1.0
  Br  Br15  1  0.45023819  0.25000000  0.76559426  1.0
