# generated using pymatgen
data_Na2VPCl2O5
_symmetry_space_group_name_H-M   'P 1'
_cell_length_a   12.27764980
_cell_length_b   12.27764980
_cell_length_c   6.71262925
_cell_angle_alpha   58.15050657
_cell_angle_beta   121.84949343
_cell_angle_gamma   149.74559181
_symmetry_Int_Tables_number   1
_chemical_formula_structural   Na2VPCl2O5
_chemical_formula_sum   'Na4 V2 P2 Cl4 O10'
_cell_volume   426.90906367
_cell_formula_units_Z   2
loop_
 _symmetry_equiv_pos_site_id
 _symmetry_equiv_pos_as_xyz
  1  'x, y, z'
loop_
 _atom_site_type_symbol
 _atom_site_label
 _atom_site_symmetry_multiplicity
 _atom_site_fract_x
 _atom_site_fract_y
 _atom_site_fract_z
 _atom_site_occupancy
  Na  Na0  1  1.60799635  -0.10121474  0.79404390  1.0
  Na  Na1  1  0.89878526  -0.39200365  0.20595610  1.0
  Na  Na2  1  1.39200365  0.10121474  0.20595610  1.0
  Na  Na3  1  1.10121474  -0.60799635  0.79404390  1.0
  V  V4  1  1.33865935  -0.33865935  0.27547108  1.0
  V  V5  1  0.66134065  -0.66134065  0.72452892  1.0
  P  P6  1  0.82599755  -0.82599755  0.17428797  1.0
  P  P7  1  1.17400245  -0.17400245  0.82571203  1.0
  Cl  Cl8  1  1.43049901  -0.43049901  0.68261551  1.0
  Cl  Cl9  1  0.56950099  -0.56950099  0.31738449  1.0
  Cl  Cl10  1  1.26327152  -0.26327152  0.47821500  1.0
  Cl  Cl11  1  0.73672848  -0.73672848  0.52178500  1.0
  O  O12  1  1.63990194  -0.03852958  0.32955021  1.0
  O  O13  1  0.96147042  -0.36009806  0.67044979  1.0
  O  O14  1  1.36009806  0.03852958  0.67044979  1.0
  O  O15  1  1.03852958  -0.63990194  0.32955021  1.0
  O  O16  1  1.37857921  -0.37857921  0.14516399  1.0
  O  O17  1  0.62142079  -0.62142079  0.85483601  1.0
  O  O18  1  0.86469256  -0.86469256  0.05507265  1.0
  O  O19  1  1.13530744  -0.13530744  0.94492735  1.0
  O  O20  1  0.74628780  -0.74628780  0.98762576  1.0
  O  O21  1  1.25371220  -0.25371220  0.01237424  1.0
