# generated using pymatgen
data_ScH3(CO2)3
_symmetry_space_group_name_H-M   'P 1'
_cell_length_a   7.13478174
_cell_length_b   7.13478174
_cell_length_c   7.13478174
_cell_angle_alpha   103.14205130
_cell_angle_beta   103.14205130
_cell_angle_gamma   103.14205130
_symmetry_Int_Tables_number   1
_chemical_formula_structural   ScH3(CO2)3
_chemical_formula_sum   'Sc2 H6 C6 O12'
_cell_volume   329.17067217
_cell_formula_units_Z   2
loop_
 _symmetry_equiv_pos_site_id
 _symmetry_equiv_pos_as_xyz
  1  'x, y, z'
loop_
 _atom_site_type_symbol
 _atom_site_label
 _atom_site_symmetry_multiplicity
 _atom_site_fract_x
 _atom_site_fract_y
 _atom_site_fract_z
 _atom_site_occupancy
  Sc  Sc0  1  0.50000000  0.50000000  0.50000000  1.0
  Sc  Sc1  1  0.00000000  0.00000000  0.00000000  1.0
  H  H2  1  0.75000000  1.05646086  -0.55646086  1.0
  H  H3  1  1.05646086  0.44353914  -0.25000000  1.0
  H  H4  1  0.44353914  0.75000000  0.05646086  1.0
  H  H5  1  1.25000000  -0.05646086  0.55646086  1.0
  H  H6  1  0.94353914  0.55646086  0.25000000  1.0
  H  H7  1  1.55646086  0.25000000  -0.05646086  1.0
  C  C8  1  0.75000000  0.95760515  0.54239485  1.0
  C  C9  1  0.95760515  0.54239485  0.75000000  1.0
  C  C10  1  1.54239485  0.75000000  -0.04239485  1.0
  C  C11  1  0.25000000  1.04239485  -0.54239485  1.0
  C  C12  1  1.04239485  -0.54239485  0.25000000  1.0
  C  C13  1  0.45760515  0.25000000  0.04239485  1.0
  O  O14  1  1.61262949  -0.20860848  0.47837781  1.0
  O  O15  1  0.79139152  0.47837781  0.61262949  1.0
  O  O16  1  1.47837781  0.61262949  -0.20860848  1.0
  O  O17  1  1.11262949  -0.02162219  0.29139152  1.0
  O  O18  1  0.97837781  0.29139152  0.11262949  1.0
  O  O19  1  1.29139152  0.11262949  -0.02162219  1.0
  O  O20  1  0.38737051  1.20860848  -0.47837781  1.0
  O  O21  1  1.20860848  0.52162219  -0.61262949  1.0
  O  O22  1  0.52162219  0.38737051  0.20860848  1.0
  O  O23  1  0.88737051  1.02162219  -0.29139152  1.0
  O  O24  1  1.02162219  0.70860848  -0.11262949  1.0
  O  O25  1  0.70860848  0.88737051  0.02162219  1.0
