# generated using pymatgen
data_K3Ta2Cu3S8
_symmetry_space_group_name_H-M   'P 1'
_cell_length_a   12.41970099
_cell_length_b   12.41970099
_cell_length_c   14.40486788
_cell_angle_alpha   62.71039258
_cell_angle_beta   117.28960742
_cell_angle_gamma   153.99690278
_symmetry_Int_Tables_number   1
_chemical_formula_structural   K3Ta2Cu3S8
_chemical_formula_sum   'K6 Ta4 Cu6 S16'
_cell_volume   859.55495986
_cell_formula_units_Z   2
loop_
 _symmetry_equiv_pos_site_id
 _symmetry_equiv_pos_as_xyz
  1  'x, y, z'
loop_
 _atom_site_type_symbol
 _atom_site_label
 _atom_site_symmetry_multiplicity
 _atom_site_fract_x
 _atom_site_fract_y
 _atom_site_fract_z
 _atom_site_occupancy
  K  K0  1  0.64317632  0.23946744  0.10297116  1.0
  K  K1  1  0.76053256  -0.64317632  0.60297116  1.0
  K  K2  1  1.23946744  0.64317632  0.39702884  1.0
  K  K3  1  1.35682368  -0.23946744  0.89702884  1.0
  K  K4  1  0.00000000  -0.00000000  0.50000000  1.0
  K  K5  1  0.00000000  0.00000000  0.00000000  1.0
  Ta  Ta6  1  1.58181603  -0.17454266  0.22555763  1.0
  Ta  Ta7  1  1.17454266  -0.58181603  0.72555763  1.0
  Ta  Ta8  1  0.82545734  0.58181603  0.27444237  1.0
  Ta  Ta9  1  0.41818397  0.17454266  0.77444237  1.0
  Cu  Cu10  1  0.32255829  0.08502482  0.27514912  1.0
  Cu  Cu11  1  0.91497518  0.67744171  0.77514912  1.0
  Cu  Cu12  1  1.08502482  -0.67744171  0.22485088  1.0
  Cu  Cu13  1  1.67744171  -0.08502482  0.72485088  1.0
  Cu  Cu14  1  0.70744565  0.70744565  0.25000000  1.0
  Cu  Cu15  1  0.29255435  0.29255435  0.75000000  1.0
  S  S16  1  1.42829824  -0.49306525  0.33950575  1.0
  S  S17  1  1.49306525  -0.42829824  0.83950575  1.0
  S  S18  1  0.50693475  0.42829824  0.16049425  1.0
  S  S19  1  0.57170176  0.49306525  0.66049425  1.0
  S  S20  1  1.85298549  0.02565877  0.13266654  1.0
  S  S21  1  0.97434123  -0.85298549  0.63266654  1.0
  S  S22  1  1.02565877  0.85298549  0.36733346  1.0
  S  S23  1  0.14701451  -0.02565877  0.86733346  1.0
  S  S24  1  0.79965236  0.10573697  0.31935508  1.0
  S  S25  1  0.89426303  -0.79965236  0.81935508  1.0
  S  S26  1  1.10573697  0.79965236  0.18064492  1.0
  S  S27  1  1.20034764  -0.10573697  0.68064492  1.0
  S  S28  1  0.65884341  0.25490576  0.38215230  1.0
  S  S29  1  0.74509424  -0.65884341  0.88215230  1.0
  S  S30  1  1.25490576  0.65884341  0.11784770  1.0
  S  S31  1  1.34115659  -0.25490576  0.61784770  1.0
