# generated using pymatgen
data_AsH6NO4
_symmetry_space_group_name_H-M   'P 1'
_cell_length_a   6.81407585
_cell_length_b   6.81407585
_cell_length_c   6.81407585
_cell_angle_alpha   105.59108963
_cell_angle_beta   105.59108963
_cell_angle_gamma   117.54595710
_symmetry_Int_Tables_number   1
_chemical_formula_structural   AsH6NO4
_chemical_formula_sum   'As2 H12 N2 O8'
_cell_volume   239.88069043
_cell_formula_units_Z   2
loop_
 _symmetry_equiv_pos_site_id
 _symmetry_equiv_pos_as_xyz
  1  'x, y, z'
loop_
 _atom_site_type_symbol
 _atom_site_label
 _atom_site_symmetry_multiplicity
 _atom_site_fract_x
 _atom_site_fract_y
 _atom_site_fract_z
 _atom_site_occupancy
  As  As0  1  0.75000000  1.25000000  0.50000000  1.0
  As  As1  1  0.00000000  0.00000000  0.00000000  1.0
  H  H2  1  1.27679162  1.76071541  1.35985055  1.0
  H  H3  1  1.34913514  0.48928459  1.01607621  1.0
  H  H4  1  1.40086486  0.91694107  0.64014945  1.0
  H  H5  1  1.47320838  1.33305893  0.98392379  1.0
  H  H6  1  1.08305893  0.72320838  0.48392379  1.0
  H  H7  1  0.51071541  0.52679162  0.85985055  1.0
  H  H8  1  1.23928459  1.59913514  1.51607621  1.0
  H  H9  1  0.66694107  0.65086486  0.14014945  1.0
  H  H10  1  1.37500000  0.99374881  1.11874881  1.0
  H  H11  1  0.87500000  0.25625119  0.88125119  1.0
  H  H12  1  0.74374881  0.62500000  0.61874881  1.0
  H  H13  1  1.00625119  1.12500000  0.38125119  1.0
  N  N14  1  1.25000000  0.75000000  0.50000000  1.0
  N  N15  1  0.50000000  0.50000000  0.00000000  1.0
  O  O16  1  1.50270344  0.96893520  1.25886471  1.0
  O  O17  1  1.03992952  1.28106480  1.03376824  1.0
  O  O18  1  0.71007048  0.24383873  0.74113529  1.0
  O  O19  1  1.24729656  1.00616127  0.96623176  1.0
  O  O20  1  0.75616127  0.49729656  0.46623176  1.0
  O  O21  1  1.71893520  1.75270344  1.75886471  1.0
  O  O22  1  1.03106480  1.28992952  0.53376824  1.0
  O  O23  1  0.99383873  0.96007048  0.24113529  1.0
