# generated using pymatgen
data_Ta2PdSe6
_symmetry_space_group_name_H-M   'P 1'
_cell_length_a   7.03291190
_cell_length_b   7.03291190
_cell_length_c   10.95381685
_cell_angle_alpha   60.84646167
_cell_angle_beta   119.15353833
_cell_angle_gamma   152.00122945
_symmetry_Int_Tables_number   1
_chemical_formula_structural   Ta2PdSe6
_chemical_formula_sum   'Ta2 Pd1 Se6'
_cell_volume   219.96756166
_cell_formula_units_Z   1
loop_
 _symmetry_equiv_pos_site_id
 _symmetry_equiv_pos_as_xyz
  1  'x, y, z'
loop_
 _atom_site_type_symbol
 _atom_site_label
 _atom_site_symmetry_multiplicity
 _atom_site_fract_x
 _atom_site_fract_y
 _atom_site_fract_z
 _atom_site_occupancy
  Ta  Ta0  1  0.32191733  -0.32191733  0.70958474  1.0
  Ta  Ta1  1  0.67808267  -0.67808267  0.29041526  1.0
  Pd  Pd2  1  0.00000000  0.00000000  0.00000000  1.0
  Se  Se3  1  0.98569908  -0.98569908  0.76519096  1.0
  Se  Se4  1  0.01430092  -0.01430092  0.23480904  1.0
  Se  Se5  1  0.66638995  0.33361005  0.53461479  1.0
  Se  Se6  1  1.33361005  -0.33361005  0.46538521  1.0
  Se  Se7  1  0.78996010  0.21003990  0.86800370  1.0
  Se  Se8  1  1.21003990  -0.21003990  0.13199630  1.0
