# generated using pymatgen
data_Mg3Rh
_symmetry_space_group_name_H-M   'P 1'
_cell_length_a   7.95076725
_cell_length_b   7.95076725
_cell_length_c   8.24614853
_cell_angle_alpha   90.00000000
_cell_angle_beta   90.00000000
_cell_angle_gamma   120.00000000
_symmetry_Int_Tables_number   1
_chemical_formula_structural   Mg3Rh
_chemical_formula_sum   'Mg18 Rh6'
_cell_volume   451.43982092
_cell_formula_units_Z   6
loop_
 _symmetry_equiv_pos_site_id
 _symmetry_equiv_pos_as_xyz
  1  'x, y, z'
loop_
 _atom_site_type_symbol
 _atom_site_label
 _atom_site_symmetry_multiplicity
 _atom_site_fract_x
 _atom_site_fract_y
 _atom_site_fract_z
 _atom_site_occupancy
  Mg  Mg0  1  0.62596897  0.62596897  0.39258550  1.0
  Mg  Mg1  1  0.62596897  0.00000000  0.89258550  1.0
  Mg  Mg2  1  0.00000000  0.62596897  0.89258550  1.0
  Mg  Mg3  1  0.00000000  0.37403103  0.39258550  1.0
  Mg  Mg4  1  0.37403103  0.37403103  0.89258550  1.0
  Mg  Mg5  1  0.37403103  0.00000000  0.39258550  1.0
  Mg  Mg6  1  0.28481663  0.28481663  0.23450227  1.0
  Mg  Mg7  1  0.28481663  0.00000000  0.73450227  1.0
  Mg  Mg8  1  -0.00000000  0.28481663  0.73450227  1.0
  Mg  Mg9  1  0.00000000  0.71518337  0.23450227  1.0
  Mg  Mg10  1  0.71518337  0.71518337  0.73450227  1.0
  Mg  Mg11  1  0.71518337  0.00000000  0.23450227  1.0
  Mg  Mg12  1  0.33333333  0.66666667  0.10881215  1.0
  Mg  Mg13  1  0.33333333  0.66666667  0.60881215  1.0
  Mg  Mg14  1  0.66666667  0.33333333  0.10881215  1.0
  Mg  Mg15  1  0.66666667  0.33333333  0.60881215  1.0
  Mg  Mg16  1  0.00000000  0.00000000  -0.00371384  1.0
  Mg  Mg17  1  0.00000000  0.00000000  0.49628616  1.0
  Rh  Rh18  1  0.67249606  0.67249606  0.06437541  1.0
  Rh  Rh19  1  0.67249606  0.00000000  0.56437541  1.0
  Rh  Rh20  1  -0.00000000  0.67249606  0.56437541  1.0
  Rh  Rh21  1  0.00000000  0.32750394  0.06437541  1.0
  Rh  Rh22  1  0.32750394  0.32750394  0.56437541  1.0
  Rh  Rh23  1  0.32750394  0.00000000  0.06437541  1.0
