# generated using pymatgen
data_KLi3(BO2)4
_symmetry_space_group_name_H-M   'P 1'
_cell_length_a   8.54476602
_cell_length_b   8.54476602
_cell_length_c   8.54476602
_cell_angle_alpha   65.86311486
_cell_angle_beta   65.86311486
_cell_angle_gamma   65.86311486
_symmetry_Int_Tables_number   1
_chemical_formula_structural   KLi3(BO2)4
_chemical_formula_sum   'K3 Li9 B12 O24'
_cell_volume   497.19367530
_cell_formula_units_Z   3
loop_
 _symmetry_equiv_pos_site_id
 _symmetry_equiv_pos_as_xyz
  1  'x, y, z'
loop_
 _atom_site_type_symbol
 _atom_site_label
 _atom_site_symmetry_multiplicity
 _atom_site_fract_x
 _atom_site_fract_y
 _atom_site_fract_z
 _atom_site_occupancy
  K  K0  1  0.82614975  0.82614975  -0.17385025  1.0
  K  K1  1  1.17385025  1.17385025  0.17385025  1.0
  K  K2  1  0.50000000  0.50000000  -0.50000000  1.0
  Li  Li3  1  0.81297142  0.60065910  -0.76075651  1.0
  Li  Li4  1  0.39934090  0.76075651  -0.81297142  1.0
  Li  Li5  1  0.76075651  0.18702858  -0.60065910  1.0
  Li  Li6  1  0.18702858  0.39934090  -0.23924349  1.0
  Li  Li7  1  0.60065910  0.23924349  -0.18702858  1.0
  Li  Li8  1  0.23924349  0.81297142  -0.39934090  1.0
  Li  Li9  1  0.66982143  0.66982143  -0.33017857  1.0
  Li  Li10  1  1.33017857  1.33017857  0.33017857  1.0
  Li  Li11  1  0.00000000  0.00000000  0.00000000  1.0
  B  B12  1  0.67686358  -0.51482152  0.07537999  1.0
  B  B13  1  0.51482152  0.92462001  -0.67686358  1.0
  B  B14  1  0.92462001  0.32313642  -0.48517848  1.0
  B  B15  1  0.32313642  0.51482152  -0.07537999  1.0
  B  B16  1  0.48517848  0.07537999  -0.32313642  1.0
  B  B17  1  1.07537999  -0.32313642  -0.51482152  1.0
  B  B18  1  1.67850890  1.16092040  0.15982439  1.0
  B  B19  1  0.83907960  -0.15982439  0.32149110  1.0
  B  B20  1  0.84017561  0.32149110  -0.16092040  1.0
  B  B21  1  1.32149110  -0.16092040  -0.15982439  1.0
  B  B22  1  1.16092040  1.15982439  0.67850890  1.0
  B  B23  1  1.15982439  1.67850890  0.16092040  1.0
  O  O24  1  0.96598234  -0.25053368  0.18075765  1.0
  O  O25  1  0.25053368  0.81924235  -0.96598234  1.0
  O  O26  1  0.81924235  0.03401766  -0.74946632  1.0
  O  O27  1  0.03401766  0.25053368  -0.18075765  1.0
  O  O28  1  0.74946632  0.18075765  -0.03401766  1.0
  O  O29  1  1.18075765  -0.03401766  -0.25053368  1.0
  O  O30  1  0.64454756  -0.37298639  0.12716993  1.0
  O  O31  1  0.37298639  0.87283007  -0.64454756  1.0
  O  O32  1  0.87283007  0.35545244  -0.62701361  1.0
  O  O33  1  0.35545244  0.37298639  -0.12716993  1.0
  O  O34  1  0.62701361  0.12716993  -0.35545244  1.0
  O  O35  1  1.12716993  -0.35545244  -0.37298639  1.0
  O  O36  1  0.48501919  0.89695705  -0.23645895  1.0
  O  O37  1  1.10304295  1.23645895  0.51498081  1.0
  O  O38  1  1.23645895  1.51498081  0.10304295  1.0
  O  O39  1  1.51498081  1.10304295  0.23645895  1.0
  O  O40  1  0.89695705  0.76354105  -0.51498081  1.0
  O  O41  1  0.76354105  0.48501919  -0.10304295  1.0
  O  O42  1  0.37505933  0.66721002  -0.20127477  1.0
  O  O43  1  0.33278998  0.20127477  -0.37505933  1.0
  O  O44  1  0.20127477  0.62494067  -0.66721002  1.0
  O  O45  1  0.62494067  0.33278998  -0.79872523  1.0
  O  O46  1  0.66721002  0.79872523  -0.62494067  1.0
  O  O47  1  0.79872523  0.37505933  -0.33278998  1.0
