# generated using pymatgen
data_SiH8(NF3)2
_symmetry_space_group_name_H-M   'P 1'
_cell_length_a   5.95975818
_cell_length_b   5.95975818
_cell_length_c   9.42882766
_cell_angle_alpha   90.00000000
_cell_angle_beta   90.00000000
_cell_angle_gamma   120.00000000
_symmetry_Int_Tables_number   1
_chemical_formula_structural   SiH8(NF3)2
_chemical_formula_sum   'Si2 H16 N4 F12'
_cell_volume   290.03179221
_cell_formula_units_Z   2
loop_
 _symmetry_equiv_pos_site_id
 _symmetry_equiv_pos_as_xyz
  1  'x, y, z'
loop_
 _atom_site_type_symbol
 _atom_site_label
 _atom_site_symmetry_multiplicity
 _atom_site_fract_x
 _atom_site_fract_y
 _atom_site_fract_z
 _atom_site_occupancy
  Si  Si0  1  0.33333333  0.66666667  0.66101484  1.0
  Si  Si1  1  0.66666667  0.33333333  0.16101484  1.0
  H  H2  1  0.14543219  0.57271609  0.31892966  1.0
  H  H3  1  0.57271609  0.14543219  0.81892966  1.0
  H  H4  1  0.57271609  0.42728391  0.81892966  1.0
  H  H5  1  0.42728391  0.57271609  0.31892966  1.0
  H  H6  1  0.42728391  0.85456781  0.31892966  1.0
  H  H7  1  0.85456781  0.42728391  0.81892966  1.0
  H  H8  1  0.18832534  0.09416267  0.46328382  1.0
  H  H9  1  0.09416267  0.18832534  0.96328382  1.0
  H  H10  1  0.09416267  0.90583733  0.96328382  1.0
  H  H11  1  0.90583733  0.09416267  0.46328382  1.0
  H  H12  1  0.90583733  0.81167466  0.46328382  1.0
  H  H13  1  0.81167466  0.90583733  0.96328382  1.0
  H  H14  1  0.33333333  0.66666667  0.17379634  1.0
  H  H15  1  0.66666667  0.33333333  0.67379634  1.0
  H  H16  1  0.00000000  0.00000000  0.10840415  1.0
  H  H17  1  0.00000000  0.00000000  0.60840415  1.0
  N  N18  1  0.33333333  0.66666667  0.28266727  1.0
  N  N19  1  0.66666667  0.33333333  0.78266727  1.0
  N  N20  1  0.00000000  0.00000000  -0.00050604  1.0
  N  N21  1  0.00000000  0.00000000  0.49949396  1.0
  F  F22  1  0.93930584  0.46965292  0.05647614  1.0
  F  F23  1  0.46965292  0.93930584  0.55647614  1.0
  F  F24  1  0.46965292  0.53034708  0.55647614  1.0
  F  F25  1  0.53034708  0.46965292  0.05647614  1.0
  F  F26  1  0.53034708  0.06069416  0.05647614  1.0
  F  F27  1  0.06069416  0.53034708  0.55647614  1.0
  F  F28  1  0.39316823  0.19658411  0.26725153  1.0
  F  F29  1  0.19658411  0.39316823  0.76725153  1.0
  F  F30  1  0.19658411  0.80341589  0.76725153  1.0
  F  F31  1  0.80341589  0.19658411  0.26725153  1.0
  F  F32  1  0.80341589  0.60683177  0.26725153  1.0
  F  F33  1  0.60683177  0.80341589  0.76725153  1.0
