# generated using pymatgen
data_Cu3SbSe4
_symmetry_space_group_name_H-M   'P 1'
_cell_length_a   6.99300134
_cell_length_b   6.99300134
_cell_length_c   6.99300134
_cell_angle_alpha   131.68654149
_cell_angle_beta   131.68654149
_cell_angle_gamma   70.72455335
_symmetry_Int_Tables_number   1
_chemical_formula_structural   Cu3SbSe4
_chemical_formula_sum   'Cu3 Sb1 Se4'
_cell_volume   186.81990827
_cell_formula_units_Z   1
loop_
 _symmetry_equiv_pos_site_id
 _symmetry_equiv_pos_as_xyz
  1  'x, y, z'
loop_
 _atom_site_type_symbol
 _atom_site_label
 _atom_site_symmetry_multiplicity
 _atom_site_fract_x
 _atom_site_fract_y
 _atom_site_fract_z
 _atom_site_occupancy
  Cu  Cu0  1  0.25000000  0.75000000  0.50000000  1.0
  Cu  Cu1  1  0.75000000  0.25000000  0.50000000  1.0
  Cu  Cu2  1  0.00000000  0.00000000  0.00000000  1.0
  Sb  Sb3  1  0.50000000  0.50000000  1.00000000  1.0
  Se  Se4  1  0.36629584  0.90272430  1.00000000  1.0
  Se  Se5  1  1.09727570  1.09727570  1.46357154  1.0
  Se  Se6  1  0.63370416  0.63370416  0.53642846  1.0
  Se  Se7  1  0.90272430  0.36629584  1.00000000  1.0
