# generated using pymatgen
data_LaBi2ClO4
_symmetry_space_group_name_H-M   'P 1'
_cell_length_a   3.99288023
_cell_length_b   3.99288023
_cell_length_c   9.26820028
_cell_angle_alpha   90.00000000
_cell_angle_beta   90.00000000
_cell_angle_gamma   90.00000000
_symmetry_Int_Tables_number   1
_chemical_formula_structural   LaBi2ClO4
_chemical_formula_sum   'La1 Bi2 Cl1 O4'
_cell_volume   147.76377498
_cell_formula_units_Z   1
loop_
 _symmetry_equiv_pos_site_id
 _symmetry_equiv_pos_as_xyz
  1  'x, y, z'
loop_
 _atom_site_type_symbol
 _atom_site_label
 _atom_site_symmetry_multiplicity
 _atom_site_fract_x
 _atom_site_fract_y
 _atom_site_fract_z
 _atom_site_occupancy
  La  La0  1  0.00000000  0.00000000  0.00000000  1.0
  Bi  Bi1  1  0.50000000  0.50000000  0.72027987  1.0
  Bi  Bi2  1  0.50000000  0.50000000  0.27972013  1.0
  Cl  Cl3  1  0.00000000  0.00000000  0.50000000  1.0
  O  O4  1  0.00000000  0.50000000  0.83598770  1.0
  O  O5  1  0.00000000  0.50000000  0.16401230  1.0
  O  O6  1  0.50000000  0.00000000  0.83598770  1.0
  O  O7  1  0.50000000  0.00000000  0.16401230  1.0
