# generated using pymatgen
data_As4S3
_symmetry_space_group_name_H-M   'P 1'
_cell_length_a   9.65486263
_cell_length_b   8.69043498
_cell_length_c   11.24331990
_cell_angle_alpha   90.00000000
_cell_angle_beta   90.00000000
_cell_angle_gamma   90.00000000
_symmetry_Int_Tables_number   1
_chemical_formula_structural   As4S3
_chemical_formula_sum   'As16 S12'
_cell_volume   943.37026028
_cell_formula_units_Z   4
loop_
 _symmetry_equiv_pos_site_id
 _symmetry_equiv_pos_as_xyz
  1  'x, y, z'
loop_
 _atom_site_type_symbol
 _atom_site_label
 _atom_site_symmetry_multiplicity
 _atom_site_fract_x
 _atom_site_fract_y
 _atom_site_fract_z
 _atom_site_occupancy
  As  As0  1  0.65757851  0.89556879  0.27990484  1.0
  As  As1  1  0.65757851  0.60443121  0.27990484  1.0
  As  As2  1  0.15757851  0.89556879  0.22009516  1.0
  As  As3  1  0.15757851  0.60443121  0.22009516  1.0
  As  As4  1  0.34242149  0.39556879  0.72009516  1.0
  As  As5  1  0.34242149  0.10443121  0.72009516  1.0
  As  As6  1  0.84242149  0.39556879  0.77990484  1.0
  As  As7  1  0.84242149  0.10443121  0.77990484  1.0
  As  As8  1  0.99249137  0.75000000  0.08851661  1.0
  As  As9  1  0.49249137  0.75000000  0.41148339  1.0
  As  As10  1  0.00750863  0.25000000  0.91148339  1.0
  As  As11  1  0.50750863  0.25000000  0.58851661  1.0
  As  As12  1  0.83395634  0.75000000  0.53913366  1.0
  As  As13  1  0.33395634  0.75000000  0.96086634  1.0
  As  As14  1  0.16604366  0.25000000  0.46086634  1.0
  As  As15  1  0.66604366  0.25000000  0.03913366  1.0
  S  S16  1  0.83184557  0.94627938  0.40567326  1.0
  S  S17  1  0.83184557  0.55372062  0.40567326  1.0
  S  S18  1  0.33184557  0.94627938  0.09432674  1.0
  S  S19  1  0.33184557  0.55372062  0.09432674  1.0
  S  S20  1  0.16815443  0.44627938  0.59432674  1.0
  S  S21  1  0.16815443  0.05372062  0.59432674  1.0
  S  S22  1  0.66815443  0.44627938  0.90567326  1.0
  S  S23  1  0.66815443  0.05372062  0.90567326  1.0
  S  S24  1  0.60496138  0.75000000  0.58527962  1.0
  S  S25  1  0.10496138  0.75000000  0.91472038  1.0
  S  S26  1  0.39503862  0.25000000  0.41472038  1.0
  S  S27  1  0.89503862  0.25000000  0.08527962  1.0
