# generated using pymatgen
data_Y3FeB7
_symmetry_space_group_name_H-M   'P 1'
_cell_length_a   8.03408691
_cell_length_b   8.03408691
_cell_length_c   9.29868519
_cell_angle_alpha   90.00000000
_cell_angle_beta   90.00000000
_cell_angle_gamma   155.45906153
_symmetry_Int_Tables_number   1
_chemical_formula_structural   Y3FeB7
_chemical_formula_sum   'Y6 Fe2 B14'
_cell_volume   249.28825627
_cell_formula_units_Z   2
loop_
 _symmetry_equiv_pos_site_id
 _symmetry_equiv_pos_as_xyz
  1  'x, y, z'
loop_
 _atom_site_type_symbol
 _atom_site_label
 _atom_site_symmetry_multiplicity
 _atom_site_fract_x
 _atom_site_fract_y
 _atom_site_fract_z
 _atom_site_occupancy
  Y  Y0  1  0.39518238  0.60481762  0.93951471  1.0
  Y  Y1  1  0.39518238  0.60481762  0.56048529  1.0
  Y  Y2  1  -0.39518238  0.39518238  0.43951471  1.0
  Y  Y3  1  -0.39518238  0.39518238  0.06048529  1.0
  Y  Y4  1  -0.25746038  0.25746038  0.75000000  1.0
  Y  Y5  1  0.25746038  0.74253962  0.25000000  1.0
  Fe  Fe6  1  -0.44572863  0.44572863  0.75000000  1.0
  Fe  Fe7  1  0.44572863  0.55427137  0.25000000  1.0
  B  B8  1  0.02179318  0.97820682  0.90128835  1.0
  B  B9  1  0.02179318  0.97820682  0.59871165  1.0
  B  B10  1  -0.02179318  0.02179318  0.40128835  1.0
  B  B11  1  -0.02179318  0.02179318  0.09871165  1.0
  B  B12  1  0.12974081  0.87025919  0.84679528  1.0
  B  B13  1  0.12974081  0.87025919  0.65320472  1.0
  B  B14  1  -0.12974081  0.12974081  0.34679528  1.0
  B  B15  1  -0.12974081  0.12974081  0.15320472  1.0
  B  B16  1  0.22756498  0.77243502  0.96678869  1.0
  B  B17  1  0.22756498  0.77243502  0.53321131  1.0
  B  B18  1  -0.22756498  0.22756498  0.46678869  1.0
  B  B19  1  -0.22756498  0.22756498  0.03321131  1.0
  B  B20  1  -0.03959966  0.03959966  0.75000000  1.0
  B  B21  1  0.03959966  0.96040034  0.25000000  1.0
