# generated using pymatgen
data_P4S3I2
_symmetry_space_group_name_H-M   'P 1'
_cell_length_a   10.34705984
_cell_length_b   16.77600736
_cell_length_c   7.46271624
_cell_angle_alpha   90.00000000
_cell_angle_beta   90.00000000
_cell_angle_gamma   90.00000000
_symmetry_Int_Tables_number   1
_chemical_formula_structural   P4S3I2
_chemical_formula_sum   'P16 S12 I8'
_cell_volume   1295.39583755
_cell_formula_units_Z   4
loop_
 _symmetry_equiv_pos_site_id
 _symmetry_equiv_pos_as_xyz
  1  'x, y, z'
loop_
 _atom_site_type_symbol
 _atom_site_label
 _atom_site_symmetry_multiplicity
 _atom_site_fract_x
 _atom_site_fract_y
 _atom_site_fract_z
 _atom_site_occupancy
  P  P0  1  0.45604069  0.84943886  0.54069129  1.0
  P  P1  1  0.45604069  0.65056114  0.54069129  1.0
  P  P2  1  0.95604069  0.84943886  0.95930871  1.0
  P  P3  1  0.95604069  0.65056114  0.95930871  1.0
  P  P4  1  0.54395931  0.34943886  0.45930871  1.0
  P  P5  1  0.54395931  0.15056114  0.45930871  1.0
  P  P6  1  0.04395931  0.34943886  0.04069129  1.0
  P  P7  1  0.04395931  0.15056114  0.04069129  1.0
  P  P8  1  0.34733451  0.75000000  0.67491635  1.0
  P  P9  1  0.84733451  0.75000000  0.82508365  1.0
  P  P10  1  0.65266549  0.25000000  0.32508365  1.0
  P  P11  1  0.15266549  0.25000000  0.17491635  1.0
  P  P12  1  0.24173416  0.75000000  0.26973949  1.0
  P  P13  1  0.74173416  0.75000000  0.23026051  1.0
  P  P14  1  0.75826584  0.25000000  0.73026051  1.0
  P  P15  1  0.25826584  0.25000000  0.76973949  1.0
  S  S16  1  0.37088505  0.84966238  0.27856684  1.0
  S  S17  1  0.37088505  0.65033762  0.27856684  1.0
  S  S18  1  0.87088505  0.84966238  0.22143316  1.0
  S  S19  1  0.87088505  0.65033762  0.22143316  1.0
  S  S20  1  0.62911495  0.34966238  0.72143316  1.0
  S  S21  1  0.62911495  0.15033762  0.72143316  1.0
  S  S22  1  0.12911495  0.34966238  0.77856684  1.0
  S  S23  1  0.12911495  0.15033762  0.77856684  1.0
  S  S24  1  0.16938838  0.75000000  0.53402304  1.0
  S  S25  1  0.66938838  0.75000000  0.96597696  1.0
  S  S26  1  0.83061162  0.25000000  0.46597696  1.0
  S  S27  1  0.33061162  0.25000000  0.03402304  1.0
  I  I28  1  0.34017242  0.95976135  0.69894201  1.0
  I  I29  1  0.34017242  0.54023865  0.69894201  1.0
  I  I30  1  0.84017242  0.95976135  0.80105799  1.0
  I  I31  1  0.84017242  0.54023865  0.80105799  1.0
  I  I32  1  0.65982758  0.45976135  0.30105799  1.0
  I  I33  1  0.65982758  0.04023865  0.30105799  1.0
  I  I34  1  0.15982758  0.45976135  0.19894201  1.0
  I  I35  1  0.15982758  0.04023865  0.19894201  1.0
