# generated using pymatgen
data_Ag3Hg4
_symmetry_space_group_name_H-M   'P 1'
_cell_length_a   7.58221613
_cell_length_b   7.58221613
_cell_length_c   7.58221613
_cell_angle_alpha   109.47122063
_cell_angle_beta   109.47122063
_cell_angle_gamma   109.47122063
_symmetry_Int_Tables_number   1
_chemical_formula_structural   Ag3Hg4
_chemical_formula_sum   'Ag6 Hg8'
_cell_volume   335.55722012
_cell_formula_units_Z   2
loop_
 _symmetry_equiv_pos_site_id
 _symmetry_equiv_pos_as_xyz
  1  'x, y, z'
loop_
 _atom_site_type_symbol
 _atom_site_label
 _atom_site_symmetry_multiplicity
 _atom_site_fract_x
 _atom_site_fract_y
 _atom_site_fract_z
 _atom_site_occupancy
  Ag  Ag0  1  1.25000000  0.75000000  0.50000000  1.0
  Ag  Ag1  1  0.75000000  1.25000000  0.50000000  1.0
  Ag  Ag2  1  0.50000000  0.25000000  0.75000000  1.0
  Ag  Ag3  1  0.25000000  0.50000000  0.75000000  1.0
  Ag  Ag4  1  0.50000000  0.75000000  0.25000000  1.0
  Ag  Ag5  1  0.75000000  0.50000000  0.25000000  1.0
  Hg  Hg6  1  0.32328736  0.32328736  0.32328736  1.0
  Hg  Hg7  1  1.32328736  1.00000000  1.00000000  1.0
  Hg  Hg8  1  1.00000000  1.00000000  0.67671264  1.0
  Hg  Hg9  1  1.00000000  1.32328736  1.00000000  1.0
  Hg  Hg10  1  1.67671264  1.00000000  1.00000000  1.0
  Hg  Hg11  1  1.00000000  1.00000000  0.32328736  1.0
  Hg  Hg12  1  1.00000000  1.67671264  1.00000000  1.0
  Hg  Hg13  1  0.67671264  0.67671264  0.67671264  1.0
