# generated using pymatgen
data_BaCa2C2(O3F)2
_symmetry_space_group_name_H-M   'P 1'
_cell_length_a   6.97210257
_cell_length_b   6.97210257
_cell_length_c   9.54108699
_cell_angle_alpha   90.00000000
_cell_angle_beta   90.00000000
_cell_angle_gamma   50.56217443
_symmetry_Int_Tables_number   1
_chemical_formula_structural   BaCa2C2(O3F)2
_chemical_formula_sum   'Ba2 Ca4 C4 O12 F4'
_cell_volume   358.19498833
_cell_formula_units_Z   2
loop_
 _symmetry_equiv_pos_site_id
 _symmetry_equiv_pos_as_xyz
  1  'x, y, z'
loop_
 _atom_site_type_symbol
 _atom_site_label
 _atom_site_symmetry_multiplicity
 _atom_site_fract_x
 _atom_site_fract_y
 _atom_site_fract_z
 _atom_site_occupancy
  Ba  Ba0  1  -0.99766677  0.99766677  0.75000000  1.0
  Ba  Ba1  1  -0.00233323  0.00233323  0.25000000  1.0
  Ca  Ca2  1  -0.35364293  0.64635707  0.00000000  1.0
  Ca  Ca3  1  -0.35364293  0.64635707  0.50000000  1.0
  Ca  Ca4  1  0.35364293  0.35364293  0.00000000  1.0
  Ca  Ca5  1  0.35364293  0.35364293  0.50000000  1.0
  C  C6  1  -0.09670373  0.58873139  0.75000000  1.0
  C  C7  1  -0.41126861  0.90329627  0.25000000  1.0
  C  C8  1  -0.58873139  1.09670373  0.75000000  1.0
  C  C9  1  0.09670373  0.41126861  0.25000000  1.0
  O  O10  1  -0.04118542  0.63465793  0.86774103  1.0
  O  O11  1  -0.04118542  0.63465793  0.63225897  1.0
  O  O12  1  -0.36534207  0.95881458  0.36774103  1.0
  O  O13  1  -0.36534207  0.95881458  0.13225897  1.0
  O  O14  1  -0.63465793  1.04118542  0.86774103  1.0
  O  O15  1  -0.63465793  1.04118542  0.63225897  1.0
  O  O16  1  0.04118542  0.36534207  0.36774103  1.0
  O  O17  1  0.04118542  0.36534207  0.13225897  1.0
  O  O18  1  -0.22130718  0.50703855  0.75000000  1.0
  O  O19  1  -0.49296145  0.77869282  0.25000000  1.0
  O  O20  1  -0.50703855  1.22130718  0.75000000  1.0
  O  O21  1  0.22130718  0.49296145  0.25000000  1.0
  F  F22  1  -0.73348202  0.73348202  0.99113724  1.0
  F  F23  1  -0.73348202  0.73348202  0.50886276  1.0
  F  F24  1  -0.26651798  0.26651798  0.49113724  1.0
  F  F25  1  -0.26651798  0.26651798  0.00886276  1.0
