# generated using pymatgen
data_Ba2Mn(BO2)6
_symmetry_space_group_name_H-M   'P 1'
_cell_length_a   7.09911227
_cell_length_b   7.09911227
_cell_length_c   7.09911227
_cell_angle_alpha   60.58361488
_cell_angle_beta   60.58361488
_cell_angle_gamma   60.58361488
_symmetry_Int_Tables_number   1
_chemical_formula_structural   Ba2Mn(BO2)6
_chemical_formula_sum   'Ba2 Mn1 B6 O12'
_cell_volume   256.32134733
_cell_formula_units_Z   1
loop_
 _symmetry_equiv_pos_site_id
 _symmetry_equiv_pos_as_xyz
  1  'x, y, z'
loop_
 _atom_site_type_symbol
 _atom_site_label
 _atom_site_symmetry_multiplicity
 _atom_site_fract_x
 _atom_site_fract_y
 _atom_site_fract_z
 _atom_site_occupancy
  Ba  Ba0  1  0.79202040  0.79202040  -0.20797960  1.0
  Ba  Ba1  1  1.20797960  1.20797960  0.20797960  1.0
  Mn  Mn2  1  0.00000000  0.00000000  0.00000000  1.0
  B  B3  1  0.36583992  0.75575250  -0.35921548  1.0
  B  B4  1  0.24424750  0.35921548  -0.36583992  1.0
  B  B5  1  0.35921548  0.63416008  -0.75575250  1.0
  B  B6  1  0.63416008  0.24424750  -0.64078452  1.0
  B  B7  1  0.75575250  0.64078452  -0.63416008  1.0
  B  B8  1  0.64078452  0.36583992  -0.24424750  1.0
  O  O9  1  0.42546296  0.53751069  -0.19774701  1.0
  O  O10  1  0.46248931  0.19774701  -0.42546296  1.0
  O  O11  1  0.19774701  0.57453704  -0.53751069  1.0
  O  O12  1  0.57453704  0.46248931  -0.80225299  1.0
  O  O13  1  0.53751069  0.80225299  -0.57453704  1.0
  O  O14  1  0.80225299  0.42546296  -0.46248931  1.0
  O  O15  1  0.67942259  0.15984722  -0.08612976  1.0
  O  O16  1  0.84015278  0.08612976  -0.67942259  1.0
  O  O17  1  0.08612976  0.32057741  -0.15984722  1.0
  O  O18  1  0.32057741  0.84015278  -0.91387024  1.0
  O  O19  1  1.15984722  -0.08612976  -0.32057741  1.0
  O  O20  1  0.91387024  -0.32057741  0.15984722  1.0
