# generated using pymatgen
data_In5AgS8
_symmetry_space_group_name_H-M   'P 1'
_cell_length_a   7.76791075
_cell_length_b   7.76791075
_cell_length_c   7.76791075
_cell_angle_alpha   60.00000000
_cell_angle_beta   60.00000000
_cell_angle_gamma   60.00000000
_symmetry_Int_Tables_number   1
_chemical_formula_structural   In5AgS8
_chemical_formula_sum   'In5 Ag1 S8'
_cell_volume   331.43447654
_cell_formula_units_Z   1
loop_
 _symmetry_equiv_pos_site_id
 _symmetry_equiv_pos_as_xyz
  1  'x, y, z'
loop_
 _atom_site_type_symbol
 _atom_site_label
 _atom_site_symmetry_multiplicity
 _atom_site_fract_x
 _atom_site_fract_y
 _atom_site_fract_z
 _atom_site_occupancy
  In  In0  1  -0.36896179  0.63103821  0.63103821  1.0
  In  In1  1  1.10688538  0.63103821  -0.36896179  1.0
  In  In2  1  -0.36896179  0.63103821  1.10688538  1.0
  In  In3  1  0.63103821  1.10688538  -0.36896179  1.0
  In  In4  1  0.25000000  0.25000000  0.25000000  1.0
  Ag  Ag5  1  0.00000000  0.00000000  0.00000000  1.0
  S  S6  1  0.86776196  0.86776196  -0.13223804  1.0
  S  S7  1  0.39671413  0.86776196  -0.13223804  1.0
  S  S8  1  0.86776196  0.86776196  -0.60328587  1.0
  S  S9  1  0.86776196  0.39671413  -0.13223804  1.0
  S  S10  1  0.38431914  1.38431914  0.38431914  1.0
  S  S11  1  -0.15295743  0.38431914  0.38431914  1.0
  S  S12  1  0.38431914  1.38431914  -0.15295743  1.0
  S  S13  1  0.38431914  -0.15295743  0.38431914  1.0
