# generated using pymatgen
data_Rb2AgBr3
_symmetry_space_group_name_H-M   'P 1'
_cell_length_a   9.84020040
_cell_length_b   4.72512449
_cell_length_c   19.09062297
_cell_angle_alpha   90.00000000
_cell_angle_beta   90.00000000
_cell_angle_gamma   90.00000000
_symmetry_Int_Tables_number   1
_chemical_formula_structural   Rb2AgBr3
_chemical_formula_sum   'Rb8 Ag4 Br12'
_cell_volume   887.64088753
_cell_formula_units_Z   4
loop_
 _symmetry_equiv_pos_site_id
 _symmetry_equiv_pos_as_xyz
  1  'x, y, z'
loop_
 _atom_site_type_symbol
 _atom_site_label
 _atom_site_symmetry_multiplicity
 _atom_site_fract_x
 _atom_site_fract_y
 _atom_site_fract_z
 _atom_site_occupancy
  Rb  Rb0  1  0.91972265  0.75000000  0.78632340  1.0
  Rb  Rb1  1  0.41972265  0.75000000  0.71367660  1.0
  Rb  Rb2  1  0.08027735  0.25000000  0.21367660  1.0
  Rb  Rb3  1  0.58027735  0.25000000  0.28632340  1.0
  Rb  Rb4  1  0.75265077  0.75000000  0.04148949  1.0
  Rb  Rb5  1  0.25265077  0.75000000  0.45851051  1.0
  Rb  Rb6  1  0.24734923  0.25000000  0.95851051  1.0
  Rb  Rb7  1  0.74734923  0.25000000  0.54148949  1.0
  Ag  Ag8  1  0.87028527  0.75000000  0.36525219  1.0
  Ag  Ag9  1  0.37028527  0.75000000  0.13474781  1.0
  Ag  Ag10  1  0.12971473  0.25000000  0.63474781  1.0
  Ag  Ag11  1  0.62971473  0.25000000  0.86525219  1.0
  Br  Br12  1  0.99936796  0.75000000  0.60061386  1.0
  Br  Br13  1  0.49936796  0.75000000  0.89938614  1.0
  Br  Br14  1  0.00063204  0.25000000  0.39938614  1.0
  Br  Br15  1  0.50063204  0.25000000  0.10061386  1.0
  Br  Br16  1  0.81725024  0.75000000  0.22488372  1.0
  Br  Br17  1  0.31725024  0.75000000  0.27511628  1.0
  Br  Br18  1  0.18274976  0.25000000  0.77511628  1.0
  Br  Br19  1  0.68274976  0.25000000  0.72488372  1.0
  Br  Br20  1  0.62264735  0.75000000  0.42772932  1.0
  Br  Br21  1  0.12264735  0.75000000  0.07227068  1.0
  Br  Br22  1  0.37735265  0.25000000  0.57227068  1.0
  Br  Br23  1  0.87735265  0.25000000  0.92772932  1.0
