# generated using pymatgen
data_CdPb2(ClO)2
_symmetry_space_group_name_H-M   'P 1'
_cell_length_a   6.53702080
_cell_length_b   6.53702080
_cell_length_c   7.73129909
_cell_angle_alpha   60.75597369
_cell_angle_beta   119.24402631
_cell_angle_gamma   145.22827459
_symmetry_Int_Tables_number   1
_chemical_formula_structural   CdPb2(ClO)2
_chemical_formula_sum   'Cd1 Pb2 Cl2 O2'
_cell_volume   161.85737210
_cell_formula_units_Z   1
loop_
 _symmetry_equiv_pos_site_id
 _symmetry_equiv_pos_as_xyz
  1  'x, y, z'
loop_
 _atom_site_type_symbol
 _atom_site_label
 _atom_site_symmetry_multiplicity
 _atom_site_fract_x
 _atom_site_fract_y
 _atom_site_fract_z
 _atom_site_occupancy
  Cd  Cd0  1  0.00000000  0.00000000  0.00000000  1.0
  Pb  Pb1  1  0.80764002  -0.80764002  0.23390726  1.0
  Pb  Pb2  1  0.19235998  -0.19235998  0.76609274  1.0
  Cl  Cl3  1  1.44379517  -0.44379517  0.70754829  1.0
  Cl  Cl4  1  0.55620483  0.44379517  0.29245171  1.0
  O  O5  1  0.80833358  0.19166642  0.93219705  1.0
  O  O6  1  1.19166642  -0.19166642  0.06780295  1.0
