# generated using pymatgen
data_K5P2Au
_symmetry_space_group_name_H-M   'P 1'
_cell_length_a   5.69922483
_cell_length_b   5.69922483
_cell_length_c   18.86678115
_cell_angle_alpha   90.00000000
_cell_angle_beta   90.00000000
_cell_angle_gamma   120.00000000
_symmetry_Int_Tables_number   1
_chemical_formula_structural   K5P2Au
_chemical_formula_sum   'K10 P4 Au2'
_cell_volume   530.71336325
_cell_formula_units_Z   2
loop_
 _symmetry_equiv_pos_site_id
 _symmetry_equiv_pos_as_xyz
  1  'x, y, z'
loop_
 _atom_site_type_symbol
 _atom_site_label
 _atom_site_symmetry_multiplicity
 _atom_site_fract_x
 _atom_site_fract_y
 _atom_site_fract_z
 _atom_site_occupancy
  K  K0  1  0.33333333  0.66666667  0.95168004  1.0
  K  K1  1  0.33333333  0.66666667  0.54831996  1.0
  K  K2  1  0.66666667  0.33333333  0.45168004  1.0
  K  K3  1  0.66666667  0.33333333  0.04831996  1.0
  K  K4  1  0.00000000  0.00000000  0.35594677  1.0
  K  K5  1  0.00000000  0.00000000  0.14405323  1.0
  K  K6  1  0.00000000  0.00000000  0.85594677  1.0
  K  K7  1  0.00000000  0.00000000  0.64405323  1.0
  K  K8  1  0.33333333  0.66666667  0.75000000  1.0
  K  K9  1  0.66666667  0.33333333  0.25000000  1.0
  P  P10  1  0.33333333  0.66666667  0.37749896  1.0
  P  P11  1  0.33333333  0.66666667  0.12250104  1.0
  P  P12  1  0.66666667  0.33333333  0.87749896  1.0
  P  P13  1  0.66666667  0.33333333  0.62250104  1.0
  Au  Au14  1  0.33333333  0.66666667  0.25000000  1.0
  Au  Au15  1  0.66666667  0.33333333  0.75000000  1.0
