# generated using pymatgen
data_Tl3(NiS)2
_symmetry_space_group_name_H-M   'P 1'
_cell_length_a   5.71162189
_cell_length_b   5.71162189
_cell_length_c   5.71162189
_cell_angle_alpha   73.40621219
_cell_angle_beta   73.40621219
_cell_angle_gamma   73.40621219
_symmetry_Int_Tables_number   1
_chemical_formula_structural   Tl3(NiS)2
_chemical_formula_sum   'Tl3 Ni2 S2'
_cell_volume   166.85555881
_cell_formula_units_Z   1
loop_
 _symmetry_equiv_pos_site_id
 _symmetry_equiv_pos_as_xyz
  1  'x, y, z'
loop_
 _atom_site_type_symbol
 _atom_site_label
 _atom_site_symmetry_multiplicity
 _atom_site_fract_x
 _atom_site_fract_y
 _atom_site_fract_z
 _atom_site_occupancy
  Tl  Tl0  1  0.50000000  -0.00000000  -0.50000000  1.0
  Tl  Tl1  1  0.50000000  -0.50000000  -0.00000000  1.0
  Tl  Tl2  1  -0.00000000  0.50000000  -0.50000000  1.0
  Ni  Ni3  1  1.50000000  0.50000000  0.50000000  1.0
  Ni  Ni4  1  -0.00000000  -0.00000000  -0.00000000  1.0
  S  S5  1  0.83818876  0.83818876  0.83818876  1.0
  S  S6  1  1.16181124  1.16181124  0.16181124  1.0
