# generated using pymatgen
data_Cs2Li2TiO4
_symmetry_space_group_name_H-M   'P 1'
_cell_length_a   5.93552590
_cell_length_b   5.82212137
_cell_length_c   9.62349733
_cell_angle_alpha   74.75278179
_cell_angle_beta   83.90965018
_cell_angle_gamma   86.30306998
_symmetry_Int_Tables_number   1
_chemical_formula_structural   Cs2Li2TiO4
_chemical_formula_sum   'Cs4 Li4 Ti2 O8'
_cell_volume   318.81347051
_cell_formula_units_Z   2
loop_
 _symmetry_equiv_pos_site_id
 _symmetry_equiv_pos_as_xyz
  1  'x, y, z'
loop_
 _atom_site_type_symbol
 _atom_site_label
 _atom_site_symmetry_multiplicity
 _atom_site_fract_x
 _atom_site_fract_y
 _atom_site_fract_z
 _atom_site_occupancy
  Cs  Cs0  1  -0.85769446  -0.97054597  -0.21129906  1.0
  Cs  Cs1  1  -0.14230554  -0.02945403  -0.78870094  1.0
  Cs  Cs2  1  -0.72979744  -0.28165074  -0.50984706  1.0
  Cs  Cs3  1  -0.27020256  -0.71834926  -0.49015294  1.0
  Li  Li4  1  -0.18167552  -0.43232240  -0.94075532  1.0
  Li  Li5  1  -0.81832448  -0.56767760  -0.05924468  1.0
  Li  Li6  1  -0.58397816  -0.19238467  -0.92464080  1.0
  Li  Li7  1  -0.41602184  -0.80761533  -0.07535920  1.0
  Ti  Ti8  1  -0.68051829  -0.63737495  -0.79294825  1.0
  Ti  Ti9  1  -0.31948171  -0.36262505  -0.20705175  1.0
  O  O10  1  -0.63587688  -0.86630756  -0.89784143  1.0
  O  O11  1  -0.36412312  -0.13369244  -0.10215857  1.0
  O  O12  1  -0.79741418  -0.75815303  -0.60942099  1.0
  O  O13  1  -0.20258582  -0.24184697  -0.39057901  1.0
  O  O14  1  -0.42559085  -0.47672488  -0.79172975  1.0
  O  O15  1  -0.57440915  -0.52327512  -0.20827025  1.0
  O  O16  1  -0.86217218  -0.40086674  -0.90395442  1.0
  O  O17  1  -0.13782782  -0.59913326  -0.09604558  1.0
