# generated using pymatgen
data_Nb2O5
_symmetry_space_group_name_H-M   'P 1'
_cell_length_a   5.58246689
_cell_length_b   5.58246689
_cell_length_c   5.69165139
_cell_angle_alpha   57.59021490
_cell_angle_beta   122.40978510
_cell_angle_gamma   105.26536832
_symmetry_Int_Tables_number   1
_chemical_formula_structural   Nb2O5
_chemical_formula_sum   'Nb2 O5'
_cell_volume   126.34932075
_cell_formula_units_Z   1
loop_
 _symmetry_equiv_pos_site_id
 _symmetry_equiv_pos_as_xyz
  1  'x, y, z'
loop_
 _atom_site_type_symbol
 _atom_site_label
 _atom_site_symmetry_multiplicity
 _atom_site_fract_x
 _atom_site_fract_y
 _atom_site_fract_z
 _atom_site_occupancy
  Nb  Nb0  1  0.45297138  0.00820763  0.81760520  1.0
  Nb  Nb1  1  1.00820763  -0.54702862  0.18239480  1.0
  O  O2  1  1.14185777  0.31959536  0.60461345  1.0
  O  O3  1  1.31959536  0.14185777  0.39538655  1.0
  O  O4  1  0.73081763  0.23029612  1.00022150  1.0
  O  O5  1  1.23029612  -0.26918237  -0.00022150  1.0
  O  O6  1  -0.26974588  -0.26974588  0.00000000  1.0
