# generated using pymatgen
data_MgSi2
_symmetry_space_group_name_H-M   'P 1'
_cell_length_a   5.46115301
_cell_length_b   5.46115301
_cell_length_c   5.46115301
_cell_angle_alpha   107.01875822
_cell_angle_beta   136.68590354
_cell_angle_gamma   88.83745876
_symmetry_Int_Tables_number   1
_chemical_formula_structural   MgSi2
_chemical_formula_sum   'Mg2 Si4'
_cell_volume   102.12603007
_cell_formula_units_Z   2
loop_
 _symmetry_equiv_pos_site_id
 _symmetry_equiv_pos_as_xyz
  1  'x, y, z'
loop_
 _atom_site_type_symbol
 _atom_site_label
 _atom_site_symmetry_multiplicity
 _atom_site_fract_x
 _atom_site_fract_y
 _atom_site_fract_z
 _atom_site_occupancy
  Mg  Mg0  1  1.42189545  1.17189544  1.25000000  1.0
  Mg  Mg1  1  1.57810456  0.82810456  0.75000000  1.0
  Si  Si2  1  0.85027102  0.78936512  1.43909411  1.0
  Si  Si3  1  1.14972898  1.58882309  0.93909411  1.0
  Si  Si4  1  1.14972898  1.21063488  1.56090589  1.0
  Si  Si5  1  0.85027102  1.41117691  1.06090589  1.0
