# generated using pymatgen
data_Tl2TeO3
_symmetry_space_group_name_H-M   'P 1'
_cell_length_a   11.32904134
_cell_length_b   17.07527543
_cell_length_c   5.49706148
_cell_angle_alpha   90.00000000
_cell_angle_beta   90.00000000
_cell_angle_gamma   90.00000000
_symmetry_Int_Tables_number   1
_chemical_formula_structural   Tl2TeO3
_chemical_formula_sum   'Tl16 Te8 O24'
_cell_volume   1063.38731110
_cell_formula_units_Z   8
loop_
 _symmetry_equiv_pos_site_id
 _symmetry_equiv_pos_as_xyz
  1  'x, y, z'
loop_
 _atom_site_type_symbol
 _atom_site_label
 _atom_site_symmetry_multiplicity
 _atom_site_fract_x
 _atom_site_fract_y
 _atom_site_fract_z
 _atom_site_occupancy
  Tl  Tl0  1  0.13885549  0.07816219  0.25165589  1.0
  Tl  Tl1  1  0.86114451  0.92183781  0.25165589  1.0
  Tl  Tl2  1  0.13885549  0.92183781  0.74834411  1.0
  Tl  Tl3  1  0.86114451  0.07816219  0.74834411  1.0
  Tl  Tl4  1  0.36114451  0.42183781  0.74834411  1.0
  Tl  Tl5  1  0.63885549  0.57816219  0.74834411  1.0
  Tl  Tl6  1  0.36114451  0.57816219  0.25165589  1.0
  Tl  Tl7  1  0.63885549  0.42183781  0.25165589  1.0
  Tl  Tl8  1  0.11371028  0.25020963  0.75356114  1.0
  Tl  Tl9  1  0.88628972  0.74979037  0.75356114  1.0
  Tl  Tl10  1  0.11371028  0.74979037  0.24643886  1.0
  Tl  Tl11  1  0.88628972  0.25020963  0.24643886  1.0
  Tl  Tl12  1  0.38628972  0.24979037  0.24643886  1.0
  Tl  Tl13  1  0.61371028  0.75020963  0.24643886  1.0
  Tl  Tl14  1  0.38628972  0.75020963  0.75356114  1.0
  Tl  Tl15  1  0.61371028  0.24979037  0.75356114  1.0
  Te  Te16  1  0.13039637  0.41347356  0.23297603  1.0
  Te  Te17  1  0.86960363  0.58652644  0.23297603  1.0
  Te  Te18  1  0.13039637  0.58652644  0.76702397  1.0
  Te  Te19  1  0.86960363  0.41347356  0.76702397  1.0
  Te  Te20  1  0.36960363  0.08652644  0.76702397  1.0
  Te  Te21  1  0.63039637  0.91347356  0.76702397  1.0
  Te  Te22  1  0.36960363  0.91347356  0.23297603  1.0
  Te  Te23  1  0.63039637  0.08652644  0.23297603  1.0
  O  O24  1  0.20205658  0.06469954  0.71177925  1.0
  O  O25  1  0.79794342  0.93530046  0.71177925  1.0
  O  O26  1  0.20205658  0.93530046  0.28822075  1.0
  O  O27  1  0.79794342  0.06469954  0.28822075  1.0
  O  O28  1  0.29794342  0.43530046  0.28822075  1.0
  O  O29  1  0.70205658  0.56469954  0.28822075  1.0
  O  O30  1  0.29794342  0.56469954  0.71177925  1.0
  O  O31  1  0.70205658  0.43530046  0.71177925  1.0
  O  O32  1  0.37011883  0.19793314  0.69183533  1.0
  O  O33  1  0.62988117  0.80206686  0.69183533  1.0
  O  O34  1  0.37011883  0.80206686  0.30816467  1.0
  O  O35  1  0.62988117  0.19793314  0.30816467  1.0
  O  O36  1  0.12988117  0.30206686  0.30816467  1.0
  O  O37  1  0.87011883  0.69793314  0.30816467  1.0
  O  O38  1  0.12988117  0.69793314  0.69183533  1.0
  O  O39  1  0.87011883  0.30206686  0.69183533  1.0
  O  O40  1  0.36431079  0.09249614  0.12326243  1.0
  O  O41  1  0.63568921  0.90750386  0.12326243  1.0
  O  O42  1  0.36431079  0.90750386  0.87673757  1.0
  O  O43  1  0.63568921  0.09249614  0.87673757  1.0
  O  O44  1  0.13568921  0.40750386  0.87673757  1.0
  O  O45  1  0.86431079  0.59249614  0.87673757  1.0
  O  O46  1  0.13568921  0.59249614  0.12326243  1.0
  O  O47  1  0.86431079  0.40750386  0.12326243  1.0
