# generated using pymatgen
data_SbPdSe
_symmetry_space_group_name_H-M   'P 1'
_cell_length_a   6.41634751
_cell_length_b   6.41634751
_cell_length_c   6.41634751
_cell_angle_alpha   90.00000000
_cell_angle_beta   90.00000000
_cell_angle_gamma   90.00000000
_symmetry_Int_Tables_number   1
_chemical_formula_structural   SbPdSe
_chemical_formula_sum   'Sb4 Pd4 Se4'
_cell_volume   264.15791725
_cell_formula_units_Z   4
loop_
 _symmetry_equiv_pos_site_id
 _symmetry_equiv_pos_as_xyz
  1  'x, y, z'
loop_
 _atom_site_type_symbol
 _atom_site_label
 _atom_site_symmetry_multiplicity
 _atom_site_fract_x
 _atom_site_fract_y
 _atom_site_fract_z
 _atom_site_occupancy
  Sb  Sb0  1  0.12374541  0.62374541  0.87625459  1.0
  Sb  Sb1  1  0.62374541  0.87625459  0.12374541  1.0
  Sb  Sb2  1  0.87625459  0.12374541  0.62374541  1.0
  Sb  Sb3  1  0.37625459  0.37625459  0.37625459  1.0
  Pd  Pd4  1  0.49587058  0.99587058  0.50412942  1.0
  Pd  Pd5  1  0.99587058  0.50412942  0.49587058  1.0
  Pd  Pd6  1  0.50412942  0.49587058  0.99587058  1.0
  Pd  Pd7  1  0.00412942  0.00412942  0.00412942  1.0
  Se  Se8  1  0.88212986  0.38212986  0.11787014  1.0
  Se  Se9  1  0.38212986  0.11787014  0.88212986  1.0
  Se  Se10  1  0.11787014  0.88212986  0.38212986  1.0
  Se  Se11  1  0.61787014  0.61787014  0.61787014  1.0
