# generated using pymatgen
data_Y3CuGeSe7
_symmetry_space_group_name_H-M   'P 1'
_cell_length_a   10.31300702
_cell_length_b   10.31300702
_cell_length_c   6.16095336
_cell_angle_alpha   90.00000000
_cell_angle_beta   90.00000000
_cell_angle_gamma   120.00000000
_symmetry_Int_Tables_number   1
_chemical_formula_structural   Y3CuGeSe7
_chemical_formula_sum   'Y6 Cu2 Ge2 Se14'
_cell_volume   567.47819665
_cell_formula_units_Z   2
loop_
 _symmetry_equiv_pos_site_id
 _symmetry_equiv_pos_as_xyz
  1  'x, y, z'
loop_
 _atom_site_type_symbol
 _atom_site_label
 _atom_site_symmetry_multiplicity
 _atom_site_fract_x
 _atom_site_fract_y
 _atom_site_fract_z
 _atom_site_occupancy
  Y  Y0  1  0.21864218  0.86238106  0.05012222  1.0
  Y  Y1  1  0.86238106  0.64373888  0.55012222  1.0
  Y  Y2  1  0.64373888  0.78135782  0.05012222  1.0
  Y  Y3  1  0.13761894  0.35626112  0.05012222  1.0
  Y  Y4  1  0.78135782  0.13761894  0.55012222  1.0
  Y  Y5  1  0.35626112  0.21864218  0.55012222  1.0
  Cu  Cu6  1  0.00000000  0.00000000  -0.01309325  1.0
  Cu  Cu7  1  0.00000000  0.00000000  0.48690675  1.0
  Ge  Ge8  1  0.33333333  0.66666667  0.63289511  1.0
  Ge  Ge9  1  0.66666667  0.33333333  0.13289511  1.0
  Se  Se10  1  0.89524789  0.73710866  0.00664242  1.0
  Se  Se11  1  0.73710866  0.84186077  0.50664242  1.0
  Se  Se12  1  0.84186077  0.10475211  0.00664242  1.0
  Se  Se13  1  0.26289134  0.15813923  0.00664242  1.0
  Se  Se14  1  0.10475211  0.26289134  0.50664242  1.0
  Se  Se15  1  0.15813923  0.89524789  0.50664242  1.0
  Se  Se16  1  0.57394217  0.48141445  0.29960606  1.0
  Se  Se17  1  0.48141445  0.90747228  0.79960606  1.0
  Se  Se18  1  0.90747228  0.42605783  0.29960606  1.0
  Se  Se19  1  0.51858555  0.09252772  0.29960606  1.0
  Se  Se20  1  0.42605783  0.51858555  0.79960606  1.0
  Se  Se21  1  0.09252772  0.57394217  0.79960606  1.0
  Se  Se22  1  0.33333333  0.66666667  0.24808603  1.0
  Se  Se23  1  0.66666667  0.33333333  0.74808603  1.0
