# generated using pymatgen
data_KSb3O5
_symmetry_space_group_name_H-M   'P 1'
_cell_length_a   7.17756861
_cell_length_b   14.29113094
_cell_length_c   8.27056752
_cell_angle_alpha   90.00000000
_cell_angle_beta   121.15281540
_cell_angle_gamma   90.00000000
_symmetry_Int_Tables_number   1
_chemical_formula_structural   KSb3O5
_chemical_formula_sum   'K4 Sb12 O20'
_cell_volume   726.01695680
_cell_formula_units_Z   4
loop_
 _symmetry_equiv_pos_site_id
 _symmetry_equiv_pos_as_xyz
  1  'x, y, z'
loop_
 _atom_site_type_symbol
 _atom_site_label
 _atom_site_symmetry_multiplicity
 _atom_site_fract_x
 _atom_site_fract_y
 _atom_site_fract_z
 _atom_site_occupancy
  K  K0  1  0.94355883  0.23894656  0.05785321  1.0
  K  K1  1  0.94355883  0.26105344  0.55785321  1.0
  K  K2  1  0.05644117  0.73894656  0.44214679  1.0
  K  K3  1  0.05644117  0.76105344  0.94214679  1.0
  Sb  Sb4  1  0.98673528  0.48322001  0.29359165  1.0
  Sb  Sb5  1  0.98673528  0.01677999  0.79359165  1.0
  Sb  Sb6  1  0.01326472  0.98322001  0.20640835  1.0
  Sb  Sb7  1  0.01326472  0.51677999  0.70640835  1.0
  Sb  Sb8  1  0.49204604  0.35807808  0.07857772  1.0
  Sb  Sb9  1  0.49204604  0.14192192  0.57857772  1.0
  Sb  Sb10  1  0.50795396  0.85807808  0.42142228  1.0
  Sb  Sb11  1  0.50795396  0.64192192  0.92142228  1.0
  Sb  Sb12  1  0.45942020  0.10490469  0.14531679  1.0
  Sb  Sb13  1  0.45942020  0.39509531  0.64531679  1.0
  Sb  Sb14  1  0.54057980  0.60490469  0.35468321  1.0
  Sb  Sb15  1  0.54057980  0.89509531  0.85468321  1.0
  O  O16  1  0.82291529  0.86654319  0.09843729  1.0
  O  O17  1  0.82291529  0.63345681  0.59843729  1.0
  O  O18  1  0.17708471  0.36654319  0.40156271  1.0
  O  O19  1  0.17708471  0.13345681  0.90156271  1.0
  O  O20  1  0.80122582  0.46023302  0.40601773  1.0
  O  O21  1  0.80122582  0.03976698  0.90601773  1.0
  O  O22  1  0.19877418  0.96023302  0.09398227  1.0
  O  O23  1  0.19877418  0.53976698  0.59398227  1.0
  O  O24  1  0.74632035  0.40135883  0.06648039  1.0
  O  O25  1  0.74632035  0.09864117  0.56648039  1.0
  O  O26  1  0.25367965  0.90135883  0.43351961  1.0
  O  O27  1  0.25367965  0.59864117  0.93351961  1.0
  O  O28  1  0.61073782  0.22746189  0.14970961  1.0
  O  O29  1  0.61073782  0.27253811  0.64970961  1.0
  O  O30  1  0.38926218  0.72746189  0.35029039  1.0
  O  O31  1  0.38926218  0.77253811  0.85029039  1.0
  O  O32  1  0.33071899  0.15624175  0.29316406  1.0
  O  O33  1  0.33071899  0.34375825  0.79316406  1.0
  O  O34  1  0.66928101  0.65624175  0.20683594  1.0
  O  O35  1  0.66928101  0.84375825  0.70683594  1.0
