# generated using pymatgen
data_Al2Fe(PO5)2
_symmetry_space_group_name_H-M   'P 1'
_cell_length_a   7.17118878
_cell_length_b   7.19724424
_cell_length_c   7.25053220
_cell_angle_alpha   90.00000000
_cell_angle_beta   118.80388321
_cell_angle_gamma   90.00000000
_symmetry_Int_Tables_number   1
_chemical_formula_structural   Al2Fe(PO5)2
_chemical_formula_sum   'Al4 Fe2 P4 O20'
_cell_volume   327.91948336
_cell_formula_units_Z   2
loop_
 _symmetry_equiv_pos_site_id
 _symmetry_equiv_pos_as_xyz
  1  'x, y, z'
loop_
 _atom_site_type_symbol
 _atom_site_label
 _atom_site_symmetry_multiplicity
 _atom_site_fract_x
 _atom_site_fract_y
 _atom_site_fract_z
 _atom_site_occupancy
  Al  Al0  1  0.74817461  0.72827469  0.72857879  1.0
  Al  Al1  1  0.74817461  0.77172531  0.22857879  1.0
  Al  Al2  1  0.25182539  0.22827469  0.77142121  1.0
  Al  Al3  1  0.25182539  0.27172531  0.27142121  1.0
  Fe  Fe4  1  0.00000000  0.00000000  0.00000000  1.0
  Fe  Fe5  1  -0.00000000  0.50000000  0.50000000  1.0
  P  P6  1  0.25971176  0.87640607  0.50489314  1.0
  P  P7  1  0.25971176  0.62359393  0.00489314  1.0
  P  P8  1  0.74028824  0.37640607  0.99510686  1.0
  P  P9  1  0.74028824  0.12359393  0.49510686  1.0
  O  O10  1  0.21817374  0.00486756  0.31302390  1.0
  O  O11  1  0.21817374  0.49513244  0.81302390  1.0
  O  O12  1  0.78182626  0.50486756  0.18697610  1.0
  O  O13  1  0.78182626  -0.00486756  0.68697610  1.0
  O  O14  1  0.25640102  -0.00469028  0.67729966  1.0
  O  O15  1  0.25640102  0.50469028  0.17729966  1.0
  O  O16  1  0.74359898  0.49530972  0.82270034  1.0
  O  O17  1  0.74359898  0.00469028  0.32270034  1.0
  O  O18  1  0.06573160  0.76081045  0.90616043  1.0
  O  O19  1  0.06573160  0.73918955  0.40616043  1.0
  O  O20  1  0.93426840  0.26081045  0.59383957  1.0
  O  O21  1  0.93426840  0.23918955  0.09383957  1.0
  O  O22  1  0.46094050  0.73895449  0.08034714  1.0
  O  O23  1  0.46094050  0.76104551  0.58034714  1.0
  O  O24  1  0.53905950  0.23895449  0.41965286  1.0
  O  O25  1  0.53905950  0.26104551  0.91965286  1.0
  O  O26  1  0.79620253  0.85233760  1.00429507  1.0
  O  O27  1  0.79620253  0.64766240  0.50429507  1.0
  O  O28  1  0.20379747  0.35233760  0.49570493  1.0
  O  O29  1  0.20379747  0.14766240  -0.00429507  1.0
