# generated using pymatgen
data_ScAl
_symmetry_space_group_name_H-M   'P 1'
_cell_length_a   5.03841117
_cell_length_b   9.90603440
_cell_length_c   3.12988821
_cell_angle_alpha   90.00000000
_cell_angle_beta   90.00000000
_cell_angle_gamma   90.00000000
_symmetry_Int_Tables_number   1
_chemical_formula_structural   ScAl
_chemical_formula_sum   'Sc4 Al4'
_cell_volume   156.21483099
_cell_formula_units_Z   4
loop_
 _symmetry_equiv_pos_site_id
 _symmetry_equiv_pos_as_xyz
  1  'x, y, z'
loop_
 _atom_site_type_symbol
 _atom_site_label
 _atom_site_symmetry_multiplicity
 _atom_site_fract_x
 _atom_site_fract_y
 _atom_site_fract_z
 _atom_site_occupancy
  Sc  Sc0  1  0.31618316  0.63753856  0.00000000  1.0
  Sc  Sc1  1  0.81618316  0.86246144  0.00000000  1.0
  Sc  Sc2  1  0.68381684  0.36246144  0.00000000  1.0
  Sc  Sc3  1  0.18381684  0.13753856  0.00000000  1.0
  Al  Al4  1  0.32285666  0.89407372  0.50000000  1.0
  Al  Al5  1  0.82285666  0.60592628  0.50000000  1.0
  Al  Al6  1  0.67714334  0.10592628  0.50000000  1.0
  Al  Al7  1  0.17714334  0.39407372  0.50000000  1.0
