# generated using pymatgen
data_CaPtPb
_symmetry_space_group_name_H-M   'P 1'
_cell_length_a   7.26442204
_cell_length_b   4.71557177
_cell_length_c   8.45131578
_cell_angle_alpha   90.00000000
_cell_angle_beta   90.00000000
_cell_angle_gamma   90.00000000
_symmetry_Int_Tables_number   1
_chemical_formula_structural   CaPtPb
_chemical_formula_sum   'Ca4 Pt4 Pb4'
_cell_volume   289.50745800
_cell_formula_units_Z   4
loop_
 _symmetry_equiv_pos_site_id
 _symmetry_equiv_pos_as_xyz
  1  'x, y, z'
loop_
 _atom_site_type_symbol
 _atom_site_label
 _atom_site_symmetry_multiplicity
 _atom_site_fract_x
 _atom_site_fract_y
 _atom_site_fract_z
 _atom_site_occupancy
  Ca  Ca0  1  1.02156314  0.75000000  0.68785354  1.0
  Ca  Ca1  1  0.52156314  0.75000000  0.81214646  1.0
  Ca  Ca2  1  -0.02156314  0.25000000  0.31214646  1.0
  Ca  Ca3  1  0.47843686  0.25000000  0.18785354  1.0
  Pt  Pt4  1  0.76658940  0.75000000  0.10725524  1.0
  Pt  Pt5  1  0.26658940  0.75000000  0.39274476  1.0
  Pt  Pt6  1  0.23341060  0.25000000  0.89274476  1.0
  Pt  Pt7  1  0.73341060  0.25000000  0.60725524  1.0
  Pb  Pb8  1  0.66754500  0.75000000  0.42763066  1.0
  Pb  Pb9  1  0.16754500  0.75000000  0.07236934  1.0
  Pb  Pb10  1  0.33245500  0.25000000  0.57236934  1.0
  Pb  Pb11  1  0.83245500  0.25000000  0.92763066  1.0
