# generated using pymatgen
data_MnH4S(NO2)2
_symmetry_space_group_name_H-M   'P 1'
_cell_length_a   6.53843787
_cell_length_b   7.95973341
_cell_length_c   9.15455816
_cell_angle_alpha   90.00000000
_cell_angle_beta   90.00000000
_cell_angle_gamma   90.00000000
_symmetry_Int_Tables_number   1
_chemical_formula_structural   MnH4S(NO2)2
_chemical_formula_sum   'Mn4 H16 S4 N8 O16'
_cell_volume   476.44186020
_cell_formula_units_Z   4
loop_
 _symmetry_equiv_pos_site_id
 _symmetry_equiv_pos_as_xyz
  1  'x, y, z'
loop_
 _atom_site_type_symbol
 _atom_site_label
 _atom_site_symmetry_multiplicity
 _atom_site_fract_x
 _atom_site_fract_y
 _atom_site_fract_z
 _atom_site_occupancy
  Mn  Mn0  1  0.50000000  0.50000000  0.00000000  1.0
  Mn  Mn1  1  0.50000000  -0.00000000  0.50000000  1.0
  Mn  Mn2  1  0.00000000  0.00000000  0.00000000  1.0
  Mn  Mn3  1  -0.00000000  0.50000000  0.50000000  1.0
  H  H4  1  0.38651872  0.86053109  0.00185456  1.0
  H  H5  1  0.38651872  0.63946891  0.50185456  1.0
  H  H6  1  0.88651872  0.36053109  0.99814544  1.0
  H  H7  1  0.88651872  0.13946891  0.49814544  1.0
  H  H8  1  0.61348128  0.36053109  0.49814544  1.0
  H  H9  1  0.61348128  0.13946891  0.99814544  1.0
  H  H10  1  0.11348128  0.86053109  0.50185456  1.0
  H  H11  1  0.11348128  0.63946891  0.00185456  1.0
  H  H12  1  0.31703552  0.87382595  0.17390084  1.0
  H  H13  1  0.31703552  0.62617405  0.67390084  1.0
  H  H14  1  0.81703552  0.37382595  0.82609916  1.0
  H  H15  1  0.81703552  0.12617405  0.32609916  1.0
  H  H16  1  0.68296448  0.37382595  0.32609916  1.0
  H  H17  1  0.68296448  0.12617405  0.82609916  1.0
  H  H18  1  0.18296448  0.87382595  0.67390084  1.0
  H  H19  1  0.18296448  0.62617405  0.17390084  1.0
  S  S20  1  0.25000000  0.25000000  0.24048789  1.0
  S  S21  1  0.25000000  0.25000000  0.74048789  1.0
  S  S22  1  0.75000000  0.75000000  0.75951211  1.0
  S  S23  1  0.75000000  0.75000000  0.25951211  1.0
  N  N24  1  0.26580802  0.84098821  0.07170870  1.0
  N  N25  1  0.26580802  0.65901179  0.57170870  1.0
  N  N26  1  0.76580802  0.34098821  0.92829130  1.0
  N  N27  1  0.76580802  0.15901179  0.42829130  1.0
  N  N28  1  0.73419198  0.34098821  0.42829130  1.0
  N  N29  1  0.73419198  0.15901179  0.92829130  1.0
  N  N30  1  0.23419198  0.84098821  0.57170870  1.0
  N  N31  1  0.23419198  0.65901179  0.07170870  1.0
  O  O32  1  0.20831709  0.40121828  0.33261281  1.0
  O  O33  1  0.20831709  0.09878172  0.83261281  1.0
  O  O34  1  0.70831709  0.90121828  0.66738719  1.0
  O  O35  1  0.70831709  0.59878172  0.16738719  1.0
  O  O36  1  0.79168291  0.90121828  0.16738719  1.0
  O  O37  1  0.79168291  0.59878172  0.66738719  1.0
  O  O38  1  0.29168291  0.40121828  0.83261281  1.0
  O  O39  1  0.29168291  0.09878172  0.33261281  1.0
  O  O40  1  0.43356972  0.28529766  0.14655016  1.0
  O  O41  1  0.43356972  0.21470234  0.64655016  1.0
  O  O42  1  0.93356972  0.78529766  0.85344984  1.0
  O  O43  1  0.93356972  0.71470234  0.35344984  1.0
  O  O44  1  0.56643028  0.78529766  0.35344984  1.0
  O  O45  1  0.56643028  0.71470234  0.85344984  1.0
  O  O46  1  0.06643028  0.28529766  0.64655016  1.0
  O  O47  1  0.06643028  0.21470234  0.14655016  1.0
