# generated using pymatgen
data_NaVP2O7
_symmetry_space_group_name_H-M   'P 1'
_cell_length_a   7.42587015
_cell_length_b   8.06444504
_cell_length_c   9.68100745
_cell_angle_alpha   90.00000000
_cell_angle_beta   111.79906285
_cell_angle_gamma   90.00000000
_symmetry_Int_Tables_number   1
_chemical_formula_structural   NaVP2O7
_chemical_formula_sum   'Na4 V4 P8 O28'
_cell_volume   538.29520511
_cell_formula_units_Z   4
loop_
 _symmetry_equiv_pos_site_id
 _symmetry_equiv_pos_as_xyz
  1  'x, y, z'
loop_
 _atom_site_type_symbol
 _atom_site_label
 _atom_site_symmetry_multiplicity
 _atom_site_fract_x
 _atom_site_fract_y
 _atom_site_fract_z
 _atom_site_occupancy
  Na  Na0  1  0.71180492  0.52929230  0.70706809  1.0
  Na  Na1  1  0.71180492  0.97070770  0.20706809  1.0
  Na  Na2  1  0.28819508  0.02929230  0.79293191  1.0
  Na  Na3  1  0.28819508  0.47070770  0.29293191  1.0
  V  V4  1  0.73900564  0.99096970  0.75072558  1.0
  V  V5  1  0.73900564  0.50903030  0.25072558  1.0
  V  V6  1  0.26099436  0.49096970  0.74927442  1.0
  V  V7  1  0.26099436  0.00903030  0.24927442  1.0
  P  P8  1  0.92817686  0.74287777  0.54633189  1.0
  P  P9  1  0.92817686  0.75712223  0.04633189  1.0
  P  P10  1  0.07182314  0.24287777  0.95366811  1.0
  P  P11  1  0.07182314  0.25712223  0.45366811  1.0
  P  P12  1  0.67243641  0.29007670  0.95277480  1.0
  P  P13  1  0.67243641  0.20992330  0.45277480  1.0
  P  P14  1  0.32756359  0.79007670  0.54722520  1.0
  P  P15  1  0.32756359  0.70992330  0.04722520  1.0
  O  O16  1  0.99150551  0.58444101  0.64184238  1.0
  O  O17  1  0.99150551  0.91555899  0.14184238  1.0
  O  O18  1  0.00849449  0.08444101  0.85815762  1.0
  O  O19  1  0.00849449  0.41555899  0.35815762  1.0
  O  O20  1  0.87601921  0.34682522  0.93726997  1.0
  O  O21  1  0.87601921  0.15317478  0.43726997  1.0
  O  O22  1  0.12398079  0.84682522  0.56273003  1.0
  O  O23  1  0.12398079  0.65317478  0.06273003  1.0
  O  O24  1  0.80988899  0.85910028  0.60182583  1.0
  O  O25  1  0.80988899  0.64089972  0.10182583  1.0
  O  O26  1  0.19011101  0.35910028  0.89817417  1.0
  O  O27  1  0.19011101  0.14089972  0.39817417  1.0
  O  O28  1  0.82091697  0.79172895  0.87905585  1.0
  O  O29  1  0.82091697  0.70827105  0.37905585  1.0
  O  O30  1  0.17908303  0.29172895  0.62094415  1.0
  O  O31  1  0.17908303  0.20827105  0.12094415  1.0
  O  O32  1  0.46889844  0.91213445  0.65655228  1.0
  O  O33  1  0.46889844  0.58786555  0.15655228  1.0
  O  O34  1  0.53110156  0.41213445  0.84344772  1.0
  O  O35  1  0.53110156  0.08786555  0.34344772  1.0
  O  O36  1  0.36414513  0.60809502  0.59830867  1.0
  O  O37  1  0.36414513  0.89190498  0.09830867  1.0
  O  O38  1  0.63585487  0.10809502  0.90169133  1.0
  O  O39  1  0.63585487  0.39190498  0.40169133  1.0
  O  O40  1  0.30928413  0.69246399  0.88451508  1.0
  O  O41  1  0.30928413  0.80753601  0.38451508  1.0
  O  O42  1  0.69071587  0.19246399  0.61548492  1.0
  O  O43  1  0.69071587  0.30753601  0.11548492  1.0
