# generated using pymatgen
data_EuNbO3
_symmetry_space_group_name_H-M   'P 1'
_cell_length_a   5.73106694
_cell_length_b   5.73106694
_cell_length_c   5.73106694
_cell_angle_alpha   120.57868918
_cell_angle_beta   120.57868918
_cell_angle_gamma   89.00056966
_symmetry_Int_Tables_number   1
_chemical_formula_structural   EuNbO3
_chemical_formula_sum   'Eu2 Nb2 O6'
_cell_volume   131.91809325
_cell_formula_units_Z   2
loop_
 _symmetry_equiv_pos_site_id
 _symmetry_equiv_pos_as_xyz
  1  'x, y, z'
loop_
 _atom_site_type_symbol
 _atom_site_label
 _atom_site_symmetry_multiplicity
 _atom_site_fract_x
 _atom_site_fract_y
 _atom_site_fract_z
 _atom_site_occupancy
  Eu  Eu0  1  0.25000000  0.75000000  0.50000000  1.0
  Eu  Eu1  1  0.75000000  0.25000000  0.50000000  1.0
  Nb  Nb2  1  0.50000000  0.50000000  1.00000000  1.0
  Nb  Nb3  1  -0.00000000  -0.00000000  -0.00000000  1.0
  O  O4  1  0.70322935  0.20322935  0.90645871  1.0
  O  O5  1  0.29677065  0.79677065  1.09354129  1.0
  O  O6  1  0.20322935  0.29677065  0.50000000  1.0
  O  O7  1  0.79677065  0.70322935  1.50000000  1.0
  O  O8  1  0.25000000  0.25000000  -0.00000000  1.0
  O  O9  1  0.75000000  0.75000000  1.00000000  1.0
