# generated using pymatgen
data_KZn2(PO4)2
_symmetry_space_group_name_H-M   'P 1'
_cell_length_a   9.65187603
_cell_length_b   8.97106247
_cell_length_c   5.21307908
_cell_angle_alpha   74.61559945
_cell_angle_beta   78.03090170
_cell_angle_gamma   81.84231447
_symmetry_Int_Tables_number   1
_chemical_formula_structural   KZn2(PO4)2
_chemical_formula_sum   'K2 Zn4 P4 O16'
_cell_volume   423.94191055
_cell_formula_units_Z   2
loop_
 _symmetry_equiv_pos_site_id
 _symmetry_equiv_pos_as_xyz
  1  'x, y, z'
loop_
 _atom_site_type_symbol
 _atom_site_label
 _atom_site_symmetry_multiplicity
 _atom_site_fract_x
 _atom_site_fract_y
 _atom_site_fract_z
 _atom_site_occupancy
  O  O0  1  -0.65031716  0.38638820  0.57775390  1.0
  O  O1  1  -0.34968284  0.61361180  -0.57775390  1.0
  O  O2  1  -0.46980903  0.78299089  0.03973839  1.0
  O  O3  1  -0.53019097  0.21700911  -0.03973839  1.0
  O  O4  1  -0.38253325  0.89989685  -0.62600300  1.0
  O  O5  1  -0.61746675  0.10010315  0.62600300  1.0
  O  O6  1  -0.59648467  0.75172659  -0.46208793  1.0
  O  O7  1  -0.40351533  0.24827341  0.46208793  1.0
  O  O8  1  -0.88865396  0.66277571  -0.53932101  1.0
  O  O9  1  -0.11134604  0.33722429  0.53932101  1.0
  O  O10  1  -0.03383819  0.75255081  0.08897375  1.0
  O  O11  1  -0.96616181  0.24744919  -0.08897375  1.0
  O  O12  1  -0.80196956  0.85572440  0.01667237  1.0
  O  O13  1  -0.19803044  0.14427560  -0.01667237  1.0
  O  O14  1  -0.80675473  0.56736470  0.03267530  1.0
  O  O15  1  -0.19324527  0.43263530  -0.03267530  1.0
  Zn  Zn16  1  -0.60783452  0.88230814  -0.18907059  1.0
  Zn  Zn17  1  -0.39216548  0.11769186  0.18907059  1.0
  Zn  Zn18  1  -0.72770707  0.58315375  -0.34968012  1.0
  Zn  Zn19  1  -0.27229293  0.41684625  0.34968012  1.0
  P  P20  1  -0.55155368  0.23901314  0.66631906  1.0
  P  P21  1  -0.44844632  0.76098686  -0.66631906  1.0
  P  P22  1  -0.88101756  0.70695209  0.14978683  1.0
  P  P23  1  -0.11898244  0.29304791  -0.14978683  1.0
  K  K24  1  -0.82488148  0.25773120  0.31717273  1.0
  K  K25  1  -0.17511852  0.74226880  -0.31717273  1.0
