# generated using pymatgen
data_Sc6C2I11
_symmetry_space_group_name_H-M   'P 1'
_cell_length_a   14.87099832
_cell_length_b   10.78772701
_cell_length_c   9.27190835
_cell_angle_alpha   109.34950522
_cell_angle_beta   104.46490492
_cell_angle_gamma   93.57446759
_symmetry_Int_Tables_number   1
_chemical_formula_structural   Sc6C2I11
_chemical_formula_sum   'Sc12 C4 I22'
_cell_volume   1341.68361004
_cell_formula_units_Z   2
loop_
 _symmetry_equiv_pos_site_id
 _symmetry_equiv_pos_as_xyz
  1  'x, y, z'
loop_
 _atom_site_type_symbol
 _atom_site_label
 _atom_site_symmetry_multiplicity
 _atom_site_fract_x
 _atom_site_fract_y
 _atom_site_fract_z
 _atom_site_occupancy
  Sc  Sc0  1  0.11810793  0.98503970  -0.60657308  1.0
  Sc  Sc1  1  0.88189207  0.01496030  -0.39342692  1.0
  Sc  Sc2  1  0.79753456  0.84390862  -0.82874363  1.0
  Sc  Sc3  1  0.20246544  0.15609138  -0.17125637  1.0
  Sc  Sc4  1  0.88544650  0.67011518  -0.63059332  1.0
  Sc  Sc5  1  0.11455350  0.32988482  -0.36940668  1.0
  Sc  Sc6  1  0.65164809  0.90310958  -0.63013678  1.0
  Sc  Sc7  1  0.34835191  0.09689042  -0.36986322  1.0
  Sc  Sc8  1  0.73581813  0.72266017  -0.43701918  1.0
  Sc  Sc9  1  0.26418187  0.27733983  -0.56298082  1.0
  Sc  Sc10  1  0.65158260  0.55885326  -0.85776748  1.0
  Sc  Sc11  1  0.34841740  0.44114674  -0.14223252  1.0
  C  C12  1  0.73907952  0.73022074  -0.68882084  1.0
  C  C13  1  0.26092048  0.26977926  -0.31117916  1.0
  C  C14  1  0.79992218  0.84462943  -0.57090627  1.0
  C  C15  1  0.20007782  0.15537057  -0.42909373  1.0
  I  I16  1  0.85134170  0.94191995  -0.13470122  1.0
  I  I17  1  0.14865830  0.05808005  -0.86529878  1.0
  I  I18  1  0.89073528  0.57433643  -0.38035165  1.0
  I  I19  1  0.10926472  0.42566357  -0.61964835  1.0
  I  I20  1  0.57492955  0.85365990  -0.39917450  1.0
  I  I21  1  0.42507045  0.14634010  -0.60082550  1.0
  I  I22  1  0.97294718  0.73318180  -0.85063541  1.0
  I  I23  1  0.02705282  0.26681820  -0.14936459  1.0
  I  I24  1  0.94126763  0.11442420  -0.62964451  1.0
  I  I25  1  0.05873237  0.88557580  -0.37035549  1.0
  I  I26  1  0.26427676  0.82841127  -0.60467157  1.0
  I  I27  1  0.73572324  0.17158873  -0.39532843  1.0
  I  I28  1  0.61004301  0.47122823  -0.61775838  1.0
  I  I29  1  0.38995699  0.52877177  -0.38224162  1.0
  I  I30  1  0.48539662  0.69758614  -0.88304305  1.0
  I  I31  1  0.51460338  0.30241386  -0.11695695  1.0
  I  I32  1  0.80902359  0.40931352  -0.86682584  1.0
  I  I33  1  0.19097641  0.59068648  -0.13317416  1.0
  I  I34  1  0.30686141  0.36903376  -0.87831278  1.0
  I  I35  1  0.69313859  0.63096624  -0.12168722  1.0
  I  I36  1  0.65981834  0.01008180  -0.87033343  1.0
  I  I37  1  0.34018166  0.98991820  -0.12966657  1.0
