# generated using pymatgen
data_RbVSeO5
_symmetry_space_group_name_H-M   'P 1'
_cell_length_a   7.94879666
_cell_length_b   7.75424877
_cell_length_c   9.50460374
_cell_angle_alpha   90.00000000
_cell_angle_beta   94.40301911
_cell_angle_gamma   90.00000000
_symmetry_Int_Tables_number   1
_chemical_formula_structural   RbVSeO5
_chemical_formula_sum   'Rb4 V4 Se4 O20'
_cell_volume   584.10578467
_cell_formula_units_Z   4
loop_
 _symmetry_equiv_pos_site_id
 _symmetry_equiv_pos_as_xyz
  1  'x, y, z'
loop_
 _atom_site_type_symbol
 _atom_site_label
 _atom_site_symmetry_multiplicity
 _atom_site_fract_x
 _atom_site_fract_y
 _atom_site_fract_z
 _atom_site_occupancy
  Rb  Rb0  1  0.91316161  0.51301283  0.85898235  1.0
  Rb  Rb1  1  0.08683839  0.01301283  0.14101765  1.0
  Rb  Rb2  1  0.61302826  0.73439754  0.39568849  1.0
  Rb  Rb3  1  0.38697174  0.23439754  0.60431151  1.0
  V  V4  1  0.92497289  0.05208851  0.73854800  1.0
  V  V5  1  0.07502711  0.55208851  0.26145200  1.0
  V  V6  1  0.42617626  0.67614837  0.75956071  1.0
  V  V7  1  0.57382374  0.17614837  0.24043929  1.0
  Se  Se8  1  0.88586113  0.25282730  0.45136365  1.0
  Se  Se9  1  0.11413887  0.75282730  0.54863635  1.0
  Se  Se10  1  0.62249513  0.96852748  0.93012087  1.0
  Se  Se11  1  0.37750487  0.46852748  0.06987913  1.0
  O  O12  1  0.97453952  0.81311354  0.67006509  1.0
  O  O13  1  0.02546048  0.31311354  0.32993491  1.0
  O  O14  1  0.81802080  0.90572274  0.87675918  1.0
  O  O15  1  0.18197920  0.40572274  0.12324082  1.0
  O  O16  1  0.76019553  0.18227112  0.71053498  1.0
  O  O17  1  0.23980447  0.68227112  0.28946502  1.0
  O  O18  1  0.93330698  0.64563531  0.15454530  1.0
  O  O19  1  0.06669302  0.14563531  0.84545470  1.0
  O  O20  1  0.97924066  0.62127891  0.44380046  1.0
  O  O21  1  0.02075934  0.12127891  0.55619954  1.0
  O  O22  1  0.57660731  0.57143712  0.68913198  1.0
  O  O23  1  0.42339269  0.07143712  0.31086802  1.0
  O  O24  1  0.52822188  0.76504613  0.94034398  1.0
  O  O25  1  0.47177812  0.26504613  0.05965602  1.0
  O  O26  1  0.41206978  0.86987129  0.68425208  1.0
  O  O27  1  0.58793022  0.36987129  0.31574792  1.0
  O  O28  1  0.32105445  0.50617757  0.89491463  1.0
  O  O29  1  0.67894555  0.00617757  0.10508537  1.0
  O  O30  1  0.22253517  0.59164423  0.64775179  1.0
  O  O31  1  0.77746483  0.09164423  0.35224821  1.0
