# generated using pymatgen
data_GdZn2
_symmetry_space_group_name_H-M   'P 1'
_cell_length_a   5.70164340
_cell_length_b   5.70164340
_cell_length_c   5.70164340
_cell_angle_alpha   133.34581877
_cell_angle_beta   101.76157417
_cell_angle_gamma   96.30150120
_symmetry_Int_Tables_number   1
_chemical_formula_structural   GdZn2
_chemical_formula_sum   'Gd2 Zn4'
_cell_volume   123.58246861
_cell_formula_units_Z   2
loop_
 _symmetry_equiv_pos_site_id
 _symmetry_equiv_pos_as_xyz
  1  'x, y, z'
loop_
 _atom_site_type_symbol
 _atom_site_label
 _atom_site_symmetry_multiplicity
 _atom_site_fract_x
 _atom_site_fract_y
 _atom_site_fract_z
 _atom_site_occupancy
  Gd  Gd0  1  1.71670752  1.46670752  1.25000000  1.0
  Gd  Gd1  1  0.28329248  0.53329248  0.75000000  1.0
  Zn  Zn2  1  1.28749638  0.83442712  1.45306926  1.0
  Zn  Zn3  1  1.11864214  0.16557288  0.95306926  1.0
  Zn  Zn4  1  0.71250362  1.16557288  0.54693074  1.0
  Zn  Zn5  1  0.88135786  0.83442712  0.04693074  1.0
