# generated using pymatgen
data_ZrCl4
_symmetry_space_group_name_H-M   'P 1'
_cell_length_a   12.08146694
_cell_length_b   12.08146694
_cell_length_c   12.08146694
_cell_angle_alpha   90.00000000
_cell_angle_beta   90.00000000
_cell_angle_gamma   90.00000000
_symmetry_Int_Tables_number   1
_chemical_formula_structural   ZrCl4
_chemical_formula_sum   'Zr8 Cl32'
_cell_volume   1763.43318637
_cell_formula_units_Z   8
loop_
 _symmetry_equiv_pos_site_id
 _symmetry_equiv_pos_as_xyz
  1  'x, y, z'
loop_
 _atom_site_type_symbol
 _atom_site_label
 _atom_site_symmetry_multiplicity
 _atom_site_fract_x
 _atom_site_fract_y
 _atom_site_fract_z
 _atom_site_occupancy
  Zr  Zr0  1  0.13671924  0.13671924  0.13671924  1.0
  Zr  Zr1  1  0.36328076  0.86328076  0.63671924  1.0
  Zr  Zr2  1  0.63671924  0.36328076  0.86328076  1.0
  Zr  Zr3  1  0.86328076  0.63671924  0.36328076  1.0
  Zr  Zr4  1  0.86328076  0.86328076  0.86328076  1.0
  Zr  Zr5  1  0.63671924  0.13671924  0.36328076  1.0
  Zr  Zr6  1  0.36328076  0.63671924  0.13671924  1.0
  Zr  Zr7  1  0.13671924  0.36328076  0.63671924  1.0
  Cl  Cl8  1  0.24812196  0.24812196  0.24812196  1.0
  Cl  Cl9  1  0.25187804  0.75187804  0.74812196  1.0
  Cl  Cl10  1  0.74812196  0.25187804  0.75187804  1.0
  Cl  Cl11  1  0.75187804  0.74812196  0.25187804  1.0
  Cl  Cl12  1  0.75187804  0.75187804  0.75187804  1.0
  Cl  Cl13  1  0.74812196  0.24812196  0.25187804  1.0
  Cl  Cl14  1  0.25187804  0.74812196  0.24812196  1.0
  Cl  Cl15  1  0.24812196  0.25187804  0.74812196  1.0
  Cl  Cl16  1  0.02889176  0.02079197  0.24683671  1.0
  Cl  Cl17  1  0.24683671  0.02889176  0.02079197  1.0
  Cl  Cl18  1  0.02079197  0.24683671  0.02889176  1.0
  Cl  Cl19  1  0.47920803  0.75316329  0.52889176  1.0
  Cl  Cl20  1  0.74683671  0.47110824  0.97920803  1.0
  Cl  Cl21  1  0.97920803  0.74683671  0.47110824  1.0
  Cl  Cl22  1  0.25316329  0.97110824  0.52079197  1.0
  Cl  Cl23  1  0.75316329  0.52889176  0.47920803  1.0
  Cl  Cl24  1  0.52079197  0.25316329  0.97110824  1.0
  Cl  Cl25  1  0.52889176  0.47920803  0.75316329  1.0
  Cl  Cl26  1  0.97110824  0.52079197  0.25316329  1.0
  Cl  Cl27  1  0.47110824  0.97920803  0.74683671  1.0
  Cl  Cl28  1  0.97110824  0.97920803  0.75316329  1.0
  Cl  Cl29  1  0.75316329  0.97110824  0.97920803  1.0
  Cl  Cl30  1  0.97920803  0.75316329  0.97110824  1.0
  Cl  Cl31  1  0.52079197  0.24683671  0.47110824  1.0
  Cl  Cl32  1  0.25316329  0.52889176  0.02079197  1.0
  Cl  Cl33  1  0.02079197  0.25316329  0.52889176  1.0
  Cl  Cl34  1  0.74683671  0.02889176  0.47920803  1.0
  Cl  Cl35  1  0.24683671  0.47110824  0.52079197  1.0
  Cl  Cl36  1  0.47920803  0.74683671  0.02889176  1.0
  Cl  Cl37  1  0.47110824  0.52079197  0.24683671  1.0
  Cl  Cl38  1  0.02889176  0.47920803  0.74683671  1.0
  Cl  Cl39  1  0.52889176  0.02079197  0.25316329  1.0
