# generated using pymatgen
data_SiAg8(SO2)2
_symmetry_space_group_name_H-M   'P 1'
_cell_length_a   11.08947466
_cell_length_b   11.08947466
_cell_length_c   11.08947466
_cell_angle_alpha   140.77123396
_cell_angle_beta   140.77123396
_cell_angle_gamma   56.68414069
_symmetry_Int_Tables_number   1
_chemical_formula_structural   SiAg8(SO2)2
_chemical_formula_sum   'Si2 Ag16 S4 O8'
_cell_volume   541.01710364
_cell_formula_units_Z   2
loop_
 _symmetry_equiv_pos_site_id
 _symmetry_equiv_pos_as_xyz
  1  'x, y, z'
loop_
 _atom_site_type_symbol
 _atom_site_label
 _atom_site_symmetry_multiplicity
 _atom_site_fract_x
 _atom_site_fract_y
 _atom_site_fract_z
 _atom_site_occupancy
  Si  Si0  1  0.00000000  0.00000000  0.00000000  1.0
  Si  Si1  1  0.75000000  1.25000000  0.50000000  1.0
  Ag  Ag2  1  0.69892865  0.69892865  1.39785729  1.0
  Ag  Ag3  1  0.30107135  0.69892865  1.00000000  1.0
  Ag  Ag4  1  1.44892865  0.94892865  0.89785729  1.0
  Ag  Ag5  1  1.05107135  0.94892865  0.50000000  1.0
  Ag  Ag6  1  0.69892865  0.30107135  1.00000000  1.0
  Ag  Ag7  1  0.30107135  0.30107135  0.60214271  1.0
  Ag  Ag8  1  1.44892865  1.55107135  1.50000000  1.0
  Ag  Ag9  1  1.05107135  1.55107135  1.10214271  1.0
  Ag  Ag10  1  1.39950749  1.39950749  1.00000000  1.0
  Ag  Ag11  1  1.14950749  0.64950749  0.50000000  1.0
  Ag  Ag12  1  1.35049251  0.85049251  0.50000000  1.0
  Ag  Ag13  1  0.60049251  0.60049251  1.00000000  1.0
  Ag  Ag14  1  1.15040878  1.15040878  1.00000000  1.0
  Ag  Ag15  1  0.90040878  1.40040878  0.50000000  1.0
  Ag  Ag16  1  0.59959122  0.09959122  0.50000000  1.0
  Ag  Ag17  1  0.84959122  0.84959122  0.00000000  1.0
  S  S18  1  1.27033280  1.27033280  1.00000000  1.0
  S  S19  1  0.02033280  0.52033280  0.50000000  1.0
  S  S20  1  1.47966720  0.97966720  0.50000000  1.0
  S  S21  1  0.72966720  0.72966720  -0.00000000  1.0
  O  O22  1  0.05509951  0.88585568  0.83075617  1.0
  O  O23  1  1.63585568  1.30509951  1.33075617  1.0
  O  O24  1  0.97434333  1.30509951  0.66924383  1.0
  O  O25  1  0.05509951  0.22434333  0.16924383  1.0
  O  O26  1  0.69490049  1.36414432  0.66924383  1.0
  O  O27  1  1.11414432  0.94490049  0.16924383  1.0
  O  O28  1  1.77565667  0.94490049  0.83075617  1.0
  O  O29  1  0.69490049  1.02565667  0.33075617  1.0
