# generated using pymatgen
data_IF7
_symmetry_space_group_name_H-M   'P 1'
_cell_length_a   5.80297242
_cell_length_b   5.80297242
_cell_length_c   9.60301077
_cell_angle_alpha   90.00000000
_cell_angle_beta   90.00000000
_cell_angle_gamma   69.72767480
_symmetry_Int_Tables_number   1
_chemical_formula_structural   IF7
_chemical_formula_sum   'I2 F14'
_cell_volume   303.34537637
_cell_formula_units_Z   2
loop_
 _symmetry_equiv_pos_site_id
 _symmetry_equiv_pos_as_xyz
  1  'x, y, z'
loop_
 _atom_site_type_symbol
 _atom_site_label
 _atom_site_symmetry_multiplicity
 _atom_site_fract_x
 _atom_site_fract_y
 _atom_site_fract_z
 _atom_site_occupancy
  I  I0  1  0.49798209  0.50201791  0.50000000  1.0
  I  I1  1  -0.00201791  0.00201791  0.00000000  1.0
  F  F2  1  0.34650143  0.82860399  0.41695090  1.0
  F  F3  1  -0.32860399  1.15349857  0.91695090  1.0
  F  F4  1  0.17139601  0.65349857  0.58304910  1.0
  F  F5  1  -0.15349857  1.32860399  0.08304910  1.0
  F  F6  1  -0.62412729  1.37771437  0.34385224  1.0
  F  F7  1  -0.87771437  1.12412729  0.84385224  1.0
  F  F8  1  -0.37771437  1.62412729  0.65614776  1.0
  F  F9  1  -0.12412729  1.87771437  0.15614776  1.0
  F  F10  1  -0.75298083  1.06996852  0.11440654  1.0
  F  F11  1  -0.56996852  1.25298083  0.61440654  1.0
  F  F12  1  -0.06996852  1.75298083  0.88559346  1.0
  F  F13  1  -0.25298083  1.56996852  0.38559346  1.0
  F  F14  1  -0.20658853  1.20658853  0.50000000  1.0
  F  F15  1  0.29341147  0.70658853  0.00000000  1.0
