# generated using pymatgen
data_YSiRh
_symmetry_space_group_name_H-M   'P 1'
_cell_length_a   6.90154480
_cell_length_b   4.24351290
_cell_length_c   7.42709320
_cell_angle_alpha   90.00000000
_cell_angle_beta   90.00000000
_cell_angle_gamma   90.00000000
_symmetry_Int_Tables_number   1
_chemical_formula_structural   YSiRh
_chemical_formula_sum   'Y4 Si4 Rh4'
_cell_volume   217.51575124
_cell_formula_units_Z   4
loop_
 _symmetry_equiv_pos_site_id
 _symmetry_equiv_pos_as_xyz
  1  'x, y, z'
loop_
 _atom_site_type_symbol
 _atom_site_label
 _atom_site_symmetry_multiplicity
 _atom_site_fract_x
 _atom_site_fract_y
 _atom_site_fract_z
 _atom_site_occupancy
  Y  Y0  1  0.99991231  0.75000000  0.68996367  1.0
  Y  Y1  1  0.49991231  0.75000000  0.81003633  1.0
  Y  Y2  1  0.00008769  0.25000000  0.31003633  1.0
  Y  Y3  1  0.50008769  0.25000000  0.18996367  1.0
  Si  Si4  1  0.70354038  0.75000000  0.39638480  1.0
  Si  Si5  1  0.20354038  0.75000000  0.10361520  1.0
  Si  Si6  1  0.29645962  0.25000000  0.60361520  1.0
  Si  Si7  1  0.79645962  0.25000000  0.89638480  1.0
  Rh  Rh8  1  0.84657890  0.75000000  0.06897578  1.0
  Rh  Rh9  1  0.34657890  0.75000000  0.43102422  1.0
  Rh  Rh10  1  0.15342110  0.25000000  0.93102422  1.0
  Rh  Rh11  1  0.65342110  0.25000000  0.56897578  1.0
