# generated using pymatgen
data_FeCu2PbSe4
_symmetry_space_group_name_H-M   'P 1'
_cell_length_a   8.33841942
_cell_length_b   6.94395023
_cell_length_c   6.77945365
_cell_angle_alpha   90.00000000
_cell_angle_beta   90.00000000
_cell_angle_gamma   90.00000000
_symmetry_Int_Tables_number   1
_chemical_formula_structural   FeCu2PbSe4
_chemical_formula_sum   'Fe2 Cu4 Pb2 Se8'
_cell_volume   392.54100602
_cell_formula_units_Z   2
loop_
 _symmetry_equiv_pos_site_id
 _symmetry_equiv_pos_as_xyz
  1  'x, y, z'
loop_
 _atom_site_type_symbol
 _atom_site_label
 _atom_site_symmetry_multiplicity
 _atom_site_fract_x
 _atom_site_fract_y
 _atom_site_fract_z
 _atom_site_occupancy
  Fe  Fe0  1  0.50000000  0.68490590  0.01006366  1.0
  Fe  Fe1  1  0.00000000  0.31509410  0.51006366  1.0
  Cu  Cu2  1  0.25211874  0.16954718  0.00367960  1.0
  Cu  Cu3  1  0.75211874  0.83045282  0.50367960  1.0
  Cu  Cu4  1  0.74788126  0.16954718  0.00367960  1.0
  Cu  Cu5  1  0.24788126  0.83045282  0.50367960  1.0
  Pb  Pb6  1  0.50000000  0.33349438  0.51204256  1.0
  Pb  Pb7  1  0.00000000  0.66650562  0.01204256  1.0
  Se  Se8  1  0.21597794  0.14922705  0.35945447  1.0
  Se  Se9  1  0.71597794  0.85077295  0.85945447  1.0
  Se  Se10  1  0.78402206  0.14922705  0.35945447  1.0
  Se  Se11  1  0.28402206  0.85077295  0.85945447  1.0
  Se  Se12  1  0.50000000  0.34846182  0.94218367  1.0
  Se  Se13  1  0.00000000  0.65153818  0.44218367  1.0
  Se  Se14  1  0.50000000  0.71896320  0.36194198  1.0
  Se  Se15  1  0.00000000  0.28103680  0.86194198  1.0
