# generated using pymatgen
data_Ag4Ge2SO4
_symmetry_space_group_name_H-M   'P 1'
_cell_length_a   13.98750716
_cell_length_b   13.98750716
_cell_length_c   13.98750716
_cell_angle_alpha   149.08200747
_cell_angle_beta   149.08200747
_cell_angle_gamma   44.29060931
_symmetry_Int_Tables_number   1
_chemical_formula_structural   Ag4Ge2SO4
_chemical_formula_sum   'Ag16 Ge8 S4 O16'
_cell_volume   720.36614041
_cell_formula_units_Z   4
loop_
 _symmetry_equiv_pos_site_id
 _symmetry_equiv_pos_as_xyz
  1  'x, y, z'
loop_
 _atom_site_type_symbol
 _atom_site_label
 _atom_site_symmetry_multiplicity
 _atom_site_fract_x
 _atom_site_fract_y
 _atom_site_fract_z
 _atom_site_occupancy
  Ag  Ag0  1  0.12497658  0.88290144  0.75792486  1.0
  Ag  Ag1  1  0.62502342  0.88294828  1.25792486  1.0
  Ag  Ag2  1  0.63294828  -0.12497658  0.75792486  1.0
  Ag  Ag3  1  0.63290144  0.37497658  0.25792486  1.0
  Ag  Ag4  1  0.11709856  -0.12497658  0.24207514  1.0
  Ag  Ag5  1  1.11705172  0.37497658  0.74207514  1.0
  Ag  Ag6  1  0.12497658  0.36705172  0.24207514  1.0
  Ag  Ag7  1  0.62502342  0.36709856  0.74207514  1.0
  Ag  Ag8  1  0.95499368  0.22057157  0.73442212  1.0
  Ag  Ag9  1  0.26385055  0.02942843  0.23442212  1.0
  Ag  Ag10  1  0.48614945  0.22057157  0.26557788  1.0
  Ag  Ag11  1  0.79500632  0.02942843  0.76557788  1.0
  Ag  Ag12  1  0.77942843  0.51385055  0.73442212  1.0
  Ag  Ag13  1  0.97057157  1.20499368  1.23442212  1.0
  Ag  Ag14  1  0.77942843  1.04500632  1.26557788  1.0
  Ag  Ag15  1  0.97057157  0.73614945  0.76557788  1.0
  Ge  Ge16  1  1.34951576  0.54562130  0.80389446  1.0
  Ge  Ge17  1  1.00827316  0.70437870  1.30389446  1.0
  Ge  Ge18  1  0.74172684  0.54562130  0.19610554  1.0
  Ge  Ge19  1  0.40048424  0.70437870  0.69610554  1.0
  Ge  Ge20  1  0.45437870  0.25827316  0.80389446  1.0
  Ge  Ge21  1  0.29562130  0.59951576  0.30389446  1.0
  Ge  Ge22  1  0.45437870  0.65048424  1.19610554  1.0
  Ge  Ge23  1  0.29562130  0.99172684  0.69610554  1.0
  S  S24  1  0.37500000  0.12500000  0.25000000  1.0
  S  S25  1  0.87500000  0.12500000  0.75000000  1.0
  S  S26  1  0.87500000  1.12500000  1.25000000  1.0
  S  S27  1  0.87500000  0.62500000  0.75000000  1.0
  O  O28  1  1.26599029  0.47240357  0.79358672  1.0
  O  O29  1  1.07118315  0.77759643  1.29358672  1.0
  O  O30  1  0.67881685  0.47240357  0.20641328  1.0
  O  O31  1  0.48400971  0.77759643  0.70641328  1.0
  O  O32  1  0.52759643  0.32118315  0.79358672  1.0
  O  O33  1  0.22240357  0.51599029  0.29358672  1.0
  O  O34  1  0.52759643  0.73400971  1.20641328  1.0
  O  O35  1  0.22240357  0.92881685  0.70641328  1.0
  O  O36  1  0.34942959  -0.04644844  0.39587803  1.0
  O  O37  1  1.19232647  0.29644844  0.89587803  1.0
  O  O38  1  0.55767353  -0.04644844  0.60412197  1.0
  O  O39  1  0.40057041  0.29644844  0.10412197  1.0
  O  O40  1  1.04644844  1.44232647  1.39587803  1.0
  O  O41  1  0.70355156  0.59942959  0.89587803  1.0
  O  O42  1  1.04644844  0.65057041  0.60412197  1.0
  O  O43  1  0.70355156  0.80767353  1.10412197  1.0
