# generated using pymatgen
data_Sc6Pb5
_symmetry_space_group_name_H-M   'P 1'
_cell_length_a   11.15349692
_cell_length_b   11.15349692
_cell_length_c   11.15349692
_cell_angle_alpha   132.37572476
_cell_angle_beta   58.84687131
_cell_angle_gamma   147.49426297
_symmetry_Int_Tables_number   1
_chemical_formula_structural   Sc6Pb5
_chemical_formula_sum   'Sc12 Pb10'
_cell_volume   546.24303497
_cell_formula_units_Z   2
loop_
 _symmetry_equiv_pos_site_id
 _symmetry_equiv_pos_as_xyz
  1  'x, y, z'
loop_
 _atom_site_type_symbol
 _atom_site_label
 _atom_site_symmetry_multiplicity
 _atom_site_fract_x
 _atom_site_fract_y
 _atom_site_fract_z
 _atom_site_occupancy
  Sc  Sc0  1  0.35758258  0.38912843  0.74671101  1.0
  Sc  Sc1  1  0.14241742  0.88912843  1.03154586  1.0
  Sc  Sc2  1  0.85758258  1.11087157  0.96845414  1.0
  Sc  Sc3  1  0.64241742  0.61087157  0.25328899  1.0
  Sc  Sc4  1  0.94494592  1.25000000  0.69494592  1.0
  Sc  Sc5  1  0.44494592  0.75000000  0.69494592  1.0
  Sc  Sc6  1  1.05505408  0.75000000  0.30505408  1.0
  Sc  Sc7  1  0.55505408  0.25000000  0.30505408  1.0
  Sc  Sc8  1  0.06094549  0.26449226  0.32543776  1.0
  Sc  Sc9  1  0.43905451  0.76449226  1.20354677  1.0
  Sc  Sc10  1  0.56094549  1.23550774  0.79645323  1.0
  Sc  Sc11  1  0.93905451  0.73550774  0.67456224  1.0
  Pb  Pb12  1  0.20737989  0.19747642  0.40485631  1.0
  Pb  Pb13  1  0.29262011  0.69747642  0.99009653  1.0
  Pb  Pb14  1  0.70737989  1.30252358  1.00990347  1.0
  Pb  Pb15  1  0.79262011  0.80252358  0.59514369  1.0
  Pb  Pb16  1  0.25000000  0.25000000  0.00000000  1.0
  Pb  Pb17  1  0.75000000  0.75000000  -0.00000000  1.0
  Pb  Pb18  1  0.42557776  0.10113595  0.52671371  1.0
  Pb  Pb19  1  0.07442224  0.60113595  0.67555819  1.0
  Pb  Pb20  1  0.92557776  1.39886405  1.32444181  1.0
  Pb  Pb21  1  0.57442224  0.89886405  0.47328629  1.0
