# generated using pymatgen
data_BaMn2Si2O7
_symmetry_space_group_name_H-M   'P 1'
_cell_length_a   7.54438492
_cell_length_b   7.54438492
_cell_length_c   14.06551905
_cell_angle_alpha   89.97508247
_cell_angle_beta   90.02491753
_cell_angle_gamma   58.88840868
_symmetry_Int_Tables_number   1
_chemical_formula_structural   BaMn2Si2O7
_chemical_formula_sum   'Ba4 Mn8 Si8 O28'
_cell_volume   685.42431523
_cell_formula_units_Z   4
loop_
 _symmetry_equiv_pos_site_id
 _symmetry_equiv_pos_as_xyz
  1  'x, y, z'
loop_
 _atom_site_type_symbol
 _atom_site_label
 _atom_site_symmetry_multiplicity
 _atom_site_fract_x
 _atom_site_fract_y
 _atom_site_fract_z
 _atom_site_occupancy
  Ba  Ba0  1  0.31252889  -0.28244374  0.87787985  1.0
  Ba  Ba1  1  1.28244374  -0.31252889  0.37787985  1.0
  Ba  Ba2  1  0.71755626  -0.68747111  0.62212015  1.0
  Ba  Ba3  1  0.68747111  0.28244374  0.12212015  1.0
  Si  Si4  1  0.66486639  0.09409522  0.86638640  1.0
  Si  Si5  1  0.90590478  -0.66486639  0.36638640  1.0
  Si  Si6  1  1.09409522  -0.33513361  0.63361360  1.0
  Si  Si7  1  0.33513361  -0.09409522  0.13361360  1.0
  Si  Si8  1  0.28006286  -0.07220516  0.61961686  1.0
  Si  Si9  1  1.07220516  -0.28006286  0.11961686  1.0
  Si  Si10  1  0.92779484  -0.71993714  0.88038314  1.0
  Si  Si11  1  0.71993714  0.07220516  0.38038314  1.0
  Mn  Mn12  1  0.72720541  -0.27279459  0.75000000  1.0
  Mn  Mn13  1  0.27279459  0.27279459  0.25000000  1.0
  Mn  Mn14  1  0.70073918  -0.23697558  0.49298874  1.0
  Mn  Mn15  1  1.23697558  -0.70073918  0.99298874  1.0
  Mn  Mn16  1  0.76302442  -0.29926082  0.00701126  1.0
  Mn  Mn17  1  0.29926082  0.23697558  0.50701126  1.0
  Mn  Mn18  1  0.27170206  0.27170206  0.75000000  1.0
  Mn  Mn19  1  0.72829794  -0.27170206  0.25000000  1.0
  O  O20  1  0.70157503  -0.13895516  0.88278707  1.0
  O  O21  1  1.13895516  -0.70157503  0.38278707  1.0
  O  O22  1  0.86104484  -0.29842497  0.61721293  1.0
  O  O23  1  0.29842497  0.13895516  0.11721293  1.0
  O  O24  1  0.89582057  0.07553197  0.87883093  1.0
  O  O25  1  0.92446803  -0.89582057  0.37883093  1.0
  O  O26  1  1.07553197  -0.10417943  0.62116907  1.0
  O  O27  1  0.10417943  -0.07553197  0.12116907  1.0
  O  O28  1  0.44240653  -0.21589291  0.70200836  1.0
  O  O29  1  1.21589291  -0.44240653  0.20200836  1.0
  O  O30  1  0.78410709  -0.55759347  0.79799164  1.0
  O  O31  1  0.55759347  0.21589291  0.29799164  1.0
  O  O32  1  0.61473429  0.11616946  0.48653964  1.0
  O  O33  1  0.88383054  -0.61473429  0.98653964  1.0
  O  O34  1  1.11616946  -0.38526571  0.01346036  1.0
  O  O35  1  0.38526571  -0.11616946  0.51346036  1.0
  O  O36  1  0.58295399  0.15680864  0.75645939  1.0
  O  O37  1  0.84319136  -0.58295399  0.25645939  1.0
  O  O38  1  1.15680864  -0.41704601  0.74354061  1.0
  O  O39  1  0.41704601  -0.15680864  0.24354061  1.0
  O  O40  1  0.51231370  0.26594594  0.94470795  1.0
  O  O41  1  0.73405406  -0.51231370  0.44470795  1.0
  O  O42  1  1.26594594  -0.48768630  0.55529205  1.0
  O  O43  1  0.48768630  -0.26594594  0.05529205  1.0
  O  O44  1  0.18062012  0.17246728  0.86589312  1.0
  O  O45  1  0.82753272  -0.18062012  0.36589312  1.0
  O  O46  1  1.17246728  -0.81937988  0.63410688  1.0
  O  O47  1  0.81937988  -0.17246728  0.13410688  1.0
