# generated using pymatgen
data_La3InS6
_symmetry_space_group_name_H-M   'P 1'
_cell_length_a   14.03025601
_cell_length_b   17.04469482
_cell_length_c   4.10238713
_cell_angle_alpha   90.00000000
_cell_angle_beta   90.00000000
_cell_angle_gamma   90.00000000
_symmetry_Int_Tables_number   1
_chemical_formula_structural   La3InS6
_chemical_formula_sum   'La12 In4 S24'
_cell_volume   981.05073325
_cell_formula_units_Z   4
loop_
 _symmetry_equiv_pos_site_id
 _symmetry_equiv_pos_as_xyz
  1  'x, y, z'
loop_
 _atom_site_type_symbol
 _atom_site_label
 _atom_site_symmetry_multiplicity
 _atom_site_fract_x
 _atom_site_fract_y
 _atom_site_fract_z
 _atom_site_occupancy
  La  La0  1  0.19223074  0.64131341  0.75395152  1.0
  La  La1  1  0.69223074  0.85868659  0.24604848  1.0
  La  La2  1  0.80776926  0.35868659  0.75395152  1.0
  La  La3  1  0.30776926  0.14131341  0.24604848  1.0
  La  La4  1  0.96587865  0.77914991  0.75250297  1.0
  La  La5  1  0.46587865  0.72085009  0.24749703  1.0
  La  La6  1  0.03412135  0.22085009  0.75250297  1.0
  La  La7  1  0.53412135  0.27914991  0.24749703  1.0
  La  La8  1  0.75219001  0.61148933  0.75742821  1.0
  La  La9  1  0.25219001  0.88851067  0.24257179  1.0
  La  La10  1  0.24780999  0.38851067  0.75742821  1.0
  La  La11  1  0.74780999  0.11148933  0.24257179  1.0
  In  In12  1  0.50000000  0.00000000  0.74622565  1.0
  In  In13  1  0.00000000  0.50000000  0.25377435  1.0
  In  In14  1  0.50000000  0.50000000  0.92969326  1.0
  In  In15  1  0.00000000  0.00000000  0.07030674  1.0
  S  S16  1  0.39571111  0.60858694  0.74997356  1.0
  S  S17  1  0.89571111  0.89141306  0.25002644  1.0
  S  S18  1  0.60428889  0.39141306  0.74997356  1.0
  S  S19  1  0.10428889  0.10858694  0.25002644  1.0
  S  S20  1  0.38468275  0.24222104  0.74744333  1.0
  S  S21  1  0.88468275  0.25777896  0.25255667  1.0
  S  S22  1  0.61531725  0.75777896  0.74744333  1.0
  S  S23  1  0.11531725  0.74222104  0.25255667  1.0
  S  S24  1  0.32437953  0.78155813  0.74460790  1.0
  S  S25  1  0.82437953  0.71844187  0.25539210  1.0
  S  S26  1  0.67562047  0.21844187  0.74460790  1.0
  S  S27  1  0.17562047  0.28155813  0.25539210  1.0
  S  S28  1  0.31238277  0.01648214  0.74574317  1.0
  S  S29  1  0.81238277  0.48351786  0.25425683  1.0
  S  S30  1  0.68761723  0.98351786  0.74574317  1.0
  S  S31  1  0.18761723  0.51648214  0.25425683  1.0
  S  S32  1  0.10464334  0.91046444  0.73703800  1.0
  S  S33  1  0.60464334  0.58953556  0.26296200  1.0
  S  S34  1  0.89535666  0.08953556  0.73703800  1.0
  S  S35  1  0.39535666  0.41046444  0.26296200  1.0
  S  S36  1  0.98067665  0.60217546  0.75385795  1.0
  S  S37  1  0.48067665  0.89782454  0.24614205  1.0
  S  S38  1  0.01932335  0.39782454  0.75385795  1.0
  S  S39  1  0.51932335  0.10217546  0.24614205  1.0
