# generated using pymatgen
data_MnTe2
_symmetry_space_group_name_H-M   'P 1'
_cell_length_a   5.50795769
_cell_length_b   6.42601435
_cell_length_c   3.77190812
_cell_angle_alpha   90.00000000
_cell_angle_beta   90.00000000
_cell_angle_gamma   90.00000000
_symmetry_Int_Tables_number   1
_chemical_formula_structural   MnTe2
_chemical_formula_sum   'Mn2 Te4'
_cell_volume   133.50372732
_cell_formula_units_Z   2
loop_
 _symmetry_equiv_pos_site_id
 _symmetry_equiv_pos_as_xyz
  1  'x, y, z'
loop_
 _atom_site_type_symbol
 _atom_site_label
 _atom_site_symmetry_multiplicity
 _atom_site_fract_x
 _atom_site_fract_y
 _atom_site_fract_z
 _atom_site_occupancy
  Mn  Mn0  1  0.50000000  0.50000000  0.50000000  1.0
  Mn  Mn1  1  0.00000000  0.00000000  0.00000000  1.0
  Te  Te2  1  0.28395575  0.85627814  0.50000000  1.0
  Te  Te3  1  0.78395575  0.64372186  0.00000000  1.0
  Te  Te4  1  0.71604425  0.14372186  0.50000000  1.0
  Te  Te5  1  0.21604425  0.35627814  0.00000000  1.0
