# generated using pymatgen
data_Ca2CdPd2
_symmetry_space_group_name_H-M   'P 1'
_cell_length_a   5.71382219
_cell_length_b   5.71382219
_cell_length_c   5.71382219
_cell_angle_alpha   133.58458360
_cell_angle_beta   117.21347924
_cell_angle_gamma   81.56242182
_symmetry_Int_Tables_number   1
_chemical_formula_structural   Ca2CdPd2
_chemical_formula_sum   'Ca2 Cd1 Pd2'
_cell_volume   115.98093904
_cell_formula_units_Z   1
loop_
 _symmetry_equiv_pos_site_id
 _symmetry_equiv_pos_as_xyz
  1  'x, y, z'
loop_
 _atom_site_type_symbol
 _atom_site_label
 _atom_site_symmetry_multiplicity
 _atom_site_fract_x
 _atom_site_fract_y
 _atom_site_fract_z
 _atom_site_occupancy
  Ca  Ca0  1  0.70176743  0.20176743  0.50000000  1.0
  Ca  Ca1  1  1.29823257  0.79823257  0.50000000  1.0
  Cd  Cd2  1  0.00000000  0.00000000  0.00000000  1.0
  Pd  Pd3  1  0.27115840  0.50000000  0.77115840  1.0
  Pd  Pd4  1  0.72884160  0.50000000  1.22884160  1.0
