# generated using pymatgen
data_GdSiRu2C
_symmetry_space_group_name_H-M   'P 1'
_cell_length_a   5.87069705
_cell_length_b   5.87069705
_cell_length_c   7.16941622
_cell_angle_alpha   90.00000000
_cell_angle_beta   90.00000000
_cell_angle_gamma   141.73401541
_symmetry_Int_Tables_number   1
_chemical_formula_structural   GdSiRu2C
_chemical_formula_sum   'Gd2 Si2 Ru4 C2'
_cell_volume   153.02885907
_cell_formula_units_Z   2
loop_
 _symmetry_equiv_pos_site_id
 _symmetry_equiv_pos_as_xyz
  1  'x, y, z'
loop_
 _atom_site_type_symbol
 _atom_site_label
 _atom_site_symmetry_multiplicity
 _atom_site_fract_x
 _atom_site_fract_y
 _atom_site_fract_z
 _atom_site_occupancy
  Gd  Gd0  1  0.45096822  0.54903178  0.75000000  1.0
  Gd  Gd1  1  -0.45096822  0.45096822  0.25000000  1.0
  Si  Si2  1  -0.26991652  0.26991652  0.75000000  1.0
  Si  Si3  1  0.26991652  0.73008348  0.25000000  1.0
  Ru  Ru4  1  0.16413776  0.83586224  0.94249362  1.0
  Ru  Ru5  1  0.16413776  0.83586224  0.55750638  1.0
  Ru  Ru6  1  -0.16413776  0.16413776  0.44249362  1.0
  Ru  Ru7  1  -0.16413776  0.16413776  0.05750638  1.0
  C  C8  1  0.00000000  0.00000000  0.00000000  1.0
  C  C9  1  0.00000000  0.00000000  0.50000000  1.0
