# generated using pymatgen
data_NaMnP2H10NO10
_symmetry_space_group_name_H-M   'P 1'
_cell_length_a   9.71152388
_cell_length_b   9.71152388
_cell_length_c   5.65268801
_cell_angle_alpha   82.82363029
_cell_angle_beta   97.17636971
_cell_angle_gamma   63.32384834
_symmetry_Int_Tables_number   1
_chemical_formula_structural   NaMnP2H10NO10
_chemical_formula_sum   'Na2 Mn2 P4 H20 N2 O20'
_cell_volume   462.69121237
_cell_formula_units_Z   2
loop_
 _symmetry_equiv_pos_site_id
 _symmetry_equiv_pos_as_xyz
  1  'x, y, z'
loop_
 _atom_site_type_symbol
 _atom_site_label
 _atom_site_symmetry_multiplicity
 _atom_site_fract_x
 _atom_site_fract_y
 _atom_site_fract_z
 _atom_site_occupancy
  Na  Na0  1  0.22116571  -0.10221121  0.84565847  1.0
  Na  Na1  1  1.10221121  0.77883429  0.34565847  1.0
  Mn  Mn2  1  1.44941877  0.06352395  0.62658255  1.0
  Mn  Mn3  1  0.93647605  -0.44941877  0.12658255  1.0
  P  P4  1  1.11448892  0.14450960  0.25717647  1.0
  P  P5  1  0.85549040  -0.11448892  0.75717647  1.0
  P  P6  1  1.29316340  0.28258763  0.04637331  1.0
  P  P7  1  0.71741237  -0.29316340  0.54637331  1.0
  H  H8  1  0.90052144  -0.70937595  0.81393430  1.0
  H  H9  1  1.70937595  0.09947856  0.31393430  1.0
  H  H10  1  0.73443555  -0.68312046  0.63500790  1.0
  H  H11  1  1.68312046  0.26556445  0.13500790  1.0
  H  H12  1  0.90314198  -0.85832136  0.67896395  1.0
  H  H13  1  1.85832136  0.09685802  0.17896395  1.0
  H  H14  1  0.89015843  -0.69276593  0.50976778  1.0
  H  H15  1  1.69276593  0.10984157  0.00976778  1.0
  H  H16  1  0.50861008  -0.11996187  0.12544022  1.0
  H  H17  1  1.11996187  0.49138992  0.62544022  1.0
  H  H18  1  0.57459348  -0.22127679  0.92931746  1.0
  H  H19  1  1.22127679  0.42540652  0.42931746  1.0
  H  H20  1  0.41025059  -0.22716939  0.50987110  1.0
  H  H21  1  1.22716939  0.58974941  0.00987110  1.0
  H  H22  1  0.41128085  -0.38925441  0.58247570  1.0
  H  H23  1  1.38925441  0.58871915  0.08247570  1.0
  H  H24  1  1.48280834  0.34702029  0.72293492  1.0
  H  H25  1  0.65297971  -0.48280834  0.22293492  1.0
  H  H26  1  1.47897744  0.37600917  0.45112254  1.0
  H  H27  1  0.62399083  -0.47897744  0.95112254  1.0
  N  N28  1  0.85717278  -0.73527441  0.65971978  1.0
  N  N29  1  1.73527441  0.14282722  0.15971978  1.0
  O  O30  1  1.21988967  0.08594250  0.51283466  1.0
  O  O31  1  0.91405750  -0.21988967  0.01283466  1.0
  O  O32  1  1.05963345  0.03150184  0.16839807  1.0
  O  O33  1  0.96849816  -0.05963345  0.66839807  1.0
  O  O34  1  0.97436822  -0.68788651  0.22199366  1.0
  O  O35  1  1.68788651  0.02563178  0.72199366  1.0
  O  O36  1  1.22424699  0.15688170  0.06211748  1.0
  O  O37  1  0.84311830  -0.22424699  0.56211748  1.0
  O  O38  1  1.37937279  0.26462605  0.30714640  1.0
  O  O39  1  0.73537395  -0.37937279  0.80714640  1.0
  O  O40  1  1.40298454  0.23443473  0.86458056  1.0
  O  O41  1  0.76556527  -0.40298454  0.36458056  1.0
  O  O42  1  1.15005420  0.44863228  0.95114248  1.0
  O  O43  1  0.55136772  -0.15005420  0.45114248  1.0
  O  O44  1  0.48534914  -0.12444276  0.95092100  1.0
  O  O45  1  1.12444276  0.51465086  0.45092100  1.0
  O  O46  1  0.34944194  -0.27539366  0.57620963  1.0
  O  O47  1  1.27539366  0.65055806  0.07620963  1.0
  O  O48  1  1.51975871  0.39903239  0.60153962  1.0
  O  O49  1  0.60096761  -0.51975871  0.10153962  1.0
