# generated using pymatgen
data_CsSc3F10
_symmetry_space_group_name_H-M   'P 1'
_cell_length_a   6.93072556
_cell_length_b   7.66283407
_cell_length_c   8.20299881
_cell_angle_alpha   90.00000000
_cell_angle_beta   90.00000000
_cell_angle_gamma   90.00000000
_symmetry_Int_Tables_number   1
_chemical_formula_structural   CsSc3F10
_chemical_formula_sum   'Cs2 Sc6 F20'
_cell_volume   435.65306342
_cell_formula_units_Z   2
loop_
 _symmetry_equiv_pos_site_id
 _symmetry_equiv_pos_as_xyz
  1  'x, y, z'
loop_
 _atom_site_type_symbol
 _atom_site_label
 _atom_site_symmetry_multiplicity
 _atom_site_fract_x
 _atom_site_fract_y
 _atom_site_fract_z
 _atom_site_occupancy
  Cs  Cs0  1  -0.00141634  0.50000000  0.50000000  1.0
  Cs  Cs1  1  0.00141634  0.50000000  0.00000000  1.0
  Sc  Sc2  1  0.50000000  0.73139685  0.75000000  1.0
  Sc  Sc3  1  0.50000000  0.26860315  0.25000000  1.0
  Sc  Sc4  1  0.50000000  0.26855682  0.75000000  1.0
  Sc  Sc5  1  0.50000000  0.73144318  0.25000000  1.0
  Sc  Sc6  1  0.00000000  -0.00002409  0.75000000  1.0
  Sc  Sc7  1  0.00000000  0.00002409  0.25000000  1.0
  F  F8  1  0.79951117  0.80639217  0.24775390  1.0
  F  F9  1  0.79951117  0.19360783  0.75224610  1.0
  F  F10  1  0.20048883  0.80639217  0.25224610  1.0
  F  F11  1  0.20048883  0.19360783  0.74775390  1.0
  F  F12  1  0.79948685  0.80633899  0.75219519  1.0
  F  F13  1  0.79948685  0.19366101  0.24780481  1.0
  F  F14  1  0.20051315  0.80633899  0.74780481  1.0
  F  F15  1  0.20051315  0.19366101  0.25219519  1.0
  F  F16  1  0.67064076  0.49995602  0.75184062  1.0
  F  F17  1  0.67064076  0.50004398  0.24815938  1.0
  F  F18  1  0.32935924  0.49995602  0.74815938  1.0
  F  F19  1  0.32935924  0.50004398  0.25184062  1.0
  F  F20  1  0.50345873  0.72512945  0.49999315  1.0
  F  F21  1  0.50345873  0.27487055  0.50000685  1.0
  F  F22  1  0.49654127  0.72512945  1.00000685  1.0
  F  F23  1  0.49654127  0.27487055  -0.00000685  1.0
  F  F24  1  0.50000000  -0.00004405  0.75000000  1.0
  F  F25  1  0.50000000  0.00004405  0.25000000  1.0
  F  F26  1  0.99635472  0.00000000  0.50000000  1.0
  F  F27  1  0.00364528  0.00000000  0.00000000  1.0
