# generated using pymatgen
data_SiO2
_symmetry_space_group_name_H-M   'P 1'
_cell_length_a   7.49063605
_cell_length_b   11.68527809
_cell_length_c   11.55457548
_cell_angle_alpha   104.74863022
_cell_angle_beta   96.31257281
_cell_angle_gamma   94.85140567
_symmetry_Int_Tables_number   1
_chemical_formula_structural   SiO2
_chemical_formula_sum   'Si16 O32'
_cell_volume   965.43206054
_cell_formula_units_Z   16
loop_
 _symmetry_equiv_pos_site_id
 _symmetry_equiv_pos_as_xyz
  1  'x, y, z'
loop_
 _atom_site_type_symbol
 _atom_site_label
 _atom_site_symmetry_multiplicity
 _atom_site_fract_x
 _atom_site_fract_y
 _atom_site_fract_z
 _atom_site_occupancy
  Si  Si0  1  -0.95754806  -0.93061137  -0.26280497  1.0
  Si  Si1  1  -0.04245194  -0.06938863  -0.73719503  1.0
  Si  Si2  1  -0.92404216  -0.25542986  -0.95699123  1.0
  Si  Si3  1  -0.07595784  -0.74457014  -0.04300877  1.0
  Si  Si4  1  -0.69677179  -0.62316045  -0.94025339  1.0
  Si  Si5  1  -0.30322821  -0.37683955  -0.05974661  1.0
  Si  Si6  1  -0.66778340  -0.94072982  -0.63300685  1.0
  Si  Si7  1  -0.33221660  -0.05927018  -0.36699315  1.0
  Si  Si8  1  -0.60108085  -0.85183815  -0.85778644  1.0
  Si  Si9  1  -0.39891915  -0.14816185  -0.14221356  1.0
  Si  Si10  1  -0.59127846  -0.85658300  -0.35757822  1.0
  Si  Si11  1  -0.40872154  -0.14341700  -0.64242178  1.0
  Si  Si12  1  -0.56881794  -0.35662615  -0.86220314  1.0
  Si  Si13  1  -0.43118206  -0.64337385  -0.13779686  1.0
  Si  Si14  1  -0.22175973  -0.93043733  -0.91296274  1.0
  Si  Si15  1  -0.77824027  -0.06956267  -0.08703726  1.0
  O  O16  1  -0.97891955  -0.18459559  -0.82811649  1.0
  O  O17  1  -0.02108045  -0.81540441  -0.17188351  1.0
  O  O18  1  -0.91613521  -0.63732373  -0.97550941  1.0
  O  O19  1  -0.08386479  -0.36267627  -0.02449059  1.0
  O  O20  1  -0.87117419  -1.00462769  -0.63505718  1.0
  O  O21  1  -0.12882581  0.00462769  -0.36494282  1.0
  O  O22  1  -0.79421345  -0.88459931  -0.32681210  1.0
  O  O23  1  -0.20578655  -0.11540069  -0.67318790  1.0
  O  O24  1  -0.73379915  -0.30854038  -0.93396797  1.0
  O  O25  1  -0.26620085  -0.69145962  -0.06603203  1.0
  O  O26  1  -0.70893393  -0.95465297  -0.97273781  1.0
  O  O27  1  -0.29106607  -0.04534703  -0.02726219  1.0
  O  O28  1  -0.66842238  -0.86365840  -0.73187628  1.0
  O  O29  1  -0.33157762  -0.13634160  -0.26812372  1.0
  O  O30  1  -0.63753046  -0.72027814  -0.86943976  1.0
  O  O31  1  -0.36246954  -0.27972186  -0.13056024  1.0
  O  O32  1  -0.63179098  -0.49011706  -0.85190596  1.0
  O  O33  1  -0.36820902  -0.50988294  -0.14809404  1.0
  O  O34  1  -0.60166133  -0.85306729  -0.49820775  1.0
  O  O35  1  -0.39833867  -0.14693271  -0.50179225  1.0
  O  O36  1  -0.50689584  -0.27182234  -0.72605260  1.0
  O  O37  1  -0.49310416  -0.72817766  -0.27394740  1.0
  O  O38  1  -0.47139254  -0.95987240  -0.33245526  1.0
  O  O39  1  -0.52860746  -0.04012760  -0.66754474  1.0
  O  O40  1  -0.38682030  -0.86590587  -0.85448281  1.0
  O  O41  1  -0.61317970  -0.13409413  -0.14551719  1.0
  O  O42  1  -0.39569999  -0.35757430  -0.93594760  1.0
  O  O43  1  -0.60430001  -0.64242570  -0.06405240  1.0
  O  O44  1  -0.10339643  -0.97329850  -0.80924380  1.0
  O  O45  1  -0.89660357  -0.02670150  -0.19075620  1.0
  O  O46  1  -0.09501071  -0.83390530  -0.95632193  1.0
  O  O47  1  -0.90498929  -0.16609470  -0.04367807  1.0
