# generated using pymatgen
data_Tm2Fe17C3
_symmetry_space_group_name_H-M   'P 1'
_cell_length_a   8.61148692
_cell_length_b   8.61148692
_cell_length_c   8.30177951
_cell_angle_alpha   90.00000000
_cell_angle_beta   90.00000000
_cell_angle_gamma   120.00000000
_symmetry_Int_Tables_number   1
_chemical_formula_structural   Tm2Fe17C3
_chemical_formula_sum   'Tm4 Fe34 C6'
_cell_volume   533.16068708
_cell_formula_units_Z   2
loop_
 _symmetry_equiv_pos_site_id
 _symmetry_equiv_pos_as_xyz
  1  'x, y, z'
loop_
 _atom_site_type_symbol
 _atom_site_label
 _atom_site_symmetry_multiplicity
 _atom_site_fract_x
 _atom_site_fract_y
 _atom_site_fract_z
 _atom_site_occupancy
  Tm  Tm0  1  0.33333333  0.66666667  0.25000000  1.0
  Tm  Tm1  1  0.66666667  0.33333333  0.75000000  1.0
  Tm  Tm2  1  0.00000000  0.00000000  0.25000000  1.0
  Tm  Tm3  1  0.00000000  0.00000000  0.75000000  1.0
  Fe  Fe4  1  0.16809835  0.83190165  0.47938213  1.0
  Fe  Fe5  1  0.16809835  0.83190165  0.02061787  1.0
  Fe  Fe6  1  0.16809835  0.33619670  0.47938213  1.0
  Fe  Fe7  1  0.16809835  0.33619670  0.02061787  1.0
  Fe  Fe8  1  0.83190165  0.16809835  0.97938213  1.0
  Fe  Fe9  1  0.83190165  0.16809835  0.52061787  1.0
  Fe  Fe10  1  0.83190165  0.66380330  0.97938213  1.0
  Fe  Fe11  1  0.83190165  0.66380330  0.52061787  1.0
  Fe  Fe12  1  0.66380330  0.83190165  0.47938213  1.0
  Fe  Fe13  1  0.66380330  0.83190165  0.02061787  1.0
  Fe  Fe14  1  0.33619670  0.16809835  0.97938213  1.0
  Fe  Fe15  1  0.33619670  0.16809835  0.52061787  1.0
  Fe  Fe16  1  0.67293148  0.62106437  0.25000000  1.0
  Fe  Fe17  1  0.67293148  0.05186710  0.25000000  1.0
  Fe  Fe18  1  0.62106437  0.67293148  0.75000000  1.0
  Fe  Fe19  1  0.62106437  0.94813290  0.75000000  1.0
  Fe  Fe20  1  0.94813290  0.62106437  0.25000000  1.0
  Fe  Fe21  1  0.94813290  0.32706852  0.25000000  1.0
  Fe  Fe22  1  0.37893563  0.32706852  0.25000000  1.0
  Fe  Fe23  1  0.37893563  0.05186710  0.25000000  1.0
  Fe  Fe24  1  0.32706852  0.94813290  0.75000000  1.0
  Fe  Fe25  1  0.32706852  0.37893563  0.75000000  1.0
  Fe  Fe26  1  0.05186710  0.67293148  0.75000000  1.0
  Fe  Fe27  1  0.05186710  0.37893563  0.75000000  1.0
  Fe  Fe28  1  0.50000000  0.50000000  0.50000000  1.0
  Fe  Fe29  1  0.50000000  0.50000000  0.00000000  1.0
  Fe  Fe30  1  0.50000000  0.00000000  0.50000000  1.0
  Fe  Fe31  1  0.50000000  0.00000000  0.00000000  1.0
  Fe  Fe32  1  -0.00000000  0.50000000  0.50000000  1.0
  Fe  Fe33  1  -0.00000000  0.50000000  0.00000000  1.0
  Fe  Fe34  1  0.33333333  0.66666667  0.89354404  1.0
  Fe  Fe35  1  0.33333333  0.66666667  0.60645596  1.0
  Fe  Fe36  1  0.66666667  0.33333333  0.39354404  1.0
  Fe  Fe37  1  0.66666667  0.33333333  0.10645596  1.0
  C  C38  1  0.16538709  0.83461291  0.25000000  1.0
  C  C39  1  0.16538709  0.33077417  0.25000000  1.0
  C  C40  1  0.83461291  0.16538709  0.75000000  1.0
  C  C41  1  0.83461291  0.66922583  0.75000000  1.0
  C  C42  1  0.66922583  0.83461291  0.25000000  1.0
  C  C43  1  0.33077417  0.16538709  0.75000000  1.0
