# generated using pymatgen
data_PH8C2NO4
_symmetry_space_group_name_H-M   'P 1'
_cell_length_a   9.06092534
_cell_length_b   7.87161920
_cell_length_c   8.99225841
_cell_angle_alpha   90.00000000
_cell_angle_beta   101.99598930
_cell_angle_gamma   90.00000000
_symmetry_Int_Tables_number   1
_chemical_formula_structural   PH8C2NO4
_chemical_formula_sum   'P4 H32 C8 N4 O16'
_cell_volume   627.35918615
_cell_formula_units_Z   4
loop_
 _symmetry_equiv_pos_site_id
 _symmetry_equiv_pos_as_xyz
  1  'x, y, z'
loop_
 _atom_site_type_symbol
 _atom_site_label
 _atom_site_symmetry_multiplicity
 _atom_site_fract_x
 _atom_site_fract_y
 _atom_site_fract_z
 _atom_site_occupancy
  P  P0  1  0.23470874  0.47618716  0.61209798  1.0
  P  P1  1  0.76529126  0.97618716  0.88790202  1.0
  P  P2  1  0.76529126  0.52381284  0.38790202  1.0
  P  P3  1  0.23470874  0.02381284  0.11209798  1.0
  H  H4  1  0.36827515  0.79333277  0.72509333  1.0
  H  H5  1  0.63172485  0.29333277  0.77490667  1.0
  H  H6  1  0.63172485  0.20666723  0.27490667  1.0
  H  H7  1  0.36827515  0.70666723  0.22509333  1.0
  H  H8  1  0.45338870  0.98727873  0.76195958  1.0
  H  H9  1  0.54661130  0.48727873  0.73804042  1.0
  H  H10  1  0.54661130  0.01272127  0.23804042  1.0
  H  H11  1  0.45338870  0.51272127  0.26195958  1.0
  H  H12  1  -0.00436957  0.48656379  0.63884668  1.0
  H  H13  1  1.00436957  -0.01343621  0.86115332  1.0
  H  H14  1  1.00436957  0.51343621  0.36115332  1.0
  H  H15  1  -0.00436957  1.01343621  0.13884668  1.0
  H  H16  1  0.28408238  0.94759883  0.81066188  1.0
  H  H17  1  0.71591762  0.44759883  0.68933812  1.0
  H  H18  1  0.71591762  0.05240117  0.18933812  1.0
  H  H19  1  0.28408238  0.55240117  0.31066188  1.0
  H  H20  1  0.10289693  0.14018943  0.64723187  1.0
  H  H21  1  0.89710307  0.64018943  0.85276813  1.0
  H  H22  1  0.89710307  0.85981057  0.35276813  1.0
  H  H23  1  0.10289693  0.35981057  0.14723187  1.0
  H  H24  1  0.12753514  0.17356453  0.45644300  1.0
  H  H25  1  0.87246486  0.67356453  0.04355700  1.0
  H  H26  1  0.87246486  0.82643547  0.54355700  1.0
  H  H27  1  0.12753514  0.32643547  0.95644300  1.0
  H  H28  1  0.18675541  0.88156098  0.52682287  1.0
  H  H29  1  0.81324459  0.38156098  0.97317713  1.0
  H  H30  1  0.81324459  0.11843902  0.47317713  1.0
  H  H31  1  0.18675541  0.61843902  0.02682287  1.0
  H  H32  1  0.35119889  0.98717492  0.50051062  1.0
  H  H33  1  0.64880111  0.48717492  0.99948938  1.0
  H  H34  1  0.64880111  0.01282508  0.49948938  1.0
  H  H35  1  0.35119889  0.51282508  0.00051062  1.0
  C  C36  1  0.18627165  0.14711235  0.57400989  1.0
  C  C37  1  0.81372835  0.64711235  0.92599011  1.0
  C  C38  1  0.81372835  0.85288765  0.42599011  1.0
  C  C39  1  0.18627165  0.35288765  0.07400989  1.0
  C  C40  1  0.26879650  0.98018779  0.57405438  1.0
  C  C41  1  0.73120350  0.48018779  0.92594562  1.0
  C  C42  1  0.73120350  0.01981221  0.42594562  1.0
  C  C43  1  0.26879650  0.51981221  0.07405438  1.0
  N  N44  1  0.34886768  0.92502320  0.72836092  1.0
  N  N45  1  0.65113232  0.42502320  0.77163908  1.0
  N  N46  1  0.65113232  0.07497680  0.27163908  1.0
  N  N47  1  0.34886768  0.57497680  0.22836092  1.0
  O  O48  1  0.37046683  0.57757139  0.69184817  1.0
  O  O49  1  0.62953317  0.07757139  0.80815183  1.0
  O  O50  1  0.62953317  0.42242861  0.30815183  1.0
  O  O51  1  0.37046683  0.92242861  0.19184817  1.0
  O  O52  1  0.17114859  0.51614287  0.44429892  1.0
  O  O53  1  0.82885141  0.01614287  0.05570108  1.0
  O  O54  1  0.82885141  0.48385713  0.55570108  1.0
  O  O55  1  0.17114859  0.98385713  0.94429892  1.0
  O  O56  1  0.10296536  0.48886934  0.70448354  1.0
  O  O57  1  0.89703464  0.98886934  0.79551646  1.0
  O  O58  1  0.89703464  0.51113066  0.29551646  1.0
  O  O59  1  0.10296536  0.01113066  0.20448354  1.0
  O  O60  1  0.29305452  0.28023007  0.62872219  1.0
  O  O61  1  0.70694548  0.78023007  0.87127781  1.0
  O  O62  1  0.70694548  0.71976993  0.37127781  1.0
  O  O63  1  0.29305452  0.21976993  0.12872219  1.0
