# generated using pymatgen
data_Y5(FeTe)2
_symmetry_space_group_name_H-M   'P 1'
_cell_length_a   7.81682618
_cell_length_b   7.81682618
_cell_length_c   15.22037590
_cell_angle_alpha   90.00000000
_cell_angle_beta   90.00000000
_cell_angle_gamma   150.67792706
_symmetry_Int_Tables_number   1
_chemical_formula_structural   Y5(FeTe)2
_chemical_formula_sum   'Y10 Fe4 Te4'
_cell_volume   455.44159189
_cell_formula_units_Z   2
loop_
 _symmetry_equiv_pos_site_id
 _symmetry_equiv_pos_as_xyz
  1  'x, y, z'
loop_
 _atom_site_type_symbol
 _atom_site_label
 _atom_site_symmetry_multiplicity
 _atom_site_fract_x
 _atom_site_fract_y
 _atom_site_fract_z
 _atom_site_occupancy
  Y  Y0  1  0.03842675  0.96157325  0.88085590  1.0
  Y  Y1  1  0.03842675  0.96157325  0.61914410  1.0
  Y  Y2  1  -0.03842675  0.03842675  0.38085590  1.0
  Y  Y3  1  -0.03842675  0.03842675  0.11914410  1.0
  Y  Y4  1  0.25727591  0.74272409  0.37149683  1.0
  Y  Y5  1  0.25727591  0.74272409  0.12850317  1.0
  Y  Y6  1  -0.25727591  0.25727591  0.87149683  1.0
  Y  Y7  1  -0.25727591  0.25727591  0.62850317  1.0
  Y  Y8  1  0.39719058  0.60280942  0.75000000  1.0
  Y  Y9  1  -0.39719058  0.39719058  0.25000000  1.0
  Fe  Fe10  1  0.16932485  0.83067515  0.75000000  1.0
  Fe  Fe11  1  -0.16932485  0.16932485  0.25000000  1.0
  Fe  Fe12  1  -0.40559828  0.40559828  0.75000000  1.0
  Fe  Fe13  1  0.40559828  0.59440172  0.25000000  1.0
  Te  Te14  1  0.38231130  0.61768870  0.96021552  1.0
  Te  Te15  1  0.38231130  0.61768870  0.53978448  1.0
  Te  Te16  1  -0.38231130  0.38231130  0.46021552  1.0
  Te  Te17  1  -0.38231130  0.38231130  0.03978448  1.0
