# generated using pymatgen
data_K2PtS2
_symmetry_space_group_name_H-M   'P 1'
_cell_length_a   6.23515593
_cell_length_b   6.23515593
_cell_length_c   6.23515593
_cell_angle_alpha   145.95388296
_cell_angle_beta   110.18946756
_cell_angle_gamma   79.99623522
_symmetry_Int_Tables_number   1
_chemical_formula_structural   K2PtS2
_chemical_formula_sum   'K2 Pt1 S2'
_cell_volume   124.43383335
_cell_formula_units_Z   1
loop_
 _symmetry_equiv_pos_site_id
 _symmetry_equiv_pos_as_xyz
  1  'x, y, z'
loop_
 _atom_site_type_symbol
 _atom_site_label
 _atom_site_symmetry_multiplicity
 _atom_site_fract_x
 _atom_site_fract_y
 _atom_site_fract_z
 _atom_site_occupancy
  K  K0  1  0.69377045  0.19377045  0.50000000  1.0
  K  K1  1  1.30622955  0.80622955  0.50000000  1.0
  Pt  Pt2  1  0.00000000  0.00000000  0.00000000  1.0
  S  S3  1  0.21495255  0.50000000  0.71495255  1.0
  S  S4  1  0.78504745  0.50000000  1.28504745  1.0
