# generated using pymatgen
data_CrH8(NO2)2
_symmetry_space_group_name_H-M   'P 1'
_cell_length_a   6.80130631
_cell_length_b   6.80130631
_cell_length_c   7.77353727
_cell_angle_alpha   69.86426197
_cell_angle_beta   110.13573803
_cell_angle_gamma   122.36661884
_symmetry_Int_Tables_number   1
_chemical_formula_structural   CrH8(NO2)2
_chemical_formula_sum   'Cr2 H16 N4 O8'
_cell_volume   279.29627724
_cell_formula_units_Z   2
loop_
 _symmetry_equiv_pos_site_id
 _symmetry_equiv_pos_as_xyz
  1  'x, y, z'
loop_
 _atom_site_type_symbol
 _atom_site_label
 _atom_site_symmetry_multiplicity
 _atom_site_fract_x
 _atom_site_fract_y
 _atom_site_fract_z
 _atom_site_occupancy
  Cr  Cr0  1  0.82006140  0.17993860  0.77318298  1.0
  Cr  Cr1  1  0.17993860  -0.17993860  0.22681702  1.0
  H  H2  1  0.57530592  -0.31968072  0.80510584  1.0
  H  H3  1  1.31968072  0.42469408  0.80510584  1.0
  H  H4  1  0.68031928  0.57530592  0.19489416  1.0
  H  H5  1  0.42469408  0.31968072  0.19489416  1.0
  H  H6  1  0.33976314  -0.08543637  0.80534250  1.0
  H  H7  1  1.08543637  0.66023686  0.80534250  1.0
  H  H8  1  0.91456363  0.33976314  0.19465750  1.0
  H  H9  1  0.66023686  0.08543637  0.19465750  1.0
  H  H10  1  0.92302471  0.07697529  0.25026924  1.0
  H  H11  1  0.07697529  -0.07697529  0.74973076  1.0
  H  H12  1  0.85486123  0.14513877  0.40290966  1.0
  H  H13  1  0.14513877  -0.14513877  0.59709034  1.0
  H  H14  1  0.55218852  0.44781148  0.74247272  1.0
  H  H15  1  0.44781148  -0.44781148  0.25752728  1.0
  H  H16  1  0.40460242  -0.40460242  0.59712296  1.0
  H  H17  1  0.59539758  0.40460242  0.40287704  1.0
  N  N18  1  0.83870779  0.16129221  0.25990743  1.0
  N  N19  1  0.16129221  -0.16129221  0.74009257  1.0
  N  N20  1  0.46418340  -0.46418340  0.73954254  1.0
  N  N21  1  0.53581660  0.46418340  0.26045746  1.0
  O  O22  1  0.64473293  -0.06057937  0.90401575  1.0
  O  O23  1  1.06057937  0.35526707  0.90401575  1.0
  O  O24  1  0.93942063  0.64473293  0.09598425  1.0
  O  O25  1  0.35526707  0.06057937  0.09598425  1.0
  O  O26  1  0.90115097  0.09884903  0.64213544  1.0
  O  O27  1  0.09884903  -0.09884903  0.35786456  1.0
  O  O28  1  0.67156773  0.32843227  0.64019120  1.0
  O  O29  1  0.32843227  -0.32843227  0.35980880  1.0
