# generated using pymatgen
data_BC2N
_symmetry_space_group_name_H-M   'P 1'
_cell_length_a   3.58578752
_cell_length_b   3.58578752
_cell_length_c   8.06343060
_cell_angle_alpha   90.00000000
_cell_angle_beta   90.00000000
_cell_angle_gamma   90.00000000
_symmetry_Int_Tables_number   1
_chemical_formula_structural   BC2N
_chemical_formula_sum   'B4 C8 N4'
_cell_volume   103.67855945
_cell_formula_units_Z   4
loop_
 _symmetry_equiv_pos_site_id
 _symmetry_equiv_pos_as_xyz
  1  'x, y, z'
loop_
 _atom_site_type_symbol
 _atom_site_label
 _atom_site_symmetry_multiplicity
 _atom_site_fract_x
 _atom_site_fract_y
 _atom_site_fract_z
 _atom_site_occupancy
  B  B0  1  0.26250771  0.73749229  0.11195520  1.0
  B  B1  1  0.73749229  0.26250771  0.11195520  1.0
  B  B2  1  0.26250771  0.26250771  0.88804480  1.0
  B  B3  1  0.73749229  0.73749229  0.88804480  1.0
  C  C4  1  0.50000000  0.00000000  0.50000000  1.0
  C  C5  1  0.00000000  0.50000000  0.50000000  1.0
  C  C6  1  0.00000000  0.00000000  0.27489996  1.0
  C  C7  1  0.00000000  0.00000000  0.72510004  1.0
  C  C8  1  0.21638223  0.78361777  0.39880594  1.0
  C  C9  1  0.78361777  0.21638223  0.39880594  1.0
  C  C10  1  0.21638223  0.21638223  0.60119406  1.0
  C  C11  1  0.78361777  0.78361777  0.60119406  1.0
  N  N12  1  0.50000000  0.00000000  0.00000000  1.0
  N  N13  1  0.00000000  0.50000000  0.00000000  1.0
  N  N14  1  0.50000000  0.50000000  0.21862066  1.0
  N  N15  1  0.50000000  0.50000000  0.78137934  1.0
