# generated using pymatgen
data_CaHClO
_symmetry_space_group_name_H-M   'P 1'
_cell_length_a   3.88009198
_cell_length_b   3.88009198
_cell_length_c   10.05251803
_cell_angle_alpha   90.00000000
_cell_angle_beta   90.00000000
_cell_angle_gamma   120.00000000
_symmetry_Int_Tables_number   1
_chemical_formula_structural   CaHClO
_chemical_formula_sum   'Ca2 H2 Cl2 O2'
_cell_volume   131.06584548
_cell_formula_units_Z   2
loop_
 _symmetry_equiv_pos_site_id
 _symmetry_equiv_pos_as_xyz
  1  'x, y, z'
loop_
 _atom_site_type_symbol
 _atom_site_label
 _atom_site_symmetry_multiplicity
 _atom_site_fract_x
 _atom_site_fract_y
 _atom_site_fract_z
 _atom_site_occupancy
  Ca  Ca0  1  0.33333333  0.66666667  0.57460986  1.0
  Ca  Ca1  1  0.66666667  0.33333333  0.07460986  1.0
  H  H2  1  0.00000000  0.00000000  0.40884925  1.0
  H  H3  1  0.00000000  0.00000000  0.90884925  1.0
  Cl  Cl4  1  0.33333333  0.66666667  0.25356029  1.0
  Cl  Cl5  1  0.66666667  0.33333333  0.75356029  1.0
  O  O6  1  0.00000000  0.00000000  0.00598060  1.0
  O  O7  1  0.00000000  0.00000000  0.50598060  1.0
