# generated using pymatgen
data_Na5LiN2
_symmetry_space_group_name_H-M   'P 1'
_cell_length_a   4.41900917
_cell_length_b   7.73427983
_cell_length_c   4.33506186
_cell_angle_alpha   89.68710915
_cell_angle_beta   89.98911197
_cell_angle_gamma   89.98121576
_symmetry_Int_Tables_number   1
_chemical_formula_structural   Na5LiN2
_chemical_formula_sum   'Na5 Li1 N2'
_cell_volume   148.16088920
_cell_formula_units_Z   1
loop_
 _symmetry_equiv_pos_site_id
 _symmetry_equiv_pos_as_xyz
  1  'x, y, z'
loop_
 _atom_site_type_symbol
 _atom_site_label
 _atom_site_symmetry_multiplicity
 _atom_site_fract_x
 _atom_site_fract_y
 _atom_site_fract_z
 _atom_site_occupancy
  N  N0  1  -0.27010188  -0.21840395  -0.47476031  1.0
  N  N1  1  -0.77003691  -0.72460936  -0.51866693  1.0
  Li  Li2  1  -0.26998019  -0.23177254  0.00351360  1.0
  Na  Na3  1  -0.76949333  -0.02548997  -0.33183228  1.0
  Na  Na4  1  -0.26949267  -0.90213090  -0.63894707  1.0
  Na  Na5  1  -0.76972022  -0.66761390  -0.01685352  1.0
  Na  Na6  1  -0.77015950  -0.35134264  -0.55057564  1.0
  Na  Na7  1  -0.27001530  -0.56163676  -0.46887784  1.0
