# generated using pymatgen
data_SrMgB2O5
_symmetry_space_group_name_H-M   'P 1'
_cell_length_a   6.61288850
_cell_length_b   5.37577389
_cell_length_c   12.09266517
_cell_angle_alpha   90.00000000
_cell_angle_beta   102.30781747
_cell_angle_gamma   90.00000000
_symmetry_Int_Tables_number   1
_chemical_formula_structural   SrMgB2O5
_chemical_formula_sum   'Sr4 Mg4 B8 O20'
_cell_volume   420.00660466
_cell_formula_units_Z   4
loop_
 _symmetry_equiv_pos_site_id
 _symmetry_equiv_pos_as_xyz
  1  'x, y, z'
loop_
 _atom_site_type_symbol
 _atom_site_label
 _atom_site_symmetry_multiplicity
 _atom_site_fract_x
 _atom_site_fract_y
 _atom_site_fract_z
 _atom_site_occupancy
  Sr  Sr0  1  0.31701002  0.39228960  0.31105020  1.0
  Sr  Sr1  1  0.31701002  0.10771040  0.81105020  1.0
  Sr  Sr2  1  0.68298998  0.89228960  0.18894980  1.0
  Sr  Sr3  1  0.68298998  0.60771040  0.68894980  1.0
  Mg  Mg4  1  0.84520894  0.42047084  0.39327361  1.0
  Mg  Mg5  1  0.84520894  0.07952916  0.89327361  1.0
  Mg  Mg6  1  0.15479106  0.92047084  0.10672639  1.0
  Mg  Mg7  1  0.15479106  0.57952916  0.60672639  1.0
  B  B8  1  0.85491134  0.36604856  0.11646267  1.0
  B  B9  1  0.85491134  0.13395144  0.61646267  1.0
  B  B10  1  0.14508866  0.86604856  0.38353733  1.0
  B  B11  1  0.14508866  0.63395144  0.88353733  1.0
  B  B12  1  0.68129143  0.91538443  0.43080182  1.0
  B  B13  1  0.68129143  0.58461557  0.93080182  1.0
  B  B14  1  0.31870857  0.41538443  0.06919818  1.0
  B  B15  1  0.31870857  0.08461557  0.56919818  1.0
  O  O16  1  0.89809012  0.14879831  0.06588742  1.0
  O  O17  1  0.89809012  0.35120169  0.56588742  1.0
  O  O18  1  0.10190988  0.64879831  0.43411258  1.0
  O  O19  1  0.10190988  0.85120169  0.93411258  1.0
  O  O20  1  0.87985431  0.39845689  0.22953155  1.0
  O  O21  1  0.87985431  0.10154311  0.72953155  1.0
  O  O22  1  0.12014569  0.89845689  0.27046845  1.0
  O  O23  1  0.12014569  0.60154311  0.77046845  1.0
  O  O24  1  0.65207518  0.12771340  0.36789438  1.0
  O  O25  1  0.65207518  0.37228660  0.86789438  1.0
  O  O26  1  0.34792482  0.62771340  0.13210562  1.0
  O  O27  1  0.34792482  0.87228660  0.63210562  1.0
  O  O28  1  0.37068530  0.18732135  0.11753341  1.0
  O  O29  1  0.37068530  0.31267865  0.61753341  1.0
  O  O30  1  0.62931470  0.68732135  0.38246659  1.0
  O  O31  1  0.62931470  0.81267865  0.88246659  1.0
  O  O32  1  0.22365783  0.07709336  0.45199276  1.0
  O  O33  1  0.22365783  0.42290664  0.95199276  1.0
  O  O34  1  0.77634217  0.57709336  0.04800724  1.0
  O  O35  1  0.77634217  0.92290664  0.54800724  1.0
