# generated using pymatgen
data_Ca2AlH8S2Cl(O6F)2
_symmetry_space_group_name_H-M   'P 1'
_cell_length_a   8.27886393
_cell_length_b   8.27886393
_cell_length_c   8.27886393
_cell_angle_alpha   130.23332617
_cell_angle_beta   130.23332617
_cell_angle_gamma   73.03402921
_symmetry_Int_Tables_number   1
_chemical_formula_structural   Ca2AlH8S2Cl(O6F)2
_chemical_formula_sum   'Ca2 Al1 H8 S2 Cl1 O12 F2'
_cell_volume   322.96031459
_cell_formula_units_Z   1
loop_
 _symmetry_equiv_pos_site_id
 _symmetry_equiv_pos_as_xyz
  1  'x, y, z'
loop_
 _atom_site_type_symbol
 _atom_site_label
 _atom_site_symmetry_multiplicity
 _atom_site_fract_x
 _atom_site_fract_y
 _atom_site_fract_z
 _atom_site_occupancy
  Ca  Ca0  1  0.69912133  0.69912133  1.00000000  1.0
  Ca  Ca1  1  0.30087867  0.30087867  -0.00000000  1.0
  Al  Al2  1  0.00000000  0.00000000  0.00000000  1.0
  H  H3  1  1.27445309  1.04814004  1.44416118  1.0
  H  H4  1  0.39602115  0.16970810  0.44416118  1.0
  H  H5  1  0.83029190  1.27445309  1.22631305  1.0
  H  H6  1  0.95185996  0.39602115  1.22631305  1.0
  H  H7  1  0.60397885  0.83029190  0.55583882  1.0
  H  H8  1  0.72554691  0.95185996  1.55583882  1.0
  H  H9  1  1.04814004  0.60397885  0.77368695  1.0
  H  H10  1  0.16970810  0.72554691  0.77368695  1.0
  S  S11  1  0.25000000  0.75000000  0.50000000  1.0
  S  S12  1  0.75000000  0.25000000  0.50000000  1.0
  Cl  Cl13  1  0.50000000  0.50000000  1.00000000  1.0
  O  O14  1  0.74635769  1.02081272  1.39811945  1.0
  O  O15  1  0.37730673  0.65176176  0.39811945  1.0
  O  O16  1  0.34823824  0.74635769  0.72554497  1.0
  O  O17  1  0.97918728  0.37730673  0.72554497  1.0
  O  O18  1  0.62269327  0.34823824  0.60188055  1.0
  O  O19  1  1.25364231  0.97918728  1.60188055  1.0
  O  O20  1  1.02081272  0.62269327  1.27445503  1.0
  O  O21  1  0.65176176  1.25364231  1.27445503  1.0
  O  O22  1  0.27242748  0.05639614  0.32882362  1.0
  O  O23  1  0.94360386  0.27242748  1.21603134  1.0
  O  O24  1  0.72757252  0.94360386  1.67117638  1.0
  O  O25  1  0.05639614  0.72757252  0.78396866  1.0
  F  F26  1  0.86649812  0.86649812  1.00000000  1.0
  F  F27  1  0.13350188  0.13350188  0.00000000  1.0
