# generated using pymatgen
data_Sb2Se3
_symmetry_space_group_name_H-M   'P 1'
_cell_length_a   12.96918232
_cell_length_b   3.86463687
_cell_length_c   12.74286086
_cell_angle_alpha   90.00000000
_cell_angle_beta   90.00000000
_cell_angle_gamma   90.00000000
_symmetry_Int_Tables_number   1
_chemical_formula_structural   Sb2Se3
_chemical_formula_sum   'Sb8 Se12'
_cell_volume   638.68722524
_cell_formula_units_Z   4
loop_
 _symmetry_equiv_pos_site_id
 _symmetry_equiv_pos_as_xyz
  1  'x, y, z'
loop_
 _atom_site_type_symbol
 _atom_site_label
 _atom_site_symmetry_multiplicity
 _atom_site_fract_x
 _atom_site_fract_y
 _atom_site_fract_z
 _atom_site_occupancy
  Sb  Sb0  1  0.54028260  0.25000000  0.23763779  1.0
  Sb  Sb1  1  0.04028260  0.25000000  0.26236221  1.0
  Sb  Sb2  1  0.45971740  0.75000000  0.76236221  1.0
  Sb  Sb3  1  0.95971740  0.75000000  0.73763779  1.0
  Sb  Sb4  1  0.74827398  0.25000000  0.43336096  1.0
  Sb  Sb5  1  0.24827398  0.25000000  0.06663904  1.0
  Sb  Sb6  1  0.25172602  0.75000000  0.56663904  1.0
  Sb  Sb7  1  0.75172602  0.75000000  0.93336096  1.0
  Se  Se8  1  0.47469472  0.25000000  0.61778997  1.0
  Se  Se9  1  -0.02530528  0.25000000  0.88221003  1.0
  Se  Se10  1  0.52530528  0.75000000  0.38221003  1.0
  Se  Se11  1  1.02530528  0.75000000  0.11778997  1.0
  Se  Se12  1  0.61079985  0.25000000  -0.04466266  1.0
  Se  Se13  1  0.11079985  0.25000000  0.54466266  1.0
  Se  Se14  1  0.38920015  0.75000000  1.04466266  1.0
  Se  Se15  1  0.88920015  0.75000000  0.45533734  1.0
  Se  Se16  1  0.74160174  0.25000000  0.22815946  1.0
  Se  Se17  1  0.24160174  0.25000000  0.27184054  1.0
  Se  Se18  1  0.25839826  0.75000000  0.77184054  1.0
  Se  Se19  1  0.75839826  0.75000000  0.72815946  1.0
