# generated using pymatgen
data_Al2SiO5
_symmetry_space_group_name_H-M   'P 1'
_cell_length_a   7.88252645
_cell_length_b   7.98548213
_cell_length_c   5.61939601
_cell_angle_alpha   90.00000000
_cell_angle_beta   90.00000000
_cell_angle_gamma   90.00000000
_symmetry_Int_Tables_number   1
_chemical_formula_structural   Al2SiO5
_chemical_formula_sum   'Al8 Si4 O20'
_cell_volume   353.71723166
_cell_formula_units_Z   4
loop_
 _symmetry_equiv_pos_site_id
 _symmetry_equiv_pos_as_xyz
  1  'x, y, z'
loop_
 _atom_site_type_symbol
 _atom_site_label
 _atom_site_symmetry_multiplicity
 _atom_site_fract_x
 _atom_site_fract_y
 _atom_site_fract_z
 _atom_site_occupancy
  Al  Al0  1  0.87048347  0.63920250  0.50000000  1.0
  Al  Al1  1  0.37048347  0.86079750  0.00000000  1.0
  Al  Al2  1  0.12951653  0.36079750  0.50000000  1.0
  Al  Al3  1  0.62951653  0.13920250  0.00000000  1.0
  Al  Al4  1  0.50000000  0.50000000  0.24173764  1.0
  Al  Al5  1  0.50000000  0.50000000  0.75826236  1.0
  Al  Al6  1  0.00000000  0.00000000  0.74173764  1.0
  Al  Al7  1  0.00000000  0.00000000  0.25826236  1.0
  Si  Si8  1  0.24570867  0.74773020  0.50000000  1.0
  Si  Si9  1  0.74570867  0.75226980  -0.00000000  1.0
  Si  Si10  1  0.75429133  0.25226980  0.50000000  1.0
  Si  Si11  1  0.25429133  0.24773020  0.00000000  1.0
  O  O12  1  0.23052014  0.86576171  0.26045854  1.0
  O  O13  1  0.23052014  0.86576171  0.73954146  1.0
  O  O14  1  0.73052014  0.63423829  0.76045854  1.0
  O  O15  1  0.73052014  0.63423829  0.23954146  1.0
  O  O16  1  0.76947986  0.13423829  0.26045854  1.0
  O  O17  1  0.76947986  0.13423829  0.73954146  1.0
  O  O18  1  0.26947986  0.36576171  0.76045854  1.0
  O  O19  1  0.26947986  0.36576171  0.23954146  1.0
  O  O20  1  0.42407326  0.63652318  0.50000000  1.0
  O  O21  1  0.92407326  0.86347682  -0.00000000  1.0
  O  O22  1  0.57592674  0.36347682  0.50000000  1.0
  O  O23  1  0.07592674  0.13652318  -0.00000000  1.0
  O  O24  1  0.10260705  0.59932481  0.50000000  1.0
  O  O25  1  0.60260705  0.90067519  0.00000000  1.0
  O  O26  1  0.89739295  0.40067519  0.50000000  1.0
  O  O27  1  0.39739295  0.09932481  0.00000000  1.0
  O  O28  1  0.92379530  0.86290214  0.50000000  1.0
  O  O29  1  0.42379530  0.63709786  0.00000000  1.0
  O  O30  1  0.07620470  0.13709786  0.50000000  1.0
  O  O31  1  0.57620470  0.36290214  0.00000000  1.0
