# generated using pymatgen
data_Cs9GaO4
_symmetry_space_group_name_H-M   'P 1'
_cell_length_a   12.73970897
_cell_length_b   12.73970897
_cell_length_c   12.73970897
_cell_angle_alpha   104.51284233
_cell_angle_beta   104.51284233
_cell_angle_gamma   119.92103708
_symmetry_Int_Tables_number   1
_chemical_formula_structural   Cs9GaO4
_chemical_formula_sum   'Cs18 Ga2 O8'
_cell_volume   1551.35745657
_cell_formula_units_Z   2
loop_
 _symmetry_equiv_pos_site_id
 _symmetry_equiv_pos_as_xyz
  1  'x, y, z'
loop_
 _atom_site_type_symbol
 _atom_site_label
 _atom_site_symmetry_multiplicity
 _atom_site_fract_x
 _atom_site_fract_y
 _atom_site_fract_z
 _atom_site_occupancy
  Cs  Cs0  1  0.25000000  0.97485142  0.72485142  1.0
  Cs  Cs1  1  0.75000000  1.47485142  0.72485142  1.0
  Cs  Cs2  1  0.47485142  0.75000000  0.72485142  1.0
  Cs  Cs3  1  0.97485142  1.25000000  0.72485142  1.0
  Cs  Cs4  1  1.52514858  1.25000000  1.27514858  1.0
  Cs  Cs5  1  1.02514858  0.75000000  1.27514858  1.0
  Cs  Cs6  1  0.75000000  1.02514858  0.27514858  1.0
  Cs  Cs7  1  0.25000000  0.52514858  0.27514858  1.0
  Cs  Cs8  1  0.83622516  0.33622516  1.17245032  1.0
  Cs  Cs9  1  0.66377484  0.83622516  0.50000000  1.0
  Cs  Cs10  1  1.33622516  1.16377484  1.50000000  1.0
  Cs  Cs11  1  0.16377484  0.66377484  0.82754968  1.0
  Cs  Cs12  1  1.41924578  0.91924578  1.33849156  1.0
  Cs  Cs13  1  0.08075422  0.41924578  0.50000000  1.0
  Cs  Cs14  1  0.91924578  0.58075422  1.50000000  1.0
  Cs  Cs15  1  0.58075422  1.08075422  0.66150844  1.0
  Cs  Cs16  1  0.50000000  0.50000000  0.00000000  1.0
  Cs  Cs17  1  0.00000000  0.00000000  0.00000000  1.0
  Ga  Ga18  1  0.75000000  1.25000000  0.50000000  1.0
  Ga  Ga19  1  0.25000000  0.75000000  0.50000000  1.0
  O  O20  1  1.77027200  1.27027200  1.36057499  1.0
  O  O21  1  1.09030298  0.59030298  1.36057499  1.0
  O  O22  1  0.40969702  0.77027200  0.50000000  1.0
  O  O23  1  0.72972800  1.09030298  0.50000000  1.0
  O  O24  1  1.27027200  0.90969702  1.50000000  1.0
  O  O25  1  1.59030298  1.22972800  1.50000000  1.0
  O  O26  1  0.90969702  1.40969702  0.63942501  1.0
  O  O27  1  0.22972800  0.72972800  0.63942501  1.0
