# generated using pymatgen
data_MoPb2O5
_symmetry_space_group_name_H-M   'P 1'
_cell_length_a   7.78366726
_cell_length_b   7.78366726
_cell_length_c   7.51597559
_cell_angle_alpha   69.75886167
_cell_angle_beta   110.24113833
_cell_angle_gamma   135.09313231
_symmetry_Int_Tables_number   1
_chemical_formula_structural   MoPb2O5
_chemical_formula_sum   'Mo2 Pb4 O10'
_cell_volume   298.08898897
_cell_formula_units_Z   2
loop_
 _symmetry_equiv_pos_site_id
 _symmetry_equiv_pos_as_xyz
  1  'x, y, z'
loop_
 _atom_site_type_symbol
 _atom_site_label
 _atom_site_symmetry_multiplicity
 _atom_site_fract_x
 _atom_site_fract_y
 _atom_site_fract_z
 _atom_site_occupancy
  Mo  Mo0  1  0.67294993  -0.67294993  0.65541156  1.0
  Mo  Mo1  1  1.32705007  -0.32705007  0.34458844  1.0
  Pb  Pb2  1  0.98953838  -0.98953838  0.75029122  1.0
  Pb  Pb3  1  1.01046162  -0.01046162  0.24970878  1.0
  Pb  Pb4  1  1.36501270  -0.36501270  0.89576646  1.0
  Pb  Pb5  1  0.63498730  -0.63498730  0.10423354  1.0
  O  O6  1  1.40595955  0.11566100  0.76807264  1.0
  O  O7  1  0.88433900  -0.40595955  0.76807264  1.0
  O  O8  1  1.11566100  -0.59404045  0.23192736  1.0
  O  O9  1  1.59404045  -0.11566100  0.23192736  1.0
  O  O10  1  0.60066593  -0.60066593  0.40153260  1.0
  O  O11  1  1.39933407  -0.39933407  0.59846740  1.0
  O  O12  1  0.80357867  -0.80357867  0.70027019  1.0
  O  O13  1  1.19642133  -0.19642133  0.29972981  1.0
  O  O14  1  0.75234618  0.75234618  -0.00000000  1.0
  O  O15  1  0.24765382  0.24765382  -0.00000000  1.0
