# generated using pymatgen
data_Y2Be2SiO7
_symmetry_space_group_name_H-M   'P 1'
_cell_length_a   7.33644511
_cell_length_b   7.33644511
_cell_length_c   4.79329693
_cell_angle_alpha   90.00000000
_cell_angle_beta   90.00000000
_cell_angle_gamma   90.00000000
_symmetry_Int_Tables_number   1
_chemical_formula_structural   Y2Be2SiO7
_chemical_formula_sum   'Y4 Be4 Si2 O14'
_cell_volume   257.99166712
_cell_formula_units_Z   2
loop_
 _symmetry_equiv_pos_site_id
 _symmetry_equiv_pos_as_xyz
  1  'x, y, z'
loop_
 _atom_site_type_symbol
 _atom_site_label
 _atom_site_symmetry_multiplicity
 _atom_site_fract_x
 _atom_site_fract_y
 _atom_site_fract_z
 _atom_site_occupancy
  Y  Y0  1  0.84122825  0.34122825  0.49222705  1.0
  Y  Y1  1  0.65877175  0.84122825  0.50777295  1.0
  Y  Y2  1  0.15877175  0.65877175  0.49222705  1.0
  Y  Y3  1  0.34122825  0.15877175  0.50777295  1.0
  Be  Be4  1  0.36310217  0.86310217  0.04025240  1.0
  Be  Be5  1  0.13689783  0.36310217  0.95974760  1.0
  Be  Be6  1  0.63689783  0.13689783  0.04025240  1.0
  Be  Be7  1  0.86310217  0.63689783  0.95974760  1.0
  Si  Si8  1  0.50000000  0.50000000  0.00000000  1.0
  Si  Si9  1  0.00000000  0.00000000  0.00000000  1.0
  O  O10  1  0.00000000  0.50000000  0.81655344  1.0
  O  O11  1  0.50000000  0.00000000  0.18344656  1.0
  O  O12  1  0.33742421  0.41750802  0.80046799  1.0
  O  O13  1  0.16257579  0.91750802  0.19953201  1.0
  O  O14  1  0.58249198  0.33742421  0.19953201  1.0
  O  O15  1  0.91750802  0.83742421  0.80046799  1.0
  O  O16  1  0.66257579  0.58249198  0.80046799  1.0
  O  O17  1  0.83742421  0.08249198  0.19953201  1.0
  O  O18  1  0.41750802  0.66257579  0.19953201  1.0
  O  O19  1  0.08249198  0.16257579  0.80046799  1.0
  O  O20  1  0.35853757  0.85853757  0.70789725  1.0
  O  O21  1  0.14146243  0.35853757  0.29210275  1.0
  O  O22  1  0.64146243  0.14146243  0.70789725  1.0
  O  O23  1  0.85853757  0.64146243  0.29210275  1.0
