# generated using pymatgen
data_KSc(MoO4)2
_symmetry_space_group_name_H-M   'P 1'
_cell_length_a   5.85035292
_cell_length_b   5.85035292
_cell_length_c   7.39217887
_cell_angle_alpha   90.00000000
_cell_angle_beta   90.00000000
_cell_angle_gamma   120.00000000
_symmetry_Int_Tables_number   1
_chemical_formula_structural   KSc(MoO4)2
_chemical_formula_sum   'K1 Sc1 Mo2 O8'
_cell_volume   219.11253811
_cell_formula_units_Z   1
loop_
 _symmetry_equiv_pos_site_id
 _symmetry_equiv_pos_as_xyz
  1  'x, y, z'
loop_
 _atom_site_type_symbol
 _atom_site_label
 _atom_site_symmetry_multiplicity
 _atom_site_fract_x
 _atom_site_fract_y
 _atom_site_fract_z
 _atom_site_occupancy
  K  K0  1  0.00000000  0.00000000  0.00000000  1.0
  Sc  Sc1  1  0.00000000  0.00000000  0.50000000  1.0
  Mo  Mo2  1  0.33333333  0.66666667  0.25180930  1.0
  Mo  Mo3  1  0.66666667  0.33333333  0.74819070  1.0
  O  O4  1  0.66920126  0.83460063  0.32807787  1.0
  O  O5  1  0.83460063  0.66920126  0.67192213  1.0
  O  O6  1  0.83460063  0.16539937  0.67192213  1.0
  O  O7  1  0.16539937  0.83460063  0.32807787  1.0
  O  O8  1  0.16539937  0.33079874  0.32807787  1.0
  O  O9  1  0.33079874  0.16539937  0.67192213  1.0
  O  O10  1  0.33333333  0.66666667  0.01757328  1.0
  O  O11  1  0.66666667  0.33333333  0.98242672  1.0
