# generated using pymatgen
data_Li3In2(PO4)3
_symmetry_space_group_name_H-M   'P 1'
_cell_length_a   9.31995301
_cell_length_b   9.31995301
_cell_length_c   9.31995301
_cell_angle_alpha   55.21221236
_cell_angle_beta   55.21221236
_cell_angle_gamma   55.21221236
_symmetry_Int_Tables_number   1
_chemical_formula_structural   Li3In2(PO4)3
_chemical_formula_sum   'Li6 In4 P6 O24'
_cell_volume   508.72317666
_cell_formula_units_Z   2
loop_
 _symmetry_equiv_pos_site_id
 _symmetry_equiv_pos_as_xyz
  1  'x, y, z'
loop_
 _atom_site_type_symbol
 _atom_site_label
 _atom_site_symmetry_multiplicity
 _atom_site_fract_x
 _atom_site_fract_y
 _atom_site_fract_z
 _atom_site_occupancy
  Li  Li0  1  0.07261535  0.73309423  -0.66342519  1.0
  Li  Li1  1  0.66342519  -0.07261535  0.26690577  1.0
  Li  Li2  1  1.26690577  -0.33657481  -0.07261535  1.0
  Li  Li3  1  0.92738465  0.26690577  -0.33657481  1.0
  Li  Li4  1  0.33657481  0.07261535  -0.26690577  1.0
  Li  Li5  1  0.73309423  0.33657481  -0.92738465  1.0
  In  In6  1  0.14644290  0.14644290  0.14644290  1.0
  In  In7  1  0.85355710  -0.14644290  -0.14644290  1.0
  In  In8  1  0.34523956  0.34523956  -0.65476044  1.0
  In  In9  1  0.65476044  0.65476044  -0.34523956  1.0
  P  P10  1  0.25063130  0.95382395  -0.45128078  1.0
  P  P11  1  0.45128078  -0.25063130  0.04617605  1.0
  P  P12  1  1.04617605  -0.54871922  -0.25063130  1.0
  P  P13  1  0.74936870  0.04617605  -0.54871922  1.0
  P  P14  1  0.54871922  0.25063130  -0.04617605  1.0
  P  P15  1  0.95382395  0.54871922  -0.74936870  1.0
  O  O16  1  0.24886473  0.86108095  -0.84604626  1.0
  O  O17  1  0.84604626  -0.24886473  0.13891905  1.0
  O  O18  1  1.13891905  -0.15395374  -0.24886473  1.0
  O  O19  1  0.75113527  0.13891905  -0.15395374  1.0
  O  O20  1  0.15395374  0.24886473  -0.13891905  1.0
  O  O21  1  0.86108095  0.15395374  -0.75113527  1.0
  O  O22  1  0.55744712  0.20247716  0.14383376  1.0
  O  O23  1  0.85616624  -0.55744712  -0.20247716  1.0
  O  O24  1  0.79752284  -0.14383376  -0.55744712  1.0
  O  O25  1  0.44255288  -0.20247716  -0.14383376  1.0
  O  O26  1  1.14383376  -0.44255288  0.20247716  1.0
  O  O27  1  1.20247716  0.14383376  -0.44255288  1.0
  O  O28  1  0.19204699  0.99437811  -0.59657756  1.0
  O  O29  1  0.59657756  -0.19204699  0.00562189  1.0
  O  O30  1  1.00562189  -0.40342244  -0.19204699  1.0
  O  O31  1  0.80795301  0.00562189  -0.40342244  1.0
  O  O32  1  0.40342244  0.19204699  -0.00562189  1.0
  O  O33  1  0.99437811  0.40342244  -0.80795301  1.0
  O  O34  1  0.53397673  0.15656911  -0.50125140  1.0
  O  O35  1  0.50125140  0.46602327  -0.15656911  1.0
  O  O36  1  0.84343089  0.50125140  -0.53397673  1.0
  O  O37  1  0.46602327  0.84343089  -0.49874860  1.0
  O  O38  1  0.49874860  0.53397673  -0.84343089  1.0
  O  O39  1  0.15656911  0.49874860  -0.46602327  1.0
