# generated using pymatgen
data_GeH2(C2F5)2
_symmetry_space_group_name_H-M   'P 1'
_cell_length_a   10.19746839
_cell_length_b   10.09076402
_cell_length_c   13.75561110
_cell_angle_alpha   47.63928025
_cell_angle_beta   46.98587573
_cell_angle_gamma   85.37484402
_symmetry_Int_Tables_number   1
_chemical_formula_structural   GeH2(C2F5)2
_chemical_formula_sum   'Ge2 H4 C8 F20'
_cell_volume   545.01135248
_cell_formula_units_Z   2
loop_
 _symmetry_equiv_pos_site_id
 _symmetry_equiv_pos_as_xyz
  1  'x, y, z'
loop_
 _atom_site_type_symbol
 _atom_site_label
 _atom_site_symmetry_multiplicity
 _atom_site_fract_x
 _atom_site_fract_y
 _atom_site_fract_z
 _atom_site_occupancy
  Ge  Ge0  1  0.25384948  0.25384948  0.74615052  1.0
  Ge  Ge1  1  0.50384948  -0.49615052  0.99615052  1.0
  H  H2  1  0.47560262  0.31400718  0.55648082  1.0
  H  H3  1  0.31400718  0.47560262  0.65390939  1.0
  H  H4  1  0.69351918  0.59609061  0.77439738  1.0
  H  H5  1  0.59609061  0.69351918  -0.06400718  1.0
  C  C6  1  -0.02215989  0.09029446  0.86552293  1.0
  C  C7  1  0.09029446  -0.02215989  1.06634250  1.0
  C  C8  1  0.38447707  1.18365750  0.27215989  1.0
  C  C9  1  1.18365750  0.38447707  0.15970554  1.0
  C  C10  1  0.01297983  0.27862867  0.68654145  1.0
  C  C11  1  0.27862867  0.01297983  1.02185005  1.0
  C  C12  1  0.56345855  1.22814995  0.23702017  1.0
  C  C13  1  1.22814995  0.56345855  -0.02862867  1.0
  F  F14  1  0.74587845  0.94615279  0.09837006  1.0
  F  F15  1  0.94615279  0.74587845  0.20959870  1.0
  F  F16  1  0.15162994  0.04040130  0.50412155  1.0
  F  F17  1  0.04040130  0.15162994  1.30384721  1.0
  F  F18  1  0.96687053  0.93172855  -0.10830980  1.0
  F  F19  1  0.93172855  0.96687053  0.20971072  1.0
  F  F20  1  0.35830980  1.04028928  0.28312947  1.0
  F  F21  1  1.04028928  0.35830980  0.31827145  1.0
  F  F22  1  0.00157814  0.42486459  0.67206436  1.0
  F  F23  1  0.42486459  0.00157814  0.90149291  1.0
  F  F24  1  0.57793564  0.34850709  0.24842186  1.0
  F  F25  1  0.34850709  0.57793564  0.82513541  1.0
  F  F26  1  0.24271714  0.43082926  0.45179726  1.0
  F  F27  1  0.43082926  0.24271714  0.87465634  1.0
  F  F28  1  -0.20179726  0.37534366  1.00728286  1.0
  F  F29  1  0.37534366  -0.20179726  0.81917074  1.0
  F  F30  1  0.83507033  1.15978788  -0.23488445  1.0
  F  F31  1  1.15978788  0.83507033  0.24002624  1.0
  F  F32  1  0.48488445  1.00997376  0.41492967  1.0
  F  F33  1  1.00997376  0.48488445  0.09021212  1.0
