# generated using pymatgen
data_BaEuFe2O5
_symmetry_space_group_name_H-M   'P 1'
_cell_length_a   7.87736247
_cell_length_b   3.93495494
_cell_length_c   7.59325201
_cell_angle_alpha   90.00000000
_cell_angle_beta   90.00000000
_cell_angle_gamma   90.00000000
_symmetry_Int_Tables_number   1
_chemical_formula_structural   BaEuFe2O5
_chemical_formula_sum   'Ba2 Eu2 Fe4 O10'
_cell_volume   235.36853650
_cell_formula_units_Z   2
loop_
 _symmetry_equiv_pos_site_id
 _symmetry_equiv_pos_as_xyz
  1  'x, y, z'
loop_
 _atom_site_type_symbol
 _atom_site_label
 _atom_site_symmetry_multiplicity
 _atom_site_fract_x
 _atom_site_fract_y
 _atom_site_fract_z
 _atom_site_occupancy
  Ba  Ba0  1  0.50000000  0.00000000  0.00000000  1.0
  Ba  Ba1  1  0.00000000  0.00000000  0.00000000  1.0
  Eu  Eu2  1  0.50000000  0.00000000  0.50000000  1.0
  Eu  Eu3  1  0.00000000  0.00000000  0.50000000  1.0
  Fe  Fe4  1  0.25000000  0.50000000  0.26459686  1.0
  Fe  Fe5  1  0.75000000  0.50000000  0.73540314  1.0
  Fe  Fe6  1  0.75000000  0.50000000  0.26468111  1.0
  Fe  Fe7  1  0.25000000  0.50000000  0.73531889  1.0
  O  O8  1  0.25000000  0.50000000  0.00000494  1.0
  O  O9  1  0.75000000  0.50000000  0.99999506  1.0
  O  O10  1  0.75000000  0.00000000  0.29559308  1.0
  O  O11  1  0.25000000  0.00000000  0.70440692  1.0
  O  O12  1  0.25000000  0.00000000  0.29551936  1.0
  O  O13  1  0.75000000  0.00000000  0.70448064  1.0
  O  O14  1  0.50002867  0.50000000  0.29531776  1.0
  O  O15  1  0.49997133  0.50000000  0.70468224  1.0
  O  O16  1  -0.00002867  0.50000000  0.29531776  1.0
  O  O17  1  1.00002867  0.50000000  0.70468224  1.0
