# generated using pymatgen
data_K2SnSe3
_symmetry_space_group_name_H-M   'P 1'
_cell_length_a   8.87293447
_cell_length_b   7.76452899
_cell_length_c   6.96503465
_cell_angle_alpha   67.74649528
_cell_angle_beta   74.89571899
_cell_angle_gamma   76.61277435
_symmetry_Int_Tables_number   1
_chemical_formula_structural   K2SnSe3
_chemical_formula_sum   'K4 Sn2 Se6'
_cell_volume   424.00169827
_cell_formula_units_Z   2
loop_
 _symmetry_equiv_pos_site_id
 _symmetry_equiv_pos_as_xyz
  1  'x, y, z'
loop_
 _atom_site_type_symbol
 _atom_site_label
 _atom_site_symmetry_multiplicity
 _atom_site_fract_x
 _atom_site_fract_y
 _atom_site_fract_z
 _atom_site_occupancy
  K  K0  1  -0.81659498  -0.53001417  -0.85337387  1.0
  K  K1  1  -0.18340502  -0.46998583  -0.14662613  1.0
  K  K2  1  -0.39925200  -0.79233983  -0.38350388  1.0
  K  K3  1  -0.60074800  -0.20766017  -0.61649612  1.0
  Sn  Sn4  1  -0.81209389  -0.93691081  -0.15024494  1.0
  Sn  Sn5  1  -0.18790611  -0.06308919  -0.84975506  1.0
  Se  Se6  1  -0.42326294  -0.81050260  -0.85926933  1.0
  Se  Se7  1  -0.57673706  -0.18949740  -0.14073067  1.0
  Se  Se8  1  -0.95612976  -0.95961804  -0.76290542  1.0
  Se  Se9  1  -0.04387024  -0.04038196  -0.23709458  1.0
  Se  Se10  1  -0.78539579  -0.59687757  -0.34423919  1.0
  Se  Se11  1  -0.21460421  -0.40312243  -0.65576081  1.0
