# generated using pymatgen
data_Yb2PbS4
_symmetry_space_group_name_H-M   'P 1'
_cell_length_a   12.13953123
_cell_length_b   3.95173602
_cell_length_c   14.23392076
_cell_angle_alpha   90.00000000
_cell_angle_beta   90.00000000
_cell_angle_gamma   90.00000000
_symmetry_Int_Tables_number   1
_chemical_formula_structural   Yb2PbS4
_chemical_formula_sum   'Yb8 Pb4 S16'
_cell_volume   682.83281872
_cell_formula_units_Z   4
loop_
 _symmetry_equiv_pos_site_id
 _symmetry_equiv_pos_as_xyz
  1  'x, y, z'
loop_
 _atom_site_type_symbol
 _atom_site_label
 _atom_site_symmetry_multiplicity
 _atom_site_fract_x
 _atom_site_fract_y
 _atom_site_fract_z
 _atom_site_occupancy
  Yb  Yb0  1  0.91182292  0.75000000  0.40468620  1.0
  Yb  Yb1  1  0.41182292  0.75000000  0.09531380  1.0
  Yb  Yb2  1  0.08817708  0.25000000  0.59531380  1.0
  Yb  Yb3  1  0.58817708  0.25000000  0.90468620  1.0
  Yb  Yb4  1  0.43702428  0.75000000  0.61450087  1.0
  Yb  Yb5  1  0.93702428  0.75000000  0.88549913  1.0
  Yb  Yb6  1  0.56297572  0.25000000  0.38549913  1.0
  Yb  Yb7  1  0.06297572  0.25000000  0.11450087  1.0
  Pb  Pb8  1  0.74169923  0.75000000  0.67029766  1.0
  Pb  Pb9  1  0.24169923  0.75000000  0.82970234  1.0
  Pb  Pb10  1  0.25830077  0.25000000  0.32970234  1.0
  Pb  Pb11  1  0.75830077  0.25000000  0.17029766  1.0
  S  S12  1  0.91285017  0.75000000  0.07459029  1.0
  S  S13  1  0.41285017  0.75000000  0.42540971  1.0
  S  S14  1  0.08714983  0.25000000  0.92540971  1.0
  S  S15  1  0.58714983  0.25000000  0.57459029  1.0
  S  S16  1  0.70406162  0.75000000  0.32786533  1.0
  S  S17  1  0.20406162  0.75000000  0.17213467  1.0
  S  S18  1  0.29593838  0.25000000  0.67213467  1.0
  S  S19  1  0.79593838  0.25000000  0.82786533  1.0
  S  S20  1  0.62305350  0.75000000  0.03222914  1.0
  S  S21  1  0.12305350  0.75000000  0.46777086  1.0
  S  S22  1  0.37694650  0.25000000  0.96777086  1.0
  S  S23  1  0.87694650  0.25000000  0.53222914  1.0
  S  S24  1  0.54036971  0.75000000  0.78330967  1.0
  S  S25  1  0.04036971  0.75000000  0.71669033  1.0
  S  S26  1  0.45963029  0.25000000  0.21669033  1.0
  S  S27  1  0.95963029  0.25000000  0.28330967  1.0
