# generated using pymatgen
data_ZnSb2(XeF4)6
_symmetry_space_group_name_H-M   'P 1'
_cell_length_a   9.88157709
_cell_length_b   9.88157709
_cell_length_c   9.88157709
_cell_angle_alpha   64.76093430
_cell_angle_beta   64.76093430
_cell_angle_gamma   64.76093430
_symmetry_Int_Tables_number   1
_chemical_formula_structural   ZnSb2(XeF4)6
_chemical_formula_sum   'Zn1 Sb2 Xe6 F24'
_cell_volume   753.36289795
_cell_formula_units_Z   1
loop_
 _symmetry_equiv_pos_site_id
 _symmetry_equiv_pos_as_xyz
  1  'x, y, z'
loop_
 _atom_site_type_symbol
 _atom_site_label
 _atom_site_symmetry_multiplicity
 _atom_site_fract_x
 _atom_site_fract_y
 _atom_site_fract_z
 _atom_site_occupancy
  Zn  Zn0  1  0.00000000  0.00000000  0.00000000  1.0
  Sb  Sb1  1  0.74550077  0.74550077  -0.25449923  1.0
  Sb  Sb2  1  1.25449923  1.25449923  0.25449923  1.0
  Xe  Xe3  1  0.68145971  0.79824210  -0.72966517  1.0
  Xe  Xe4  1  0.20175790  0.72966517  -0.68145971  1.0
  Xe  Xe5  1  0.72966517  0.31854029  -0.79824210  1.0
  Xe  Xe6  1  0.31854029  0.20175790  -0.27033483  1.0
  Xe  Xe7  1  0.79824210  0.27033483  -0.31854029  1.0
  Xe  Xe8  1  0.27033483  0.68145971  -0.20175790  1.0
  F  F9  1  0.91141575  -0.18576754  0.12628001  1.0
  F  F10  1  0.18576754  0.87371999  -0.91141575  1.0
  F  F11  1  0.87371999  0.08858425  -0.81423246  1.0
  F  F12  1  0.08858425  0.18576754  -0.12628001  1.0
  F  F13  1  0.81423246  0.12628001  -0.08858425  1.0
  F  F14  1  1.12628001  -0.08858425  -0.18576754  1.0
  F  F15  1  0.64330630  0.58267584  -0.13604480  1.0
  F  F16  1  1.41732416  1.13604480  0.35669370  1.0
  F  F17  1  1.13604480  1.35669370  0.41732416  1.0
  F  F18  1  1.35669370  1.41732416  0.13604480  1.0
  F  F19  1  0.58267584  0.86395520  -0.35669370  1.0
  F  F20  1  0.86395520  0.64330630  -0.41732416  1.0
  F  F21  1  0.40732914  0.46938850  -0.22441676  1.0
  F  F22  1  0.53061150  0.22441676  -0.40732914  1.0
  F  F23  1  0.22441676  0.59267086  -0.46938850  1.0
  F  F24  1  0.59267086  0.53061150  -0.77558324  1.0
  F  F25  1  0.46938850  0.77558324  -0.59267086  1.0
  F  F26  1  0.77558324  0.40732914  -0.53061150  1.0
  F  F27  1  0.62307039  0.85156607  -0.09598787  1.0
  F  F28  1  1.14843393  1.09598787  0.37692961  1.0
  F  F29  1  1.09598787  1.37692961  0.14843393  1.0
  F  F30  1  1.37692961  1.14843393  0.09598787  1.0
  F  F31  1  0.85156607  0.90401213  -0.37692961  1.0
  F  F32  1  0.90401213  0.62307039  -0.14843393  1.0
