# generated using pymatgen
data_Hf13Ir4
_symmetry_space_group_name_H-M   'P 1'
_cell_length_a   11.56187596
_cell_length_b   11.56187596
_cell_length_c   11.56187596
_cell_angle_alpha   60.00000000
_cell_angle_beta   60.00000000
_cell_angle_gamma   60.00000000
_symmetry_Int_Tables_number   1
_chemical_formula_structural   Hf13Ir4
_chemical_formula_sum   'Hf26 Ir8'
_cell_volume   1092.87356004
_cell_formula_units_Z   2
loop_
 _symmetry_equiv_pos_site_id
 _symmetry_equiv_pos_as_xyz
  1  'x, y, z'
loop_
 _atom_site_type_symbol
 _atom_site_label
 _atom_site_symmetry_multiplicity
 _atom_site_fract_x
 _atom_site_fract_y
 _atom_site_fract_z
 _atom_site_occupancy
  Hf  Hf0  1  0.93686157  -0.55767452  0.68395139  1.0
  Hf  Hf1  1  -0.06313843  0.68395139  0.44232548  1.0
  Hf  Hf2  1  -0.19232548  0.31313843  0.31313843  1.0
  Hf  Hf3  1  0.56604861  0.31313843  0.31313843  1.0
  Hf  Hf4  1  -0.55767452  0.93686157  0.68395139  1.0
  Hf  Hf5  1  0.93686157  -0.06313843  0.68395139  1.0
  Hf  Hf6  1  0.93686157  -0.31604861  0.93686157  1.0
  Hf  Hf7  1  -0.55767452  0.68395139  0.93686157  1.0
  Hf  Hf8  1  0.31313843  -0.19232548  0.31313843  1.0
  Hf  Hf9  1  0.31313843  0.31313843  -0.19232548  1.0
  Hf  Hf10  1  0.56604861  0.31313843  -0.19232548  1.0
  Hf  Hf11  1  0.56604861  -0.19232548  0.31313843  1.0
  Hf  Hf12  1  0.68395139  -0.06313843  0.93686157  1.0
  Hf  Hf13  1  -0.55767452  0.93686157  0.93686157  1.0
  Hf  Hf14  1  0.31313843  0.56604861  -0.19232548  1.0
  Hf  Hf15  1  0.31313843  -0.19232548  0.56604861  1.0
  Hf  Hf16  1  -0.31604861  0.93686157  0.44232548  1.0
  Hf  Hf17  1  0.68395139  -0.55767452  0.93686157  1.0
  Hf  Hf18  1  0.93686157  -0.55767452  0.93686157  1.0
  Hf  Hf19  1  -0.06313843  0.93686157  0.44232548  1.0
  Hf  Hf20  1  0.31313843  0.56604861  0.31313843  1.0
  Hf  Hf21  1  -0.19232548  0.56604861  0.31313843  1.0
  Hf  Hf22  1  -0.19232548  0.31313843  0.56604861  1.0
  Hf  Hf23  1  0.31313843  0.31313843  0.56604861  1.0
  Hf  Hf24  1  0.50000000  0.50000000  -0.50000000  1.0
  Hf  Hf25  1  0.75000000  -0.25000000  0.75000000  1.0
  Ir  Ir26  1  0.66536486  -0.33463514  1.00390541  1.0
  Ir  Ir27  1  0.66536486  0.00390541  0.66536486  1.0
  Ir  Ir28  1  0.58463514  -0.41536486  0.58463514  1.0
  Ir  Ir29  1  1.24609459  -0.41536486  0.58463514  1.0
  Ir  Ir30  1  1.00390541  -0.33463514  0.66536486  1.0
  Ir  Ir31  1  0.66536486  -0.33463514  0.66536486  1.0
  Ir  Ir32  1  0.58463514  0.24609459  0.58463514  1.0
  Ir  Ir33  1  0.58463514  -0.41536486  1.24609459  1.0
