# generated using pymatgen
data_Nb3P
_symmetry_space_group_name_H-M   'P 1'
_cell_length_a   7.65016826
_cell_length_b   7.65016826
_cell_length_c   7.65016826
_cell_angle_alpha   96.32069340
_cell_angle_beta   96.32069340
_cell_angle_gamma   141.24349535
_symmetry_Int_Tables_number   1
_chemical_formula_structural   Nb3P
_chemical_formula_sum   'Nb12 P4'
_cell_volume   264.40390539
_cell_formula_units_Z   4
loop_
 _symmetry_equiv_pos_site_id
 _symmetry_equiv_pos_as_xyz
  1  'x, y, z'
loop_
 _atom_site_type_symbol
 _atom_site_label
 _atom_site_symmetry_multiplicity
 _atom_site_fract_x
 _atom_site_fract_y
 _atom_site_fract_z
 _atom_site_occupancy
  Nb  Nb0  1  1.14453550  0.32729749  0.98555358  1.0
  Nb  Nb1  1  0.34174392  1.15898193  1.01444642  1.0
  Nb  Nb2  1  0.67270251  0.65825608  0.81723801  1.0
  Nb  Nb3  1  0.84101807  0.85546450  1.18276199  1.0
  Nb  Nb4  1  0.96871106  1.34373390  1.34122696  1.0
  Nb  Nb5  1  1.00250694  0.62748410  0.65877304  1.0
  Nb  Nb6  1  0.65626610  0.99749306  1.62497716  1.0
  Nb  Nb7  1  0.37251590  0.03128894  0.37502284  1.0
  Nb  Nb8  1  1.52583641  0.93106078  0.97140849  1.0
  Nb  Nb9  1  0.95965229  1.55442792  1.02859151  1.0
  Nb  Nb10  1  1.06893922  1.04034771  0.59477563  1.0
  Nb  Nb11  1  1.44557208  1.47416359  1.40522437  1.0
  P  P12  1  1.45499455  1.77702276  1.26291262  1.0
  P  P13  1  1.51411014  1.19208193  0.73708738  1.0
  P  P14  1  1.22297724  1.48588986  1.67797179  1.0
  P  P15  1  0.80791807  0.54500545  0.32202821  1.0
