# generated using pymatgen
data_Ta6S
_symmetry_space_group_name_H-M   'P 1'
_cell_length_a   5.27168226
_cell_length_b   7.63413715
_cell_length_c   7.66619163
_cell_angle_alpha   59.20373816
_cell_angle_beta   68.61700498
_cell_angle_gamma   77.04237472
_symmetry_Int_Tables_number   1
_chemical_formula_structural   Ta6S
_chemical_formula_sum   'Ta12 S2'
_cell_volume   246.50486661
_cell_formula_units_Z   2
loop_
 _symmetry_equiv_pos_site_id
 _symmetry_equiv_pos_as_xyz
  1  'x, y, z'
loop_
 _atom_site_type_symbol
 _atom_site_label
 _atom_site_symmetry_multiplicity
 _atom_site_fract_x
 _atom_site_fract_y
 _atom_site_fract_z
 _atom_site_occupancy
  Ta  Ta0  1  -0.37013679  -0.70549992  0.07671883  1.0
  Ta  Ta1  1  0.37013679  -0.29450008  -0.07671883  1.0
  Ta  Ta2  1  -0.57169671  -0.84901254  0.57040258  1.0
  Ta  Ta3  1  0.57169671  -0.15098746  -0.57040258  1.0
  Ta  Ta4  1  0.16562046  -0.30955367  -0.62689279  1.0
  Ta  Ta5  1  -0.16562046  -0.69044633  0.62689279  1.0
  Ta  Ta6  1  0.21458617  -0.59090141  -0.18234577  1.0
  Ta  Ta7  1  -0.21458617  -0.40909859  0.18234577  1.0
  Ta  Ta8  1  0.04612459  -0.86426875  0.28860921  1.0
  Ta  Ta9  1  -0.04612459  -0.13573125  -0.28860921  1.0
  Ta  Ta10  1  -0.50000000  -0.00000000  0.00000000  1.0
  Ta  Ta11  1  0.00000000  0.00000000  0.00000000  1.0
  S  S12  1  -0.22392031  -0.41480677  -0.28409105  1.0
  S  S13  1  0.22392031  -0.58519323  0.28409105  1.0
