# generated using pymatgen
data_KCu2SbS3
_symmetry_space_group_name_H-M   'P 1'
_cell_length_a   10.56895652
_cell_length_b   9.21980871
_cell_length_c   6.45867490
_cell_angle_alpha   91.04614399
_cell_angle_beta   90.87217639
_cell_angle_gamma   90.64715139
_symmetry_Int_Tables_number   1
_chemical_formula_structural   KCu2SbS3
_chemical_formula_sum   'K4 Cu8 Sb4 S12'
_cell_volume   629.13758508
_cell_formula_units_Z   4
loop_
 _symmetry_equiv_pos_site_id
 _symmetry_equiv_pos_as_xyz
  1  'x, y, z'
loop_
 _atom_site_type_symbol
 _atom_site_label
 _atom_site_symmetry_multiplicity
 _atom_site_fract_x
 _atom_site_fract_y
 _atom_site_fract_z
 _atom_site_occupancy
  K  K0  1  -0.12601252  -0.56611423  -0.79191628  1.0
  K  K1  1  -0.87398748  -0.43388577  -0.20808372  1.0
  K  K2  1  -0.36903784  -0.57379688  -0.30107381  1.0
  K  K3  1  -0.63096216  -0.42620312  -0.69892619  1.0
  Cu  Cu4  1  -0.35983867  -0.26218337  -0.98045435  1.0
  Cu  Cu5  1  -0.64016133  -0.73781663  -0.01954565  1.0
  Cu  Cu6  1  -0.17201604  -0.88628593  -0.50834314  1.0
  Cu  Cu7  1  -0.82798396  -0.11371407  -0.49165686  1.0
  Cu  Cu8  1  -0.96119822  -0.84536086  -0.07393728  1.0
  Cu  Cu9  1  -0.03880178  -0.15463914  -0.92606272  1.0
  Cu  Cu10  1  -0.45310856  -0.16253892  -0.41890659  1.0
  Cu  Cu11  1  -0.54689144  -0.83746108  -0.58109341  1.0
  Sb  Sb12  1  -0.14887694  -0.18028436  -0.46364034  1.0
  Sb  Sb13  1  -0.85112306  -0.81971564  -0.53635966  1.0
  Sb  Sb14  1  -0.35359539  -0.95529424  -0.97917476  1.0
  Sb  Sb15  1  -0.64640461  -0.04470576  -0.02082524  1.0
  S  S16  1  -0.44702563  -0.71785616  -0.84999607  1.0
  S  S17  1  -0.55297437  -0.28214384  -0.15000393  1.0
  S  S18  1  -0.36603070  -0.92487419  -0.36779439  1.0
  S  S19  1  -0.63396930  -0.07512581  -0.63220561  1.0
  S  S20  1  -0.12866018  -0.92302280  -0.85646860  1.0
  S  S21  1  -0.87133982  -0.07697720  -0.14353140  1.0
  S  S22  1  -0.95917630  -0.28345116  -0.64627406  1.0
  S  S23  1  -0.04082370  -0.71654884  -0.35372594  1.0
  S  S24  1  -0.33379862  -0.31116662  -0.63403528  1.0
  S  S25  1  -0.66620138  -0.68883338  -0.36596472  1.0
  S  S26  1  -0.16842464  -0.31242962  -0.12701770  1.0
  S  S27  1  -0.83157536  -0.68757038  -0.87298230  1.0
