# generated using pymatgen
data_CaAlAu
_symmetry_space_group_name_H-M   'P 1'
_cell_length_a   7.31667928
_cell_length_b   4.54081263
_cell_length_c   7.79550187
_cell_angle_alpha   90.00000000
_cell_angle_beta   90.00000000
_cell_angle_gamma   90.00000000
_symmetry_Int_Tables_number   1
_chemical_formula_structural   CaAlAu
_chemical_formula_sum   'Ca4 Al4 Au4'
_cell_volume   258.99517884
_cell_formula_units_Z   4
loop_
 _symmetry_equiv_pos_site_id
 _symmetry_equiv_pos_as_xyz
  1  'x, y, z'
loop_
 _atom_site_type_symbol
 _atom_site_label
 _atom_site_symmetry_multiplicity
 _atom_site_fract_x
 _atom_site_fract_y
 _atom_site_fract_z
 _atom_site_occupancy
  Ca  Ca0  1  0.98478398  0.75000000  0.68258822  1.0
  Ca  Ca1  1  0.48478398  0.75000000  0.81741178  1.0
  Ca  Ca2  1  0.01521602  0.25000000  0.31741178  1.0
  Ca  Ca3  1  0.51521602  0.25000000  0.18258822  1.0
  Al  Al4  1  0.84483388  0.75000000  0.06806083  1.0
  Al  Al5  1  0.34483388  0.75000000  0.43193917  1.0
  Al  Al6  1  0.15516612  0.25000000  0.93193917  1.0
  Al  Al7  1  0.65516612  0.25000000  0.56806083  1.0
  Au  Au8  1  0.70809682  0.75000000  0.38678270  1.0
  Au  Au9  1  0.20809682  0.75000000  0.11321730  1.0
  Au  Au10  1  0.29190318  0.25000000  0.61321730  1.0
  Au  Au11  1  0.79190318  0.25000000  0.88678270  1.0
