# generated using pymatgen
data_MgH2
_symmetry_space_group_name_H-M   'P 1'
_cell_length_a   5.29007083
_cell_length_b   3.11666922
_cell_length_c   6.01240378
_cell_angle_alpha   90.00000000
_cell_angle_beta   90.00000000
_cell_angle_gamma   90.00000000
_symmetry_Int_Tables_number   1
_chemical_formula_structural   MgH2
_chemical_formula_sum   'Mg4 H8'
_cell_volume   99.12891168
_cell_formula_units_Z   4
loop_
 _symmetry_equiv_pos_site_id
 _symmetry_equiv_pos_as_xyz
  1  'x, y, z'
loop_
 _atom_site_type_symbol
 _atom_site_label
 _atom_site_symmetry_multiplicity
 _atom_site_fract_x
 _atom_site_fract_y
 _atom_site_fract_z
 _atom_site_occupancy
  Mg  Mg0  1  0.74865922  0.75000000  0.39737846  1.0
  Mg  Mg1  1  0.24865922  0.75000000  0.10262154  1.0
  Mg  Mg2  1  0.25134078  0.25000000  0.60262154  1.0
  Mg  Mg3  1  0.75134078  0.25000000  0.89737846  1.0
  H  H4  1  0.97965375  0.75000000  0.66532611  1.0
  H  H5  1  0.47965375  0.75000000  0.83467389  1.0
  H  H6  1  0.02034625  0.25000000  0.33467389  1.0
  H  H7  1  0.52034625  0.25000000  0.16532611  1.0
  H  H8  1  0.86143828  0.75000000  0.07557028  1.0
  H  H9  1  0.36143828  0.75000000  0.42442972  1.0
  H  H10  1  0.13856172  0.25000000  0.92442972  1.0
  H  H11  1  0.63856172  0.25000000  0.57557028  1.0
