# generated using pymatgen
data_AgAu(CN)2
_symmetry_space_group_name_H-M   'P 1'
_cell_length_a   6.31608116
_cell_length_b   6.31608116
_cell_length_c   6.31608116
_cell_angle_alpha   144.77959857
_cell_angle_beta   121.47865496
_cell_angle_gamma   70.17670198
_symmetry_Int_Tables_number   1
_chemical_formula_structural   AgAu(CN)2
_chemical_formula_sum   'Ag1 Au1 C2 N2'
_cell_volume   121.95423839
_cell_formula_units_Z   1
loop_
 _symmetry_equiv_pos_site_id
 _symmetry_equiv_pos_as_xyz
  1  'x, y, z'
loop_
 _atom_site_type_symbol
 _atom_site_label
 _atom_site_symmetry_multiplicity
 _atom_site_fract_x
 _atom_site_fract_y
 _atom_site_fract_z
 _atom_site_occupancy
  Ag  Ag0  1  0.50000000  0.50000000  1.00000000  1.0
  Au  Au1  1  0.00000000  0.00000000  0.00000000  1.0
  C  C2  1  0.80913822  0.80913822  1.00000000  1.0
  C  C3  1  0.19086178  0.19086178  -0.00000000  1.0
  N  N4  1  0.69647713  0.69647713  1.00000000  1.0
  N  N5  1  0.30352287  0.30352287  0.00000000  1.0
