# generated using pymatgen
data_TlBF4
_symmetry_space_group_name_H-M   'P 1'
_cell_length_a   9.32676009
_cell_length_b   5.82091380
_cell_length_c   7.52385909
_cell_angle_alpha   90.00000000
_cell_angle_beta   90.00000000
_cell_angle_gamma   90.00000000
_symmetry_Int_Tables_number   1
_chemical_formula_structural   TlBF4
_chemical_formula_sum   'Tl4 B4 F16'
_cell_volume   408.47231535
_cell_formula_units_Z   4
loop_
 _symmetry_equiv_pos_site_id
 _symmetry_equiv_pos_as_xyz
  1  'x, y, z'
loop_
 _atom_site_type_symbol
 _atom_site_label
 _atom_site_symmetry_multiplicity
 _atom_site_fract_x
 _atom_site_fract_y
 _atom_site_fract_z
 _atom_site_occupancy
  Tl  Tl0  1  0.31401294  0.75000000  0.16329832  1.0
  Tl  Tl1  1  0.81401294  0.75000000  0.33670168  1.0
  Tl  Tl2  1  0.68598706  0.25000000  0.83670168  1.0
  Tl  Tl3  1  0.18598706  0.25000000  0.66329832  1.0
  B  B4  1  0.43876797  0.75000000  0.69062229  1.0
  B  B5  1  0.93876797  0.75000000  0.80937771  1.0
  B  B6  1  0.56123203  0.25000000  0.30937771  1.0
  B  B7  1  0.06123203  0.25000000  0.19062229  1.0
  F  F8  1  0.42237352  0.94893335  0.80008525  1.0
  F  F9  1  0.42237352  0.55106665  0.80008525  1.0
  F  F10  1  0.92237352  0.94893335  0.69991475  1.0
  F  F11  1  0.92237352  0.55106665  0.69991475  1.0
  F  F12  1  0.57762648  0.44893335  0.19991475  1.0
  F  F13  1  0.57762648  0.05106665  0.19991475  1.0
  F  F14  1  0.07762648  0.44893335  0.30008525  1.0
  F  F15  1  0.07762648  0.05106665  0.30008525  1.0
  F  F16  1  0.33029587  0.75000000  0.55919493  1.0
  F  F17  1  0.83029587  0.75000000  0.94080507  1.0
  F  F18  1  0.66970413  0.25000000  0.44080507  1.0
  F  F19  1  0.16970413  0.25000000  0.05919493  1.0
  F  F20  1  0.07595247  0.75000000  0.88649025  1.0
  F  F21  1  0.57595247  0.75000000  0.61350975  1.0
  F  F22  1  0.92404753  0.25000000  0.11350975  1.0
  F  F23  1  0.42404753  0.25000000  0.38649025  1.0
