# generated using pymatgen
data_Ca5V3O12F
_symmetry_space_group_name_H-M   'P 1'
_cell_length_a   9.97837682
_cell_length_b   6.89111692
_cell_length_c   9.97785147
_cell_angle_alpha   90.00214169
_cell_angle_beta   120.00145095
_cell_angle_gamma   90.00608218
_symmetry_Int_Tables_number   1
_chemical_formula_structural   Ca5V3O12F
_chemical_formula_sum   'Ca10 V6 O24 F2'
_cell_volume   594.17015123
_cell_formula_units_Z   2
loop_
 _symmetry_equiv_pos_site_id
 _symmetry_equiv_pos_as_xyz
  1  'x, y, z'
loop_
 _atom_site_type_symbol
 _atom_site_label
 _atom_site_symmetry_multiplicity
 _atom_site_fract_x
 _atom_site_fract_y
 _atom_site_fract_z
 _atom_site_occupancy
  Ca  Ca0  1  -0.66624939  -0.00229376  -0.83294156  1.0
  Ca  Ca1  1  -0.33375061  0.00229376  -0.16705844  1.0
  Ca  Ca2  1  -0.77016502  -0.74997305  -0.51967792  1.0
  Ca  Ca3  1  -0.22983498  -0.25002695  -0.48032208  1.0
  Ca  Ca4  1  -0.24954977  -0.75004620  -0.72988172  1.0
  Ca  Ca5  1  -0.75045023  -0.24995380  -0.27011828  1.0
  Ca  Ca6  1  -0.66701577  -0.49802583  -0.83364447  1.0
  Ca  Ca7  1  -0.33298423  -0.50197417  -0.16635553  1.0
  Ca  Ca8  1  -1.01976303  -0.25008146  -0.74966690  1.0
  Ca  Ca9  1  0.01976303  -0.74991854  -0.25033310  1.0
  V  V10  1  -0.97150929  -0.75031238  -0.87564274  1.0
  V  V11  1  -0.02849071  -0.24968762  -0.12435726  1.0
  V  V12  1  -0.40419871  -0.74987330  -0.52852850  1.0
  V  V13  1  -0.59580129  -0.25012670  -0.47147150  1.0
  V  V14  1  -0.37572844  -0.25016448  -0.90424065  1.0
  V  V15  1  -0.62427156  -0.74983552  -0.09575935  1.0
  O  O16  1  -0.91676668  -0.94587268  -0.75284709  1.0
  O  O17  1  -0.08323332  -0.05412732  -0.24715291  1.0
  O  O18  1  -0.33686436  -0.94598440  -0.58345894  1.0
  O  O19  1  -0.66313564  -0.05401560  -0.41654106  1.0
  O  O20  1  -0.74689338  -0.94554841  -0.16396120  1.0
  O  O21  1  -0.25310662  -0.05445159  -0.83603880  1.0
  O  O22  1  -0.53095664  -0.75047055  -0.89437869  1.0
  O  O23  1  -0.46904336  -0.24952945  -0.10562131  1.0
  O  O24  1  -0.16506986  -0.75032728  -1.00437881  1.0
  O  O25  1  -0.83493014  -0.24967272  0.00437881  1.0
  O  O26  1  -0.60558206  -0.74969351  -0.63654707  1.0
  O  O27  1  -0.39441794  -0.25030649  -0.36345293  1.0
  O  O28  1  -0.86343152  -0.75066346  -0.96894049  1.0
  O  O29  1  -0.13656848  -0.24933654  -0.03105951  1.0
  O  O30  1  -0.91663920  -0.55412774  -0.75342546  1.0
  O  O31  1  -0.08336080  -0.44587226  -0.24657454  1.0
  O  O32  1  -0.25338392  -0.44623614  -0.83719401  1.0
  O  O33  1  -0.74661608  -0.55376386  -0.16280599  1.0
  O  O34  1  -0.66371913  -0.44580601  -0.41669169  1.0
  O  O35  1  -0.33628087  -0.55419399  -0.58330831  1.0
  O  O36  1  -0.66075168  -0.25012964  -0.66506795  1.0
  O  O37  1  -0.33924832  -0.74987036  -0.33493205  1.0
  O  O38  1  -0.50437698  -0.25049918  -0.83930628  1.0
  O  O39  1  -0.49562302  -0.74950082  -0.16069372  1.0
  F  F40  1  -1.00001269  -0.25030808  -0.50007688  1.0
  F  F41  1  0.00001269  -0.74969192  -0.49992312  1.0
