# generated using pymatgen
data_Mn3H24(O3F2)4
_symmetry_space_group_name_H-M   'P 1'
_cell_length_a   6.32855762
_cell_length_b   9.28274241
_cell_length_c   9.50267398
_cell_angle_alpha   59.67438523
_cell_angle_beta   66.77677877
_cell_angle_gamma   76.23085631
_symmetry_Int_Tables_number   1
_chemical_formula_structural   Mn3H24(O3F2)4
_chemical_formula_sum   'Mn3 H24 O12 F8'
_cell_volume   442.28668991
_cell_formula_units_Z   1
loop_
 _symmetry_equiv_pos_site_id
 _symmetry_equiv_pos_as_xyz
  1  'x, y, z'
loop_
 _atom_site_type_symbol
 _atom_site_label
 _atom_site_symmetry_multiplicity
 _atom_site_fract_x
 _atom_site_fract_y
 _atom_site_fract_z
 _atom_site_occupancy
  Mn  Mn0  1  0.05088467  -0.61772611  0.80161297  1.0
  Mn  Mn1  1  -0.05088467  -0.38227389  0.19838703  1.0
  Mn  Mn2  1  -0.50000000  0.00000000  0.50000000  1.0
  H  H3  1  0.47315982  -0.69319522  0.49204153  1.0
  H  H4  1  -0.47315982  -0.30680478  0.50795847  1.0
  H  H5  1  0.26406390  -0.29115450  0.61887091  1.0
  H  H6  1  -0.26406390  -0.70884550  0.38112909  1.0
  H  H7  1  0.70947293  -1.01520968  0.18297014  1.0
  H  H8  1  -0.70947293  0.01520968  0.81702986  1.0
  H  H9  1  0.67004198  -0.82354538  0.13625927  1.0
  H  H10  1  -0.67004198  -0.17645462  0.86374073  1.0
  H  H11  1  -0.17972500  -0.05241959  0.90791252  1.0
  H  H12  1  0.17972500  -0.94758041  0.09208748  1.0
  H  H13  1  0.02355207  -0.93788372  0.61496499  1.0
  H  H14  1  -0.02355207  -0.06211628  0.38503502  1.0
  H  H15  1  0.11857525  -0.78976046  0.42380065  1.0
  H  H16  1  -0.11857525  -0.21023954  0.57619935  1.0
  H  H17  1  -0.23547112  -0.76940842  0.74811978  1.0
  H  H18  1  0.23547112  -0.23059158  0.25188022  1.0
  H  H19  1  0.33840375  -0.97211974  0.19759012  1.0
  H  H20  1  -0.33840375  -0.02788026  0.80240988  1.0
  H  H21  1  -0.23426112  -0.57702832  0.60535434  1.0
  H  H22  1  0.23426112  -0.42297168  0.39464566  1.0
  H  H23  1  -0.53008256  -0.61573092  0.84401840  1.0
  H  H24  1  0.53008256  -0.38426908  0.15598160  1.0
  H  H25  1  -0.72603996  -0.52038333  0.94023995  1.0
  H  H26  1  0.72603996  -0.47961667  0.05976005  1.0
  O  O27  1  0.41478131  -0.24110168  0.56352973  1.0
  O  O28  1  -0.41478131  -0.75889832  0.43647027  1.0
  O  O29  1  0.59858204  -0.93351924  0.21660800  1.0
  O  O30  1  -0.59858204  -0.06648076  0.78339200  1.0
  O  O31  1  0.16126877  -0.89941411  0.50909765  1.0
  O  O32  1  -0.16126877  -0.10058589  0.49090235  1.0
  O  O33  1  -0.21173225  -0.97915820  0.79831913  1.0
  O  O34  1  0.21173225  -0.02084180  0.20168087  1.0
  O  O35  1  -0.24094949  -0.65177299  0.72660197  1.0
  O  O36  1  0.24094949  -0.34822701  0.27339803  1.0
  O  O37  1  -0.69690227  -0.61044402  0.90757925  1.0
  O  O38  1  0.69690227  -0.38955598  0.09242075  1.0
  F  F39  1  0.11885123  -0.84821211  0.89279543  1.0
  F  F40  1  -0.11885123  -0.15178789  0.10720457  1.0
  F  F41  1  0.26623892  -0.58608124  0.58549262  1.0
  F  F42  1  -0.26623892  -0.41391876  0.41450738  1.0
  F  F43  1  -0.00056938  -0.38534613  0.70562160  1.0
  F  F44  1  0.00056938  -0.61465387  0.29437840  1.0
  F  F45  1  -0.81345198  -0.35443851  0.99210430  1.0
  F  F46  1  0.81345198  -0.64556149  0.00789570  1.0
