# generated using pymatgen
data_Na5SiAs3
_symmetry_space_group_name_H-M   'P 1'
_cell_length_a   8.26614208
_cell_length_b   7.57719731
_cell_length_c   15.89696929
_cell_angle_alpha   90.00000000
_cell_angle_beta   121.76158008
_cell_angle_gamma   90.00000000
_symmetry_Int_Tables_number   1
_chemical_formula_structural   Na5SiAs3
_chemical_formula_sum   'Na20 Si4 As12'
_cell_volume   846.58451527
_cell_formula_units_Z   4
loop_
 _symmetry_equiv_pos_site_id
 _symmetry_equiv_pos_as_xyz
  1  'x, y, z'
loop_
 _atom_site_type_symbol
 _atom_site_label
 _atom_site_symmetry_multiplicity
 _atom_site_fract_x
 _atom_site_fract_y
 _atom_site_fract_z
 _atom_site_occupancy
  Na  Na0  1  0.18321774  0.34929352  0.75843479  1.0
  Na  Na1  1  0.18321774  0.15070648  0.25843479  1.0
  Na  Na2  1  0.81678226  0.84929352  0.74156521  1.0
  Na  Na3  1  0.81678226  0.65070648  0.24156521  1.0
  Na  Na4  1  0.57425104  0.49327038  0.75661130  1.0
  Na  Na5  1  0.57425104  0.00672962  0.25661130  1.0
  Na  Na6  1  0.42574896  0.99327038  0.74338870  1.0
  Na  Na7  1  0.42574896  0.50672962  0.24338870  1.0
  Na  Na8  1  0.08121986  0.53245133  0.91643178  1.0
  Na  Na9  1  0.08121986  0.96754867  0.41643178  1.0
  Na  Na10  1  0.91878014  0.03245133  0.58356822  1.0
  Na  Na11  1  0.91878014  0.46754867  0.08356822  1.0
  Na  Na12  1  0.50462859  0.16260784  0.58133870  1.0
  Na  Na13  1  0.50462859  0.33739216  0.08133870  1.0
  Na  Na14  1  0.49537141  0.66260784  0.91866130  1.0
  Na  Na15  1  0.49537141  0.83739216  0.41866130  1.0
  Na  Na16  1  0.23882869  0.01791435  0.91337944  1.0
  Na  Na17  1  0.23882869  0.48208565  0.41337944  1.0
  Na  Na18  1  0.76117131  0.51791435  0.58662056  1.0
  Na  Na19  1  0.76117131  0.98208565  0.08662056  1.0
  Si  Si20  1  0.84502894  0.13976582  0.91536091  1.0
  Si  Si21  1  0.84502894  0.36023418  0.41536091  1.0
  Si  Si22  1  0.15497106  0.63976582  0.58463909  1.0
  Si  Si23  1  0.15497106  0.86023418  0.08463909  1.0
  As  As24  1  0.15488276  0.31638009  0.56601325  1.0
  As  As25  1  0.15488276  0.18361991  0.06601325  1.0
  As  As26  1  0.84511724  0.81638009  0.93398675  1.0
  As  As27  1  0.84511724  0.68361991  0.43398675  1.0
  As  As28  1  0.85875990  0.23391211  0.77580066  1.0
  As  As29  1  0.85875990  0.26608789  0.27580066  1.0
  As  As30  1  0.14124010  0.73391211  0.72419934  1.0
  As  As31  1  0.14124010  0.76608789  0.22419934  1.0
  As  As32  1  0.57998402  0.26110160  0.91962996  1.0
  As  As33  1  0.57998402  0.23889840  0.41962996  1.0
  As  As34  1  0.42001598  0.76110160  0.58037004  1.0
  As  As35  1  0.42001598  0.73889840  0.08037004  1.0
