# generated using pymatgen
data_Gd(GaFe)6
_symmetry_space_group_name_H-M   'P 1'
_cell_length_a   6.58252362
_cell_length_b   6.58252362
_cell_length_c   6.58252362
_cell_angle_alpha   135.02805457
_cell_angle_beta   99.19050480
_cell_angle_gamma   97.63312777
_symmetry_Int_Tables_number   1
_chemical_formula_structural   Gd(GaFe)6
_chemical_formula_sum   'Gd1 Ga6 Fe6'
_cell_volume   186.23231515
_cell_formula_units_Z   1
loop_
 _symmetry_equiv_pos_site_id
 _symmetry_equiv_pos_as_xyz
  1  'x, y, z'
loop_
 _atom_site_type_symbol
 _atom_site_label
 _atom_site_symmetry_multiplicity
 _atom_site_fract_x
 _atom_site_fract_y
 _atom_site_fract_z
 _atom_site_occupancy
  Gd  Gd0  1  0.00000000  0.00000000  0.00000000  1.0
  Ga  Ga1  1  0.33307411  -0.00000000  0.33307411  1.0
  Ga  Ga2  1  0.66692589  -0.00000000  0.66692589  1.0
  Ga  Ga3  1  0.65521664  0.65521664  1.00000000  1.0
  Ga  Ga4  1  1.34478336  1.34478336  1.00000000  1.0
  Ga  Ga5  1  1.18531192  0.68531192  0.50000000  1.0
  Ga  Ga6  1  0.81468808  0.31468808  0.50000000  1.0
  Fe  Fe7  1  0.75635207  0.50000000  1.25635207  1.0
  Fe  Fe8  1  0.24364793  0.50000000  0.74364793  1.0
  Fe  Fe9  1  1.00000000  1.00000000  1.50000000  1.0
  Fe  Fe10  1  1.00000000  0.50000000  1.00000000  1.0
  Fe  Fe11  1  1.50000000  1.00000000  1.00000000  1.0
  Fe  Fe12  1  1.50000000  1.50000000  1.50000000  1.0
