# generated using pymatgen
data_K4Zn(P3O11)2
_symmetry_space_group_name_H-M   'P 1'
_cell_length_a   8.35222665
_cell_length_b   8.35222665
_cell_length_c   9.33940183
_cell_angle_alpha   72.18509027
_cell_angle_beta   107.81490973
_cell_angle_gamma   92.36748734
_symmetry_Int_Tables_number   1
_chemical_formula_structural   K4Zn(P3O11)2
_chemical_formula_sum   'K4 Zn1 P6 O22'
_cell_volume   589.54774252
_cell_formula_units_Z   1
loop_
 _symmetry_equiv_pos_site_id
 _symmetry_equiv_pos_as_xyz
  1  'x, y, z'
loop_
 _atom_site_type_symbol
 _atom_site_label
 _atom_site_symmetry_multiplicity
 _atom_site_fract_x
 _atom_site_fract_y
 _atom_site_fract_z
 _atom_site_occupancy
  O  O0  1  0.67628886  0.10632636  0.49589002  1.0
  O  O1  1  0.89367364  0.32371114  0.49589002  1.0
  O  O2  1  1.10632636  -0.32371114  0.50410998  1.0
  O  O3  1  1.32371114  -0.10632636  0.50410998  1.0
  O  O4  1  0.89102746  0.10897254  0.74886525  1.0
  O  O5  1  1.10897254  -0.10897254  0.25113475  1.0
  O  O6  1  0.65064987  0.34935013  0.60705686  1.0
  O  O7  1  1.34935013  -0.34935013  0.39294314  1.0
  O  O8  1  1.28054287  -0.28054287  0.76564002  1.0
  O  O9  1  0.71945713  0.28054287  0.23435998  1.0
  O  O10  1  0.23466576  -0.04898399  1.02487846  1.0
  O  O11  1  1.04898399  0.76533424  1.02487846  1.0
  O  O12  1  0.95101601  -0.76533424  -0.02487846  1.0
  O  O13  1  1.76533424  0.04898399  -0.02487846  1.0
  O  O14  1  1.42464145  -0.00420427  0.74261722  1.0
  O  O15  1  1.00420427  -0.42464145  0.74261722  1.0
  O  O16  1  0.99579573  0.42464145  0.25738278  1.0
  O  O17  1  0.57535855  0.00420427  0.25738278  1.0
  O  O18  1  1.57517709  -0.27147350  0.73893157  1.0
  O  O19  1  1.27147350  -0.57517709  0.73893157  1.0
  O  O20  1  0.72852650  0.57517709  0.26106843  1.0
  O  O21  1  0.42482291  0.27147350  0.26106843  1.0
  Zn  Zn22  1  0.00000000  0.00000000  0.00000000  1.0
  P  P23  1  1.41898006  -0.16123762  0.69615959  1.0
  P  P24  1  1.16123762  -0.41898006  0.69615959  1.0
  P  P25  1  0.83876238  0.41898006  0.30384041  1.0
  P  P26  1  0.58101994  0.16123762  0.30384041  1.0
  P  P27  1  0.77177087  0.22822913  0.59849679  1.0
  P  P28  1  1.22822913  -0.22822913  0.40150321  1.0
  K  K29  1  0.61823192  0.38176808  0.87581963  1.0
  K  K30  1  1.38176808  -0.38176808  0.12418037  1.0
  K  K31  1  0.70672815  0.70672815  0.50000000  1.0
  K  K32  1  0.29327185  0.29327185  0.50000000  1.0
