# generated using pymatgen
data_AlF3
_symmetry_space_group_name_H-M   'P 1'
_cell_length_a   5.15593426
_cell_length_b   5.15593426
_cell_length_c   6.31770075
_cell_angle_alpha   90.00000000
_cell_angle_beta   90.00000000
_cell_angle_gamma   120.00000000
_symmetry_Int_Tables_number   1
_chemical_formula_structural   AlF3
_chemical_formula_sum   'Al3 F9'
_cell_volume   145.44688532
_cell_formula_units_Z   3
loop_
 _symmetry_equiv_pos_site_id
 _symmetry_equiv_pos_as_xyz
  1  'x, y, z'
loop_
 _atom_site_type_symbol
 _atom_site_label
 _atom_site_symmetry_multiplicity
 _atom_site_fract_x
 _atom_site_fract_y
 _atom_site_fract_z
 _atom_site_occupancy
  Al  Al0  1  0.33333333  0.66666667  0.33332797  1.0
  Al  Al1  1  0.66666667  0.33333333  0.66667203  1.0
  Al  Al2  1  0.00000000  0.00000000  0.00000000  1.0
  F  F3  1  1.16670576  0.83336336  0.16665452  1.0
  F  F4  1  0.83336337  1.16670576  0.83334548  1.0
  F  F5  1  0.66665760  -0.16670576  0.16665452  1.0
  F  F6  1  0.16663664  0.33334240  0.16665452  1.0
  F  F7  1  -0.16670576  0.66665760  0.83334548  1.0
  F  F8  1  0.33334240  0.16663664  0.83334548  1.0
  F  F9  1  0.50003832  0.50003832  0.50000000  1.0
  F  F10  1  -0.00000000  0.49996168  0.50000000  1.0
  F  F11  1  0.49996168  0.00000000  0.50000000  1.0
