# generated using pymatgen
data_LaS
_symmetry_space_group_name_H-M   'P 1'
_cell_length_a   4.16171680
_cell_length_b   4.16171680
_cell_length_c   5.88686862
_cell_angle_alpha   90.00000000
_cell_angle_beta   90.00000000
_cell_angle_gamma   90.00239777
_symmetry_Int_Tables_number   1
_chemical_formula_structural   LaS
_chemical_formula_sum   'La2 S2'
_cell_volume   101.95989763
_cell_formula_units_Z   2
loop_
 _symmetry_equiv_pos_site_id
 _symmetry_equiv_pos_as_xyz
  1  'x, y, z'
loop_
 _atom_site_type_symbol
 _atom_site_label
 _atom_site_symmetry_multiplicity
 _atom_site_fract_x
 _atom_site_fract_y
 _atom_site_fract_z
 _atom_site_occupancy
  La  La0  1  0.75147413  0.74852587  0.25000975  1.0
  La  La1  1  0.25147413  0.24852587  0.74999025  1.0
  S  S2  1  -0.74857413  1.24857413  0.24999867  1.0
  S  S3  1  -0.24857413  1.74857413  0.75000133  1.0
