# generated using pymatgen
data_RbTiS2
_symmetry_space_group_name_H-M   'P 1'
_cell_length_a   7.98789150
_cell_length_b   7.98789150
_cell_length_c   7.98789150
_cell_angle_alpha   26.26511933
_cell_angle_beta   26.26511933
_cell_angle_gamma   26.26511933
_symmetry_Int_Tables_number   1
_chemical_formula_structural   RbTiS2
_chemical_formula_sum   'Rb1 Ti1 S2'
_cell_volume   87.95014735
_cell_formula_units_Z   1
loop_
 _symmetry_equiv_pos_site_id
 _symmetry_equiv_pos_as_xyz
  1  'x, y, z'
loop_
 _atom_site_type_symbol
 _atom_site_label
 _atom_site_symmetry_multiplicity
 _atom_site_fract_x
 _atom_site_fract_y
 _atom_site_fract_z
 _atom_site_occupancy
  Rb  Rb0  1  0.81778945  -0.18221055  -0.18221055  1.0
  Ti  Ti1  1  -0.01305845  -0.01305845  -0.01305845  1.0
  S  S2  1  0.59315242  0.59315242  -0.40684758  1.0
  S  S3  1  0.38011658  0.38011658  -0.61988342  1.0
