# generated using pymatgen
data_In2AgSe4
_symmetry_space_group_name_H-M   'P 1'
_cell_length_a   7.19351450
_cell_length_b   7.19351450
_cell_length_c   7.19351450
_cell_angle_alpha   131.81485466
_cell_angle_beta   131.81485466
_cell_angle_gamma   70.52160146
_symmetry_Int_Tables_number   1
_chemical_formula_structural   In2AgSe4
_chemical_formula_sum   'In2 Ag1 Se4'
_cell_volume   202.59502069
_cell_formula_units_Z   1
loop_
 _symmetry_equiv_pos_site_id
 _symmetry_equiv_pos_as_xyz
  1  'x, y, z'
loop_
 _atom_site_type_symbol
 _atom_site_label
 _atom_site_symmetry_multiplicity
 _atom_site_fract_x
 _atom_site_fract_y
 _atom_site_fract_z
 _atom_site_occupancy
  In  In0  1  0.25000000  0.75000000  0.50000000  1.0
  In  In1  1  0.00000000  0.00000000  0.00000000  1.0
  Ag  Ag2  1  0.50000000  0.50000000  1.00000000  1.0
  Se  Se3  1  0.41181026  0.91033476  1.04909216  1.0
  Se  Se4  1  1.08966524  1.13875741  1.50147550  1.0
  Se  Se5  1  0.86124259  0.36271809  0.95090784  1.0
  Se  Se6  1  0.63728191  0.58818974  0.49852450  1.0
