# generated using pymatgen
data_ScPO6
_symmetry_space_group_name_H-M   'P 1'
_cell_length_a   5.66301625
_cell_length_b   10.42345565
_cell_length_c   10.75989765
_cell_angle_alpha   90.00000000
_cell_angle_beta   121.45300857
_cell_angle_gamma   90.00000000
_symmetry_Int_Tables_number   1
_chemical_formula_structural   ScPO6
_chemical_formula_sum   'Sc4 P4 O24'
_cell_volume   541.81563032
_cell_formula_units_Z   4
loop_
 _symmetry_equiv_pos_site_id
 _symmetry_equiv_pos_as_xyz
  1  'x, y, z'
loop_
 _atom_site_type_symbol
 _atom_site_label
 _atom_site_symmetry_multiplicity
 _atom_site_fract_x
 _atom_site_fract_y
 _atom_site_fract_z
 _atom_site_occupancy
  P  P0  1  0.75326655  0.16328629  0.33042125  1.0
  P  P1  1  0.75326655  0.33671371  0.83042125  1.0
  P  P2  1  0.24673345  0.66328629  0.16957875  1.0
  P  P3  1  0.24673345  0.83671371  0.66957875  1.0
  O  O4  1  0.44351622  0.42021345  0.43513057  1.0
  O  O5  1  0.44351622  0.07978655  0.93513057  1.0
  O  O6  1  0.55648378  0.92021345  0.06486943  1.0
  O  O7  1  0.55648378  0.57978655  0.56486943  1.0
  O  O8  1  1.01370367  0.46318684  0.31661389  1.0
  O  O9  1  1.01370367  0.03681316  0.81661389  1.0
  O  O10  1  -0.01370367  0.96318684  0.18338611  1.0
  O  O11  1  -0.01370367  0.53681316  0.68338611  1.0
  O  O12  1  0.95386029  0.21694676  0.28579035  1.0
  O  O13  1  0.95386029  0.28305324  0.78579035  1.0
  O  O14  1  0.04613971  0.71694676  0.21420965  1.0
  O  O15  1  0.04613971  0.78305324  0.71420965  1.0
  O  O16  1  0.73297396  0.01432113  0.30189864  1.0
  O  O17  1  0.73297396  0.48567887  0.80189864  1.0
  O  O18  1  0.26702604  0.51432113  0.19810136  1.0
  O  O19  1  0.26702604  0.98567887  0.69810136  1.0
  O  O20  1  0.46499468  0.22332087  0.23826603  1.0
  O  O21  1  0.46499468  0.27667913  0.73826603  1.0
  O  O22  1  0.53500532  0.72332087  0.26173397  1.0
  O  O23  1  0.53500532  0.77667913  0.76173397  1.0
  O  O24  1  0.87031190  0.18147962  0.49428024  1.0
  O  O25  1  0.87031190  0.31852038  0.99428024  1.0
  O  O26  1  0.12968810  0.68147962  0.00571976  1.0
  O  O27  1  0.12968810  0.81852038  0.50571976  1.0
  Sc  Sc28  1  0.85565800  0.82874661  0.29069838  1.0
  Sc  Sc29  1  0.85565800  0.67125339  0.79069838  1.0
  Sc  Sc30  1  0.14434200  0.32874661  0.20930162  1.0
  Sc  Sc31  1  0.14434200  0.17125339  0.70930162  1.0
