# generated using pymatgen
data_ZnS
_symmetry_space_group_name_H-M   'P 1'
_cell_length_a   3.84942299
_cell_length_b   3.84942299
_cell_length_c   62.94219150
_cell_angle_alpha   90.00000000
_cell_angle_beta   90.00000000
_cell_angle_gamma   120.00000000
_symmetry_Int_Tables_number   1
_chemical_formula_structural   ZnS
_chemical_formula_sum   'Zn20 S20'
_cell_volume   807.72544201
_cell_formula_units_Z   20
loop_
 _symmetry_equiv_pos_site_id
 _symmetry_equiv_pos_as_xyz
  1  'x, y, z'
loop_
 _atom_site_type_symbol
 _atom_site_label
 _atom_site_symmetry_multiplicity
 _atom_site_fract_x
 _atom_site_fract_y
 _atom_site_fract_z
 _atom_site_occupancy
  Zn  Zn0  1  -0.00000000  -0.00000000  0.04999003  1.0
  Zn  Zn1  1  0.00000000  0.00000000  0.24999502  1.0
  Zn  Zn2  1  0.00000000  0.00000000  0.44999904  1.0
  Zn  Zn3  1  0.00000000  0.00000000  0.59999225  1.0
  Zn  Zn4  1  -0.00000000  -0.00000000  0.74999398  1.0
  Zn  Zn5  1  0.00000000  0.00000000  0.89999462  1.0
  Zn  Zn6  1  0.66666667  0.33333333  0.14999969  1.0
  Zn  Zn7  1  0.66666667  0.33333333  0.29995757  1.0
  Zn  Zn8  1  0.66666667  0.33333333  0.40002580  1.0
  Zn  Zn9  1  0.66666667  0.33333333  0.54995547  1.0
  Zn  Zn10  1  0.66666667  0.33333333  0.65002122  1.0
  Zn  Zn11  1  0.66666667  0.33333333  0.84996227  1.0
  Zn  Zn12  1  0.66666667  0.33333333  0.95002183  1.0
  Zn  Zn13  1  0.33333333  0.66666667  -0.00003854  1.0
  Zn  Zn14  1  0.33333333  0.66666667  0.09998980  1.0
  Zn  Zn15  1  0.33333333  0.66666667  0.20002596  1.0
  Zn  Zn16  1  0.33333333  0.66666667  0.34999392  1.0
  Zn  Zn17  1  0.33333333  0.66666667  0.49998962  1.0
  Zn  Zn18  1  0.33333333  0.66666667  0.69996269  1.0
  Zn  Zn19  1  0.33333333  0.66666667  0.80002114  1.0
  S  S20  1  0.00000000  0.00000000  0.01245934  1.0
  S  S21  1  0.00000000  0.00000000  0.21251987  1.0
  S  S22  1  0.00000000  0.00000000  0.41252127  1.0
  S  S23  1  0.00000000  0.00000000  0.56245759  1.0
  S  S24  1  -0.00000000  -0.00000000  0.71246071  1.0
  S  S25  1  -0.00000000  -0.00000000  0.86246124  1.0
  S  S26  1  0.66666667  0.33333333  0.11247292  1.0
  S  S27  1  0.66666667  0.33333333  0.26249419  1.0
  S  S28  1  0.66666667  0.33333333  0.36255686  1.0
  S  S29  1  0.66666667  0.33333333  0.51249118  1.0
  S  S30  1  0.66666667  0.33333333  0.61255529  1.0
  S  S31  1  0.66666667  0.33333333  0.81250525  1.0
  S  S32  1  0.66666667  0.33333333  0.91255614  1.0
  S  S33  1  0.33333333  0.66666667  0.06254264  1.0
  S  S34  1  0.33333333  0.66666667  0.16255910  1.0
  S  S35  1  0.33333333  0.66666667  0.31245881  1.0
  S  S36  1  0.33333333  0.66666667  0.46250812  1.0
  S  S37  1  0.33333333  0.66666667  0.66250600  1.0
  S  S38  1  0.33333333  0.66666667  0.76255512  1.0
  S  S39  1  0.33333333  0.66666667  0.96250497  1.0
