# generated using pymatgen
data_Ge2N2O
_symmetry_space_group_name_H-M   'P 1'
_cell_length_a   5.54232366
_cell_length_b   5.54232366
_cell_length_c   5.17752585
_cell_angle_alpha   90.00000000
_cell_angle_beta   90.00000000
_cell_angle_gamma   63.50900733
_symmetry_Int_Tables_number   1
_chemical_formula_structural   Ge2N2O
_chemical_formula_sum   'Ge4 N4 O2'
_cell_volume   142.34140914
_cell_formula_units_Z   2
loop_
 _symmetry_equiv_pos_site_id
 _symmetry_equiv_pos_as_xyz
  1  'x, y, z'
loop_
 _atom_site_type_symbol
 _atom_site_label
 _atom_site_symmetry_multiplicity
 _atom_site_fract_x
 _atom_site_fract_y
 _atom_site_fract_z
 _atom_site_occupancy
  Ge  Ge0  1  -0.02082235  1.67066675  0.11298377  1.0
  Ge  Ge1  1  0.67066675  0.97917765  0.61298377  1.0
  Ge  Ge2  1  -0.67066675  1.02082235  0.11298377  1.0
  Ge  Ge3  1  0.02082235  0.32933325  0.61298377  1.0
  N  N4  1  -0.08056527  1.66338769  0.46189208  1.0
  N  N5  1  0.66338769  0.91943473  0.96189208  1.0
  N  N6  1  -0.66338769  1.08056527  0.46189208  1.0
  N  N7  1  0.08056527  0.33661231  0.96189208  1.0
  O  O8  1  0.24207950  0.75792050  0.03024830  1.0
  O  O9  1  -0.24207950  1.24207950  0.53024830  1.0
