# generated using pymatgen
data_YbCdPb
_symmetry_space_group_name_H-M   'P 1'
_cell_length_a   7.79873560
_cell_length_b   7.79873560
_cell_length_c   4.73695415
_cell_angle_alpha   90.00000000
_cell_angle_beta   90.00000000
_cell_angle_gamma   120.00000000
_symmetry_Int_Tables_number   1
_chemical_formula_structural   YbCdPb
_chemical_formula_sum   'Yb3 Cd3 Pb3'
_cell_volume   249.50439832
_cell_formula_units_Z   3
loop_
 _symmetry_equiv_pos_site_id
 _symmetry_equiv_pos_as_xyz
  1  'x, y, z'
loop_
 _atom_site_type_symbol
 _atom_site_label
 _atom_site_symmetry_multiplicity
 _atom_site_fract_x
 _atom_site_fract_y
 _atom_site_fract_z
 _atom_site_occupancy
  Yb  Yb0  1  0.42633522  0.42633522  -0.00000000  1.0
  Yb  Yb1  1  0.00000000  0.57366478  0.00000000  1.0
  Yb  Yb2  1  0.57366478  -0.00000000  -0.00000000  1.0
  Cd  Cd3  1  0.75179627  0.75179627  0.50000000  1.0
  Cd  Cd4  1  -0.00000000  0.24820373  0.50000000  1.0
  Cd  Cd5  1  0.24820373  0.00000000  0.50000000  1.0
  Pb  Pb6  1  0.33333333  0.66666667  0.50000000  1.0
  Pb  Pb7  1  0.66666667  0.33333333  0.50000000  1.0
  Pb  Pb8  1  0.00000000  -0.00000000  -0.00000000  1.0
