# generated using pymatgen
data_BaEuFe2O5
_symmetry_space_group_name_H-M   'P 1'
_cell_length_a   3.93628132
_cell_length_b   3.93679495
_cell_length_c   7.59413371
_cell_angle_alpha   90.00000000
_cell_angle_beta   90.00000000
_cell_angle_gamma   90.00000000
_symmetry_Int_Tables_number   1
_chemical_formula_structural   BaEuFe2O5
_chemical_formula_sum   'Ba1 Eu1 Fe2 O5'
_cell_volume   117.68122042
_cell_formula_units_Z   1
loop_
 _symmetry_equiv_pos_site_id
 _symmetry_equiv_pos_as_xyz
  1  'x, y, z'
loop_
 _atom_site_type_symbol
 _atom_site_label
 _atom_site_symmetry_multiplicity
 _atom_site_fract_x
 _atom_site_fract_y
 _atom_site_fract_z
 _atom_site_occupancy
  Ba  Ba0  1  0.00000000  0.00000000  0.00000000  1.0
  Eu  Eu1  1  0.00000000  0.00000000  0.50000000  1.0
  Fe  Fe2  1  0.50000000  0.50000000  0.26468922  1.0
  Fe  Fe3  1  0.50000000  0.50000000  0.73531078  1.0
  O  O4  1  0.50000000  0.50000000  0.00000000  1.0
  O  O5  1  0.00000000  0.50000000  0.29539202  1.0
  O  O6  1  0.00000000  0.50000000  0.70460798  1.0
  O  O7  1  0.50000000  0.00000000  0.29536056  1.0
  O  O8  1  0.50000000  0.00000000  0.70463944  1.0
