# generated using pymatgen
data_ZrAsPd
_symmetry_space_group_name_H-M   'P 1'
_cell_length_a   3.94200787
_cell_length_b   19.61470220
_cell_length_c   6.77860821
_cell_angle_alpha   90.00000000
_cell_angle_beta   90.00000000
_cell_angle_gamma   90.00000000
_symmetry_Int_Tables_number   1
_chemical_formula_structural   ZrAsPd
_chemical_formula_sum   'Zr10 As10 Pd10'
_cell_volume   524.13087063
_cell_formula_units_Z   10
loop_
 _symmetry_equiv_pos_site_id
 _symmetry_equiv_pos_as_xyz
  1  'x, y, z'
loop_
 _atom_site_type_symbol
 _atom_site_label
 _atom_site_symmetry_multiplicity
 _atom_site_fract_x
 _atom_site_fract_y
 _atom_site_fract_z
 _atom_site_occupancy
  Zr  Zr0  1  0.50000000  0.18199540  0.52798178  1.0
  Zr  Zr1  1  0.50000000  0.81800460  0.52798178  1.0
  Zr  Zr2  1  0.00000000  0.68199540  0.47201822  1.0
  Zr  Zr3  1  0.00000000  0.31800460  0.47201822  1.0
  Zr  Zr4  1  0.50000000  0.12224895  0.04151810  1.0
  Zr  Zr5  1  0.50000000  0.87775105  0.04151810  1.0
  Zr  Zr6  1  0.00000000  0.62224895  0.95848190  1.0
  Zr  Zr7  1  0.00000000  0.37775105  0.95848190  1.0
  Zr  Zr8  1  0.50000000  0.00000000  0.65421437  1.0
  Zr  Zr9  1  0.00000000  0.50000000  0.34578563  1.0
  As  As10  1  0.50000000  0.69740136  0.75891378  1.0
  As  As11  1  0.50000000  0.30259864  0.75891378  1.0
  As  As12  1  0.00000000  0.19740136  0.24108622  1.0
  As  As13  1  0.00000000  0.80259864  0.24108622  1.0
  As  As14  1  0.50000000  0.59851175  0.25702230  1.0
  As  As15  1  0.50000000  0.40148825  0.25702230  1.0
  As  As16  1  0.00000000  0.09851175  0.74297770  1.0
  As  As17  1  0.00000000  0.90148825  0.74297770  1.0
  As  As18  1  0.50000000  0.00000000  0.24674833  1.0
  As  As19  1  0.00000000  0.50000000  0.75325167  1.0
  Pd  Pd20  1  0.50000000  0.72183512  0.14755050  1.0
  Pd  Pd21  1  0.50000000  0.27816488  0.14755050  1.0
  Pd  Pd22  1  0.00000000  0.22183512  0.85244950  1.0
  Pd  Pd23  1  0.00000000  0.77816488  0.85244950  1.0
  Pd  Pd24  1  0.50000000  0.57606427  0.62108156  1.0
  Pd  Pd25  1  0.50000000  0.42393573  0.62108156  1.0
  Pd  Pd26  1  0.00000000  0.07606427  0.37891844  1.0
  Pd  Pd27  1  0.00000000  0.92393573  0.37891844  1.0
  Pd  Pd28  1  0.50000000  0.50000000  0.01167870  1.0
  Pd  Pd29  1  0.00000000  0.00000000  0.98832130  1.0
