# generated using pymatgen
data_ZnH6C2(SO3)2
_symmetry_space_group_name_H-M   'P 1'
_cell_length_a   7.07058867
_cell_length_b   7.07058867
_cell_length_c   9.30435039
_cell_angle_alpha   74.54448575
_cell_angle_beta   105.45551425
_cell_angle_gamma   74.15068851
_symmetry_Int_Tables_number   1
_chemical_formula_structural   ZnH6C2(SO3)2
_chemical_formula_sum   'Zn2 H12 C4 S4 O12'
_cell_volume   401.37932982
_cell_formula_units_Z   2
loop_
 _symmetry_equiv_pos_site_id
 _symmetry_equiv_pos_as_xyz
  1  'x, y, z'
loop_
 _atom_site_type_symbol
 _atom_site_label
 _atom_site_symmetry_multiplicity
 _atom_site_fract_x
 _atom_site_fract_y
 _atom_site_fract_z
 _atom_site_occupancy
  Zn  Zn0  1  0.85183731  -0.13257660  0.93412908  1.0
  Zn  Zn1  1  1.13257660  0.14816269  0.43412908  1.0
  H  H2  1  1.09154141  0.84436124  0.66889423  1.0
  H  H3  1  0.15563876  -0.09154141  0.16889423  1.0
  H  H4  1  0.91630327  -0.35389040  0.23797619  1.0
  H  H5  1  1.35389040  0.08369673  0.73797619  1.0
  H  H6  1  1.39950211  0.55974631  0.79802531  1.0
  H  H7  1  0.44025369  -0.39950211  0.29802531  1.0
  H  H8  1  1.38670817  0.53839973  0.60772430  1.0
  H  H9  1  0.46160027  -0.38670817  0.10772430  1.0
  H  H10  1  0.53852136  -0.02128605  0.18673817  1.0
  H  H11  1  1.02128605  0.46147864  0.68673817  1.0
  H  H12  1  0.78702463  -0.13157076  0.35434744  1.0
  H  H13  1  1.13157076  0.21297537  0.85434744  1.0
  C  C14  1  1.36001861  0.64843623  0.67076469  1.0
  C  C15  1  0.35156377  -0.36001861  0.17076469  1.0
  C  C16  1  0.71139382  -0.08035643  0.22393034  1.0
  C  C17  1  1.08035643  0.28860618  0.72393034  1.0
  S  S18  1  0.56111166  -0.22591051  0.66276897  1.0
  S  S19  1  1.22591051  0.43888834  0.16276897  1.0
  S  S20  1  1.77509394  0.15486688  0.13490396  1.0
  S  S21  1  0.84513312  -0.77509394  0.63490396  1.0
  O  O22  1  0.56594958  -0.13854187  0.80138949  1.0
  O  O23  1  1.13854187  0.43405042  0.30138949  1.0
  O  O24  1  0.43914921  -0.04021849  0.50097919  1.0
  O  O25  1  1.04021849  0.56085079  0.00097919  1.0
  O  O26  1  1.15428008  0.79899710  0.59309638  1.0
  O  O27  1  0.20100290  -0.15428008  0.09309638  1.0
  O  O28  1  1.74991598  0.14686103  0.96732445  1.0
  O  O29  1  0.85313897  -0.74991598  0.46732444  1.0
  O  O30  1  1.01685230  0.07404054  0.23378103  1.0
  O  O31  1  0.92595946  -0.01685230  0.73378103  1.0
  O  O32  1  0.77890097  -0.23685352  0.16278679  1.0
  O  O33  1  1.23685352  0.22109903  0.66278679  1.0
