# generated using pymatgen
data_NaSr3TaO6
_symmetry_space_group_name_H-M   'P 1'
_cell_length_a   6.90296264
_cell_length_b   6.90296264
_cell_length_c   6.90296264
_cell_angle_alpha   91.23410943
_cell_angle_beta   91.23410943
_cell_angle_gamma   91.23410943
_symmetry_Int_Tables_number   1
_chemical_formula_structural   NaSr3TaO6
_chemical_formula_sum   'Na2 Sr6 Ta2 O12'
_cell_volume   328.70009598
_cell_formula_units_Z   2
loop_
 _symmetry_equiv_pos_site_id
 _symmetry_equiv_pos_as_xyz
  1  'x, y, z'
loop_
 _atom_site_type_symbol
 _atom_site_label
 _atom_site_symmetry_multiplicity
 _atom_site_fract_x
 _atom_site_fract_y
 _atom_site_fract_z
 _atom_site_occupancy
  Na  Na0  1  0.25000000  0.25000000  0.25000000  1.0
  Na  Na1  1  0.75000000  0.75000000  0.75000000  1.0
  Sr  Sr2  1  0.59904542  1.25000000  -0.09904542  1.0
  Sr  Sr3  1  1.25000000  0.90095458  -0.40095458  1.0
  Sr  Sr4  1  0.90095458  0.59904542  0.25000000  1.0
  Sr  Sr5  1  1.09904542  0.40095458  -0.25000000  1.0
  Sr  Sr6  1  1.40095458  -0.25000000  0.09904542  1.0
  Sr  Sr7  1  0.75000000  0.09904542  0.40095458  1.0
  Ta  Ta8  1  0.00000000  0.00000000  0.00000000  1.0
  Ta  Ta9  1  0.50000000  0.50000000  0.50000000  1.0
  O  O10  1  0.94630253  0.27885922  0.07161949  1.0
  O  O11  1  1.27885922  0.07161949  -0.05369747  1.0
  O  O12  1  1.07161949  -0.05369747  0.27885922  1.0
  O  O13  1  1.44630253  0.57161949  -0.22114078  1.0
  O  O14  1  1.57161949  -0.22114078  0.44630253  1.0
  O  O15  1  0.77885922  0.44630253  0.57161949  1.0
  O  O16  1  1.05369747  0.72114078  -0.07161949  1.0
  O  O17  1  0.72114078  0.92838051  0.05369747  1.0
  O  O18  1  0.92838051  1.05369747  -0.27885922  1.0
  O  O19  1  0.55369747  0.42838051  0.22114078  1.0
  O  O20  1  0.42838051  1.22114078  -0.44630253  1.0
  O  O21  1  1.22114078  0.55369747  -0.57161949  1.0
