# generated using pymatgen
data_Cs2SiSe4
_symmetry_space_group_name_H-M   'P 1'
_cell_length_a   8.69027858
_cell_length_b   8.69027858
_cell_length_c   10.40609978
_cell_angle_alpha   61.96102399
_cell_angle_beta   118.03897601
_cell_angle_gamma   126.65012108
_symmetry_Int_Tables_number   1
_chemical_formula_structural   Cs2SiSe4
_chemical_formula_sum   'Cs4 Si2 Se8'
_cell_volume   536.21214614
_cell_formula_units_Z   2
loop_
 _symmetry_equiv_pos_site_id
 _symmetry_equiv_pos_as_xyz
  1  'x, y, z'
loop_
 _atom_site_type_symbol
 _atom_site_label
 _atom_site_symmetry_multiplicity
 _atom_site_fract_x
 _atom_site_fract_y
 _atom_site_fract_z
 _atom_site_occupancy
  Cs  Cs0  1  0.84059579  -0.84059579  0.20663497  1.0
  Cs  Cs1  1  0.15940421  -0.15940421  0.79336503  1.0
  Cs  Cs2  1  1.40368913  -0.40368913  0.64002439  1.0
  Cs  Cs3  1  0.59631087  0.40368913  0.35997561  1.0
  Si  Si4  1  0.84693021  0.15306979  0.79749964  1.0
  Si  Si5  1  1.15306979  -0.15306979  0.20250036  1.0
  Se  Se6  1  0.67100503  -0.15062725  0.95684077  1.0
  Se  Se7  1  1.15062725  0.32899497  0.95684077  1.0
  Se  Se8  1  0.84937275  -0.32899497  0.04315923  1.0
  Se  Se9  1  1.32899497  0.15062725  0.04315923  1.0
  Se  Se10  1  0.87726700  -0.87726700  0.61117736  1.0
  Se  Se11  1  0.12273300  -0.12273300  0.38882264  1.0
  Se  Se12  1  0.69200562  0.30799438  0.76567163  1.0
  Se  Se13  1  1.30799438  -0.30799438  0.23432837  1.0
