# generated using pymatgen
data_LiCr(SiO3)2
_symmetry_space_group_name_H-M   'P 1'
_cell_length_a   9.27227394
_cell_length_b   8.68720756
_cell_length_c   5.30398050
_cell_angle_alpha   90.00000000
_cell_angle_beta   102.26379858
_cell_angle_gamma   90.00000000
_symmetry_Int_Tables_number   1
_chemical_formula_structural   LiCr(SiO3)2
_chemical_formula_sum   'Li4 Cr4 Si8 O24'
_cell_volume   417.48697568
_cell_formula_units_Z   4
loop_
 _symmetry_equiv_pos_site_id
 _symmetry_equiv_pos_as_xyz
  1  'x, y, z'
loop_
 _atom_site_type_symbol
 _atom_site_label
 _atom_site_symmetry_multiplicity
 _atom_site_fract_x
 _atom_site_fract_y
 _atom_site_fract_z
 _atom_site_occupancy
  Li  Li0  1  0.75159036  0.99509228  0.48642141  1.0
  Li  Li1  1  0.75159036  0.50490772  0.98642141  1.0
  Li  Li2  1  0.24840964  0.49509228  0.01357859  1.0
  Li  Li3  1  0.24840964  0.00490772  0.51357859  1.0
  Cr  Cr4  1  0.74989751  0.34401936  0.48304716  1.0
  Cr  Cr5  1  0.74989751  0.15598064  0.98304716  1.0
  Cr  Cr6  1  0.25010249  0.84401936  0.01695284  1.0
  Cr  Cr7  1  0.25010249  0.65598064  0.51695284  1.0
  Si  Si8  1  0.95046802  0.84032571  0.22512754  1.0
  Si  Si9  1  0.95046802  0.65967429  0.72512754  1.0
  Si  Si10  1  0.04953198  0.34032571  0.27487246  1.0
  Si  Si11  1  0.04953198  0.15967429  0.77487246  1.0
  Si  Si12  1  0.45001205  0.15975076  0.19843583  1.0
  Si  Si13  1  0.45001205  0.34024924  0.69843583  1.0
  Si  Si14  1  0.54998795  0.65975076  0.30156417  1.0
  Si  Si15  1  0.54998795  0.84024924  0.80156417  1.0
  O  O16  1  0.89076388  0.77088060  0.47384267  1.0
  O  O17  1  0.89076388  0.72911940  0.97384267  1.0
  O  O18  1  0.10923612  0.27088060  0.02615733  1.0
  O  O19  1  0.10923612  0.22911940  0.52615733  1.0
  O  O20  1  0.88177346  0.01103598  0.19025387  1.0
  O  O21  1  0.88177346  0.48896402  0.69025387  1.0
  O  O22  1  0.11822654  0.51103598  0.30974613  1.0
  O  O23  1  0.11822654  0.98896402  0.80974613  1.0
  O  O24  1  0.86608374  0.33307987  0.20350659  1.0
  O  O25  1  0.86608374  0.16692013  0.70350659  1.0
  O  O26  1  0.13391626  0.83307987  0.29649341  1.0
  O  O27  1  0.13391626  0.66692013  0.79649341  1.0
  O  O28  1  0.63396036  0.16506540  0.26541860  1.0
  O  O29  1  0.63396036  0.33493460  0.76541860  1.0
  O  O30  1  0.36603964  0.66506540  0.23458140  1.0
  O  O31  1  0.36603964  0.83493460  0.73458140  1.0
  O  O32  1  0.62534097  0.49510968  0.26979590  1.0
  O  O33  1  0.62534097  0.00489032  0.76979590  1.0
  O  O34  1  0.37465903  0.99510968  0.23020410  1.0
  O  O35  1  0.37465903  0.50489032  0.73020410  1.0
  O  O36  1  0.39473253  0.27811331  0.40113680  1.0
  O  O37  1  0.39473253  0.22188669  0.90113680  1.0
  O  O38  1  0.60526747  0.77811331  0.09886320  1.0
  O  O39  1  0.60526747  0.72188669  0.59886320  1.0
