# generated using pymatgen
data_H2SO4
_symmetry_space_group_name_H-M   'P 1'
_cell_length_a   4.79982190
_cell_length_b   4.79982190
_cell_length_c   9.18804151
_cell_angle_alpha   72.93808713
_cell_angle_beta   107.06191287
_cell_angle_gamma   116.17368980
_symmetry_Int_Tables_number   1
_chemical_formula_structural   H2SO4
_chemical_formula_sum   'H4 S2 O8'
_cell_volume   178.26247863
_cell_formula_units_Z   2
loop_
 _symmetry_equiv_pos_site_id
 _symmetry_equiv_pos_as_xyz
  1  'x, y, z'
loop_
 _atom_site_type_symbol
 _atom_site_label
 _atom_site_symmetry_multiplicity
 _atom_site_fract_x
 _atom_site_fract_y
 _atom_site_fract_z
 _atom_site_occupancy
  H  H0  1  0.51354641  -0.20661965  0.35102590  1.0
  H  H1  1  1.20661965  -0.51354641  0.85102590  1.0
  H  H2  1  0.79338035  0.51354641  0.14897410  1.0
  H  H3  1  1.48645359  0.20661965  0.64897410  1.0
  S  S4  1  0.91403449  0.91403449  0.25000000  1.0
  S  S5  1  0.08596551  0.08596551  0.75000000  1.0
  O  O6  1  1.70972330  -0.25369825  0.37928228  1.0
  O  O7  1  1.25369825  -0.70972330  0.87928228  1.0
  O  O8  1  0.74630175  0.70972330  0.12071772  1.0
  O  O9  1  0.29027670  0.25369825  0.62071772  1.0
  O  O10  1  0.21976601  -0.09921368  0.32332304  1.0
  O  O11  1  1.09921368  0.78023399  0.82332304  1.0
  O  O12  1  0.90078632  -0.78023399  0.17667696  1.0
  O  O13  1  1.78023399  0.09921368  0.67667696  1.0
