# generated using pymatgen
data_BaMnPClO4F
_symmetry_space_group_name_H-M   'P 1'
_cell_length_a   7.41082549
_cell_length_b   8.65907772
_cell_length_c   8.99877499
_cell_angle_alpha   90.00000000
_cell_angle_beta   107.29647305
_cell_angle_gamma   90.00000000
_symmetry_Int_Tables_number   1
_chemical_formula_structural   BaMnPClO4F
_chemical_formula_sum   'Ba4 Mn4 P4 Cl4 O16 F4'
_cell_volume   551.34637286
_cell_formula_units_Z   4
loop_
 _symmetry_equiv_pos_site_id
 _symmetry_equiv_pos_as_xyz
  1  'x, y, z'
loop_
 _atom_site_type_symbol
 _atom_site_label
 _atom_site_symmetry_multiplicity
 _atom_site_fract_x
 _atom_site_fract_y
 _atom_site_fract_z
 _atom_site_occupancy
  Ba  Ba0  1  0.95789745  0.72978362  0.61584883  1.0
  Ba  Ba1  1  0.95789745  0.77021638  0.11584883  1.0
  Ba  Ba2  1  0.04210255  0.22978362  0.88415117  1.0
  Ba  Ba3  1  0.04210255  0.27021638  0.38415117  1.0
  Mn  Mn4  1  0.61217652  0.99815604  0.77470023  1.0
  Mn  Mn5  1  0.61217652  0.50184396  0.27470023  1.0
  Mn  Mn6  1  0.38782348  0.49815604  0.72529977  1.0
  Mn  Mn7  1  0.38782348  0.00184396  0.22529977  1.0
  P  P8  1  0.44999053  0.75130609  0.98863973  1.0
  P  P9  1  0.44999053  0.74869391  0.48863973  1.0
  P  P10  1  0.55000947  0.25130609  0.51136027  1.0
  P  P11  1  0.55000947  0.24869391  0.01136027  1.0
  Cl  Cl12  1  0.76996202  0.53296779  0.82862752  1.0
  Cl  Cl13  1  0.76996202  0.96703221  0.32862752  1.0
  Cl  Cl14  1  0.23003798  0.03296779  0.67137248  1.0
  Cl  Cl15  1  0.23003798  0.46703221  0.17137248  1.0
  O  O16  1  0.58962756  0.84959453  0.61399276  1.0
  O  O17  1  0.58962756  0.65040547  0.11399276  1.0
  O  O18  1  0.41037244  0.34959453  0.88600724  1.0
  O  O19  1  0.41037244  0.15040547  0.38600724  1.0
  O  O20  1  0.58441695  0.85470407  0.92809772  1.0
  O  O21  1  0.58441695  0.64529593  0.42809772  1.0
  O  O22  1  0.41558305  0.35470407  0.57190228  1.0
  O  O23  1  0.41558305  0.14529593  0.07190228  1.0
  O  O24  1  0.31975503  0.65288242  0.56109348  1.0
  O  O25  1  0.31975503  0.84711758  0.06109348  1.0
  O  O26  1  0.68024497  0.15288242  0.93890652  1.0
  O  O27  1  0.68024497  0.34711758  0.43890652  1.0
  O  O28  1  0.31745248  0.65376867  0.85519509  1.0
  O  O29  1  0.31745248  0.84623133  0.35519509  1.0
  O  O30  1  0.68254752  0.15376867  0.64480491  1.0
  O  O31  1  0.68254752  0.34623133  0.14480491  1.0
  F  F32  1  0.90713316  0.92996222  0.84448007  1.0
  F  F33  1  0.90713316  0.57003778  0.34448007  1.0
  F  F34  1  0.09286684  0.42996222  0.65551993  1.0
  F  F35  1  0.09286684  0.07003778  0.15551993  1.0
