# generated using pymatgen
data_FeP
_symmetry_space_group_name_H-M   'P 1'
_cell_length_a   4.41818349
_cell_length_b   4.41818349
_cell_length_c   4.41818349
_cell_angle_alpha   90.00000000
_cell_angle_beta   90.00000000
_cell_angle_gamma   90.00000000
_symmetry_Int_Tables_number   1
_chemical_formula_structural   FeP
_chemical_formula_sum   'Fe4 P4'
_cell_volume   86.24446747
_cell_formula_units_Z   4
loop_
 _symmetry_equiv_pos_site_id
 _symmetry_equiv_pos_as_xyz
  1  'x, y, z'
loop_
 _atom_site_type_symbol
 _atom_site_label
 _atom_site_symmetry_multiplicity
 _atom_site_fract_x
 _atom_site_fract_y
 _atom_site_fract_z
 _atom_site_occupancy
  Fe  Fe0  1  0.07992554  0.57992554  0.92007446  1.0
  Fe  Fe1  1  0.57992554  0.92007446  0.07992554  1.0
  Fe  Fe2  1  0.92007446  0.07992554  0.57992554  1.0
  Fe  Fe3  1  0.42007446  0.42007446  0.42007446  1.0
  P  P4  1  0.41893873  0.91893873  0.58106127  1.0
  P  P5  1  0.91893873  0.58106127  0.41893873  1.0
  P  P6  1  0.58106127  0.41893873  0.91893873  1.0
  P  P7  1  0.08106127  0.08106127  0.08106127  1.0
