# generated using pymatgen
data_SiO2
_symmetry_space_group_name_H-M   'P 1'
_cell_length_a   6.56954656
_cell_length_b   6.56954656
_cell_length_c   6.56954656
_cell_angle_alpha   112.78864495
_cell_angle_beta   112.78864495
_cell_angle_gamma   112.78864495
_symmetry_Int_Tables_number   1
_chemical_formula_structural   SiO2
_chemical_formula_sum   'Si6 O12'
_cell_volume   186.72413463
_cell_formula_units_Z   6
loop_
 _symmetry_equiv_pos_site_id
 _symmetry_equiv_pos_as_xyz
  1  'x, y, z'
loop_
 _atom_site_type_symbol
 _atom_site_label
 _atom_site_symmetry_multiplicity
 _atom_site_fract_x
 _atom_site_fract_y
 _atom_site_fract_z
 _atom_site_occupancy
  Si  Si0  1  0.57780622  -0.07780622  -0.25000000  1.0
  Si  Si1  1  0.92219378  0.75000000  0.57780622  1.0
  Si  Si2  1  0.75000000  0.57780622  -0.07780622  1.0
  Si  Si3  1  1.07780622  1.25000000  0.42219378  1.0
  Si  Si4  1  0.25000000  0.42219378  0.07780622  1.0
  Si  Si5  1  1.42219378  0.07780622  0.25000000  1.0
  O  O6  1  0.75000000  0.87178154  0.62821846  1.0
  O  O7  1  0.87178154  -0.37178154  -0.25000000  1.0
  O  O8  1  0.62821846  0.75000000  -0.12821846  1.0
  O  O9  1  1.25000000  1.12821846  0.37178154  1.0
  O  O10  1  1.12821846  0.37178154  0.25000000  1.0
  O  O11  1  0.37178154  0.25000000  0.12821846  1.0
  O  O12  1  0.50000000  0.00000000  0.00000000  1.0
  O  O13  1  1.00000000  1.00000000  0.50000000  1.0
  O  O14  1  1.00000000  -0.50000000  0.00000000  1.0
  O  O15  1  1.00000000  0.50000000  0.50000000  1.0
  O  O16  1  0.50000000  0.50000000  0.00000000  1.0
  O  O17  1  1.50000000  0.00000000  0.50000000  1.0
