# generated using pymatgen
data_CdCoAsHO5
_symmetry_space_group_name_H-M   'P 1'
_cell_length_a   7.69939717
_cell_length_b   6.10074885
_cell_length_c   8.85553722
_cell_angle_alpha   90.00000000
_cell_angle_beta   90.00000000
_cell_angle_gamma   90.00000000
_symmetry_Int_Tables_number   1
_chemical_formula_structural   CdCoAsHO5
_chemical_formula_sum   'Cd4 Co4 As4 H4 O20'
_cell_volume   415.96307753
_cell_formula_units_Z   4
loop_
 _symmetry_equiv_pos_site_id
 _symmetry_equiv_pos_as_xyz
  1  'x, y, z'
loop_
 _atom_site_type_symbol
 _atom_site_label
 _atom_site_symmetry_multiplicity
 _atom_site_fract_x
 _atom_site_fract_y
 _atom_site_fract_z
 _atom_site_occupancy
  O  O0  1  0.38295602  0.51131727  0.78176168  1.0
  O  O1  1  0.88295602  0.98868273  0.71823832  1.0
  O  O2  1  0.61704398  0.01131727  0.21823832  1.0
  O  O3  1  0.11704398  0.48868273  0.28176168  1.0
  O  O4  1  0.61704398  0.48868273  0.21823832  1.0
  O  O5  1  0.11704398  0.01131727  0.28176168  1.0
  O  O6  1  0.38295602  0.98868273  0.78176168  1.0
  O  O7  1  0.88295602  0.51131727  0.71823832  1.0
  O  O8  1  0.46621909  0.25000000  0.46595906  1.0
  O  O9  1  0.96621909  0.25000000  0.03404094  1.0
  O  O10  1  0.53378091  0.75000000  0.53404094  1.0
  O  O11  1  0.03378091  0.75000000  0.96595906  1.0
  O  O12  1  0.64280384  0.25000000  0.92560117  1.0
  O  O13  1  0.14280384  0.25000000  0.57439883  1.0
  O  O14  1  0.35719616  0.75000000  0.07439883  1.0
  O  O15  1  0.85719616  0.75000000  0.42560117  1.0
  O  O16  1  0.81471621  0.25000000  0.44511055  1.0
  O  O17  1  0.31471621  0.25000000  0.05488945  1.0
  O  O18  1  0.18528379  0.75000000  0.55488945  1.0
  O  O19  1  0.68528379  0.75000000  0.94511055  1.0
  As  As20  1  0.62727461  0.25000000  0.32837156  1.0
  As  As21  1  0.12727461  0.25000000  0.17162844  1.0
  As  As22  1  0.37272539  0.75000000  0.67162844  1.0
  As  As23  1  0.87272539  0.75000000  0.82837156  1.0
  Co  Co24  1  0.50000000  0.50000000  0.00000000  1.0
  Co  Co25  1  0.00000000  -0.00000000  0.50000000  1.0
  Co  Co26  1  0.50000000  0.00000000  0.00000000  1.0
  Co  Co27  1  0.00000000  0.50000000  0.50000000  1.0
  H  H28  1  0.76260859  0.25000000  0.96800693  1.0
  H  H29  1  0.26260859  0.25000000  0.53199307  1.0
  H  H30  1  0.23739141  0.75000000  0.03199307  1.0
  H  H31  1  0.73739141  0.75000000  0.46800693  1.0
  Cd  Cd32  1  0.63527192  0.25000000  0.67639356  1.0
  Cd  Cd33  1  0.13527192  0.25000000  0.82360644  1.0
  Cd  Cd34  1  0.36472808  0.75000000  0.32360644  1.0
  Cd  Cd35  1  0.86472808  0.75000000  0.17639356  1.0
