# generated using pymatgen
data_SiO2
_symmetry_space_group_name_H-M   'P 1'
_cell_length_a   6.88095065
_cell_length_b   6.88095065
_cell_length_c   9.05516766
_cell_angle_alpha   90.00000000
_cell_angle_beta   90.00000000
_cell_angle_gamma   96.98924398
_symmetry_Int_Tables_number   1
_chemical_formula_structural   SiO2
_chemical_formula_sum   'Si8 O16'
_cell_volume   425.55342984
_cell_formula_units_Z   8
loop_
 _symmetry_equiv_pos_site_id
 _symmetry_equiv_pos_as_xyz
  1  'x, y, z'
loop_
 _atom_site_type_symbol
 _atom_site_label
 _atom_site_symmetry_multiplicity
 _atom_site_fract_x
 _atom_site_fract_y
 _atom_site_fract_z
 _atom_site_occupancy
  Si  Si0  1  -0.46283202  0.80607404  0.59116479  1.0
  Si  Si1  1  -0.19392596  0.53716798  0.40883521  1.0
  Si  Si2  1  0.30607404  1.03716798  0.09116479  1.0
  Si  Si3  1  0.03716798  1.30607404  0.90883521  1.0
  Si  Si4  1  0.46283202  1.19392596  0.40883521  1.0
  Si  Si5  1  0.19392596  1.46283202  0.59116479  1.0
  Si  Si6  1  -0.30607404  0.96283202  0.90883521  1.0
  Si  Si7  1  -0.03716798  0.69392596  0.09116479  1.0
  O  O8  1  -0.31355055  0.68644945  0.50000000  1.0
  O  O9  1  0.18644945  1.18644945  0.00000000  1.0
  O  O10  1  0.31355055  1.31355055  0.50000000  1.0
  O  O11  1  -0.18644945  0.81355055  0.00000000  1.0
  O  O12  1  -0.13374416  0.63374416  0.25000000  1.0
  O  O13  1  -0.36625584  0.86625584  0.75000000  1.0
  O  O14  1  0.13374416  1.36625584  0.75000000  1.0
  O  O15  1  0.36625584  1.13374416  0.25000000  1.0
  O  O16  1  0.50000000  1.00000000  0.50000000  1.0
  O  O17  1  -0.00000000  1.50000000  0.50000000  1.0
  O  O18  1  0.50000000  1.00000000  0.00000000  1.0
  O  O19  1  -0.00000000  1.50000000  0.00000000  1.0
  O  O20  1  -0.32858755  1.32858755  0.38366447  1.0
  O  O21  1  0.32858755  0.67141245  0.61633553  1.0
  O  O22  1  -0.17141245  1.17141245  0.88366447  1.0
  O  O23  1  0.17141245  0.82858755  0.11633553  1.0
