# generated using pymatgen
data_Sr6YFe(BO3)6
_symmetry_space_group_name_H-M   'P 1'
_cell_length_a   7.77192155
_cell_length_b   7.77192155
_cell_length_c   7.77192155
_cell_angle_alpha   105.22843071
_cell_angle_beta   105.22843071
_cell_angle_gamma   105.22843071
_symmetry_Int_Tables_number   1
_chemical_formula_structural   Sr6YFe(BO3)6
_chemical_formula_sum   'Sr6 Y1 Fe1 B6 O18'
_cell_volume   408.38289989
_cell_formula_units_Z   1
loop_
 _symmetry_equiv_pos_site_id
 _symmetry_equiv_pos_as_xyz
  1  'x, y, z'
loop_
 _atom_site_type_symbol
 _atom_site_label
 _atom_site_symmetry_multiplicity
 _atom_site_fract_x
 _atom_site_fract_y
 _atom_site_fract_z
 _atom_site_occupancy
  Fe  Fe0  1  0.00000000  0.00000000  0.00000000  1.0
  Sr  Sr1  1  0.76790797  0.66107501  0.14704113  1.0
  Sr  Sr2  1  1.33892499  -0.14704113  0.23209203  1.0
  Sr  Sr3  1  0.85295887  0.23209203  0.33892499  1.0
  Sr  Sr4  1  1.23209203  0.33892499  -0.14704113  1.0
  Sr  Sr5  1  0.66107501  1.14704113  -0.23209203  1.0
  Sr  Sr6  1  1.14704113  0.76790797  -0.33892499  1.0
  O  O7  1  1.48205550  0.77041879  -0.31166101  1.0
  O  O8  1  1.22958121  0.31166101  -0.48205550  1.0
  O  O9  1  1.31166101  -0.48205550  0.22958121  1.0
  O  O10  1  0.51794450  0.22958121  0.31166101  1.0
  O  O11  1  0.77041879  0.68833899  0.48205550  1.0
  O  O12  1  0.68833899  1.48205550  -0.22958121  1.0
  O  O13  1  0.56413700  0.30683367  0.04220679  1.0
  O  O14  1  0.69316633  0.95779321  0.43586300  1.0
  O  O15  1  0.95779321  1.43586300  -0.30683367  1.0
  O  O16  1  1.43586300  0.69316633  -0.04220679  1.0
  O  O17  1  1.30683367  0.04220679  -0.43586300  1.0
  O  O18  1  1.04220679  -0.43586300  0.30683367  1.0
  O  O19  1  0.72587227  0.93196538  -0.00087504  1.0
  O  O20  1  1.06803462  0.00087504  -0.72587227  1.0
  O  O21  1  1.00087504  -0.72587227  0.06803462  1.0
  O  O22  1  0.27412773  0.06803462  0.00087504  1.0
  O  O23  1  0.93196538  0.99912496  -0.27412773  1.0
  O  O24  1  0.99912496  0.72587227  -0.06803462  1.0
  Y  Y25  1  0.50000000  0.50000000  0.50000000  1.0
  B  B26  1  1.54652479  0.79430126  -0.11913184  1.0
  B  B27  1  1.20569874  0.11913184  -0.54652479  1.0
  B  B28  1  1.11913184  -0.54652479  0.20569874  1.0
  B  B29  1  0.45347521  0.20569874  0.11913184  1.0
  B  B30  1  0.79430126  0.88086816  0.54652479  1.0
  B  B31  1  0.88086816  1.54652479  -0.20569874  1.0
