# generated using pymatgen
data_FeB4
_symmetry_space_group_name_H-M   'P 1'
_cell_length_a   5.12502322
_cell_length_b   5.12502322
_cell_length_c   6.59810241
_cell_angle_alpha   90.00000000
_cell_angle_beta   90.00000000
_cell_angle_gamma   120.00000000
_symmetry_Int_Tables_number   1
_chemical_formula_structural   FeB4
_chemical_formula_sum   'Fe4 B16'
_cell_volume   150.08640631
_cell_formula_units_Z   4
loop_
 _symmetry_equiv_pos_site_id
 _symmetry_equiv_pos_as_xyz
  1  'x, y, z'
loop_
 _atom_site_type_symbol
 _atom_site_label
 _atom_site_symmetry_multiplicity
 _atom_site_fract_x
 _atom_site_fract_y
 _atom_site_fract_z
 _atom_site_occupancy
  Fe  Fe0  1  0.00000000  0.00000000  0.25000000  1.0
  Fe  Fe1  1  0.00000000  0.00000000  0.75000000  1.0
  Fe  Fe2  1  0.33333333  0.66666667  0.25000000  1.0
  Fe  Fe3  1  0.66666667  0.33333333  0.75000000  1.0
  B  B4  1  0.33384309  0.33384309  0.50000000  1.0
  B  B5  1  0.66615691  0.00000000  0.50000000  1.0
  B  B6  1  -0.00000000  0.66615691  0.50000000  1.0
  B  B7  1  0.66615691  0.66615691  0.50000000  1.0
  B  B8  1  -0.00000000  0.33384309  0.50000000  1.0
  B  B9  1  0.33384309  0.00000000  0.50000000  1.0
  B  B10  1  0.66615691  0.66615691  0.00000000  1.0
  B  B11  1  0.33384309  0.00000000  0.00000000  1.0
  B  B12  1  -0.00000000  0.33384309  0.00000000  1.0
  B  B13  1  0.33384309  0.33384309  0.00000000  1.0
  B  B14  1  -0.00000000  0.66615691  0.00000000  1.0
  B  B15  1  0.66615691  0.00000000  0.00000000  1.0
  B  B16  1  0.33333333  0.66666667  0.87834995  1.0
  B  B17  1  0.66666667  0.33333333  0.12165005  1.0
  B  B18  1  0.66666667  0.33333333  0.37834995  1.0
  B  B19  1  0.33333333  0.66666667  0.62165005  1.0
