# generated using pymatgen
data_Nd(ClO4)3
_symmetry_space_group_name_H-M   'P 1'
_cell_length_a   9.88414647
_cell_length_b   9.88414647
_cell_length_c   5.77842183
_cell_angle_alpha   90.00000000
_cell_angle_beta   90.00000000
_cell_angle_gamma   120.00000000
_symmetry_Int_Tables_number   1
_chemical_formula_structural   Nd(ClO4)3
_chemical_formula_sum   'Nd2 Cl6 O24'
_cell_volume   488.89795268
_cell_formula_units_Z   2
loop_
 _symmetry_equiv_pos_site_id
 _symmetry_equiv_pos_as_xyz
  1  'x, y, z'
loop_
 _atom_site_type_symbol
 _atom_site_label
 _atom_site_symmetry_multiplicity
 _atom_site_fract_x
 _atom_site_fract_y
 _atom_site_fract_z
 _atom_site_occupancy
  Nd  Nd0  1  0.66666667  0.33333333  0.25000000  1.0
  Nd  Nd1  1  0.33333333  0.66666667  0.75000000  1.0
  Cl  Cl2  1  0.30060132  0.90638505  0.25000000  1.0
  Cl  Cl3  1  0.90638505  0.60578373  0.75000000  1.0
  Cl  Cl4  1  0.60578373  0.69939868  0.25000000  1.0
  Cl  Cl5  1  0.09361495  0.39421627  0.25000000  1.0
  Cl  Cl6  1  0.69939868  0.09361495  0.75000000  1.0
  Cl  Cl7  1  0.39421627  0.30060132  0.75000000  1.0
  O  O8  1  0.35026700  0.85275740  0.45610799  1.0
  O  O9  1  0.35026700  0.85275740  0.04389201  1.0
  O  O10  1  0.85275740  0.50249041  0.95610799  1.0
  O  O11  1  0.85275740  0.50249041  0.54389201  1.0
  O  O12  1  0.50249041  0.64973300  0.45610799  1.0
  O  O13  1  0.50249041  0.64973300  0.04389201  1.0
  O  O14  1  0.14724260  0.49750959  0.45610799  1.0
  O  O15  1  0.14724260  0.49750959  0.04389201  1.0
  O  O16  1  0.64973300  0.14724260  0.95610799  1.0
  O  O17  1  0.64973300  0.14724260  0.54389201  1.0
  O  O18  1  0.49750959  0.35026700  0.95610799  1.0
  O  O19  1  0.49750959  0.35026700  0.54389201  1.0
  O  O20  1  0.13562124  0.84632828  0.25000000  1.0
  O  O21  1  0.84632828  0.71070704  0.75000000  1.0
  O  O22  1  0.71070704  0.86437876  0.25000000  1.0
  O  O23  1  0.15367172  0.28929296  0.25000000  1.0
  O  O24  1  0.86437876  0.15367172  0.75000000  1.0
  O  O25  1  0.28929296  0.13562124  0.75000000  1.0
  O  O26  1  0.69053236  0.61359037  0.25000000  1.0
  O  O27  1  0.61359037  0.92305801  0.75000000  1.0
  O  O28  1  0.92305801  0.30946764  0.25000000  1.0
  O  O29  1  0.38640963  0.07694199  0.25000000  1.0
  O  O30  1  0.30946764  0.38640963  0.75000000  1.0
  O  O31  1  0.07694199  0.69053236  0.75000000  1.0
