# generated using pymatgen
data_Ba5P3ClO12
_symmetry_space_group_name_H-M   'P 1'
_cell_length_a   10.43840835
_cell_length_b   10.43840835
_cell_length_c   7.71721167
_cell_angle_alpha   90.00000000
_cell_angle_beta   90.00000000
_cell_angle_gamma   120.00000000
_symmetry_Int_Tables_number   1
_chemical_formula_structural   Ba5P3ClO12
_chemical_formula_sum   'Ba10 P6 Cl2 O24'
_cell_volume   728.21498068
_cell_formula_units_Z   2
loop_
 _symmetry_equiv_pos_site_id
 _symmetry_equiv_pos_as_xyz
  1  'x, y, z'
loop_
 _atom_site_type_symbol
 _atom_site_label
 _atom_site_symmetry_multiplicity
 _atom_site_fract_x
 _atom_site_fract_y
 _atom_site_fract_z
 _atom_site_occupancy
  Ba  Ba0  1  0.98927675  0.74119216  0.25000000  1.0
  Ba  Ba1  1  0.74119216  0.75191541  0.75000000  1.0
  Ba  Ba2  1  0.75191541  0.01072325  0.25000000  1.0
  Ba  Ba3  1  0.25880784  0.24808459  0.25000000  1.0
  Ba  Ba4  1  0.01072325  0.25880784  0.75000000  1.0
  Ba  Ba5  1  0.24808459  0.98927675  0.75000000  1.0
  Ba  Ba6  1  0.33333333  0.66666667  0.50022046  1.0
  Ba  Ba7  1  0.33333333  0.66666667  -0.00022046  1.0
  Ba  Ba8  1  0.66666667  0.33333333  0.00022046  1.0
  Ba  Ba9  1  0.66666667  0.33333333  0.49977954  1.0
  P  P10  1  0.37098699  0.96475833  0.25000000  1.0
  P  P11  1  0.96475833  0.59377134  0.75000000  1.0
  P  P12  1  0.59377134  0.62901301  0.25000000  1.0
  P  P13  1  0.03524167  0.40622866  0.25000000  1.0
  P  P14  1  0.62901301  0.03524167  0.75000000  1.0
  P  P15  1  0.40622866  0.37098699  0.75000000  1.0
  Cl  Cl16  1  0.00000000  0.00000000  0.50000000  1.0
  Cl  Cl17  1  -0.00000000  0.00000000  0.00000000  1.0
  O  O18  1  0.26986519  0.91341760  0.41445473  1.0
  O  O19  1  0.26986519  0.91341760  0.08554527  1.0
  O  O20  1  0.91341760  0.64355241  0.91445473  1.0
  O  O21  1  0.91341760  0.64355241  0.58554527  1.0
  O  O22  1  0.64355241  0.73013481  0.41445473  1.0
  O  O23  1  0.64355241  0.73013481  0.08554527  1.0
  O  O24  1  0.08658240  0.35644759  0.41445473  1.0
  O  O25  1  0.08658240  0.35644759  0.08554527  1.0
  O  O26  1  0.73013481  0.08658240  0.91445473  1.0
  O  O27  1  0.73013481  0.08658240  0.58554527  1.0
  O  O28  1  0.35644759  0.26986519  0.91445473  1.0
  O  O29  1  0.35644759  0.26986519  0.58554527  1.0
  O  O30  1  0.46312369  0.88309215  0.25000000  1.0
  O  O31  1  0.88309215  0.41996846  0.75000000  1.0
  O  O32  1  0.41996846  0.53687631  0.25000000  1.0
  O  O33  1  0.11690785  0.58003154  0.25000000  1.0
  O  O34  1  0.53687631  0.11690785  0.75000000  1.0
  O  O35  1  0.58003154  0.46312369  0.75000000  1.0
  O  O36  1  0.65983136  0.52340775  0.25000000  1.0
  O  O37  1  0.52340775  0.86357639  0.75000000  1.0
  O  O38  1  0.86357639  0.34016864  0.25000000  1.0
  O  O39  1  0.47659225  0.13642361  0.25000000  1.0
  O  O40  1  0.34016864  0.47659225  0.75000000  1.0
  O  O41  1  0.13642361  0.65983136  0.75000000  1.0
