# generated using pymatgen
data_NaAlSe2
_symmetry_space_group_name_H-M   'P 1'
_cell_length_a   6.31236281
_cell_length_b   6.31236281
_cell_length_c   6.31236281
_cell_angle_alpha   104.78963724
_cell_angle_beta   104.78963724
_cell_angle_gamma   119.30497817
_symmetry_Int_Tables_number   1
_chemical_formula_structural   NaAlSe2
_chemical_formula_sum   'Na2 Al2 Se4'
_cell_volume   189.28004407
_cell_formula_units_Z   2
loop_
 _symmetry_equiv_pos_site_id
 _symmetry_equiv_pos_as_xyz
  1  'x, y, z'
loop_
 _atom_site_type_symbol
 _atom_site_label
 _atom_site_symmetry_multiplicity
 _atom_site_fract_x
 _atom_site_fract_y
 _atom_site_fract_z
 _atom_site_occupancy
  Na  Na0  1  0.25000000  0.25000000  0.00000000  1.0
  Na  Na1  1  0.75000000  0.75000000  0.00000000  1.0
  Al  Al2  1  0.75000000  1.25000000  0.50000000  1.0
  Al  Al3  1  0.25000000  0.75000000  0.50000000  1.0
  Se  Se4  1  0.83142933  0.33142933  1.16285867  1.0
  Se  Se5  1  0.66857067  0.83142933  0.50000000  1.0
  Se  Se6  1  1.33142933  1.16857067  1.50000000  1.0
  Se  Se7  1  0.16857067  0.66857067  0.83714133  1.0
