# generated using pymatgen
data_Te
_symmetry_space_group_name_H-M   'P 1'
_cell_length_a   5.12945914
_cell_length_b   5.12945914
_cell_length_c   5.12945914
_cell_angle_alpha   82.04692751
_cell_angle_beta   108.46862285
_cell_angle_gamma   145.24294151
_symmetry_Int_Tables_number   1
_chemical_formula_structural   Te
_chemical_formula_sum   Te2
_cell_volume   71.10076809
_cell_formula_units_Z   2
loop_
 _symmetry_equiv_pos_site_id
 _symmetry_equiv_pos_as_xyz
  1  'x, y, z'
loop_
 _atom_site_type_symbol
 _atom_site_label
 _atom_site_symmetry_multiplicity
 _atom_site_fract_x
 _atom_site_fract_y
 _atom_site_fract_z
 _atom_site_occupancy
  Te  Te0  1  1.24997629  0.99997629  1.25000000  1.0
  Te  Te1  1  0.75002371  0.00002371  0.75000000  1.0
