# generated using pymatgen
data_Na5La(MoO4)4
_symmetry_space_group_name_H-M   'P 1'
_cell_length_a   10.16905173
_cell_length_b   10.16905173
_cell_length_c   10.16905173
_cell_angle_alpha   109.43513796
_cell_angle_beta   109.43513796
_cell_angle_gamma   109.54341011
_symmetry_Int_Tables_number   1
_chemical_formula_structural   Na5La(MoO4)4
_chemical_formula_sum   'Na10 La2 Mo8 O32'
_cell_volume   809.50393096
_cell_formula_units_Z   2
loop_
 _symmetry_equiv_pos_site_id
 _symmetry_equiv_pos_as_xyz
  1  'x, y, z'
loop_
 _atom_site_type_symbol
 _atom_site_label
 _atom_site_symmetry_multiplicity
 _atom_site_fract_x
 _atom_site_fract_y
 _atom_site_fract_z
 _atom_site_occupancy
  Na  Na0  1  0.50000000  0.50000000  -0.00000000  1.0
  Na  Na1  1  0.25000000  0.75000000  0.50000000  1.0
  Na  Na2  1  0.33913593  1.01051497  0.92004367  1.0
  Na  Na3  1  1.09047130  0.41909226  1.07995633  1.0
  Na  Na4  1  0.76051497  1.34047130  1.17137904  1.0
  Na  Na5  1  1.16909226  1.58913593  0.82862096  1.0
  Na  Na6  1  1.41086407  1.23948503  1.57995633  1.0
  Na  Na7  1  0.65952870  0.83090774  0.42004367  1.0
  Na  Na8  1  0.98948503  0.90952870  1.32862096  1.0
  Na  Na9  1  1.58090774  1.66086407  1.67137904  1.0
  La  La10  1  1.00000000  1.00000000  1.00000000  1.0
  La  La11  1  0.75000000  0.25000000  0.50000000  1.0
  Mo  Mo12  1  0.44758524  0.36608470  0.27459919  1.0
  Mo  Mo13  1  1.09148551  1.17298605  1.72540081  1.0
  Mo  Mo14  1  1.11608470  1.34148551  1.41849946  1.0
  Mo  Mo15  1  0.92298605  0.69758524  1.58150054  1.0
  Mo  Mo16  1  1.30241476  0.88391530  1.22540081  1.0
  Mo  Mo17  1  0.65851449  1.07701395  0.77459919  1.0
  Mo  Mo18  1  0.63391530  0.90851449  1.08150054  1.0
  Mo  Mo19  1  0.82701395  1.55241476  0.91849946  1.0
  O  O20  1  0.53539390  0.57571179  0.39174258  1.0
  O  O21  1  1.18396921  1.14365132  1.60825742  1.0
  O  O22  1  1.32571179  1.43396921  1.54031790  1.0
  O  O23  1  0.89365132  0.78539390  1.45968210  1.0
  O  O24  1  1.21460610  0.67428821  1.10825742  1.0
  O  O25  1  0.56603079  1.10634868  0.89174258  1.0
  O  O26  1  0.42428821  0.81603079  0.95968210  1.0
  O  O27  1  0.85634868  1.46460610  1.04031790  1.0
  O  O28  1  0.50303714  1.32761342  1.12330275  1.0
  O  O29  1  1.20431067  0.37973440  0.87669725  1.0
  O  O30  1  1.07761342  0.45431067  1.32457627  1.0
  O  O31  1  0.12973440  0.75303714  0.67542373  1.0
  O  O32  1  1.24696286  0.92238658  1.37669725  1.0
  O  O33  1  0.54568933  0.87026560  0.62330275  1.0
  O  O34  1  0.67238658  0.79568933  0.17542373  1.0
  O  O35  1  1.62026560  1.49696286  1.82457627  1.0
  O  O36  1  1.23342422  1.28410839  1.17291322  1.0
  O  O37  1  1.11119517  1.06051100  1.82708678  1.0
  O  O38  1  1.03410839  1.36119517  0.55068418  1.0
  O  O39  1  0.81051100  0.48342422  0.44931582  1.0
  O  O40  1  0.51657578  0.96589161  1.32708678  1.0
  O  O41  1  0.63880483  1.18948900  0.67291322  1.0
  O  O42  1  1.71589161  0.88880483  0.94931582  1.0
  O  O43  1  0.93948900  0.76657578  1.05068418  1.0
  O  O44  1  1.50611629  1.28128894  1.39934665  1.0
  O  O45  1  0.88194228  1.10676964  1.60065335  1.0
  O  O46  1  1.03128894  1.13194228  1.27517265  1.0
  O  O47  1  0.85676964  0.75611629  0.72482735  1.0
  O  O48  1  0.24388371  0.96871106  1.10065335  1.0
  O  O49  1  0.86805772  1.14323036  0.89934665  1.0
  O  O50  1  0.71871106  1.11805772  1.22482735  1.0
  O  O51  1  0.89323036  0.49388371  0.77517265  1.0
