# generated using pymatgen
data_Hf(Se2Cl3)2
_symmetry_space_group_name_H-M   'P 1'
_cell_length_a   11.17576792
_cell_length_b   11.17576792
_cell_length_c   11.06397737
_cell_angle_alpha   90.00000000
_cell_angle_beta   90.00000000
_cell_angle_gamma   90.00000000
_symmetry_Int_Tables_number   1
_chemical_formula_structural   Hf(Se2Cl3)2
_chemical_formula_sum   'Hf4 Se16 Cl24'
_cell_volume   1381.86630692
_cell_formula_units_Z   4
loop_
 _symmetry_equiv_pos_site_id
 _symmetry_equiv_pos_as_xyz
  1  'x, y, z'
loop_
 _atom_site_type_symbol
 _atom_site_label
 _atom_site_symmetry_multiplicity
 _atom_site_fract_x
 _atom_site_fract_y
 _atom_site_fract_z
 _atom_site_occupancy
  Hf  Hf0  1  0.75000000  0.25000000  0.75000000  1.0
  Hf  Hf1  1  0.75000000  0.75000000  0.25000000  1.0
  Hf  Hf2  1  0.25000000  0.25000000  0.25000000  1.0
  Hf  Hf3  1  0.25000000  0.75000000  0.75000000  1.0
  Se  Se4  1  0.84102531  0.34102531  0.17536432  1.0
  Se  Se5  1  0.84102531  0.65897469  0.67536432  1.0
  Se  Se6  1  0.15897469  0.34102531  0.67536432  1.0
  Se  Se7  1  0.15897469  0.65897469  0.17536432  1.0
  Se  Se8  1  0.65897469  0.15897469  0.32463568  1.0
  Se  Se9  1  0.65897469  0.84102531  0.82463568  1.0
  Se  Se10  1  0.34102531  0.15897469  0.82463568  1.0
  Se  Se11  1  0.34102531  0.84102531  0.32463568  1.0
  Se  Se12  1  0.64598903  0.35401097  0.25000000  1.0
  Se  Se13  1  0.64598903  0.64598903  0.75000000  1.0
  Se  Se14  1  0.35401097  0.35401097  0.75000000  1.0
  Se  Se15  1  0.35401097  0.64598903  0.25000000  1.0
  Se  Se16  1  0.85401097  0.14598903  0.25000000  1.0
  Se  Se17  1  0.14598903  0.14598903  0.75000000  1.0
  Se  Se18  1  0.85401097  0.85401097  0.75000000  1.0
  Se  Se19  1  0.14598903  0.85401097  0.25000000  1.0
  Cl  Cl20  1  0.87845568  0.37845568  0.87044387  1.0
  Cl  Cl21  1  0.87845568  0.62154432  0.37044387  1.0
  Cl  Cl22  1  0.12154432  0.37845568  0.37044387  1.0
  Cl  Cl23  1  0.12154432  0.62154432  0.87044387  1.0
  Cl  Cl24  1  0.62154432  0.12154432  0.62955613  1.0
  Cl  Cl25  1  0.62154432  0.87845568  0.12955613  1.0
  Cl  Cl26  1  0.37845568  0.12154432  0.12955613  1.0
  Cl  Cl27  1  0.37845568  0.87845568  0.62955613  1.0
  Cl  Cl28  1  0.92114779  0.19914981  0.61533118  1.0
  Cl  Cl29  1  0.92114779  0.80085019  0.11533118  1.0
  Cl  Cl30  1  0.07885221  0.19914981  0.11533118  1.0
  Cl  Cl31  1  0.07885221  0.80085019  0.61533118  1.0
  Cl  Cl32  1  0.69914981  0.42114779  0.61533118  1.0
  Cl  Cl33  1  0.30085019  0.42114779  0.11533118  1.0
  Cl  Cl34  1  0.69914981  0.57885221  0.11533118  1.0
  Cl  Cl35  1  0.30085019  0.57885221  0.61533118  1.0
  Cl  Cl36  1  0.57885221  0.30085019  0.88466882  1.0
  Cl  Cl37  1  0.57885221  0.69914981  0.38466882  1.0
  Cl  Cl38  1  0.42114779  0.30085019  0.38466882  1.0
  Cl  Cl39  1  0.42114779  0.69914981  0.88466882  1.0
  Cl  Cl40  1  0.80085019  0.07885221  0.88466882  1.0
  Cl  Cl41  1  0.19914981  0.07885221  0.38466882  1.0
  Cl  Cl42  1  0.80085019  0.92114779  0.38466882  1.0
  Cl  Cl43  1  0.19914981  0.92114779  0.88466882  1.0
