# generated using pymatgen
data_Cs2NaMn3F12
_symmetry_space_group_name_H-M   'P 1'
_cell_length_a   10.61272358
_cell_length_b   7.70293325
_cell_length_c   7.46232473
_cell_angle_alpha   89.90123890
_cell_angle_beta   87.36145285
_cell_angle_gamma   89.87673982
_symmetry_Int_Tables_number   1
_chemical_formula_structural   Cs2NaMn3F12
_chemical_formula_sum   'Cs4 Na2 Mn6 F24'
_cell_volume   609.38937729
_cell_formula_units_Z   2
loop_
 _symmetry_equiv_pos_site_id
 _symmetry_equiv_pos_as_xyz
  1  'x, y, z'
loop_
 _atom_site_type_symbol
 _atom_site_label
 _atom_site_symmetry_multiplicity
 _atom_site_fract_x
 _atom_site_fract_y
 _atom_site_fract_z
 _atom_site_occupancy
  Cs  Cs0  1  -0.61620199  -0.24904081  -0.99974895  1.0
  Cs  Cs1  1  -0.38379801  -0.75095919  -0.00025105  1.0
  Cs  Cs2  1  -0.86504143  -0.24318867  -0.48626978  1.0
  Cs  Cs3  1  -0.13495857  -0.75681133  -0.51373022  1.0
  Na  Na4  1  -0.74904980  -0.74360201  -0.21567680  1.0
  Na  Na5  1  -0.25095020  -0.25639799  -0.78432320  1.0
  Mn  Mn6  1  -0.77346360  -0.75078666  -0.70647300  1.0
  Mn  Mn7  1  -0.22653640  -0.24921334  -0.29352700  1.0
  Mn  Mn8  1  -0.50000000  -0.50000000  -0.50000000  1.0
  Mn  Mn9  1  -0.50000000  -0.00000000  -0.50000000  1.0
  Mn  Mn10  1  0.00000000  -0.50000000  0.00000000  1.0
  Mn  Mn11  1  0.00000000  0.00000000  0.00000000  1.0
  F  F12  1  -0.68592844  -0.73841907  -0.92468019  1.0
  F  F13  1  -0.31407156  -0.26158093  -0.07531981  1.0
  F  F14  1  -0.99572469  -0.26899193  -0.91811921  1.0
  F  F15  1  -0.00427531  -0.73100807  -0.08188079  1.0
  F  F16  1  -0.15063539  -0.97808441  -0.86788677  1.0
  F  F17  1  -0.84936461  -0.02191559  -0.13211323  1.0
  F  F18  1  -0.14629782  -0.53308975  -0.85954638  1.0
  F  F19  1  -0.85370218  -0.46691025  -0.14045362  1.0
  F  F20  1  -0.91049721  -0.94274738  -0.79462385  1.0
  F  F21  1  -0.08950279  -0.05725262  -0.20537615  1.0
  F  F22  1  -0.88606357  -0.57365859  -0.77266543  1.0
  F  F23  1  -0.11393643  -0.42634141  -0.22733457  1.0
  F  F24  1  -0.42701176  -0.45356032  -0.72484779  1.0
  F  F25  1  -0.57298824  -0.54643968  -0.27515221  1.0
  F  F26  1  -0.66966741  -0.93767490  -0.64075604  1.0
  F  F27  1  -0.33033259  -0.06232510  -0.35924396  1.0
  F  F28  1  -0.65474430  -0.54587440  -0.60427573  1.0
  F  F29  1  -0.34525570  -0.45412560  -0.39572427  1.0
  F  F30  1  -0.43898528  -0.77100264  -0.53155511  1.0
  F  F31  1  -0.56101472  -0.22899736  -0.46844489  1.0
  F  F32  1  -0.85354298  -0.76081477  -0.48145834  1.0
  F  F33  1  -0.14645702  -0.23918523  -0.51854166  1.0
  F  F34  1  -0.57728644  -0.94063178  -0.28164815  1.0
  F  F35  1  -0.42271356  -0.05936822  -0.71835185  1.0
