# generated using pymatgen
data_LuSi3
_symmetry_space_group_name_H-M   'P 1'
_cell_length_a   7.28831255
_cell_length_b   7.28831255
_cell_length_c   7.28831255
_cell_angle_alpha   120.96574903
_cell_angle_beta   120.96574903
_cell_angle_gamma   88.33525749
_symmetry_Int_Tables_number   1
_chemical_formula_structural   LuSi3
_chemical_formula_sum   'Lu4 Si12'
_cell_volume   269.63781554
_cell_formula_units_Z   4
loop_
 _symmetry_equiv_pos_site_id
 _symmetry_equiv_pos_as_xyz
  1  'x, y, z'
loop_
 _atom_site_type_symbol
 _atom_site_label
 _atom_site_symmetry_multiplicity
 _atom_site_fract_x
 _atom_site_fract_y
 _atom_site_fract_z
 _atom_site_occupancy
  Lu  Lu0  1  0.83086601  0.83086601  1.00000000  1.0
  Lu  Lu1  1  0.16913399  0.16913399  0.00000000  1.0
  Lu  Lu2  1  0.25000000  0.75000000  0.50000000  1.0
  Lu  Lu3  1  0.75000000  0.25000000  0.50000000  1.0
  Si  Si4  1  0.57039365  0.57039365  0.37689465  1.0
  Si  Si5  1  0.80650100  0.80650100  1.37689465  1.0
  Si  Si6  1  1.19349900  0.57039365  1.00000000  1.0
  Si  Si7  1  0.42960635  0.80650100  1.00000000  1.0
  Si  Si8  1  0.57039365  1.19349900  1.00000000  1.0
  Si  Si9  1  0.80650100  0.42960635  1.00000000  1.0
  Si  Si10  1  1.19349900  1.19349900  1.62310535  1.0
  Si  Si11  1  0.42960635  0.42960635  0.62310535  1.0
  Si  Si12  1  0.00000000  0.67430780  0.67430780  1.0
  Si  Si13  1  0.67430780  0.00000000  0.67430780  1.0
  Si  Si14  1  0.32569220  0.00000000  0.32569220  1.0
  Si  Si15  1  0.00000000  0.32569220  0.32569220  1.0
