# generated using pymatgen
data_Al2W5O16
_symmetry_space_group_name_H-M   'P 1'
_cell_length_a   20.81413696
_cell_length_b   20.81413696
_cell_length_c   20.81413696
_cell_angle_alpha   169.39423803
_cell_angle_beta   169.39423803
_cell_angle_gamma   15.02038302
_symmetry_Int_Tables_number   1
_chemical_formula_structural   Al2W5O16
_chemical_formula_sum   'Al2 W5 O16'
_cell_volume   305.44406337
_cell_formula_units_Z   1
loop_
 _symmetry_equiv_pos_site_id
 _symmetry_equiv_pos_as_xyz
  1  'x, y, z'
loop_
 _atom_site_type_symbol
 _atom_site_label
 _atom_site_symmetry_multiplicity
 _atom_site_fract_x
 _atom_site_fract_y
 _atom_site_fract_z
 _atom_site_occupancy
  Al  Al0  1  0.25000000  0.75000000  0.50000000  1.0
  Al  Al1  1  0.75000000  0.25000000  0.50000000  1.0
  W  W2  1  0.90839665  0.90839665  1.00000000  1.0
  W  W3  1  0.09160335  0.09160335  -0.00000000  1.0
  W  W4  1  0.81114646  0.81114646  1.00000000  1.0
  W  W5  1  0.18885354  0.18885354  -0.00000000  1.0
  W  W6  1  0.00000000  0.00000000  0.00000000  1.0
  O  O7  1  0.40381374  0.90381374  0.50000000  1.0
  O  O8  1  0.59618626  0.09618626  0.50000000  1.0
  O  O9  1  0.90381374  0.40381374  0.50000000  1.0
  O  O10  1  0.09618626  0.59618626  0.50000000  1.0
  O  O11  1  0.29517149  0.79517149  0.50000000  1.0
  O  O12  1  0.70482851  0.20482851  0.50000000  1.0
  O  O13  1  0.79517149  0.29517149  0.50000000  1.0
  O  O14  1  0.20482851  0.70482851  0.50000000  1.0
  O  O15  1  0.95195334  0.95195334  1.00000000  1.0
  O  O16  1  0.04804666  0.04804666  -0.00000000  1.0
  O  O17  1  0.85308066  0.85308066  1.00000000  1.0
  O  O18  1  0.14691934  0.14691934  -0.00000000  1.0
  O  O19  1  0.75302168  0.75302168  1.00000000  1.0
  O  O20  1  0.24697832  0.24697832  -0.00000000  1.0
  O  O21  1  0.50000000  0.00000000  0.50000000  1.0
  O  O22  1  0.00000000  0.50000000  0.50000000  1.0
