# generated using pymatgen
data_Cs3B12H12Br
_symmetry_space_group_name_H-M   'P 1'
_cell_length_a   7.34131025
_cell_length_b   7.34131025
_cell_length_c   7.34131025
_cell_angle_alpha   92.59578754
_cell_angle_beta   92.59578754
_cell_angle_gamma   92.59578754
_symmetry_Int_Tables_number   1
_chemical_formula_structural   Cs3B12H12Br
_chemical_formula_sum   'Cs3 B12 H12 Br1'
_cell_volume   394.40263637
_cell_formula_units_Z   1
loop_
 _symmetry_equiv_pos_site_id
 _symmetry_equiv_pos_as_xyz
  1  'x, y, z'
loop_
 _atom_site_type_symbol
 _atom_site_label
 _atom_site_symmetry_multiplicity
 _atom_site_fract_x
 _atom_site_fract_y
 _atom_site_fract_z
 _atom_site_occupancy
  Cs  Cs0  1  1.00000000  -0.50000000  -0.00000000  1.0
  Cs  Cs1  1  1.00000000  -0.00000000  -0.50000000  1.0
  Cs  Cs2  1  0.50000000  -0.00000000  -0.00000000  1.0
  B  B3  1  1.55508980  0.55508980  -0.27756547  1.0
  B  B4  1  1.55508980  -0.27756547  0.55508980  1.0
  B  B5  1  1.27756547  0.44491020  -0.55508980  1.0
  B  B6  1  0.44491020  1.27756547  -0.55508980  1.0
  B  B7  1  0.44491020  0.44491020  0.27756547  1.0
  B  B8  1  0.72243453  0.55508980  0.55508980  1.0
  B  B9  1  1.38343552  0.38343552  -0.34559938  1.0
  B  B10  1  1.38343552  -0.34559938  0.38343552  1.0
  B  B11  1  1.34559938  0.61656448  -0.38343552  1.0
  B  B12  1  0.61656448  1.34559938  -0.38343552  1.0
  B  B13  1  0.61656448  0.61656448  0.34559938  1.0
  B  B14  1  0.65440062  0.38343552  0.38343552  1.0
  H  H15  1  1.29975745  0.29975745  -0.23627516  1.0
  H  H16  1  1.29975745  -0.23627516  0.29975745  1.0
  H  H17  1  1.23627516  0.70024255  -0.29975745  1.0
  H  H18  1  0.70024255  1.23627516  -0.29975745  1.0
  H  H19  1  0.70024255  0.70024255  0.23627516  1.0
  H  H20  1  0.76372484  0.29975745  0.29975745  1.0
  H  H21  1  0.40643019  0.40643019  0.11915962  1.0
  H  H22  1  0.40643019  1.11915962  -0.59356981  1.0
  H  H23  1  0.88084038  0.59356981  0.59356981  1.0
  H  H24  1  1.59356981  -0.11915962  0.59356981  1.0
  H  H25  1  1.59356981  0.59356981  -0.11915962  1.0
  H  H26  1  1.11915962  0.40643019  -0.59356981  1.0
  Br  Br27  1  0.00000000  0.00000000  0.00000000  1.0
