# generated using pymatgen
data_Ca3SiO
_symmetry_space_group_name_H-M   'P 1'
_cell_length_a   6.67298314
_cell_length_b   6.67298314
_cell_length_c   6.67298314
_cell_angle_alpha   90.08602432
_cell_angle_beta   120.11508871
_cell_angle_gamma   119.78587631
_symmetry_Int_Tables_number   1
_chemical_formula_structural   Ca3SiO
_chemical_formula_sum   'Ca6 Si2 O2'
_cell_volume   210.26404314
_cell_formula_units_Z   2
loop_
 _symmetry_equiv_pos_site_id
 _symmetry_equiv_pos_as_xyz
  1  'x, y, z'
loop_
 _atom_site_type_symbol
 _atom_site_label
 _atom_site_symmetry_multiplicity
 _atom_site_fract_x
 _atom_site_fract_y
 _atom_site_fract_z
 _atom_site_occupancy
  Ca  Ca0  1  0.00000000  0.72812764  0.72812764  1.0
  Ca  Ca1  1  0.50000000  0.72812764  1.22812764  1.0
  Ca  Ca2  1  0.50000000  0.27187236  0.77187236  1.0
  Ca  Ca3  1  0.00000000  0.27187236  0.27187236  1.0
  Ca  Ca4  1  1.04285952  0.79285952  1.25000000  1.0
  Ca  Ca5  1  0.95714048  1.20714048  0.75000000  1.0
  Si  Si6  1  1.50122031  1.25122031  1.25000000  1.0
  Si  Si7  1  0.49877969  0.74877969  0.75000000  1.0
  O  O8  1  1.00000000  1.00000000  0.50000000  1.0
  O  O9  1  1.00000000  0.50000000  1.00000000  1.0
