# generated using pymatgen
data_CaHN
_symmetry_space_group_name_H-M   'P 1'
_cell_length_a   7.93813639
_cell_length_b   7.93813639
_cell_length_c   7.93813639
_cell_angle_alpha   114.10531630
_cell_angle_beta   114.10531630
_cell_angle_gamma   100.55443969
_symmetry_Int_Tables_number   1
_chemical_formula_structural   CaHN
_chemical_formula_sum   'Ca8 H8 N8'
_cell_volume   378.22795823
_cell_formula_units_Z   8
loop_
 _symmetry_equiv_pos_site_id
 _symmetry_equiv_pos_as_xyz
  1  'x, y, z'
loop_
 _atom_site_type_symbol
 _atom_site_label
 _atom_site_symmetry_multiplicity
 _atom_site_fract_x
 _atom_site_fract_y
 _atom_site_fract_z
 _atom_site_occupancy
  Ca  Ca0  1  1.14980502  0.38726859  0.76253643  1.0
  Ca  Ca1  1  1.12526784  0.86273141  1.26253643  1.0
  Ca  Ca2  1  0.62473216  0.38726859  0.23746357  1.0
  Ca  Ca3  1  0.60019498  0.86273141  0.73746357  1.0
  Ca  Ca4  1  0.61273141  0.37526784  0.76253643  1.0
  Ca  Ca5  1  0.13726859  0.39980502  0.26253643  1.0
  Ca  Ca6  1  0.61273141  0.85019498  1.23746357  1.0
  Ca  Ca7  1  0.13726859  0.87473216  0.73746357  1.0
  H  H8  1  0.97894246  0.07701231  0.90193014  1.0
  H  H9  1  0.57491783  0.17298769  0.40193014  1.0
  H  H10  1  0.17508217  0.07701231  0.09806986  1.0
  H  H11  1  0.77105754  0.17298769  0.59806986  1.0
  H  H12  1  0.92298769  0.82491783  0.90193014  1.0
  H  H13  1  0.82701231  1.22894246  1.40193014  1.0
  H  H14  1  0.92298769  1.02105754  1.09806986  1.0
  H  H15  1  0.82701231  0.42508217  0.59806986  1.0
  N  N16  1  0.98643119  0.15760651  0.82882468  1.0
  N  N17  1  0.42121817  0.09239349  0.32882468  1.0
  N  N18  1  0.32878183  0.15760651  0.17117532  1.0
  N  N19  1  0.76356881  0.09239349  0.67117532  1.0
  N  N20  1  0.84239349  0.67121817  0.82882468  1.0
  N  N21  1  0.90760651  1.23643119  1.32882468  1.0
  N  N22  1  0.84239349  1.01356881  1.17117532  1.0
  N  N23  1  0.90760651  0.57878183  0.67117532  1.0
