# generated using pymatgen
data_CaTi4(FeO4)3
_symmetry_space_group_name_H-M   'P 1'
_cell_length_a   6.49962263
_cell_length_b   6.49962263
_cell_length_c   6.49962263
_cell_angle_alpha   109.47122063
_cell_angle_beta   109.47122063
_cell_angle_gamma   109.47122063
_symmetry_Int_Tables_number   1
_chemical_formula_structural   CaTi4(FeO4)3
_chemical_formula_sum   'Ca1 Ti4 Fe3 O12'
_cell_volume   211.36960503
_cell_formula_units_Z   1
loop_
 _symmetry_equiv_pos_site_id
 _symmetry_equiv_pos_as_xyz
  1  'x, y, z'
loop_
 _atom_site_type_symbol
 _atom_site_label
 _atom_site_symmetry_multiplicity
 _atom_site_fract_x
 _atom_site_fract_y
 _atom_site_fract_z
 _atom_site_occupancy
  Ca  Ca0  1  0.00000000  0.00000000  0.00000000  1.0
  Ti  Ti1  1  0.50000000  1.00000000  1.00000000  1.0
  Ti  Ti2  1  0.50000000  0.50000000  0.50000000  1.0
  Ti  Ti3  1  1.00000000  1.00000000  0.50000000  1.0
  Ti  Ti4  1  1.00000000  0.50000000  1.00000000  1.0
  Fe  Fe5  1  0.50000000  0.50000000  -0.00000000  1.0
  Fe  Fe6  1  0.00000000  0.50000000  0.50000000  1.0
  Fe  Fe7  1  0.50000000  0.00000000  0.50000000  1.0
  O  O8  1  0.81536296  1.30090181  1.11626477  1.0
  O  O9  1  0.81536296  0.69909819  0.51446114  1.0
  O  O10  1  0.18463704  0.30090181  0.48553886  1.0
  O  O11  1  0.18463704  0.69909819  0.88373523  1.0
  O  O12  1  0.51446114  0.81536296  0.69909819  1.0
  O  O13  1  1.11626477  0.81536296  1.30090181  1.0
  O  O14  1  0.69909819  0.88373523  0.18463704  1.0
  O  O15  1  0.69909819  0.51446114  0.81536296  1.0
  O  O16  1  0.88373523  0.18463704  0.69909819  1.0
  O  O17  1  0.48553886  0.18463704  0.30090181  1.0
  O  O18  1  0.30090181  0.48553886  0.18463704  1.0
  O  O19  1  1.30090181  1.11626477  0.81536296  1.0
