# generated using pymatgen
data_CaZn2(H5O4)2
_symmetry_space_group_name_H-M   'P 1'
_cell_length_a   6.39505811
_cell_length_b   10.99968272
_cell_length_c   5.92197703
_cell_angle_alpha   90.00000000
_cell_angle_beta   104.25287018
_cell_angle_gamma   90.00000000
_symmetry_Int_Tables_number   1
_chemical_formula_structural   CaZn2(H5O4)2
_chemical_formula_sum   'Ca2 Zn4 H20 O16'
_cell_volume   403.75052667
_cell_formula_units_Z   2
loop_
 _symmetry_equiv_pos_site_id
 _symmetry_equiv_pos_as_xyz
  1  'x, y, z'
loop_
 _atom_site_type_symbol
 _atom_site_label
 _atom_site_symmetry_multiplicity
 _atom_site_fract_x
 _atom_site_fract_y
 _atom_site_fract_z
 _atom_site_occupancy
  Ca  Ca0  1  0.00000000  0.00000000  0.00000000  1.0
  Ca  Ca1  1  -0.00000000  0.50000000  0.50000000  1.0
  Zn  Zn2  1  0.45886297  0.83059274  0.83921167  1.0
  Zn  Zn3  1  0.45886297  0.66940725  0.33921167  1.0
  Zn  Zn4  1  0.54113703  0.33059275  0.66078833  1.0
  Zn  Zn5  1  0.54113703  0.16940726  0.16078833  1.0
  H  H6  1  0.96708660  0.23369345  0.72214597  1.0
  H  H7  1  0.96708660  0.26630655  0.22214597  1.0
  H  H8  1  0.03291340  0.73369345  0.77785403  1.0
  H  H9  1  0.03291340  0.76630655  0.27785403  1.0
  H  H10  1  0.91032638  0.37430031  0.90084122  1.0
  H  H11  1  0.91032638  0.12569969  0.40084122  1.0
  H  H12  1  0.08967362  0.87430031  0.59915878  1.0
  H  H13  1  0.08967362  0.62569969  0.09915878  1.0
  H  H14  1  0.80553007  0.66440051  0.75919397  1.0
  H  H15  1  0.80553007  0.83559949  0.25919397  1.0
  H  H16  1  0.19446993  0.16440051  0.74080603  1.0
  H  H17  1  0.19446993  0.33559949  0.24080603  1.0
  H  H18  1  0.65599036  0.94845628  0.60305189  1.0
  H  H19  1  0.65599036  0.55154372  0.10305189  1.0
  H  H20  1  0.34400964  0.44845628  0.89694811  1.0
  H  H21  1  0.34400964  0.05154372  0.39694811  1.0
  H  H22  1  0.46951995  0.60389691  0.72929970  1.0
  H  H23  1  0.46951995  0.89610309  0.22929970  1.0
  H  H24  1  0.53048005  0.10389691  0.77070030  1.0
  H  H25  1  0.53048005  0.39610309  0.27070030  1.0
  O  O26  1  0.96497080  0.65012642  0.78106731  1.0
  O  O27  1  0.96497080  0.84987358  0.28106731  1.0
  O  O28  1  0.03502920  0.15012642  0.71893269  1.0
  O  O29  1  0.03502920  0.34987358  0.21893269  1.0
  O  O30  1  0.85252491  0.36447439  0.73125574  1.0
  O  O31  1  0.85252491  0.13552561  0.23125574  1.0
  O  O32  1  0.14747509  0.86447439  0.76874426  1.0
  O  O33  1  0.14747509  0.63552561  0.26874426  1.0
  O  O34  1  0.64505685  0.96133849  0.76219580  1.0
  O  O35  1  0.64505685  0.53866151  0.26219580  1.0
  O  O36  1  0.35494315  0.46133849  0.73780420  1.0
  O  O37  1  0.35494315  0.03866151  0.23780420  1.0
  O  O38  1  0.53791992  0.68058893  0.69069408  1.0
  O  O39  1  0.53791992  0.81941107  0.19069408  1.0
  O  O40  1  0.46208008  0.18058893  0.80930592  1.0
  O  O41  1  0.46208008  0.31941107  0.30930592  1.0
