# generated using pymatgen
data_FeS2
_symmetry_space_group_name_H-M   'P 1'
_cell_length_a   4.44046518
_cell_length_b   5.41008504
_cell_length_c   3.38982154
_cell_angle_alpha   90.00000000
_cell_angle_beta   90.00000000
_cell_angle_gamma   90.00000000
_symmetry_Int_Tables_number   1
_chemical_formula_structural   FeS2
_chemical_formula_sum   'Fe2 S4'
_cell_volume   81.43468026
_cell_formula_units_Z   2
loop_
 _symmetry_equiv_pos_site_id
 _symmetry_equiv_pos_as_xyz
  1  'x, y, z'
loop_
 _atom_site_type_symbol
 _atom_site_label
 _atom_site_symmetry_multiplicity
 _atom_site_fract_x
 _atom_site_fract_y
 _atom_site_fract_z
 _atom_site_occupancy
  Fe  Fe0  1  0.50000000  0.50000000  0.50919629  1.0
  Fe  Fe1  1  0.00000000  0.00000000  0.00919629  1.0
  S  S2  1  0.29406581  0.87526864  0.50920185  1.0
  S  S3  1  0.79406581  0.62473136  0.00920185  1.0
  S  S4  1  0.70593419  0.12473136  0.50920185  1.0
  S  S5  1  0.20593419  0.37526864  0.00920185  1.0
