# generated using pymatgen
data_Eu2Si2O7
_symmetry_space_group_name_H-M   'P 1'
_cell_length_a   14.19675968
_cell_length_b   5.14131893
_cell_length_c   8.43092341
_cell_angle_alpha   90.00000000
_cell_angle_beta   90.00000000
_cell_angle_gamma   90.00000000
_symmetry_Int_Tables_number   1
_chemical_formula_structural   Eu2Si2O7
_chemical_formula_sum   'Eu8 Si8 O28'
_cell_volume   615.37368449
_cell_formula_units_Z   4
loop_
 _symmetry_equiv_pos_site_id
 _symmetry_equiv_pos_as_xyz
  1  'x, y, z'
loop_
 _atom_site_type_symbol
 _atom_site_label
 _atom_site_symmetry_multiplicity
 _atom_site_fract_x
 _atom_site_fract_y
 _atom_site_fract_z
 _atom_site_occupancy
  Eu  Eu0  1  0.37439517  0.15966865  0.74827454  1.0
  Eu  Eu1  1  0.87439517  0.34033135  0.74827454  1.0
  Eu  Eu2  1  0.62560483  0.84033135  0.24827454  1.0
  Eu  Eu3  1  0.12560483  0.65966865  0.24827454  1.0
  Eu  Eu4  1  0.12561921  0.65971495  0.76050040  1.0
  Eu  Eu5  1  0.62561921  0.84028505  0.76050040  1.0
  Eu  Eu6  1  0.87438079  0.34028505  0.26050040  1.0
  Eu  Eu7  1  0.37438079  0.15971495  0.26050040  1.0
  Si  Si8  1  0.46359163  0.62411862  0.00436338  1.0
  Si  Si9  1  0.96359163  0.87588138  0.00436338  1.0
  Si  Si10  1  0.53640837  0.37588138  0.50436338  1.0
  Si  Si11  1  0.03640837  0.12411862  0.50436338  1.0
  Si  Si12  1  0.32128190  0.62499118  0.50439746  1.0
  Si  Si13  1  0.82128190  0.87500882  0.50439746  1.0
  Si  Si14  1  0.67871810  0.37500882  0.00439746  1.0
  Si  Si15  1  0.17871810  0.12499118  0.00439746  1.0
  O  O16  1  0.45513854  0.78934643  0.83968330  1.0
  O  O17  1  0.95513854  0.71065357  0.83968330  1.0
  O  O18  1  0.54486146  0.21065357  0.33968330  1.0
  O  O19  1  0.04486146  0.28934643  0.33968330  1.0
  O  O20  1  0.45512914  0.78947358  0.16898332  1.0
  O  O21  1  0.95512914  0.71052642  0.16898332  1.0
  O  O22  1  0.54487086  0.21052642  0.66898332  1.0
  O  O23  1  0.04487086  0.28947358  0.66898332  1.0
  O  O24  1  0.34535631  0.93386133  0.50439350  1.0
  O  O25  1  0.84535631  0.56613867  0.50439350  1.0
  O  O26  1  0.65464369  0.06613867  0.00439350  1.0
  O  O27  1  0.15464369  0.43386133  0.00439350  1.0
  O  O28  1  0.26971281  0.52090578  0.66542686  1.0
  O  O29  1  0.76971281  0.97909422  0.66542686  1.0
  O  O30  1  0.73028719  0.47909422  0.16542686  1.0
  O  O31  1  0.23028719  0.02090578  0.16542686  1.0
  O  O32  1  0.23030379  0.02089487  0.84337868  1.0
  O  O33  1  0.73030379  0.47910513  0.84337868  1.0
  O  O34  1  0.76969621  0.97910513  0.34337868  1.0
  O  O35  1  0.26969621  0.52089487  0.34337868  1.0
  O  O36  1  0.09742704  0.85492732  0.50440211  1.0
  O  O37  1  0.59742704  0.64507268  0.50440211  1.0
  O  O38  1  0.90257296  0.14507268  0.00440211  1.0
  O  O39  1  0.40257296  0.35492732  0.00440211  1.0
  O  O40  1  0.08015667  0.94382814  0.00439645  1.0
  O  O41  1  0.58015667  0.55617186  0.00439645  1.0
  O  O42  1  0.91984333  0.05617186  0.50439645  1.0
  O  O43  1  0.41984333  0.44382814  0.50439645  1.0
