# generated using pymatgen
data_Ba2Y3Si2O8F5
_symmetry_space_group_name_H-M   'P 1'
_cell_length_a   8.94070110
_cell_length_b   12.71107925
_cell_length_c   5.18141265
_cell_angle_alpha   90.00000000
_cell_angle_beta   90.00000000
_cell_angle_gamma   90.00000000
_symmetry_Int_Tables_number   1
_chemical_formula_structural   Ba2Y3Si2O8F5
_chemical_formula_sum   'Ba4 Y6 Si4 O16 F10'
_cell_volume   588.84661659
_cell_formula_units_Z   2
loop_
 _symmetry_equiv_pos_site_id
 _symmetry_equiv_pos_as_xyz
  1  'x, y, z'
loop_
 _atom_site_type_symbol
 _atom_site_label
 _atom_site_symmetry_multiplicity
 _atom_site_fract_x
 _atom_site_fract_y
 _atom_site_fract_z
 _atom_site_occupancy
  Ba  Ba0  1  0.35764542  0.20519726  0.13415969  1.0
  Ba  Ba1  1  0.64235458  0.79480274  0.13415969  1.0
  Ba  Ba2  1  0.14235458  0.70519726  0.13415969  1.0
  Ba  Ba3  1  0.85764542  0.29480274  0.13415969  1.0
  Y  Y4  1  0.50000000  0.50000000  0.13153118  1.0
  Y  Y5  1  0.00000000  0.00000000  0.13153118  1.0
  Y  Y6  1  0.32158417  0.93907074  0.68828529  1.0
  Y  Y7  1  0.67841583  0.06092926  0.68828529  1.0
  Y  Y8  1  0.17841583  0.43907074  0.68828529  1.0
  Y  Y9  1  0.82158417  0.56092926  0.68828529  1.0
  Si  Si10  1  0.42366127  0.65673728  0.69782906  1.0
  Si  Si11  1  0.57633873  0.34326272  0.69782906  1.0
  Si  Si12  1  0.07633873  0.15673728  0.69782906  1.0
  Si  Si13  1  0.92366127  0.84326272  0.69782906  1.0
  O  O14  1  0.41777834  0.64067928  0.38498130  1.0
  O  O15  1  0.58222166  0.35932072  0.38498130  1.0
  O  O16  1  0.08222166  0.14067928  0.38498130  1.0
  O  O17  1  0.91777834  0.85932072  0.38498130  1.0
  O  O18  1  0.18786555  0.07375891  0.85654738  1.0
  O  O19  1  0.81213445  0.92624109  0.85654738  1.0
  O  O20  1  0.31213445  0.57375891  0.85654738  1.0
  O  O21  1  0.68786555  0.42624109  0.85654738  1.0
  O  O22  1  0.08874607  0.87386953  0.82143793  1.0
  O  O23  1  0.91125393  0.12613047  0.82143793  1.0
  O  O24  1  0.41125393  0.37386953  0.82143793  1.0
  O  O25  1  0.58874607  0.62613047  0.82143793  1.0
  O  O26  1  0.37794998  0.77472824  0.80053681  1.0
  O  O27  1  0.62205002  0.22527176  0.80053681  1.0
  O  O28  1  0.12205002  0.27472824  0.80053681  1.0
  O  O29  1  0.87794998  0.72527176  0.80053681  1.0
  F  F30  1  0.50000000  0.00000000  0.97242342  1.0
  F  F31  1  0.00000000  0.50000000  0.97242342  1.0
  F  F32  1  0.43810673  0.08983941  0.52114609  1.0
  F  F33  1  0.56189327  0.91016059  0.52114609  1.0
  F  F34  1  0.06189327  0.58983941  0.52114609  1.0
  F  F35  1  0.93810673  0.41016059  0.52114609  1.0
  F  F36  1  0.22584959  0.92092986  0.29714916  1.0
  F  F37  1  0.77415041  0.07907014  0.29714916  1.0
  F  F38  1  0.27415041  0.42092986  0.29714916  1.0
  F  F39  1  0.72584959  0.57907014  0.29714916  1.0
