# generated using pymatgen
data_CsLuP2O7
_symmetry_space_group_name_H-M   'P 1'
_cell_length_a   8.03195932
_cell_length_b   10.90126777
_cell_length_c   8.85862931
_cell_angle_alpha   90.00000000
_cell_angle_beta   104.99066483
_cell_angle_gamma   90.00000000
_symmetry_Int_Tables_number   1
_chemical_formula_structural   CsLuP2O7
_chemical_formula_sum   'Cs4 Lu4 P8 O28'
_cell_volume   749.25175525
_cell_formula_units_Z   4
loop_
 _symmetry_equiv_pos_site_id
 _symmetry_equiv_pos_as_xyz
  1  'x, y, z'
loop_
 _atom_site_type_symbol
 _atom_site_label
 _atom_site_symmetry_multiplicity
 _atom_site_fract_x
 _atom_site_fract_y
 _atom_site_fract_z
 _atom_site_occupancy
  Cs  Cs0  1  0.80348187  0.80977200  0.44432120  1.0
  Cs  Cs1  1  0.80348187  0.69022800  0.94432120  1.0
  Cs  Cs2  1  0.19651813  0.30977200  0.05567880  1.0
  Cs  Cs3  1  0.19651813  0.19022800  0.55567880  1.0
  Lu  Lu4  1  0.76112677  0.39950959  0.24576449  1.0
  Lu  Lu5  1  0.76112677  0.10049041  0.74576449  1.0
  Lu  Lu6  1  0.23887323  0.89950959  0.25423551  1.0
  Lu  Lu7  1  0.23887323  0.60049041  0.75423551  1.0
  P  P8  1  0.87159229  0.09685181  0.17611557  1.0
  P  P9  1  0.87159229  0.40314819  0.67611557  1.0
  P  P10  1  0.12840771  0.59685181  0.32388443  1.0
  P  P11  1  0.12840771  0.90314819  0.82388443  1.0
  P  P12  1  0.57755912  0.12715653  0.31617501  1.0
  P  P13  1  0.57755912  0.37284347  0.81617501  1.0
  P  P14  1  0.42244088  0.62715653  0.18382499  1.0
  P  P15  1  0.42244088  0.87284347  0.68382499  1.0
  O  O16  1  0.99547390  0.50418953  0.23176662  1.0
  O  O17  1  0.99547390  -0.00418953  0.73176662  1.0
  O  O18  1  0.00452610  1.00418953  0.26823338  1.0
  O  O19  1  0.00452610  0.49581047  0.76823338  1.0
  O  O20  1  0.91525301  0.22803795  0.23936937  1.0
  O  O21  1  0.91525301  0.27196205  0.73936937  1.0
  O  O22  1  0.08474699  0.72803795  0.26063063  1.0
  O  O23  1  0.08474699  0.77196205  0.76063063  1.0
  O  O24  1  0.84634797  0.41223004  0.50012867  1.0
  O  O25  1  0.84634797  0.08776996  1.00012867  1.0
  O  O26  1  0.15365203  0.91223004  -0.00012867  1.0
  O  O27  1  0.15365203  0.58776996  0.49987133  1.0
  O  O28  1  0.67523946  0.10392850  0.48648771  1.0
  O  O29  1  0.67523946  0.39607150  0.98648771  1.0
  O  O30  1  0.32476054  0.60392850  0.01351229  1.0
  O  O31  1  0.32476054  0.89607150  0.51351229  1.0
  O  O32  1  0.68761679  0.05672049  0.20904029  1.0
  O  O33  1  0.68761679  0.44327951  0.70904029  1.0
  O  O34  1  0.31238321  0.55672049  0.29095971  1.0
  O  O35  1  0.31238321  0.94327951  0.79095971  1.0
  O  O36  1  0.56393175  0.26321937  0.26896159  1.0
  O  O37  1  0.56393175  0.23678063  0.76896159  1.0
  O  O38  1  0.43606825  0.76321937  0.23103841  1.0
  O  O39  1  0.43606825  0.73678063  0.73103841  1.0
  O  O40  1  0.39960876  0.06581211  0.26942951  1.0
  O  O41  1  0.39960876  0.43418789  0.76942951  1.0
  O  O42  1  0.60039124  0.56581211  0.23057049  1.0
  O  O43  1  0.60039124  0.93418789  0.73057049  1.0
