# generated using pymatgen
data_YInPt
_symmetry_space_group_name_H-M   'P 1'
_cell_length_a   7.68780009
_cell_length_b   7.68780009
_cell_length_c   3.87415147
_cell_angle_alpha   90.00000000
_cell_angle_beta   90.00000000
_cell_angle_gamma   120.00000000
_symmetry_Int_Tables_number   1
_chemical_formula_structural   YInPt
_chemical_formula_sum   'Y3 In3 Pt3'
_cell_volume   198.29482977
_cell_formula_units_Z   3
loop_
 _symmetry_equiv_pos_site_id
 _symmetry_equiv_pos_as_xyz
  1  'x, y, z'
loop_
 _atom_site_type_symbol
 _atom_site_label
 _atom_site_symmetry_multiplicity
 _atom_site_fract_x
 _atom_site_fract_y
 _atom_site_fract_z
 _atom_site_occupancy
  Y  Y0  1  0.40610502  0.40610502  0.00000000  1.0
  Y  Y1  1  -0.00000000  0.59389498  0.00000000  1.0
  Y  Y2  1  0.59389498  0.00000000  0.00000000  1.0
  In  In3  1  0.73929651  0.73929651  0.50000000  1.0
  In  In4  1  0.00000000  0.26070349  0.50000000  1.0
  In  In5  1  0.26070349  0.00000000  0.50000000  1.0
  Pt  Pt6  1  0.33333333  0.66666667  0.50000000  1.0
  Pt  Pt7  1  0.66666667  0.33333333  0.50000000  1.0
  Pt  Pt8  1  0.00000000  0.00000000  0.00000000  1.0
