# generated using pymatgen
data_NaMn2O4
_symmetry_space_group_name_H-M   'P 1'
_cell_length_a   8.97240402
_cell_length_b   2.86818091
_cell_length_c   11.32825108
_cell_angle_alpha   90.00000000
_cell_angle_beta   90.00000000
_cell_angle_gamma   90.00000000
_symmetry_Int_Tables_number   1
_chemical_formula_structural   NaMn2O4
_chemical_formula_sum   'Na4 Mn8 O16'
_cell_volume   291.52662770
_cell_formula_units_Z   4
loop_
 _symmetry_equiv_pos_site_id
 _symmetry_equiv_pos_as_xyz
  1  'x, y, z'
loop_
 _atom_site_type_symbol
 _atom_site_label
 _atom_site_symmetry_multiplicity
 _atom_site_fract_x
 _atom_site_fract_y
 _atom_site_fract_z
 _atom_site_occupancy
  Na  Na0  1  0.75221772  0.75000000  0.66481644  1.0
  Na  Na1  1  0.25221772  0.75000000  0.83518356  1.0
  Na  Na2  1  0.24778228  0.25000000  0.33518356  1.0
  Na  Na3  1  0.74778228  0.25000000  0.16481644  1.0
  Mn  Mn4  1  0.91903543  0.75000000  0.40522609  1.0
  Mn  Mn5  1  0.41903543  0.75000000  0.09477391  1.0
  Mn  Mn6  1  0.08096457  0.25000000  0.59477391  1.0
  Mn  Mn7  1  0.58096457  0.25000000  0.90522609  1.0
  Mn  Mn8  1  0.42801401  0.75000000  0.60946910  1.0
  Mn  Mn9  1  0.92801401  0.75000000  0.89053090  1.0
  Mn  Mn10  1  0.57198599  0.25000000  0.39053090  1.0
  Mn  Mn11  1  0.07198599  0.25000000  0.10946910  1.0
  O  O12  1  0.93460327  0.75000000  0.08581143  1.0
  O  O13  1  0.43460327  0.75000000  0.41418857  1.0
  O  O14  1  0.06539673  0.25000000  0.91418857  1.0
  O  O15  1  0.56539673  0.25000000  0.58581143  1.0
  O  O16  1  0.71220279  0.75000000  0.35107997  1.0
  O  O17  1  0.21220279  0.75000000  0.14892003  1.0
  O  O18  1  0.28779721  0.25000000  0.64892003  1.0
  O  O19  1  0.78779721  0.25000000  0.85107997  1.0
  O  O20  1  0.61607468  0.75000000  0.02026459  1.0
  O  O21  1  0.11607468  0.75000000  0.47973541  1.0
  O  O22  1  0.38392532  0.25000000  0.97973541  1.0
  O  O23  1  0.88392532  0.25000000  0.52026459  1.0
  O  O24  1  0.52850320  0.75000000  0.80508878  1.0
  O  O25  1  0.02850320  0.75000000  0.69491122  1.0
  O  O26  1  0.47149680  0.25000000  0.19491122  1.0
  O  O27  1  0.97149680  0.25000000  0.30508878  1.0
