# generated using pymatgen
data_TbMoC2
_symmetry_space_group_name_H-M   'P 1'
_cell_length_a   5.66690443
_cell_length_b   3.36594804
_cell_length_c   10.77756889
_cell_angle_alpha   90.00000000
_cell_angle_beta   90.00000000
_cell_angle_gamma   90.00000000
_symmetry_Int_Tables_number   1
_chemical_formula_structural   TbMoC2
_chemical_formula_sum   'Tb4 Mo4 C8'
_cell_volume   205.57680076
_cell_formula_units_Z   4
loop_
 _symmetry_equiv_pos_site_id
 _symmetry_equiv_pos_as_xyz
  1  'x, y, z'
loop_
 _atom_site_type_symbol
 _atom_site_label
 _atom_site_symmetry_multiplicity
 _atom_site_fract_x
 _atom_site_fract_y
 _atom_site_fract_z
 _atom_site_occupancy
  Tb  Tb0  1  0.91664203  0.75000000  0.36144601  1.0
  Tb  Tb1  1  0.41664203  0.75000000  0.13855399  1.0
  Tb  Tb2  1  0.08335797  0.25000000  0.63855399  1.0
  Tb  Tb3  1  0.58335797  0.25000000  0.86144601  1.0
  Mo  Mo4  1  0.59397172  0.75000000  0.60694546  1.0
  Mo  Mo5  1  0.09397172  0.75000000  0.89305454  1.0
  Mo  Mo6  1  0.40602828  0.25000000  0.39305454  1.0
  Mo  Mo7  1  0.90602828  0.25000000  0.10694546  1.0
  C  C8  1  0.77232105  0.75000000  0.01363897  1.0
  C  C9  1  0.27232105  0.75000000  0.48636103  1.0
  C  C10  1  0.22767895  0.25000000  0.98636103  1.0
  C  C11  1  0.72767895  0.25000000  0.51363897  1.0
  C  C12  1  0.84096643  0.75000000  0.74727487  1.0
  C  C13  1  0.34096643  0.75000000  0.75272513  1.0
  C  C14  1  0.15903357  0.25000000  0.25272513  1.0
  C  C15  1  0.65903357  0.25000000  0.24727487  1.0
