# generated using pymatgen
data_CaCr(Si2O5)2
_symmetry_space_group_name_H-M   'P 1'
_cell_length_a   7.43151288
_cell_length_b   7.43151288
_cell_length_c   15.44196676
_cell_angle_alpha   90.00000000
_cell_angle_beta   90.00000000
_cell_angle_gamma   90.00000000
_symmetry_Int_Tables_number   1
_chemical_formula_structural   CaCr(Si2O5)2
_chemical_formula_sum   'Ca4 Cr4 Si16 O40'
_cell_volume   852.81942245
_cell_formula_units_Z   4
loop_
 _symmetry_equiv_pos_site_id
 _symmetry_equiv_pos_as_xyz
  1  'x, y, z'
loop_
 _atom_site_type_symbol
 _atom_site_label
 _atom_site_symmetry_multiplicity
 _atom_site_fract_x
 _atom_site_fract_y
 _atom_site_fract_z
 _atom_site_occupancy
  Ca  Ca0  1  0.50000000  0.50000000  0.50000000  1.0
  Ca  Ca1  1  0.50000000  0.50000000  0.00000000  1.0
  Ca  Ca2  1  0.00000000  0.00000000  0.50000000  1.0
  Ca  Ca3  1  0.00000000  0.00000000  0.00000000  1.0
  Cr  Cr4  1  0.00000000  0.50000000  0.58214673  1.0
  Cr  Cr5  1  0.00000000  0.50000000  0.08214673  1.0
  Cr  Cr6  1  0.50000000  0.00000000  0.41785327  1.0
  Cr  Cr7  1  0.50000000  0.00000000  0.91785327  1.0
  Si  Si8  1  0.67212614  0.75151690  0.64831992  1.0
  Si  Si9  1  0.67212614  0.24848310  0.14831992  1.0
  Si  Si10  1  0.82787386  0.74848310  0.35168008  1.0
  Si  Si11  1  0.17212614  0.74848310  0.85168008  1.0
  Si  Si12  1  0.32787386  0.24848310  0.64831992  1.0
  Si  Si13  1  0.32787386  0.75151690  0.14831992  1.0
  Si  Si14  1  0.17212614  0.25151690  0.35168008  1.0
  Si  Si15  1  0.82787386  0.25151690  0.85168008  1.0
  Si  Si16  1  0.75151690  0.32787386  0.35168008  1.0
  Si  Si17  1  0.24848310  0.32787386  0.85168008  1.0
  Si  Si18  1  0.25151690  0.82787386  0.64831992  1.0
  Si  Si19  1  0.74848310  0.82787386  0.14831992  1.0
  Si  Si20  1  0.24848310  0.67212614  0.35168008  1.0
  Si  Si21  1  0.75151690  0.67212614  0.85168008  1.0
  Si  Si22  1  0.74848310  0.17212614  0.64831992  1.0
  Si  Si23  1  0.25151690  0.17212614  0.14831992  1.0
  O  O24  1  0.70680518  0.70680518  0.75000000  1.0
  O  O25  1  0.70680518  0.29319482  0.25000000  1.0
  O  O26  1  0.79319482  0.79319482  0.25000000  1.0
  O  O27  1  0.20680518  0.79319482  0.75000000  1.0
  O  O28  1  0.29319482  0.29319482  0.75000000  1.0
  O  O29  1  0.29319482  0.70680518  0.25000000  1.0
  O  O30  1  0.20680518  0.20680518  0.25000000  1.0
  O  O31  1  0.79319482  0.20680518  0.75000000  1.0
  O  O32  1  0.75088500  0.95397188  0.62775037  1.0
  O  O33  1  0.75088500  0.04602812  0.12775037  1.0
  O  O34  1  0.74911500  0.54602812  0.37224963  1.0
  O  O35  1  0.25088500  0.54602812  0.87224963  1.0
  O  O36  1  0.24911500  0.04602812  0.62775037  1.0
  O  O37  1  0.24911500  0.95397188  0.12775037  1.0
  O  O38  1  0.25088500  0.45397188  0.37224963  1.0
  O  O39  1  0.74911500  0.45397188  0.87224963  1.0
  O  O40  1  0.95397188  0.24911500  0.37224963  1.0
  O  O41  1  0.04602812  0.24911500  0.87224963  1.0
  O  O42  1  0.45397188  0.74911500  0.62775037  1.0
  O  O43  1  0.54602812  0.74911500  0.12775037  1.0
  O  O44  1  0.04602812  0.75088500  0.37224963  1.0
  O  O45  1  0.95397188  0.75088500  0.87224963  1.0
  O  O46  1  0.54602812  0.25088500  0.62775037  1.0
  O  O47  1  0.45397188  0.25088500  0.12775037  1.0
  O  O48  1  0.75094511  0.60333307  0.58249997  1.0
  O  O49  1  0.75094511  0.39666693  0.08249997  1.0
  O  O50  1  0.74905489  0.89666693  0.41750003  1.0
  O  O51  1  0.25094511  0.89666693  0.91750003  1.0
  O  O52  1  0.24905489  0.39666693  0.58249997  1.0
  O  O53  1  0.24905489  0.60333307  0.08249997  1.0
  O  O54  1  0.25094511  0.10333307  0.41750003  1.0
  O  O55  1  0.74905489  0.10333307  0.91750003  1.0
  O  O56  1  0.60333307  0.24905489  0.41750003  1.0
  O  O57  1  0.39666693  0.24905489  0.91750003  1.0
  O  O58  1  0.10333307  0.74905489  0.58249997  1.0
  O  O59  1  0.89666693  0.74905489  0.08249997  1.0
  O  O60  1  0.39666693  0.75094511  0.41750003  1.0
  O  O61  1  0.60333307  0.75094511  0.91750003  1.0
  O  O62  1  0.89666693  0.25094511  0.58249997  1.0
  O  O63  1  0.10333307  0.25094511  0.08249997  1.0
