# generated using pymatgen
data_LiIn(MoO4)2
_symmetry_space_group_name_H-M   'P 1'
_cell_length_a   7.69882420
_cell_length_b   7.69882420
_cell_length_c   4.95550794
_cell_angle_alpha   89.61457669
_cell_angle_beta   90.38542331
_cell_angle_gamma   78.35617530
_symmetry_Int_Tables_number   1
_chemical_formula_structural   LiIn(MoO4)2
_chemical_formula_sum   'Li2 In2 Mo4 O16'
_cell_volume   287.66156717
_cell_formula_units_Z   2
loop_
 _symmetry_equiv_pos_site_id
 _symmetry_equiv_pos_as_xyz
  1  'x, y, z'
loop_
 _atom_site_type_symbol
 _atom_site_label
 _atom_site_symmetry_multiplicity
 _atom_site_fract_x
 _atom_site_fract_y
 _atom_site_fract_z
 _atom_site_occupancy
  Li  Li0  1  1.36838494  0.36838494  0.25000000  1.0
  Li  Li1  1  0.63161506  -0.36838494  0.75000000  1.0
  In  In2  1  0.83760651  -0.16239349  0.25000000  1.0
  In  In3  1  1.16239349  0.16239349  0.75000000  1.0
  Mo  Mo4  1  0.35053343  -0.16569015  0.25708870  1.0
  Mo  Mo5  1  1.16569015  0.64946657  0.75708870  1.0
  Mo  Mo6  1  0.83430985  -0.64946657  0.24291130  1.0
  Mo  Mo7  1  1.64946657  0.16569015  0.74291130  1.0
  O  O8  1  0.68791415  -0.04906733  0.89715861  1.0
  O  O9  1  1.04906733  0.31208585  0.39715861  1.0
  O  O10  1  0.95093267  -0.31208585  0.60284139  1.0
  O  O11  1  1.31208585  0.04906733  0.10284139  1.0
  O  O12  1  1.80115156  0.09174043  0.43607317  1.0
  O  O13  1  0.90825957  -0.80115156  0.93607317  1.0
  O  O14  1  1.09174043  0.80115156  0.06392683  1.0
  O  O15  1  0.19884844  -0.09174043  0.56392683  1.0
  O  O16  1  0.56655218  -0.19170710  0.40374121  1.0
  O  O17  1  1.19170710  0.43344782  0.90374121  1.0
  O  O18  1  0.80829290  -0.43344782  0.09625879  1.0
  O  O19  1  1.43344782  0.19170710  0.59625879  1.0
  O  O20  1  1.59625942  0.30958173  0.04191490  1.0
  O  O21  1  0.69041827  -0.59625942  0.54191490  1.0
  O  O22  1  1.30958173  0.59625942  0.45808510  1.0
  O  O23  1  0.40374058  -0.30958173  0.95808510  1.0
