# generated using pymatgen
data_K2CdSnS4
_symmetry_space_group_name_H-M   'P 1'
_cell_length_a   7.90730944
_cell_length_b   7.90730944
_cell_length_c   15.17027608
_cell_angle_alpha   85.00154457
_cell_angle_beta   94.99845543
_cell_angle_gamma   90.73367075
_symmetry_Int_Tables_number   1
_chemical_formula_structural   K2CdSnS4
_chemical_formula_sum   'K8 Cd4 Sn4 S16'
_cell_volume   941.31604509
_cell_formula_units_Z   4
loop_
 _symmetry_equiv_pos_site_id
 _symmetry_equiv_pos_as_xyz
  1  'x, y, z'
loop_
 _atom_site_type_symbol
 _atom_site_label
 _atom_site_symmetry_multiplicity
 _atom_site_fract_x
 _atom_site_fract_y
 _atom_site_fract_z
 _atom_site_occupancy
  K  K0  1  1.13378596  0.68468342  0.62152188  1.0
  K  K1  1  1.68468342  0.13378596  0.87847812  1.0
  K  K2  1  0.86621404  -0.68468342  0.37847812  1.0
  K  K3  1  0.31531658  -0.13378596  0.12152188  1.0
  K  K4  1  0.64741009  -0.31237174  0.61587277  1.0
  K  K5  1  0.68762826  -0.35258991  0.88412723  1.0
  K  K6  1  1.35258991  0.31237174  0.38412723  1.0
  K  K7  1  1.31237174  0.35258991  0.11587277  1.0
  Cd  Cd8  1  1.09628345  0.82311347  0.33768379  1.0
  Cd  Cd9  1  1.82311347  0.09628345  0.16231621  1.0
  Cd  Cd10  1  0.90371655  -0.82311347  0.66231621  1.0
  Cd  Cd11  1  0.17688653  -0.09628345  0.83768379  1.0
  Sn  Sn12  1  0.60306201  -0.19877598  0.35461273  1.0
  Sn  Sn13  1  0.80122402  -0.39693799  0.14538727  1.0
  Sn  Sn14  1  1.39693799  0.19877598  0.64538727  1.0
  Sn  Sn15  1  1.19877598  0.39693799  0.85461273  1.0
  S  S16  1  0.86492124  -0.25980013  0.44456940  1.0
  S  S17  1  0.74019987  -0.13507876  0.05543060  1.0
  S  S18  1  1.13507876  0.25980013  0.55543060  1.0
  S  S19  1  1.25980013  0.13507876  0.94456940  1.0
  S  S20  1  0.36598875  -0.27048411  0.44085219  1.0
  S  S21  1  0.72951589  -0.63401125  0.05914781  1.0
  S  S22  1  1.63401125  0.27048411  0.55914781  1.0
  S  S23  1  1.27048411  0.63401125  0.94085219  1.0
  S  S24  1  1.10252826  0.10252826  0.25000000  1.0
  S  S25  1  0.89747174  -0.10252826  0.75000000  1.0
  S  S26  1  1.07467824  0.58168874  0.22709234  1.0
  S  S27  1  1.58168874  0.07467824  0.27290766  1.0
  S  S28  1  0.92532176  -0.58168874  0.77290766  1.0
  S  S29  1  0.41831126  -0.07467824  0.72709234  1.0
  S  S30  1  0.57314240  -0.42685760  0.25000000  1.0
  S  S31  1  1.42685760  0.42685760  0.75000000  1.0
