# generated using pymatgen
data_HfFe2
_symmetry_space_group_name_H-M   'P 1'
_cell_length_a   4.94717217
_cell_length_b   4.94717217
_cell_length_c   16.08075608
_cell_angle_alpha   90.00000000
_cell_angle_beta   90.00000000
_cell_angle_gamma   120.00000000
_symmetry_Int_Tables_number   1
_chemical_formula_structural   HfFe2
_chemical_formula_sum   'Hf8 Fe16'
_cell_volume   340.84046208
_cell_formula_units_Z   8
loop_
 _symmetry_equiv_pos_site_id
 _symmetry_equiv_pos_as_xyz
  1  'x, y, z'
loop_
 _atom_site_type_symbol
 _atom_site_label
 _atom_site_symmetry_multiplicity
 _atom_site_fract_x
 _atom_site_fract_y
 _atom_site_fract_z
 _atom_site_occupancy
  Hf  Hf0  1  0.33333333  0.66666667  0.84345033  1.0
  Hf  Hf1  1  0.33333333  0.66666667  0.65654967  1.0
  Hf  Hf2  1  0.66666667  0.33333333  0.34345033  1.0
  Hf  Hf3  1  0.66666667  0.33333333  0.15654967  1.0
  Hf  Hf4  1  0.00000000  0.00000000  0.40587860  1.0
  Hf  Hf5  1  0.00000000  0.00000000  0.09412140  1.0
  Hf  Hf6  1  0.00000000  0.00000000  0.90587860  1.0
  Hf  Hf7  1  0.00000000  0.00000000  0.59412140  1.0
  Fe  Fe8  1  0.16500484  0.83499516  0.25000000  1.0
  Fe  Fe9  1  0.16500484  0.33000968  0.25000000  1.0
  Fe  Fe10  1  0.83499516  0.16500484  0.75000000  1.0
  Fe  Fe11  1  0.83499516  0.66999032  0.75000000  1.0
  Fe  Fe12  1  0.66999032  0.83499516  0.25000000  1.0
  Fe  Fe13  1  0.33000968  0.16500484  0.75000000  1.0
  Fe  Fe14  1  0.50000000  0.50000000  0.50000000  1.0
  Fe  Fe15  1  0.50000000  0.50000000  0.00000000  1.0
  Fe  Fe16  1  0.50000000  0.00000000  0.50000000  1.0
  Fe  Fe17  1  0.50000000  0.00000000  0.00000000  1.0
  Fe  Fe18  1  0.00000000  0.50000000  0.50000000  1.0
  Fe  Fe19  1  0.00000000  0.50000000  0.00000000  1.0
  Fe  Fe20  1  0.33333333  0.66666667  0.37476404  1.0
  Fe  Fe21  1  0.33333333  0.66666667  0.12523596  1.0
  Fe  Fe22  1  0.66666667  0.33333333  0.87476404  1.0
  Fe  Fe23  1  0.66666667  0.33333333  0.62523596  1.0
