# generated using pymatgen
data_CoAgPO4
_symmetry_space_group_name_H-M   'P 1'
_cell_length_a   5.71826840
_cell_length_b   9.57654225
_cell_length_c   6.63607920
_cell_angle_alpha   74.66454876
_cell_angle_beta   79.14214876
_cell_angle_gamma   79.03113034
_symmetry_Int_Tables_number   1
_chemical_formula_structural   CoAgPO4
_chemical_formula_sum   'Co4 Ag4 P4 O16'
_cell_volume   340.38085380
_cell_formula_units_Z   4
loop_
 _symmetry_equiv_pos_site_id
 _symmetry_equiv_pos_as_xyz
  1  'x, y, z'
loop_
 _atom_site_type_symbol
 _atom_site_label
 _atom_site_symmetry_multiplicity
 _atom_site_fract_x
 _atom_site_fract_y
 _atom_site_fract_z
 _atom_site_occupancy
  Co  Co0  1  -0.78656115  -0.56157789  -0.17415602  1.0
  Co  Co1  1  -0.21343885  -0.43842211  -0.82584398  1.0
  Co  Co2  1  -0.33692477  -0.78870997  -0.94313450  1.0
  Co  Co3  1  -0.66307523  -0.21129003  -0.05686550  1.0
  Ag  Ag4  1  -0.82049735  -0.23546005  -0.52484192  1.0
  Ag  Ag5  1  -0.17950265  -0.76453995  -0.47515808  1.0
  Ag  Ag6  1  -0.68144806  -0.86987254  -0.38755527  1.0
  Ag  Ag7  1  -0.31855194  -0.13012746  -0.61244473  1.0
  P  P8  1  -0.81018106  -0.89730925  -0.86637937  1.0
  P  P9  1  -0.18981894  -0.10269075  -0.13362063  1.0
  P  P10  1  -0.68278064  -0.52831937  -0.71763363  1.0
  P  P11  1  -0.31721936  -0.47168063  -0.28236637  1.0
  O  O12  1  -0.87119916  -0.55306335  -0.84281529  1.0
  O  O13  1  -0.12880084  -0.44693665  -0.15718471  1.0
  O  O14  1  -0.77808273  -0.78546131  -0.08638982  1.0
  O  O15  1  -0.22191727  -0.21453869  -0.91361018  1.0
  O  O16  1  -0.75291703  -0.58439595  -0.47859051  1.0
  O  O17  1  -0.24708297  -0.41560405  -0.52140949  1.0
  O  O18  1  -0.76518050  -0.05672443  -0.88772882  1.0
  O  O19  1  -0.23481950  -0.94327557  -0.11227118  1.0
  O  O20  1  -0.66108778  -0.35923854  -0.77606724  1.0
  O  O21  1  -0.33891222  -0.64076146  -0.22393276  1.0
  O  O22  1  -0.62126848  -0.87575356  -0.73529435  1.0
  O  O23  1  -0.37873152  -0.12424644  -0.26470565  1.0
  O  O24  1  -0.42308266  -0.60335163  -0.79522384  1.0
  O  O25  1  -0.57691734  -0.39664837  -0.20477616  1.0
  O  O26  1  -0.07483292  -0.86199078  -0.75276344  1.0
  O  O27  1  -0.92516708  -0.13800922  -0.24723656  1.0
