# generated using pymatgen
data_Rb3MnBr5
_symmetry_space_group_name_H-M   'P 1'
_cell_length_a   10.17700949
_cell_length_b   10.17700949
_cell_length_c   10.17700949
_cell_angle_alpha   124.31543821
_cell_angle_beta   124.31543821
_cell_angle_gamma   82.67500894
_symmetry_Int_Tables_number   1
_chemical_formula_structural   Rb3MnBr5
_chemical_formula_sum   'Rb6 Mn2 Br10'
_cell_volume   690.51019435
_cell_formula_units_Z   2
loop_
 _symmetry_equiv_pos_site_id
 _symmetry_equiv_pos_as_xyz
  1  'x, y, z'
loop_
 _atom_site_type_symbol
 _atom_site_label
 _atom_site_symmetry_multiplicity
 _atom_site_fract_x
 _atom_site_fract_y
 _atom_site_fract_z
 _atom_site_occupancy
  Rb  Rb0  1  0.83796951  0.33796951  1.17593903  1.0
  Rb  Rb1  1  0.66203049  0.83796951  1.50000000  1.0
  Rb  Rb2  1  0.33796951  0.16203049  0.50000000  1.0
  Rb  Rb3  1  0.16203049  0.66203049  0.82406097  1.0
  Rb  Rb4  1  0.75000000  0.75000000  1.00000000  1.0
  Rb  Rb5  1  0.25000000  0.25000000  0.00000000  1.0
  Mn  Mn6  1  0.25000000  0.75000000  0.50000000  1.0
  Mn  Mn7  1  0.75000000  0.25000000  0.50000000  1.0
  Br  Br8  1  -0.00000000  -0.00000000  -0.00000000  1.0
  Br  Br9  1  0.50000000  0.50000000  1.00000000  1.0
  Br  Br10  1  1.20319100  0.70319100  1.20751323  1.0
  Br  Br11  1  0.50432223  1.00432223  1.20751323  1.0
  Br  Br12  1  0.99567777  1.20319100  1.50000000  1.0
  Br  Br13  1  0.29680900  0.50432223  0.50000000  1.0
  Br  Br14  1  0.70319100  0.49567777  0.50000000  1.0
  Br  Br15  1  1.00432223  0.79680900  1.50000000  1.0
  Br  Br16  1  0.49567777  0.99567777  0.79248677  1.0
  Br  Br17  1  0.79680900  0.29680900  0.79248677  1.0
