# generated using pymatgen
data_KH8N3
_symmetry_space_group_name_H-M   'P 1'
_cell_length_a   6.12687567
_cell_length_b   6.12687567
_cell_length_c   6.72544805
_cell_angle_alpha   90.00000000
_cell_angle_beta   90.00000000
_cell_angle_gamma   108.69012657
_symmetry_Int_Tables_number   1
_chemical_formula_structural   KH8N3
_chemical_formula_sum   'K2 H16 N6'
_cell_volume   239.15038475
_cell_formula_units_Z   2
loop_
 _symmetry_equiv_pos_site_id
 _symmetry_equiv_pos_as_xyz
  1  'x, y, z'
loop_
 _atom_site_type_symbol
 _atom_site_label
 _atom_site_symmetry_multiplicity
 _atom_site_fract_x
 _atom_site_fract_y
 _atom_site_fract_z
 _atom_site_occupancy
  K  K0  1  0.06004174  0.93995826  0.25000000  1.0
  K  K1  1  -0.06004174  1.06004174  0.75000000  1.0
  H  H2  1  0.21129266  0.51946222  0.01932888  1.0
  H  H3  1  -0.48053778  1.21129266  0.98067112  1.0
  H  H4  1  0.48053778  0.78870734  0.48067112  1.0
  H  H5  1  -0.21129266  1.48053778  0.51932888  1.0
  H  H6  1  0.08108971  0.41016543  0.22424230  1.0
  H  H7  1  -0.58983457  1.08108971  0.77575770  1.0
  H  H8  1  0.58983457  0.91891029  0.27575770  1.0
  H  H9  1  -0.08108971  1.58983457  0.72424230  1.0
  H  H10  1  -0.06261018  1.50087946  0.04898888  1.0
  H  H11  1  0.50087946  0.93738982  0.95101112  1.0
  H  H12  1  -0.50087946  1.06261018  0.45101112  1.0
  H  H13  1  0.06261018  0.49912054  0.54898888  1.0
  H  H14  1  -0.38991414  1.60107273  0.11858987  1.0
  H  H15  1  0.60107273  0.61008586  0.88141013  1.0
  H  H16  1  -0.60107273  1.38991414  0.38141013  1.0
  H  H17  1  0.38991414  0.39892727  0.61858987  1.0
  N  N18  1  0.05653733  0.41504303  0.07339751  1.0
  N  N19  1  -0.58495697  1.05653733  0.92660249  1.0
  N  N20  1  0.58495697  0.94346267  0.42660249  1.0
  N  N21  1  -0.05653733  1.58495697  0.57339751  1.0
  N  N22  1  0.69669229  0.69669229  0.00000000  1.0
  N  N23  1  0.30330771  0.30330771  0.50000000  1.0
