# generated using pymatgen
data_Bi2(Pb2S3)3
_symmetry_space_group_name_H-M   'P 1'
_cell_length_a   7.24120964
_cell_length_b   7.24120964
_cell_length_c   31.83226089
_cell_angle_alpha   90.00000000
_cell_angle_beta   90.00000000
_cell_angle_gamma   146.70357326
_symmetry_Int_Tables_number   1
_chemical_formula_structural   Bi2(Pb2S3)3
_chemical_formula_sum   'Bi4 Pb12 S18'
_cell_volume   916.30253086
_cell_formula_units_Z   2
loop_
 _symmetry_equiv_pos_site_id
 _symmetry_equiv_pos_as_xyz
  1  'x, y, z'
loop_
 _atom_site_type_symbol
 _atom_site_label
 _atom_site_symmetry_multiplicity
 _atom_site_fract_x
 _atom_site_fract_y
 _atom_site_fract_z
 _atom_site_occupancy
  Bi  Bi0  1  0.18245423  0.81754577  0.82485213  1.0
  Bi  Bi1  1  0.18245423  0.81754577  0.67514787  1.0
  Bi  Bi2  1  -0.18245423  0.18245423  0.32485213  1.0
  Bi  Bi3  1  -0.18245423  0.18245423  0.17514787  1.0
  Pb  Pb4  1  0.27149871  0.72850129  0.44215488  1.0
  Pb  Pb5  1  0.27149871  0.72850129  0.05784512  1.0
  Pb  Pb6  1  -0.27149871  0.27149871  0.94215488  1.0
  Pb  Pb7  1  -0.27149871  0.27149871  0.55784512  1.0
  Pb  Pb8  1  0.45482236  0.54517764  0.88272099  1.0
  Pb  Pb9  1  0.45482236  0.54517764  0.61727901  1.0
  Pb  Pb10  1  -0.45482236  0.45482236  0.38272099  1.0
  Pb  Pb11  1  -0.45482236  0.45482236  0.11727901  1.0
  Pb  Pb12  1  -0.07030376  0.07030376  0.75000000  1.0
  Pb  Pb13  1  0.07030376  0.92969624  0.25000000  1.0
  Pb  Pb14  1  0.00000000  0.00000000  0.00000000  1.0
  Pb  Pb15  1  0.00000000  0.00000000  0.50000000  1.0
  S  S16  1  0.08780477  0.91219523  0.91176202  1.0
  S  S17  1  0.08780477  0.91219523  0.58823798  1.0
  S  S18  1  -0.08780477  0.08780477  0.41176202  1.0
  S  S19  1  -0.08780477  0.08780477  0.08823798  1.0
  S  S20  1  0.19278104  0.80721896  0.35308234  1.0
  S  S21  1  0.19278104  0.80721896  0.14691766  1.0
  S  S22  1  -0.19278104  0.19278104  0.85308234  1.0
  S  S23  1  -0.19278104  0.19278104  0.64691766  1.0
  S  S24  1  0.36180461  0.63819539  0.97311776  1.0
  S  S25  1  0.36180461  0.63819539  0.52688224  1.0
  S  S26  1  -0.36180461  0.36180461  0.47311776  1.0
  S  S27  1  -0.36180461  0.36180461  0.02688224  1.0
  S  S28  1  -0.45283496  0.45283496  0.80473954  1.0
  S  S29  1  -0.45283496  0.45283496  0.69526046  1.0
  S  S30  1  0.45283496  0.54716504  0.30473954  1.0
  S  S31  1  0.45283496  0.54716504  0.19526046  1.0
  S  S32  1  0.28055783  0.71944217  0.75000000  1.0
  S  S33  1  -0.28055783  0.28055783  0.25000000  1.0
