# generated using pymatgen
data_Ti4Tl2O9
_symmetry_space_group_name_H-M   'P 1'
_cell_length_a   10.19311149
_cell_length_b   10.19311149
_cell_length_c   12.19327171
_cell_angle_alpha   72.40900094
_cell_angle_beta   107.59099906
_cell_angle_gamma   158.57769738
_symmetry_Int_Tables_number   1
_chemical_formula_structural   Ti4Tl2O9
_chemical_formula_sum   'Ti8 Tl4 O18'
_cell_volume   440.28126527
_cell_formula_units_Z   2
loop_
 _symmetry_equiv_pos_site_id
 _symmetry_equiv_pos_as_xyz
  1  'x, y, z'
loop_
 _atom_site_type_symbol
 _atom_site_label
 _atom_site_symmetry_multiplicity
 _atom_site_fract_x
 _atom_site_fract_y
 _atom_site_fract_z
 _atom_site_occupancy
  Ti  Ti0  1  0.86738478  0.13261522  0.64145775  1.0
  Ti  Ti1  1  0.13261522  -0.13261522  0.35854225  1.0
  Ti  Ti2  1  0.83290853  0.16709147  0.87986749  1.0
  Ti  Ti3  1  0.16709147  -0.16709147  0.12013251  1.0
  Ti  Ti4  1  0.75501904  0.24498096  0.33187935  1.0
  Ti  Ti5  1  0.24498096  -0.24498096  0.66812065  1.0
  Ti  Ti6  1  0.20457331  -0.20457331  0.89569702  1.0
  Ti  Ti7  1  0.79542669  0.20457331  0.10430298  1.0
  Tl  Tl8  1  0.58765890  0.41234110  0.57914825  1.0
  Tl  Tl9  1  0.41234110  -0.41234110  0.42085175  1.0
  Tl  Tl10  1  0.50611869  0.49388131  0.82036875  1.0
  Tl  Tl11  1  0.49388131  -0.49388131  0.17963125  1.0
  O  O12  1  0.95142988  0.04857012  0.63013995  1.0
  O  O13  1  0.04857012  -0.04857012  0.36986005  1.0
  O  O14  1  0.90482011  0.09517989  0.82215217  1.0
  O  O15  1  0.09517989  -0.09517989  0.17784783  1.0
  O  O16  1  0.83260485  0.16739515  0.25972914  1.0
  O  O17  1  0.16739515  -0.16739515  0.74027086  1.0
  O  O18  1  0.81445402  0.18554598  0.47364845  1.0
  O  O19  1  0.18554598  -0.18554598  0.52635155  1.0
  O  O20  1  0.76600571  0.23399429  0.70062526  1.0
  O  O21  1  0.23399429  -0.23399429  0.29937474  1.0
  O  O22  1  0.73161687  0.26838313  0.92160595  1.0
  O  O23  1  0.26838313  -0.26838313  0.07839405  1.0
  O  O24  1  0.65913351  0.34086649  0.35429534  1.0
  O  O25  1  0.34086649  -0.34086649  0.64570466  1.0
  O  O26  1  0.30376044  -0.30376044  0.85976205  1.0
  O  O27  1  0.69623956  0.30376044  0.14023795  1.0
  O  O28  1  0.13086114  -0.13086114  0.95886650  1.0
  O  O29  1  0.86913886  0.13086114  0.04113350  1.0
