# generated using pymatgen
data_WBr2
_symmetry_space_group_name_H-M   'P 1'
_cell_length_a   10.13923488
_cell_length_b   10.13923488
_cell_length_c   12.09610296
_cell_angle_alpha   90.00000000
_cell_angle_beta   90.00000000
_cell_angle_gamma   73.21185891
_symmetry_Int_Tables_number   1
_chemical_formula_structural   WBr2
_chemical_formula_sum   'W12 Br24'
_cell_volume   1190.52871740
_cell_formula_units_Z   12
loop_
 _symmetry_equiv_pos_site_id
 _symmetry_equiv_pos_as_xyz
  1  'x, y, z'
loop_
 _atom_site_type_symbol
 _atom_site_label
 _atom_site_symmetry_multiplicity
 _atom_site_fract_x
 _atom_site_fract_y
 _atom_site_fract_z
 _atom_site_occupancy
  W  W0  1  -0.36236718  1.36236718  0.42935008  1.0
  W  W1  1  0.13763282  0.86236718  0.07064992  1.0
  W  W2  1  0.36236718  0.63763282  0.57064992  1.0
  W  W3  1  -0.13763282  1.13763282  0.92935008  1.0
  W  W4  1  -0.07070631  1.07070631  0.13757022  1.0
  W  W5  1  0.42929369  0.57070631  0.36242978  1.0
  W  W6  1  0.07070631  0.92929369  0.86242978  1.0
  W  W7  1  -0.42929369  1.42929369  0.63757022  1.0
  W  W8  1  0.38468184  1.38468184  0.50000000  1.0
  W  W9  1  -0.11531816  0.88468184  0.00000000  1.0
  W  W10  1  -0.38468184  0.61531816  0.50000000  1.0
  W  W11  1  0.11531816  1.11531816  0.00000000  1.0
  Br  Br12  1  0.45327437  1.31782415  0.29069035  1.0
  Br  Br13  1  -0.04672563  0.81782415  0.20930965  1.0
  Br  Br14  1  0.31782415  1.45327437  0.70930965  1.0
  Br  Br15  1  -0.18217585  0.95327437  0.79069035  1.0
  Br  Br16  1  -0.31782415  0.54672563  0.29069035  1.0
  Br  Br17  1  0.18217585  1.04672563  0.20930965  1.0
  Br  Br18  1  -0.45327437  0.68217585  0.70930965  1.0
  Br  Br19  1  0.04672563  1.18217585  0.79069035  1.0
  Br  Br20  1  0.40516075  0.82383305  0.43233822  1.0
  Br  Br21  1  -0.09483925  1.32383305  0.06766178  1.0
  Br  Br22  1  -0.17616695  1.40516075  0.56766178  1.0
  Br  Br23  1  0.32383305  0.90516075  0.93233822  1.0
  Br  Br24  1  0.17616695  0.59483925  0.43233822  1.0
  Br  Br25  1  -0.32383305  1.09483925  0.06766178  1.0
  Br  Br26  1  -0.40516075  1.17616695  0.56766178  1.0
  Br  Br27  1  0.09483925  0.67616695  0.93233822  1.0
  Br  Br28  1  -0.15645448  1.15645448  0.34349148  1.0
  Br  Br29  1  0.34354552  0.65645448  0.15650852  1.0
  Br  Br30  1  0.15645448  0.84354552  0.65650852  1.0
  Br  Br31  1  -0.34354552  1.34354552  0.84349148  1.0
  Br  Br32  1  0.22644561  1.22644561  0.50000000  1.0
  Br  Br33  1  -0.27355439  0.72644561  0.00000000  1.0
  Br  Br34  1  -0.22644561  0.77355439  0.50000000  1.0
  Br  Br35  1  0.27355439  1.27355439  0.00000000  1.0
