# generated using pymatgen
data_TlGaTe2
_symmetry_space_group_name_H-M   'P 1'
_cell_length_a   6.87503233
_cell_length_b   6.87503233
_cell_length_c   6.87503233
_cell_angle_alpha   106.17463873
_cell_angle_beta   106.17463873
_cell_angle_gamma   116.28701238
_symmetry_Int_Tables_number   1
_chemical_formula_structural   TlGaTe2
_chemical_formula_sum   'Tl2 Ga2 Te4'
_cell_volume   247.46563168
_cell_formula_units_Z   2
loop_
 _symmetry_equiv_pos_site_id
 _symmetry_equiv_pos_as_xyz
  1  'x, y, z'
loop_
 _atom_site_type_symbol
 _atom_site_label
 _atom_site_symmetry_multiplicity
 _atom_site_fract_x
 _atom_site_fract_y
 _atom_site_fract_z
 _atom_site_occupancy
  Tl  Tl0  1  0.75000000  0.25000000  0.50000000  1.0
  Tl  Tl1  1  0.25000000  0.75000000  0.50000000  1.0
  Ga  Ga2  1  0.25000000  0.25000000  0.00000000  1.0
  Ga  Ga3  1  0.75000000  0.75000000  0.00000000  1.0
  Te  Te4  1  0.79981720  0.29981720  1.09963440  1.0
  Te  Te5  1  0.70018280  0.79981720  0.50000000  1.0
  Te  Te6  1  0.29981720  0.20018280  0.50000000  1.0
  Te  Te7  1  1.20018280  0.70018280  0.90036560  1.0
