# generated using pymatgen
data_LiCaH3
_symmetry_space_group_name_H-M   'P 1'
_cell_length_a   5.12865479
_cell_length_b   5.12865479
_cell_length_c   5.12865479
_cell_angle_alpha   61.17935769
_cell_angle_beta   61.17935769
_cell_angle_gamma   61.17935769
_symmetry_Int_Tables_number   1
_chemical_formula_structural   LiCaH3
_chemical_formula_sum   'Li2 Ca2 H6'
_cell_volume   97.91925211
_cell_formula_units_Z   2
loop_
 _symmetry_equiv_pos_site_id
 _symmetry_equiv_pos_as_xyz
  1  'x, y, z'
loop_
 _atom_site_type_symbol
 _atom_site_label
 _atom_site_symmetry_multiplicity
 _atom_site_fract_x
 _atom_site_fract_y
 _atom_site_fract_z
 _atom_site_occupancy
  Li  Li0  1  0.00000000  0.00000000  0.00000000  1.0
  Li  Li1  1  0.50000000  0.50000000  -0.50000000  1.0
  Ca  Ca2  1  1.25000000  1.25000000  0.25000000  1.0
  Ca  Ca3  1  0.75000000  0.75000000  -0.25000000  1.0
  H  H4  1  0.80584656  -0.30584656  0.25000000  1.0
  H  H5  1  0.69415344  0.25000000  -0.19415344  1.0
  H  H6  1  0.25000000  0.80584656  -0.30584656  1.0
  H  H7  1  0.30584656  0.75000000  -0.80584656  1.0
  H  H8  1  0.75000000  0.19415344  -0.69415344  1.0
  H  H9  1  0.19415344  0.30584656  -0.25000000  1.0
