# generated using pymatgen
data_BaCaAlF7
_symmetry_space_group_name_H-M   'P 1'
_cell_length_a   5.43765272
_cell_length_b   5.46895250
_cell_length_c   19.59796050
_cell_angle_alpha   90.00000000
_cell_angle_beta   103.67661226
_cell_angle_gamma   90.00000000
_symmetry_Int_Tables_number   1
_chemical_formula_structural   BaCaAlF7
_chemical_formula_sum   'Ba4 Ca4 Al4 F28'
_cell_volume   566.28418968
_cell_formula_units_Z   4
loop_
 _symmetry_equiv_pos_site_id
 _symmetry_equiv_pos_as_xyz
  1  'x, y, z'
loop_
 _atom_site_type_symbol
 _atom_site_label
 _atom_site_symmetry_multiplicity
 _atom_site_fract_x
 _atom_site_fract_y
 _atom_site_fract_z
 _atom_site_occupancy
  Ba  Ba0  1  0.81455113  0.25574672  0.06765699  1.0
  Ba  Ba1  1  0.81455113  0.74425328  0.56765699  1.0
  Ba  Ba2  1  0.18544887  0.25574672  0.43234301  1.0
  Ba  Ba3  1  0.18544887  0.74425328  0.93234301  1.0
  Ca  Ca4  1  0.50000000  0.29222930  0.25000000  1.0
  Ca  Ca5  1  0.50000000  0.70777070  0.75000000  1.0
  Ca  Ca6  1  0.00000000  0.82326748  0.25000000  1.0
  Ca  Ca7  1  -0.00000000  0.17673252  0.75000000  1.0
  Al  Al8  1  0.67955762  0.72474445  0.38045379  1.0
  Al  Al9  1  0.67955762  0.27525555  0.88045379  1.0
  Al  Al10  1  0.32044238  0.72474445  0.11954621  1.0
  Al  Al11  1  0.32044238  0.27525555  0.61954621  1.0
  F  F12  1  0.00928563  0.78307456  0.06003453  1.0
  F  F13  1  0.00928563  0.21692544  0.56003453  1.0
  F  F14  1  0.99071437  0.78307456  0.43996547  1.0
  F  F15  1  0.99071437  0.21692544  0.93996547  1.0
  F  F16  1  0.84126471  0.52912195  0.32521348  1.0
  F  F17  1  0.84126471  0.47087805  0.82521348  1.0
  F  F18  1  0.15873529  0.52912195  0.17478652  1.0
  F  F19  1  0.15873529  0.47087805  0.67478652  1.0
  F  F20  1  0.77564463  0.86247190  0.69265832  1.0
  F  F21  1  0.77564463  0.13752810  0.19265832  1.0
  F  F22  1  0.22435537  0.86247190  0.80734168  1.0
  F  F23  1  0.22435537  0.13752810  0.30734168  1.0
  F  F24  1  0.73780107  0.98135516  0.32572822  1.0
  F  F25  1  0.73780107  0.01864484  0.82572822  1.0
  F  F26  1  0.26219893  0.98135516  0.17427178  1.0
  F  F27  1  0.26219893  0.01864484  0.67427178  1.0
  F  F28  1  0.65470523  0.45625487  0.43460312  1.0
  F  F29  1  0.65470523  0.54374513  0.93460312  1.0
  F  F30  1  0.34529477  0.45625487  0.06539688  1.0
  F  F31  1  0.34529477  0.54374513  0.56539688  1.0
  F  F32  1  0.61632468  0.63850842  0.18164158  1.0
  F  F33  1  0.61632468  0.36149158  0.68164158  1.0
  F  F34  1  0.38367532  0.63850842  0.31835842  1.0
  F  F35  1  0.38367532  0.36149158  0.81835842  1.0
  F  F36  1  0.53285789  0.90735205  0.43531490  1.0
  F  F37  1  0.53285789  0.09264795  0.93531490  1.0
  F  F38  1  0.46714211  0.90735205  0.06468510  1.0
  F  F39  1  0.46714211  0.09264795  0.56468510  1.0
