# generated using pymatgen
data_Li2InMo3O8
_symmetry_space_group_name_H-M   'P 1'
_cell_length_a   5.83307002
_cell_length_b   5.83307002
_cell_length_c   10.61287838
_cell_angle_alpha   90.00000000
_cell_angle_beta   90.00000000
_cell_angle_gamma   120.00000000
_symmetry_Int_Tables_number   1
_chemical_formula_structural   Li2InMo3O8
_chemical_formula_sum   'Li4 In2 Mo6 O16'
_cell_volume   312.72182968
_cell_formula_units_Z   2
loop_
 _symmetry_equiv_pos_site_id
 _symmetry_equiv_pos_as_xyz
  1  'x, y, z'
loop_
 _atom_site_type_symbol
 _atom_site_label
 _atom_site_symmetry_multiplicity
 _atom_site_fract_x
 _atom_site_fract_y
 _atom_site_fract_z
 _atom_site_occupancy
  Li  Li0  1  0.33333333  0.66666667  0.07892314  1.0
  Li  Li1  1  0.66666667  0.33333333  0.57892314  1.0
  Li  Li2  1  0.00000000  0.00000000  0.17383701  1.0
  Li  Li3  1  0.00000000  0.00000000  0.67383701  1.0
  In  In4  1  0.33333333  0.66666667  0.68067473  1.0
  In  In5  1  0.66666667  0.33333333  0.18067473  1.0
  Mo  Mo6  1  0.62482222  0.81241111  0.39635437  1.0
  Mo  Mo7  1  0.81241111  0.62482222  0.89635437  1.0
  Mo  Mo8  1  0.81241111  0.18758889  0.89635437  1.0
  Mo  Mo9  1  0.18758889  0.81241111  0.39635437  1.0
  Mo  Mo10  1  0.18758889  0.37517778  0.39635437  1.0
  Mo  Mo11  1  0.37517778  0.18758889  0.89635437  1.0
  O  O12  1  0.97432323  0.48716161  0.02322077  1.0
  O  O13  1  0.48716161  0.97432323  0.52322077  1.0
  O  O14  1  0.48716161  0.51283839  0.52322077  1.0
  O  O15  1  0.51283839  0.48716161  0.02322077  1.0
  O  O16  1  0.51283839  0.02567677  0.02322077  1.0
  O  O17  1  0.02567677  0.51283839  0.52322077  1.0
  O  O18  1  0.31382628  0.15691314  0.29256452  1.0
  O  O19  1  0.15691314  0.31382628  0.79256452  1.0
  O  O20  1  0.15691314  0.84308686  0.79256452  1.0
  O  O21  1  0.84308686  0.15691314  0.29256452  1.0
  O  O22  1  0.84308686  0.68617372  0.29256452  1.0
  O  O23  1  0.68617372  0.84308686  0.79256452  1.0
  O  O24  1  0.33333333  0.66666667  0.26037655  1.0
  O  O25  1  0.66666667  0.33333333  0.76037655  1.0
  O  O26  1  0.00000000  0.00000000  -0.00803044  1.0
  O  O27  1  0.00000000  0.00000000  0.49196956  1.0
