# generated using pymatgen
data_V6O11
_symmetry_space_group_name_H-M   'P 1'
_cell_length_a   9.63468213
_cell_length_b   7.05714257
_cell_length_c   5.47854811
_cell_angle_alpha   109.26397625
_cell_angle_beta   100.80618838
_cell_angle_gamma   90.07251073
_symmetry_Int_Tables_number   1
_chemical_formula_structural   V6O11
_chemical_formula_sum   'V12 O22'
_cell_volume   344.61064081
_cell_formula_units_Z   2
loop_
 _symmetry_equiv_pos_site_id
 _symmetry_equiv_pos_as_xyz
  1  'x, y, z'
loop_
 _atom_site_type_symbol
 _atom_site_label
 _atom_site_symmetry_multiplicity
 _atom_site_fract_x
 _atom_site_fract_y
 _atom_site_fract_z
 _atom_site_occupancy
  V  V0  1  -0.58495238  -0.13934514  -0.72598592  1.0
  V  V1  1  -0.41504762  -0.86065486  -0.27401408  1.0
  V  V2  1  -0.24068774  -0.57940174  -0.81500828  1.0
  V  V3  1  -0.75931226  -0.42059826  -0.18499172  1.0
  V  V4  1  -0.24712832  -0.08394072  -0.81912531  1.0
  V  V5  1  -0.75287168  -0.91605928  -0.18087469  1.0
  V  V6  1  -0.58327343  -0.63755995  -0.73378597  1.0
  V  V7  1  -0.41672657  -0.36244005  -0.26621403  1.0
  V  V8  1  -0.93656966  -0.19423754  -0.67788364  1.0
  V  V9  1  -0.06343034  -0.80576246  -0.32211636  1.0
  V  V10  1  -0.06898492  -0.30734661  -0.32928582  1.0
  V  V11  1  -0.93101508  -0.69265339  -0.67071418  1.0
  O  O12  1  -0.06449350  -0.18401005  -0.98145183  1.0
  O  O13  1  -0.93550650  -0.81598995  -0.01854817  1.0
  O  O14  1  -0.29543050  -0.36461514  -0.93784704  1.0
  O  O15  1  -0.70456950  -0.63538486  -0.06215296  1.0
  O  O16  1  -0.42534711  -0.69739912  -0.90980654  1.0
  O  O17  1  -0.57465289  -0.30260088  -0.09019346  1.0
  O  O18  1  -0.78746702  -0.25716853  -0.83410509  1.0
  O  O19  1  -0.21253298  -0.74283147  -0.16589491  1.0
  O  O20  1  -0.03200036  -0.45895317  -0.71018236  1.0
  O  O21  1  -0.96799964  -0.54104683  -0.28981764  1.0
  O  O22  1  -0.14816139  -0.80290558  -0.68522507  1.0
  O  O23  1  -0.85183861  -0.19709442  -0.31477493  1.0
  O  O24  1  -0.39098997  -0.02174014  -0.62916280  1.0
  O  O25  1  -0.60901003  -0.97825986  -0.37083720  1.0
  O  O26  1  -0.52930348  -0.35667892  -0.59737099  1.0
  O  O27  1  -0.47069652  -0.64332108  -0.40262901  1.0
  O  O28  1  -0.10906350  -0.09625002  -0.48751781  1.0
  O  O29  1  -0.89093650  -0.90374998  -0.51248219  1.0
  O  O30  1  -0.24704528  -0.42257662  -0.44653637  1.0
  O  O31  1  -0.75295472  -0.57742338  -0.55346363  1.0
  O  O32  1  -0.34953425  -0.07509073  -0.13733586  1.0
  O  O33  1  -0.65046575  -0.92490927  -0.86266414  1.0
