# generated using pymatgen
data_In10(Pb2S7)3
_symmetry_space_group_name_H-M   'P 1'
_cell_length_a   14.11961100
_cell_length_b   14.11961100
_cell_length_c   15.97377623
_cell_angle_alpha   84.48430048
_cell_angle_beta   95.51569952
_cell_angle_gamma   164.06986398
_symmetry_Int_Tables_number   1
_chemical_formula_structural   In10(Pb2S7)3
_chemical_formula_sum   'In10 Pb6 S21'
_cell_volume   869.93125901
_cell_formula_units_Z   1
loop_
 _symmetry_equiv_pos_site_id
 _symmetry_equiv_pos_as_xyz
  1  'x, y, z'
loop_
 _atom_site_type_symbol
 _atom_site_label
 _atom_site_symmetry_multiplicity
 _atom_site_fract_x
 _atom_site_fract_y
 _atom_site_fract_z
 _atom_site_occupancy
  In  In0  1  0.98653485  0.01346515  0.87224850  1.0
  In  In1  1  0.01346515  -0.01346515  0.12775150  1.0
  In  In2  1  0.81199917  0.18800083  0.51592833  1.0
  In  In3  1  0.18800083  -0.18800083  0.48407167  1.0
  In  In4  1  0.71468939  0.28531061  0.69124295  1.0
  In  In5  1  0.28531061  -0.28531061  0.30875705  1.0
  In  In6  1  0.60003059  0.39996941  0.98073640  1.0
  In  In7  1  0.39996941  -0.39996941  0.01926360  1.0
  In  In8  1  0.23599503  -0.23599503  0.89157597  1.0
  In  In9  1  0.76400497  0.23599503  0.10842403  1.0
  Pb  Pb10  1  0.57441151  0.42558849  0.70476707  1.0
  Pb  Pb11  1  0.42558849  -0.42558849  0.29523293  1.0
  Pb  Pb12  1  0.45041441  -0.45041441  0.57129855  1.0
  Pb  Pb13  1  0.54958559  0.45041441  0.42870145  1.0
  Pb  Pb14  1  0.36405055  -0.36405055  0.75906000  1.0
  Pb  Pb15  1  0.63594945  0.36405055  0.24094000  1.0
  S  S16  1  0.96627514  0.03372486  0.40629451  1.0
  S  S17  1  0.03372486  -0.03372486  0.59370549  1.0
  S  S18  1  0.92144883  0.07855117  0.12654772  1.0
  S  S19  1  0.07855117  -0.07855117  0.87345228  1.0
  S  S20  1  0.89782410  0.10217590  0.90488485  1.0
  S  S21  1  0.10217590  -0.10217590  0.09511515  1.0
  S  S22  1  0.88166767  0.11833233  0.63368283  1.0
  S  S23  1  0.11833233  -0.11833233  0.36631717  1.0
  S  S24  1  0.82767451  0.17232549  0.23982447  1.0
  S  S25  1  0.17232549  -0.17232549  0.76017553  1.0
  S  S26  1  0.78119995  0.21880005  0.81207874  1.0
  S  S27  1  0.21880005  -0.21880005  0.18792126  1.0
  S  S28  1  0.73630117  0.26369883  0.40227574  1.0
  S  S29  1  0.26369883  -0.26369883  0.59772426  1.0
  S  S30  1  0.69577822  0.30422178  0.97498146  1.0
  S  S31  1  0.30422178  -0.30422178  0.02501854  1.0
  S  S32  1  0.65053018  0.34946982  0.56341022  1.0
  S  S33  1  0.34946982  -0.34946982  0.43658978  1.0
  S  S34  1  0.47367613  -0.47367613  0.76491078  1.0
  S  S35  1  0.52632387  0.47367613  0.23508922  1.0
  S  S36  1  0.50000000  0.50000000  0.00000000  1.0
