# generated using pymatgen
data_Ta5Si3
_symmetry_space_group_name_H-M   'P 1'
_cell_length_a   7.54582237
_cell_length_b   7.54582237
_cell_length_c   7.54582237
_cell_angle_alpha   128.56693976
_cell_angle_beta   128.56693976
_cell_angle_gamma   75.70839110
_symmetry_Int_Tables_number   1
_chemical_formula_structural   Ta5Si3
_chemical_formula_sum   'Ta10 Si6'
_cell_volume   255.49974140
_cell_formula_units_Z   2
loop_
 _symmetry_equiv_pos_site_id
 _symmetry_equiv_pos_as_xyz
  1  'x, y, z'
loop_
 _atom_site_type_symbol
 _atom_site_label
 _atom_site_symmetry_multiplicity
 _atom_site_fract_x
 _atom_site_fract_y
 _atom_site_fract_z
 _atom_site_occupancy
  Ta  Ta0  1  1.18497912  0.68497912  1.17057019  1.0
  Ta  Ta1  1  0.48559108  0.98559108  1.17057019  1.0
  Ta  Ta2  1  1.01440892  1.18497912  1.50000000  1.0
  Ta  Ta3  1  0.31502088  0.48559108  0.50000000  1.0
  Ta  Ta4  1  0.68497912  0.51440892  0.50000000  1.0
  Ta  Ta5  1  0.98559108  0.81502088  1.50000000  1.0
  Ta  Ta6  1  0.51440892  1.01440892  0.82942981  1.0
  Ta  Ta7  1  0.81502088  0.31502088  0.82942981  1.0
  Ta  Ta8  1  0.00000000  0.00000000  0.00000000  1.0
  Ta  Ta9  1  0.50000000  0.50000000  1.00000000  1.0
  Si  Si10  1  0.86985910  0.36985910  1.23971821  1.0
  Si  Si11  1  0.63014090  0.86985910  1.50000000  1.0
  Si  Si12  1  0.36985910  0.13014090  0.50000000  1.0
  Si  Si13  1  0.13014090  0.63014090  0.76028179  1.0
  Si  Si14  1  0.75000000  0.75000000  1.00000000  1.0
  Si  Si15  1  0.25000000  0.25000000  0.00000000  1.0
