# generated using pymatgen
data_Cu2SnHgTe4
_symmetry_space_group_name_H-M   'P 1'
_cell_length_a   7.69091274
_cell_length_b   7.69091274
_cell_length_c   7.69091274
_cell_angle_alpha   131.32296323
_cell_angle_beta   131.32296323
_cell_angle_gamma   71.30045799
_symmetry_Int_Tables_number   1
_chemical_formula_structural   Cu2SnHgTe4
_chemical_formula_sum   'Cu2 Sn1 Hg1 Te4'
_cell_volume   251.14658039
_cell_formula_units_Z   1
loop_
 _symmetry_equiv_pos_site_id
 _symmetry_equiv_pos_as_xyz
  1  'x, y, z'
loop_
 _atom_site_type_symbol
 _atom_site_label
 _atom_site_symmetry_multiplicity
 _atom_site_fract_x
 _atom_site_fract_y
 _atom_site_fract_z
 _atom_site_occupancy
  Cu  Cu0  1  0.25000000  0.75000000  0.50000000  1.0
  Cu  Cu1  1  0.75000000  0.25000000  0.50000000  1.0
  Sn  Sn2  1  0.50000000  0.50000000  1.00000000  1.0
  Hg  Hg3  1  0.00000000  0.00000000  0.00000000  1.0
  Te  Te4  1  0.39537068  0.89053527  1.00000000  1.0
  Te  Te5  1  1.10946473  1.10946473  1.50483541  1.0
  Te  Te6  1  0.60462932  0.60462932  0.49516459  1.0
  Te  Te7  1  0.89053527  0.39537068  1.00000000  1.0
