# generated using pymatgen
data_Sr3Ti2O7
_symmetry_space_group_name_H-M   'P 1'
_cell_length_a   10.60424256
_cell_length_b   10.60424256
_cell_length_c   10.60424256
_cell_angle_alpha   158.62905572
_cell_angle_beta   158.62905572
_cell_angle_gamma   30.40364630
_symmetry_Int_Tables_number   1
_chemical_formula_structural   Sr3Ti2O7
_chemical_formula_sum   'Sr3 Ti2 O7'
_cell_volume   158.24543252
_cell_formula_units_Z   1
loop_
 _symmetry_equiv_pos_site_id
 _symmetry_equiv_pos_as_xyz
  1  'x, y, z'
loop_
 _atom_site_type_symbol
 _atom_site_label
 _atom_site_symmetry_multiplicity
 _atom_site_fract_x
 _atom_site_fract_y
 _atom_site_fract_z
 _atom_site_occupancy
  Sr  Sr0  1  0.68428572  0.68428572  1.00000000  1.0
  Sr  Sr1  1  0.31571428  0.31571428  0.00000000  1.0
  Sr  Sr2  1  0.50000000  0.50000000  1.00000000  1.0
  Ti  Ti3  1  0.90221484  0.90221484  1.00000000  1.0
  Ti  Ti4  1  0.09778516  0.09778516  0.00000000  1.0
  O  O5  1  0.40363846  0.90363846  0.50000000  1.0
  O  O6  1  0.59636154  0.09636154  0.50000000  1.0
  O  O7  1  0.90363846  0.40363846  0.50000000  1.0
  O  O8  1  0.09636154  0.59636154  0.50000000  1.0
  O  O9  1  0.80623038  0.80623038  1.00000000  1.0
  O  O10  1  0.19376962  0.19376962  0.00000000  1.0
  O  O11  1  0.00000000  0.00000000  0.00000000  1.0
