# generated using pymatgen
data_Ge2Mo
_symmetry_space_group_name_H-M   'P 1'
_cell_length_a   6.39824480
_cell_length_b   3.47552323
_cell_length_c   8.63465909
_cell_angle_alpha   90.00000000
_cell_angle_beta   90.00000000
_cell_angle_gamma   90.00000000
_symmetry_Int_Tables_number   1
_chemical_formula_structural   Ge2Mo
_chemical_formula_sum   'Ge8 Mo4'
_cell_volume   192.01105954
_cell_formula_units_Z   4
loop_
 _symmetry_equiv_pos_site_id
 _symmetry_equiv_pos_as_xyz
  1  'x, y, z'
loop_
 _atom_site_type_symbol
 _atom_site_label
 _atom_site_symmetry_multiplicity
 _atom_site_fract_x
 _atom_site_fract_y
 _atom_site_fract_z
 _atom_site_occupancy
  Ge  Ge0  1  0.93874991  0.75000000  0.63283488  1.0
  Ge  Ge1  1  0.43874991  0.75000000  0.86716512  1.0
  Ge  Ge2  1  0.06125009  0.25000000  0.36716512  1.0
  Ge  Ge3  1  0.56125009  0.25000000  0.13283488  1.0
  Ge  Ge4  1  0.86398603  0.75000000  0.04096557  1.0
  Ge  Ge5  1  0.36398603  0.75000000  0.45903443  1.0
  Ge  Ge6  1  0.13601397  0.25000000  0.95903443  1.0
  Ge  Ge7  1  0.63601397  0.25000000  0.54096557  1.0
  Mo  Mo8  1  0.74936906  0.75000000  0.32889771  1.0
  Mo  Mo9  1  0.24936906  0.75000000  0.17110229  1.0
  Mo  Mo10  1  0.25063094  0.25000000  0.67110229  1.0
  Mo  Mo11  1  0.75063094  0.25000000  0.82889771  1.0
