# generated using pymatgen
data_Li2MnO3
_symmetry_space_group_name_H-M   'P 1'
_cell_length_a   4.94933504
_cell_length_b   4.94933504
_cell_length_c   5.04449090
_cell_angle_alpha   80.40227838
_cell_angle_beta   99.59772162
_cell_angle_gamma   60.09121864
_symmetry_Int_Tables_number   1
_chemical_formula_structural   Li2MnO3
_chemical_formula_sum   'Li4 Mn2 O6'
_cell_volume   100.99924494
_cell_formula_units_Z   2
loop_
 _symmetry_equiv_pos_site_id
 _symmetry_equiv_pos_as_xyz
  1  'x, y, z'
loop_
 _atom_site_type_symbol
 _atom_site_label
 _atom_site_symmetry_multiplicity
 _atom_site_fract_x
 _atom_site_fract_y
 _atom_site_fract_z
 _atom_site_occupancy
  Li  Li0  1  0.66189618  -0.33810382  0.50000000  1.0
  Li  Li1  1  1.33810382  0.33810382  0.50000000  1.0
  Li  Li2  1  0.00000000  -0.00000000  0.50000000  1.0
  Li  Li3  1  0.50000000  -0.50000000  0.00000000  1.0
  Mn  Mn4  1  0.83281822  -0.16718178  0.00000000  1.0
  Mn  Mn5  1  1.16718178  0.16718178  0.00000000  1.0
  O  O6  1  0.42469654  -0.06707112  0.77666869  1.0
  O  O7  1  1.06707112  0.57530346  0.77666869  1.0
  O  O8  1  0.93292888  -0.57530346  0.22333131  1.0
  O  O9  1  1.57530346  0.06707112  0.22333131  1.0
  O  O10  1  0.78149840  -0.78149840  0.77284498  1.0
  O  O11  1  0.21850160  -0.21850160  0.22715501  1.0
