# generated using pymatgen
data_NaNbGeO5
_symmetry_space_group_name_H-M   'P 1'
_cell_length_a   6.94939505
_cell_length_b   8.99479030
_cell_length_c   7.64467338
_cell_angle_alpha   90.00000000
_cell_angle_beta   115.77943037
_cell_angle_gamma   90.00000000
_symmetry_Int_Tables_number   1
_chemical_formula_structural   NaNbGeO5
_chemical_formula_sum   'Na4 Nb4 Ge4 O20'
_cell_volume   430.29729993
_cell_formula_units_Z   4
loop_
 _symmetry_equiv_pos_site_id
 _symmetry_equiv_pos_as_xyz
  1  'x, y, z'
loop_
 _atom_site_type_symbol
 _atom_site_label
 _atom_site_symmetry_multiplicity
 _atom_site_fract_x
 _atom_site_fract_y
 _atom_site_fract_z
 _atom_site_occupancy
  Na  Na0  1  0.74221462  0.92094992  0.21113839  1.0
  Na  Na1  1  0.74221462  0.57905008  0.71113839  1.0
  Na  Na2  1  0.25778538  0.42094992  0.28886161  1.0
  Na  Na3  1  0.25778538  0.07905008  0.78886161  1.0
  Nb  Nb4  1  0.75797973  0.23955881  0.47897257  1.0
  Nb  Nb5  1  0.75797973  0.26044119  0.97897257  1.0
  Nb  Nb6  1  0.24202027  0.73955881  0.02102743  1.0
  Nb  Nb7  1  0.24202027  0.76044119  0.52102743  1.0
  Ge  Ge8  1  0.25358267  0.06471201  0.25188609  1.0
  Ge  Ge9  1  0.25358267  0.43528799  0.75188609  1.0
  Ge  Ge10  1  0.74641733  0.56471201  0.24811391  1.0
  Ge  Ge11  1  0.74641733  0.93528799  0.74811391  1.0
  O  O12  1  0.94080364  0.69104396  0.40465133  1.0
  O  O13  1  0.94080364  0.80895604  0.90465133  1.0
  O  O14  1  0.05919636  0.19104396  0.09534867  1.0
  O  O15  1  0.05919636  0.30895604  0.59534867  1.0
  O  O16  1  0.85326345  0.45481556  0.11903772  1.0
  O  O17  1  0.85326345  0.04518444  0.61903772  1.0
  O  O18  1  0.14673655  0.95481556  0.38096228  1.0
  O  O19  1  0.14673655  0.54518444  0.88096228  1.0
  O  O20  1  0.75311129  0.18177189  0.24884578  1.0
  O  O21  1  0.75311129  0.31822811  0.74884578  1.0
  O  O22  1  0.24688871  0.68177189  0.25115422  1.0
  O  O23  1  0.24688871  0.81822811  0.75115422  1.0
  O  O24  1  0.65771130  0.45264455  0.39005391  1.0
  O  O25  1  0.65771130  0.04735545  0.89005391  1.0
  O  O26  1  0.34228870  0.95264455  0.10994609  1.0
  O  O27  1  0.34228870  0.54735545  0.60994609  1.0
  O  O28  1  0.45454363  0.18452444  0.41255209  1.0
  O  O29  1  0.45454363  0.31547556  0.91255209  1.0
  O  O30  1  0.54545637  0.68452444  0.08744791  1.0
  O  O31  1  0.54545637  0.81547556  0.58744791  1.0
