# generated using pymatgen
data_SiH12C2(NF3)2
_symmetry_space_group_name_H-M   'P 1'
_cell_length_a   7.40368134
_cell_length_b   9.63228093
_cell_length_c   6.61526078
_cell_angle_alpha   90.00000000
_cell_angle_beta   90.00000000
_cell_angle_gamma   90.00000000
_symmetry_Int_Tables_number   1
_chemical_formula_structural   SiH12C2(NF3)2
_chemical_formula_sum   'Si2 H24 C4 N4 F12'
_cell_volume   471.76294720
_cell_formula_units_Z   2
loop_
 _symmetry_equiv_pos_site_id
 _symmetry_equiv_pos_as_xyz
  1  'x, y, z'
loop_
 _atom_site_type_symbol
 _atom_site_label
 _atom_site_symmetry_multiplicity
 _atom_site_fract_x
 _atom_site_fract_y
 _atom_site_fract_z
 _atom_site_occupancy
  Si  Si0  1  0.00000000  0.00000000  0.00000000  1.0
  Si  Si1  1  0.50000000  0.50000000  0.50000000  1.0
  H  H2  1  0.84035009  0.12545709  0.62673347  1.0
  H  H3  1  0.15964991  0.87454291  0.62673347  1.0
  H  H4  1  0.34035009  0.37454291  0.87326653  1.0
  H  H5  1  0.65964991  0.62545709  0.87326653  1.0
  H  H6  1  0.15964991  0.87454291  0.37326653  1.0
  H  H7  1  0.84035009  0.12545709  0.37326653  1.0
  H  H8  1  0.65964991  0.62545709  0.12673347  1.0
  H  H9  1  0.34035009  0.37454291  0.12673347  1.0
  H  H10  1  0.71641619  0.24404516  0.50000000  1.0
  H  H11  1  0.28358381  0.75595484  0.50000000  1.0
  H  H12  1  0.21641619  0.25595484  0.00000000  1.0
  H  H13  1  0.78358381  0.74404516  0.00000000  1.0
  H  H14  1  -0.01216758  0.35192694  0.63484039  1.0
  H  H15  1  1.01216758  0.64807306  0.63484039  1.0
  H  H16  1  0.48783242  0.14807306  0.86515961  1.0
  H  H17  1  0.51216758  0.85192694  0.86515961  1.0
  H  H18  1  1.01216758  0.64807306  0.36515961  1.0
  H  H19  1  -0.01216758  0.35192694  0.36515961  1.0
  H  H20  1  0.51216758  0.85192694  0.13484039  1.0
  H  H21  1  0.48783242  0.14807306  0.13484039  1.0
  H  H22  1  0.12016808  0.22673862  0.50000000  1.0
  H  H23  1  0.87983192  0.77326138  0.50000000  1.0
  H  H24  1  0.62016808  0.27326138  0.00000000  1.0
  H  H25  1  0.37983192  0.72673862  0.00000000  1.0
  C  C26  1  -0.00519638  0.28672285  0.50000000  1.0
  C  C27  1  1.00519638  0.71327715  0.50000000  1.0
  C  C28  1  0.49480362  0.21327715  0.00000000  1.0
  C  C29  1  0.50519638  0.78672285  0.00000000  1.0
  N  N30  1  0.83823479  0.18980892  0.50000000  1.0
  N  N31  1  0.16176521  0.81019108  0.50000000  1.0
  N  N32  1  0.33823479  0.31019108  0.00000000  1.0
  N  N33  1  0.66176521  0.68980892  0.00000000  1.0
  F  F34  1  0.83564243  1.00120816  0.81561415  1.0
  F  F35  1  0.16435757  -0.00120816  0.81561415  1.0
  F  F36  1  0.33564243  0.49879184  0.68438585  1.0
  F  F37  1  0.66435757  0.50120816  0.68438585  1.0
  F  F38  1  0.16435757  -0.00120816  0.18438585  1.0
  F  F39  1  0.83564243  1.00120816  0.18438585  1.0
  F  F40  1  0.66435757  0.50120816  0.31561415  1.0
  F  F41  1  0.33564243  0.49879184  0.31561415  1.0
  F  F42  1  1.00351773  0.17887970  0.00000000  1.0
  F  F43  1  -0.00351773  0.82112030  0.00000000  1.0
  F  F44  1  0.50351773  0.32112030  0.50000000  1.0
  F  F45  1  0.49648227  0.67887970  0.50000000  1.0
