# generated using pymatgen
data_RbYbZnTe3
_symmetry_space_group_name_H-M   'P 1'
_cell_length_a   8.64857618
_cell_length_b   8.64857618
_cell_length_c   11.68625196
_cell_angle_alpha   90.00000000
_cell_angle_beta   90.00000000
_cell_angle_gamma   150.89962361
_symmetry_Int_Tables_number   1
_chemical_formula_structural   RbYbZnTe3
_chemical_formula_sum   'Rb2 Yb2 Zn2 Te6'
_cell_volume   425.11405847
_cell_formula_units_Z   2
loop_
 _symmetry_equiv_pos_site_id
 _symmetry_equiv_pos_as_xyz
  1  'x, y, z'
loop_
 _atom_site_type_symbol
 _atom_site_label
 _atom_site_symmetry_multiplicity
 _atom_site_fract_x
 _atom_site_fract_y
 _atom_site_fract_z
 _atom_site_occupancy
  Rb  Rb0  1  -0.25206985  0.25206985  0.75000000  1.0
  Rb  Rb1  1  0.25206985  0.74793015  0.25000000  1.0
  Yb  Yb2  1  0.00000000  0.00000000  0.00000000  1.0
  Yb  Yb3  1  0.00000000  0.00000000  0.50000000  1.0
  Zn  Zn4  1  0.46411391  0.53588609  0.75000000  1.0
  Zn  Zn5  1  -0.46411391  0.46411391  0.25000000  1.0
  Te  Te6  1  0.37620594  0.62379406  0.93994119  1.0
  Te  Te7  1  0.37620594  0.62379406  0.56005881  1.0
  Te  Te8  1  -0.37620594  0.37620594  0.43994119  1.0
  Te  Te9  1  -0.37620594  0.37620594  0.06005881  1.0
  Te  Te10  1  0.06427333  0.93572667  0.75000000  1.0
  Te  Te11  1  -0.06427333  0.06427333  0.25000000  1.0
