# generated using pymatgen
data_Y2Br3
_symmetry_space_group_name_H-M   'P 1'
_cell_length_a   9.43219798
_cell_length_b   9.43219798
_cell_length_c   11.40874474
_cell_angle_alpha   56.27217709
_cell_angle_beta   123.72782291
_cell_angle_gamma   156.08180277
_symmetry_Int_Tables_number   1
_chemical_formula_structural   Y2Br3
_chemical_formula_sum   'Y4 Br6'
_cell_volume   338.80835975
_cell_formula_units_Z   2
loop_
 _symmetry_equiv_pos_site_id
 _symmetry_equiv_pos_as_xyz
  1  'x, y, z'
loop_
 _atom_site_type_symbol
 _atom_site_label
 _atom_site_symmetry_multiplicity
 _atom_site_fract_x
 _atom_site_fract_y
 _atom_site_fract_z
 _atom_site_occupancy
  Y  Y0  1  0.92889704  -0.92889704  0.54204213  1.0
  Y  Y1  1  0.07110296  -0.07110296  0.45795787  1.0
  Y  Y2  1  0.63560488  0.36439512  0.78441762  1.0
  Y  Y3  1  1.36439512  -0.36439512  0.21558238  1.0
  Br  Br4  1  0.83157140  0.16842860  0.99434622  1.0
  Br  Br5  1  1.16842860  -0.16842860  0.00565378  1.0
  Br  Br6  1  0.71112164  0.28887836  0.62061605  1.0
  Br  Br7  1  1.28887836  -0.28887836  0.37938395  1.0
  Br  Br8  1  1.46958310  -0.46958310  0.75911928  1.0
  Br  Br9  1  0.53041690  0.46958310  0.24088072  1.0
