# generated using pymatgen
data_H2O
_symmetry_space_group_name_H-M   'P 1'
_cell_length_a   3.99031225
_cell_length_b   8.32249369
_cell_length_c   8.22383613
_cell_angle_alpha   90.82395443
_cell_angle_beta   89.99983110
_cell_angle_gamma   89.99530660
_symmetry_Int_Tables_number   1
_chemical_formula_structural   H2O
_chemical_formula_sum   'H24 O12'
_cell_volume   273.07999945
_cell_formula_units_Z   12
loop_
 _symmetry_equiv_pos_site_id
 _symmetry_equiv_pos_as_xyz
  1  'x, y, z'
loop_
 _atom_site_type_symbol
 _atom_site_label
 _atom_site_symmetry_multiplicity
 _atom_site_fract_x
 _atom_site_fract_y
 _atom_site_fract_z
 _atom_site_occupancy
  H  H0  1  -0.14360433  -0.03653131  -0.90649510  1.0
  H  H1  1  -0.85904359  -0.91125567  -0.95003280  1.0
  H  H2  1  -0.29866308  -0.22578756  -0.27930111  1.0
  H  H3  1  -0.22632739  -0.34318436  -0.42377039  1.0
  H  H4  1  -0.76990098  -0.58248995  -0.34200529  1.0
  H  H5  1  -0.69337095  -0.72037722  -0.22279051  1.0
  H  H6  1  -0.01924651  -0.84434532  -0.57540142  1.0
  H  H7  1  -0.94441970  -0.72661001  -0.71609025  1.0
  H  H8  1  -0.38821865  -0.41195666  -0.04566551  1.0
  H  H9  1  -0.10846246  -0.54097075  -0.08851920  1.0
  H  H10  1  -0.19343742  -0.78072548  -0.27311126  1.0
  H  H11  1  -0.26989321  -0.91854556  -0.15381417  1.0
  H  H12  1  -0.64354327  -0.46450234  -0.58932383  1.0
  H  H13  1  -0.35903546  -0.58979819  -0.54570133  1.0
  H  H14  1  -0.51914840  -0.65683457  -0.92030091  1.0
  H  H15  1  -0.44434317  -0.77451316  -0.77955820  1.0
  H  H16  1  -0.79861700  -0.27522995  -0.21656481  1.0
  H  H17  1  -0.72627822  -0.15783432  -0.07210551  1.0
  H  H18  1  -0.60873331  -0.96021753  -0.40729131  1.0
  H  H19  1  -0.88855140  -0.08917759  -0.45016473  1.0
  H  H20  1  -0.98781719  -0.41473990  -0.83866424  1.0
  H  H21  1  -0.71502083  -0.28601810  -0.77468640  1.0
  H  H22  1  -0.48792752  -0.08641012  -0.65717983  1.0
  H  H23  1  -0.21503810  -0.21510721  -0.72117336  1.0
  O  O24  1  0.00052705  -0.99881200  -0.99670239  1.0
  O  O25  1  -0.12296705  -0.25306626  -0.36093381  1.0
  O  O26  1  -0.87024256  -0.64021253  -0.24886864  1.0
  O  O27  1  -0.12205273  -0.75457934  -0.63631987  1.0
  O  O28  1  -0.24966737  -0.49857808  0.00172855  1.0
  O  O29  1  -0.37020910  -0.86092452  -0.24702205  1.0
  O  O30  1  -0.49951493  -0.50222426  -0.49907435  1.0
  O  O31  1  -0.62203951  -0.74649596  -0.85928741  1.0
  O  O32  1  -0.62293104  -0.24797027  -0.13492977  1.0
  O  O33  1  -0.74999799  -0.00254227  -0.49753396  1.0
  O  O34  1  -0.89324625  -0.36165966  -0.73971641  1.0
  O  O35  1  -0.39331638  -0.13947203  -0.75612842  1.0
