# generated using pymatgen
data_TaBr5N2
_symmetry_space_group_name_H-M   'P 1'
_cell_length_a   7.62401280
_cell_length_b   7.62401280
_cell_length_c   18.98276684
_cell_angle_alpha   90.00000000
_cell_angle_beta   90.00000000
_cell_angle_gamma   90.00000000
_symmetry_Int_Tables_number   1
_chemical_formula_structural   TaBr5N2
_chemical_formula_sum   'Ta4 Br20 N8'
_cell_volume   1103.38416512
_cell_formula_units_Z   4
loop_
 _symmetry_equiv_pos_site_id
 _symmetry_equiv_pos_as_xyz
  1  'x, y, z'
loop_
 _atom_site_type_symbol
 _atom_site_label
 _atom_site_symmetry_multiplicity
 _atom_site_fract_x
 _atom_site_fract_y
 _atom_site_fract_z
 _atom_site_occupancy
  Br  Br0  1  0.50000000  0.50000000  0.25363198  1.0
  Br  Br1  1  0.50000000  0.50000000  0.74636802  1.0
  Br  Br2  1  0.00000000  0.00000000  0.75363198  1.0
  Br  Br3  1  0.00000000  0.00000000  0.24636802  1.0
  Br  Br4  1  0.26717696  0.73282579  0.38458612  1.0
  Br  Br5  1  0.26717696  0.73282579  0.61541388  1.0
  Br  Br6  1  0.76717696  0.76717421  0.88458612  1.0
  Br  Br7  1  0.76717696  0.76717421  0.11541388  1.0
  Br  Br8  1  0.26717421  0.26717696  0.38458612  1.0
  Br  Br9  1  0.26717421  0.26717696  0.61541388  1.0
  Br  Br10  1  0.76717421  0.23282304  0.88458612  1.0
  Br  Br11  1  0.76717421  0.23282304  0.11541388  1.0
  Br  Br12  1  0.73282304  0.26717421  0.38458612  1.0
  Br  Br13  1  0.73282304  0.26717421  0.61541388  1.0
  Br  Br14  1  0.23282304  0.23282579  0.88458612  1.0
  Br  Br15  1  0.23282304  0.23282579  0.11541388  1.0
  Br  Br16  1  0.73282579  0.73282304  0.38458612  1.0
  Br  Br17  1  0.73282579  0.73282304  0.61541388  1.0
  Br  Br18  1  0.23282579  0.76717696  0.88458612  1.0
  Br  Br19  1  0.23282579  0.76717696  0.11541388  1.0
  N  N20  1  0.50000000  0.50000000  0.50000000  1.0
  N  N21  1  0.00000000  0.00000000  0.00000000  1.0
  N  N22  1  0.50000000  0.00000000  0.25000000  1.0
  N  N23  1  0.50000000  0.00000000  0.75000000  1.0
  N  N24  1  0.00000000  0.50000000  0.75000000  1.0
  N  N25  1  0.00000000  0.50000000  0.25000000  1.0
  N  N26  1  0.50000000  0.50000000  0.00000000  1.0
  N  N27  1  0.00000000  0.00000000  0.50000000  1.0
  Ta  Ta28  1  0.50000000  0.50000000  0.40090120  1.0
  Ta  Ta29  1  0.50000000  0.50000000  0.59909880  1.0
  Ta  Ta30  1  0.00000000  0.00000000  0.90090120  1.0
  Ta  Ta31  1  0.00000000  0.00000000  0.09909880  1.0
