# generated using pymatgen
data_LiP5
_symmetry_space_group_name_H-M   'P 1'
_cell_length_a   10.51388538
_cell_length_b   6.68636747
_cell_length_c   6.60901782
_cell_angle_alpha   90.00000000
_cell_angle_beta   90.00000000
_cell_angle_gamma   90.00000000
_symmetry_Int_Tables_number   1
_chemical_formula_structural   LiP5
_chemical_formula_sum   'Li4 P20'
_cell_volume   464.61197805
_cell_formula_units_Z   4
loop_
 _symmetry_equiv_pos_site_id
 _symmetry_equiv_pos_as_xyz
  1  'x, y, z'
loop_
 _atom_site_type_symbol
 _atom_site_label
 _atom_site_symmetry_multiplicity
 _atom_site_fract_x
 _atom_site_fract_y
 _atom_site_fract_z
 _atom_site_occupancy
  Li  Li0  1  0.42241606  0.46482117  0.11165051  1.0
  Li  Li1  1  0.92241606  0.03517883  0.11165051  1.0
  Li  Li2  1  0.57758394  0.53517883  0.61165051  1.0
  Li  Li3  1  0.07758394  0.96482117  0.61165051  1.0
  P  P4  1  0.40715565  0.90084610  0.25212731  1.0
  P  P5  1  0.90715565  0.59915390  0.25212731  1.0
  P  P6  1  0.59284435  0.09915390  0.75212731  1.0
  P  P7  1  0.09284435  0.40084610  0.75212731  1.0
  P  P8  1  0.37094273  0.38830394  0.47710263  1.0
  P  P9  1  0.87094273  0.11169606  0.47710263  1.0
  P  P10  1  0.62905727  0.61169606  0.97710263  1.0
  P  P11  1  0.12905727  0.88830394  0.97710263  1.0
  P  P12  1  0.30822258  0.05508824  -0.00465354  1.0
  P  P13  1  0.80822258  0.44491176  -0.00465354  1.0
  P  P14  1  0.69177742  0.94491176  0.49534646  1.0
  P  P15  1  0.19177742  0.55508824  0.49534646  1.0
  P  P16  1  0.30681619  0.07664312  0.49531562  1.0
  P  P17  1  0.80681619  0.42335688  0.49531562  1.0
  P  P18  1  0.69318381  0.92335688  -0.00468438  1.0
  P  P19  1  0.19318381  0.57664312  -0.00468438  1.0
  P  P20  1  0.08454958  0.41413988  0.23745747  1.0
  P  P21  1  0.58454958  0.08586012  0.23745747  1.0
  P  P22  1  0.91545042  0.58586012  0.73745747  1.0
  P  P23  1  0.41545042  0.91413988  0.73745747  1.0
