# generated using pymatgen
data_LaB2Pd2C
_symmetry_space_group_name_H-M   'P 1'
_cell_length_a   5.88056526
_cell_length_b   5.88056526
_cell_length_c   5.88056526
_cell_angle_alpha   140.56269368
_cell_angle_beta   140.56269368
_cell_angle_gamma   56.99991697
_symmetry_Int_Tables_number   1
_chemical_formula_structural   LaB2Pd2C
_chemical_formula_sum   'La1 B2 Pd2 C1'
_cell_volume   81.37866059
_cell_formula_units_Z   1
loop_
 _symmetry_equiv_pos_site_id
 _symmetry_equiv_pos_as_xyz
  1  'x, y, z'
loop_
 _atom_site_type_symbol
 _atom_site_label
 _atom_site_symmetry_multiplicity
 _atom_site_fract_x
 _atom_site_fract_y
 _atom_site_fract_z
 _atom_site_occupancy
  La  La0  1  0.50000000  0.50000000  1.00000000  1.0
  B  B1  1  0.85695367  0.85695367  1.00000000  1.0
  B  B2  1  0.14304633  0.14304633  0.00000000  1.0
  Pd  Pd3  1  0.25000000  0.75000000  0.50000000  1.0
  Pd  Pd4  1  0.75000000  0.25000000  0.50000000  1.0
  C  C5  1  0.00000000  0.00000000  0.00000000  1.0
