# generated using pymatgen
data_Eu3(BO3)2
_symmetry_space_group_name_H-M   'P 1'
_cell_length_a   6.72752676
_cell_length_b   6.72752676
_cell_length_c   6.72752676
_cell_angle_alpha   84.52868534
_cell_angle_beta   84.52868534
_cell_angle_gamma   84.52868534
_symmetry_Int_Tables_number   1
_chemical_formula_structural   Eu3(BO3)2
_chemical_formula_sum   'Eu6 B4 O12'
_cell_volume   300.57189262
_cell_formula_units_Z   2
loop_
 _symmetry_equiv_pos_site_id
 _symmetry_equiv_pos_as_xyz
  1  'x, y, z'
loop_
 _atom_site_type_symbol
 _atom_site_label
 _atom_site_symmetry_multiplicity
 _atom_site_fract_x
 _atom_site_fract_y
 _atom_site_fract_z
 _atom_site_occupancy
  Eu  Eu0  1  0.90066976  0.25000000  -0.40066976  1.0
  Eu  Eu1  1  0.40066976  0.09933024  -0.25000000  1.0
  Eu  Eu2  1  0.75000000  -0.59933024  0.09933024  1.0
  Eu  Eu3  1  0.25000000  0.59933024  -0.09933024  1.0
  Eu  Eu4  1  1.09933024  -0.25000000  -0.59933024  1.0
  Eu  Eu5  1  0.59933024  -0.09933024  0.25000000  1.0
  B  B6  1  0.38463188  0.38463188  -0.61536812  1.0
  B  B7  1  0.88463188  0.88463188  -0.11536812  1.0
  B  B8  1  1.11536812  1.11536812  0.11536812  1.0
  B  B9  1  0.61536812  0.61536812  -0.38463188  1.0
  O  O10  1  0.22925821  0.39317192  -0.46292296  1.0
  O  O11  1  0.72925821  0.03707704  -0.10682808  1.0
  O  O12  1  0.96292296  0.10682808  -0.72925821  1.0
  O  O13  1  0.46292296  0.77074179  -0.39317192  1.0
  O  O14  1  0.60682808  0.46292296  -0.22925821  1.0
  O  O15  1  0.10682808  0.27074179  -0.03707704  1.0
  O  O16  1  0.77074179  0.60682808  -0.53707704  1.0
  O  O17  1  0.27074179  0.96292296  -0.89317192  1.0
  O  O18  1  0.53707704  0.22925821  -0.60682808  1.0
  O  O19  1  1.03707704  -0.10682808  -0.27074179  1.0
  O  O20  1  0.89317192  -0.27074179  0.03707704  1.0
  O  O21  1  0.39317192  0.53707704  -0.77074179  1.0
