# generated using pymatgen
data_KEuS2O9
_symmetry_space_group_name_H-M   'P 1'
_cell_length_a   7.38500099
_cell_length_b   7.38500099
_cell_length_c   13.28872541
_cell_angle_alpha   90.00000000
_cell_angle_beta   90.00000000
_cell_angle_gamma   120.00000000
_symmetry_Int_Tables_number   1
_chemical_formula_structural   KEuS2O9
_chemical_formula_sum   'K3 Eu3 S6 O27'
_cell_volume   627.64644676
_cell_formula_units_Z   3
loop_
 _symmetry_equiv_pos_site_id
 _symmetry_equiv_pos_as_xyz
  1  'x, y, z'
loop_
 _atom_site_type_symbol
 _atom_site_label
 _atom_site_symmetry_multiplicity
 _atom_site_fract_x
 _atom_site_fract_y
 _atom_site_fract_z
 _atom_site_occupancy
  O  O0  1  0.35099635  0.49691826  0.19850299  1.0
  O  O1  1  0.50308174  0.85407810  0.53183632  1.0
  O  O2  1  0.49691826  0.35099635  0.80149701  1.0
  O  O3  1  0.14592190  0.64900365  0.86516966  1.0
  O  O4  1  0.64900365  0.14592190  0.13483034  1.0
  O  O5  1  0.85407810  0.50308174  0.46816368  1.0
  O  O6  1  0.58881911  0.70259644  0.33610905  1.0
  O  O7  1  0.29740356  0.88622266  0.66944238  1.0
  O  O8  1  0.70259644  0.58881911  0.66389095  1.0
  O  O9  1  0.11377734  0.41118089  1.00277572  1.0
  O  O10  1  0.41118089  0.11377734  -0.00277572  1.0
  O  O11  1  0.88622266  0.29740356  0.33055762  1.0
  O  O12  1  0.44727361  0.33419865  0.33416629  1.0
  O  O13  1  0.66580135  0.11307496  0.66749962  1.0
  O  O14  1  0.33419865  0.44727361  0.66583371  1.0
  O  O15  1  0.88692504  0.55272639  1.00083295  1.0
  O  O16  1  0.55272639  0.88692504  -0.00083295  1.0
  O  O17  1  0.11307496  0.66580135  0.33250038  1.0
  O  O18  1  0.70198292  0.54961650  0.20281976  1.0
  O  O19  1  0.45038350  0.15236642  0.53615309  1.0
  O  O20  1  0.54961650  0.70198292  0.79718024  1.0
  O  O21  1  0.84763358  0.29801708  0.86948642  1.0
  O  O22  1  0.29801708  0.84763358  0.13051358  1.0
  O  O23  1  0.15236642  0.45038350  0.46384691  1.0
  O  O24  1  0.83630814  0.83630814  0.50000000  1.0
  O  O25  1  0.16369186  0.00000000  0.83333333  1.0
  O  O26  1  -0.00000000  0.16369186  0.16666667  1.0
  S  S27  1  0.52306786  0.52000900  0.26590981  1.0
  S  S28  1  0.47999100  0.00305886  0.59924314  1.0
  S  S29  1  0.52000900  0.52306786  0.73409019  1.0
  S  S30  1  0.99694114  0.47693214  0.93257647  1.0
  S  S31  1  0.47693214  0.99694114  0.06742353  1.0
  S  S32  1  0.00305886  0.47999100  0.40075686  1.0
  K  K33  1  0.51464234  0.51464234  -0.00000000  1.0
  K  K34  1  0.48535766  0.00000000  0.33333333  1.0
  K  K35  1  -0.00000000  0.48535766  0.66666667  1.0
  Eu  Eu36  1  0.50796192  0.50796192  0.50000000  1.0
  Eu  Eu37  1  0.49203808  -0.00000000  0.83333333  1.0
  Eu  Eu38  1  0.00000000  0.49203808  0.16666667  1.0
