# generated using pymatgen
data_Li(NiGe)6
_symmetry_space_group_name_H-M   'P 1'
_cell_length_a   8.77331538
_cell_length_b   8.77331538
_cell_length_c   7.83340727
_cell_angle_alpha   90.00000000
_cell_angle_beta   90.00000000
_cell_angle_gamma   120.00000000
_symmetry_Int_Tables_number   1
_chemical_formula_structural   Li(NiGe)6
_chemical_formula_sum   'Li3 Ni18 Ge18'
_cell_volume   522.16627771
_cell_formula_units_Z   3
loop_
 _symmetry_equiv_pos_site_id
 _symmetry_equiv_pos_as_xyz
  1  'x, y, z'
loop_
 _atom_site_type_symbol
 _atom_site_label
 _atom_site_symmetry_multiplicity
 _atom_site_fract_x
 _atom_site_fract_y
 _atom_site_fract_z
 _atom_site_occupancy
  Li  Li0  1  0.33333333  0.66666667  0.50000000  1.0
  Li  Li1  1  0.66666667  0.33333333  0.50000000  1.0
  Li  Li2  1  0.00000000  0.00000000  -0.00000000  1.0
  Ni  Ni3  1  0.16697172  0.83302828  0.74483397  1.0
  Ni  Ni4  1  0.16697172  0.83302828  0.25516603  1.0
  Ni  Ni5  1  0.16697172  0.33394344  0.74483397  1.0
  Ni  Ni6  1  0.16697172  0.33394344  0.25516603  1.0
  Ni  Ni7  1  0.83302828  0.16697172  0.74483397  1.0
  Ni  Ni8  1  0.83302828  0.16697172  0.25516603  1.0
  Ni  Ni9  1  0.83302828  0.66605656  0.74483397  1.0
  Ni  Ni10  1  0.83302828  0.66605656  0.25516603  1.0
  Ni  Ni11  1  0.66605656  0.83302828  0.74483397  1.0
  Ni  Ni12  1  0.66605656  0.83302828  0.25516603  1.0
  Ni  Ni13  1  0.33394344  0.16697172  0.74483397  1.0
  Ni  Ni14  1  0.33394344  0.16697172  0.25516603  1.0
  Ni  Ni15  1  0.50000000  0.50000000  0.76029030  1.0
  Ni  Ni16  1  0.50000000  0.50000000  0.23970970  1.0
  Ni  Ni17  1  0.50000000  0.00000000  0.76029030  1.0
  Ni  Ni18  1  0.50000000  -0.00000000  0.23970970  1.0
  Ni  Ni19  1  -0.00000000  0.50000000  0.76029030  1.0
  Ni  Ni20  1  -0.00000000  0.50000000  0.23970970  1.0
  Ge  Ge21  1  0.65882960  0.65882960  0.50000000  1.0
  Ge  Ge22  1  0.65882960  -0.00000000  0.50000000  1.0
  Ge  Ge23  1  0.00000000  0.65882960  0.50000000  1.0
  Ge  Ge24  1  0.00000000  0.34117040  0.50000000  1.0
  Ge  Ge25  1  0.34117040  0.34117040  0.50000000  1.0
  Ge  Ge26  1  0.34117040  0.00000000  0.50000000  1.0
  Ge  Ge27  1  0.67512830  0.67512830  0.00000000  1.0
  Ge  Ge28  1  0.67512830  0.00000000  0.00000000  1.0
  Ge  Ge29  1  -0.00000000  0.67512830  -0.00000000  1.0
  Ge  Ge30  1  0.00000000  0.32487170  0.00000000  1.0
  Ge  Ge31  1  0.32487170  0.32487170  -0.00000000  1.0
  Ge  Ge32  1  0.32487170  -0.00000000  0.00000000  1.0
  Ge  Ge33  1  0.33333333  0.66666667  0.83812480  1.0
  Ge  Ge34  1  0.33333333  0.66666667  0.16187520  1.0
  Ge  Ge35  1  0.66666667  0.33333333  0.83812480  1.0
  Ge  Ge36  1  0.66666667  0.33333333  0.16187520  1.0
  Ge  Ge37  1  0.00000000  0.00000000  0.66075721  1.0
  Ge  Ge38  1  -0.00000000  -0.00000000  0.33924279  1.0
