# generated using pymatgen
data_NaWO4
_symmetry_space_group_name_H-M   'P 1'
_cell_length_a   6.11003818
_cell_length_b   8.82565081
_cell_length_c   7.23138011
_cell_angle_alpha   110.34253282
_cell_angle_beta   101.37055631
_cell_angle_gamma   96.91224858
_symmetry_Int_Tables_number   1
_chemical_formula_structural   NaWO4
_chemical_formula_sum   'Na4 W4 O16'
_cell_volume   350.80612596
_cell_formula_units_Z   4
loop_
 _symmetry_equiv_pos_site_id
 _symmetry_equiv_pos_as_xyz
  1  'x, y, z'
loop_
 _atom_site_type_symbol
 _atom_site_label
 _atom_site_symmetry_multiplicity
 _atom_site_fract_x
 _atom_site_fract_y
 _atom_site_fract_z
 _atom_site_occupancy
  W  W0  1  -0.74287616  -0.14903436  -0.65623308  1.0
  W  W1  1  -0.25712384  -0.85096564  -0.34376692  1.0
  W  W2  1  -0.71863982  -0.73095386  -0.49451162  1.0
  W  W3  1  -0.28136018  -0.26904614  -0.50548838  1.0
  O  O4  1  -0.98863431  -0.18645539  -0.54714921  1.0
  O  O5  1  -0.01136569  -0.81354461  -0.45285079  1.0
  O  O6  1  -0.82797663  -0.64994377  -0.67692629  1.0
  O  O7  1  -0.17202337  -0.35005623  -0.32307371  1.0
  O  O8  1  -0.83093716  -0.31701513  -0.89521195  1.0
  O  O9  1  -0.16906284  -0.68298487  -0.10478805  1.0
  O  O10  1  -0.81051218  -0.97909507  -0.72702969  1.0
  O  O11  1  -0.18948783  -0.02090493  -0.27297031  1.0
  O  O12  1  -0.41796064  -0.74168710  -0.52689989  1.0
  O  O13  1  -0.58203936  -0.25831290  -0.47310011  1.0
  O  O14  1  -0.35353594  -0.44262467  -0.74314299  1.0
  O  O15  1  -0.64646406  -0.55737533  -0.25685701  1.0
  O  O16  1  -0.58212358  -0.82496200  -1.04383557  1.0
  O  O17  1  -0.41787642  -0.17503800  0.04383557  1.0
  O  O18  1  -0.58828975  -0.90647092  -0.35918458  1.0
  O  O19  1  -0.41171025  -0.09352908  -0.64081542  1.0
  Na  Na20  1  -0.74941904  -0.58620777  -0.95380065  1.0
  Na  Na21  1  -0.25058096  -0.41379223  -0.04619935  1.0
  Na  Na22  1  -0.23591023  -0.71428182  -0.78011053  1.0
  Na  Na23  1  -0.76408977  -0.28571818  -0.21988947  1.0
