# generated using pymatgen
data_Cd5Rh2
_symmetry_space_group_name_H-M   'P 1'
_cell_length_a   5.72935118
_cell_length_b   10.77156436
_cell_length_c   4.41760023
_cell_angle_alpha   90.00000000
_cell_angle_beta   90.00000000
_cell_angle_gamma   90.00000000
_symmetry_Int_Tables_number   1
_chemical_formula_structural   Cd5Rh2
_chemical_formula_sum   'Cd10 Rh4'
_cell_volume   272.62811233
_cell_formula_units_Z   2
loop_
 _symmetry_equiv_pos_site_id
 _symmetry_equiv_pos_as_xyz
  1  'x, y, z'
loop_
 _atom_site_type_symbol
 _atom_site_label
 _atom_site_symmetry_multiplicity
 _atom_site_fract_x
 _atom_site_fract_y
 _atom_site_fract_z
 _atom_site_occupancy
  Cd  Cd0  1  0.50000000  0.00000000  0.00000000  1.0
  Cd  Cd1  1  0.00000000  0.50000000  0.00000000  1.0
  Cd  Cd2  1  0.89624570  0.22337303  -0.00000000  1.0
  Cd  Cd3  1  0.10375430  0.77662697  -0.00000000  1.0
  Cd  Cd4  1  0.39624570  0.27662697  -0.00000000  1.0
  Cd  Cd5  1  0.60375430  0.72337303  -0.00000000  1.0
  Cd  Cd6  1  0.66444602  0.40271308  0.50000000  1.0
  Cd  Cd7  1  0.33555398  0.59728692  0.50000000  1.0
  Cd  Cd8  1  0.16444602  0.09728692  0.50000000  1.0
  Cd  Cd9  1  0.83555398  0.90271308  0.50000000  1.0
  Rh  Rh10  1  0.64151903  0.14480798  0.50000000  1.0
  Rh  Rh11  1  0.35848097  0.85519202  0.50000000  1.0
  Rh  Rh12  1  0.14151903  0.35519202  0.50000000  1.0
  Rh  Rh13  1  0.85848097  0.64480798  0.50000000  1.0
