# generated using pymatgen
data_LiSiBO4
_symmetry_space_group_name_H-M   'P 1'
_cell_length_a   4.66350093
_cell_length_b   4.66350093
_cell_length_c   4.66350093
_cell_angle_alpha   123.13821834
_cell_angle_beta   123.13821834
_cell_angle_gamma   84.64529441
_symmetry_Int_Tables_number   1
_chemical_formula_structural   LiSiBO4
_chemical_formula_sum   'Li1 Si1 B1 O4'
_cell_volume   67.99054699
_cell_formula_units_Z   1
loop_
 _symmetry_equiv_pos_site_id
 _symmetry_equiv_pos_as_xyz
  1  'x, y, z'
loop_
 _atom_site_type_symbol
 _atom_site_label
 _atom_site_symmetry_multiplicity
 _atom_site_fract_x
 _atom_site_fract_y
 _atom_site_fract_z
 _atom_site_occupancy
  Li  Li0  1  0.50000000  0.50000000  1.00000000  1.0
  Si  Si1  1  0.00000000  0.00000000  0.00000000  1.0
  B  B2  1  0.25000000  0.75000000  0.50000000  1.0
  O  O3  1  1.14437447  1.02527992  1.42603836  1.0
  O  O4  1  0.59924156  0.71833611  0.57396164  1.0
  O  O5  1  0.28166389  0.85562553  0.88090545  1.0
  O  O6  1  0.97472008  0.40075844  1.11909455  1.0
