# generated using pymatgen
data_H3CN4
_symmetry_space_group_name_H-M   'P 1'
_cell_length_a   4.64059823
_cell_length_b   5.37692568
_cell_length_c   12.34450619
_cell_angle_alpha   90.00000000
_cell_angle_beta   91.11306666
_cell_angle_gamma   90.00000000
_symmetry_Int_Tables_number   1
_chemical_formula_structural   H3CN4
_chemical_formula_sum   'H12 C4 N16'
_cell_volume   307.96387064
_cell_formula_units_Z   4
loop_
 _symmetry_equiv_pos_site_id
 _symmetry_equiv_pos_as_xyz
  1  'x, y, z'
loop_
 _atom_site_type_symbol
 _atom_site_label
 _atom_site_symmetry_multiplicity
 _atom_site_fract_x
 _atom_site_fract_y
 _atom_site_fract_z
 _atom_site_occupancy
  H  H0  1  0.91100566  0.95024159  0.78827539  1.0
  H  H1  1  0.91100566  0.54975841  0.28827539  1.0
  H  H2  1  0.08899434  0.45024159  0.71172461  1.0
  H  H3  1  0.08899434  0.04975841  0.21172461  1.0
  H  H4  1  0.78935417  0.47569333  0.85956828  1.0
  H  H5  1  0.78935417  1.02430667  0.35956828  1.0
  H  H6  1  0.21064583  -0.02430667  0.64043172  1.0
  H  H7  1  0.21064583  0.52430667  0.14043172  1.0
  H  H8  1  0.11250024  0.54617105  0.90731511  1.0
  H  H9  1  0.11250024  0.95382895  0.40731511  1.0
  H  H10  1  0.88749976  0.04617105  0.59268489  1.0
  H  H11  1  0.88749976  0.45382895  0.09268489  1.0
  C  C12  1  0.68448339  0.92042467  0.93008898  1.0
  C  C13  1  0.68448339  0.57957533  0.43008898  1.0
  C  C14  1  0.31551661  0.42042467  0.56991102  1.0
  C  C15  1  0.31551661  0.07957533  0.06991102  1.0
  N  N16  1  0.96298294  0.59184325  0.84810132  1.0
  N  N17  1  0.96298294  0.90815675  0.34810132  1.0
  N  N18  1  0.03701706  0.09184325  0.65189868  1.0
  N  N19  1  0.03701706  0.40815675  0.15189868  1.0
  N  N20  1  0.87969227  0.84261917  0.85679588  1.0
  N  N21  1  0.87969227  0.65738083  0.35679588  1.0
  N  N22  1  0.12030773  0.34261917  0.64320412  1.0
  N  N23  1  0.12030773  0.15738083  0.14320412  1.0
  N  N24  1  0.61657564  0.73139941  0.51374435  1.0
  N  N25  1  0.61657564  0.76860059  0.01374435  1.0
  N  N26  1  0.38342436  0.23139941  0.98625565  1.0
  N  N27  1  0.38342436  0.26860059  0.48625565  1.0
  N  N28  1  0.43029998  0.65102842  0.58429527  1.0
  N  N29  1  0.43029998  0.84897158  0.08429527  1.0
  N  N30  1  0.56970002  0.15102842  0.91570473  1.0
  N  N31  1  0.56970002  0.34897158  0.41570473  1.0
