# generated using pymatgen
data_Mo9Se11
_symmetry_space_group_name_H-M   'P 1'
_cell_length_a   9.56738811
_cell_length_b   9.56738811
_cell_length_c   12.22760527
_cell_angle_alpha   90.00000000
_cell_angle_beta   90.00000000
_cell_angle_gamma   120.00000000
_symmetry_Int_Tables_number   1
_chemical_formula_structural   Mo9Se11
_chemical_formula_sum   'Mo18 Se22'
_cell_volume   969.30136844
_cell_formula_units_Z   2
loop_
 _symmetry_equiv_pos_site_id
 _symmetry_equiv_pos_as_xyz
  1  'x, y, z'
loop_
 _atom_site_type_symbol
 _atom_site_label
 _atom_site_symmetry_multiplicity
 _atom_site_fract_x
 _atom_site_fract_y
 _atom_site_fract_z
 _atom_site_occupancy
  Mo  Mo0  1  0.64538623  0.48310310  0.43889344  1.0
  Mo  Mo1  1  0.64538623  0.48310310  0.06110656  1.0
  Mo  Mo2  1  0.48310310  0.83771686  0.93889344  1.0
  Mo  Mo3  1  0.48310310  0.83771686  0.56110656  1.0
  Mo  Mo4  1  0.83771686  0.35461377  0.43889344  1.0
  Mo  Mo5  1  0.83771686  0.35461377  0.06110656  1.0
  Mo  Mo6  1  0.51689690  0.16228314  0.43889344  1.0
  Mo  Mo7  1  0.51689690  0.16228314  0.06110656  1.0
  Mo  Mo8  1  0.35461377  0.51689690  0.93889344  1.0
  Mo  Mo9  1  0.35461377  0.51689690  0.56110656  1.0
  Mo  Mo10  1  0.16228314  0.64538623  0.93889344  1.0
  Mo  Mo11  1  0.16228314  0.64538623  0.56110656  1.0
  Mo  Mo12  1  0.82155098  0.50126263  0.25000000  1.0
  Mo  Mo13  1  0.50126263  0.67971165  0.75000000  1.0
  Mo  Mo14  1  0.67971165  0.17844902  0.25000000  1.0
  Mo  Mo15  1  0.49873737  0.32028835  0.25000000  1.0
  Mo  Mo16  1  0.17844902  0.49873737  0.75000000  1.0
  Mo  Mo17  1  0.32028835  0.82155098  0.75000000  1.0
  Se  Se18  1  0.96023416  0.66435295  0.42189482  1.0
  Se  Se19  1  0.96023416  0.66435295  0.07810518  1.0
  Se  Se20  1  0.66435295  0.70411879  0.92189482  1.0
  Se  Se21  1  0.66435295  0.70411879  0.57810518  1.0
  Se  Se22  1  0.70411879  0.03976584  0.42189482  1.0
  Se  Se23  1  0.70411879  0.03976584  0.07810518  1.0
  Se  Se24  1  0.33564705  0.29588121  0.42189482  1.0
  Se  Se25  1  0.33564705  0.29588121  0.07810518  1.0
  Se  Se26  1  0.03976584  0.33564705  0.92189482  1.0
  Se  Se27  1  0.03976584  0.33564705  0.57810518  1.0
  Se  Se28  1  0.29588121  0.96023416  0.92189482  1.0
  Se  Se29  1  0.29588121  0.96023416  0.57810518  1.0
  Se  Se30  1  0.63845929  0.62995993  0.25000000  1.0
  Se  Se31  1  0.62995993  0.99150064  0.75000000  1.0
  Se  Se32  1  0.99150064  0.36154071  0.25000000  1.0
  Se  Se33  1  0.37004007  0.00849936  0.25000000  1.0
  Se  Se34  1  0.36154071  0.37004007  0.75000000  1.0
  Se  Se35  1  0.00849936  0.63845929  0.75000000  1.0
  Se  Se36  1  0.33333333  0.66666667  0.39683599  1.0
  Se  Se37  1  0.33333333  0.66666667  0.10316401  1.0
  Se  Se38  1  0.66666667  0.33333333  0.89683599  1.0
  Se  Se39  1  0.66666667  0.33333333  0.60316401  1.0
