# generated using pymatgen
data_Li2PdF6
_symmetry_space_group_name_H-M   'P 1'
_cell_length_a   4.71226627
_cell_length_b   4.71587649
_cell_length_c   10.33063569
_cell_angle_alpha   90.00000000
_cell_angle_beta   117.11615090
_cell_angle_gamma   90.00000000
_symmetry_Int_Tables_number   1
_chemical_formula_structural   Li2PdF6
_chemical_formula_sum   'Li4 Pd2 F12'
_cell_volume   204.33862171
_cell_formula_units_Z   2
loop_
 _symmetry_equiv_pos_site_id
 _symmetry_equiv_pos_as_xyz
  1  'x, y, z'
loop_
 _atom_site_type_symbol
 _atom_site_label
 _atom_site_symmetry_multiplicity
 _atom_site_fract_x
 _atom_site_fract_y
 _atom_site_fract_z
 _atom_site_occupancy
  Li  Li0  1  0.66409547  0.49997729  0.16393002  1.0
  Li  Li1  1  0.66409547  0.00002271  0.66393002  1.0
  Li  Li2  1  0.33590453  0.99997729  0.33606998  1.0
  Li  Li3  1  0.33590453  0.50002271  0.83606998  1.0
  Pd  Pd4  1  -0.00000000  0.50000000  0.50000000  1.0
  Pd  Pd5  1  -0.00000000  0.00000000  -0.00000000  1.0
  F  F6  1  0.96687694  0.19140559  0.15940753  1.0
  F  F7  1  0.96687694  0.30859441  0.65940753  1.0
  F  F8  1  0.03312306  0.69140559  0.34059247  1.0
  F  F9  1  0.03312306  0.80859441  0.84059247  1.0
  F  F10  1  0.64837215  0.30839735  0.34066292  1.0
  F  F11  1  0.64837215  0.19160265  0.84066292  1.0
  F  F12  1  0.35162785  0.80839735  0.15933708  1.0
  F  F13  1  0.35162785  0.69160265  0.65933708  1.0
  F  F14  1  0.29161188  0.20751645  0.50003927  1.0
  F  F15  1  0.29161188  0.29248355  1.00003927  1.0
  F  F16  1  0.70838812  0.70751645  -0.00003927  1.0
  F  F17  1  0.70838812  0.79248355  0.49996073  1.0
