# generated using pymatgen
data_ReCl4
_symmetry_space_group_name_H-M   'P 1'
_cell_length_a   6.41339480
_cell_length_b   7.00215698
_cell_length_c   13.61545486
_cell_angle_alpha   90.00000000
_cell_angle_beta   92.65890438
_cell_angle_gamma   90.00000000
_symmetry_Int_Tables_number   1
_chemical_formula_structural   ReCl4
_chemical_formula_sum   'Re4 Cl16'
_cell_volume   610.77909189
_cell_formula_units_Z   4
loop_
 _symmetry_equiv_pos_site_id
 _symmetry_equiv_pos_as_xyz
  1  'x, y, z'
loop_
 _atom_site_type_symbol
 _atom_site_label
 _atom_site_symmetry_multiplicity
 _atom_site_fract_x
 _atom_site_fract_y
 _atom_site_fract_z
 _atom_site_occupancy
  Re  Re0  1  0.68267661  0.78822960  0.30631732  1.0
  Re  Re1  1  0.68267661  0.21177040  0.80631732  1.0
  Re  Re2  1  0.31732339  0.78822960  0.19368268  1.0
  Re  Re3  1  0.31732339  0.21177040  0.69368268  1.0
  Cl  Cl4  1  0.63426148  0.91743185  0.14083009  1.0
  Cl  Cl5  1  0.63426148  0.08256815  0.64083009  1.0
  Cl  Cl6  1  0.36573852  0.91743185  0.35916991  1.0
  Cl  Cl7  1  0.36573852  0.08256815  0.85916991  1.0
  Cl  Cl8  1  0.50000000  0.50063975  0.25000000  1.0
  Cl  Cl9  1  0.50000000  0.49936025  0.75000000  1.0
  Cl  Cl10  1  -0.00000000  0.63381544  0.25000000  1.0
  Cl  Cl11  1  -0.00000000  0.36618456  0.75000000  1.0
  Cl  Cl12  1  0.85376086  0.93998504  0.85485030  1.0
  Cl  Cl13  1  0.85376086  0.06001496  0.35485030  1.0
  Cl  Cl14  1  0.14623914  0.93998504  0.64514970  1.0
  Cl  Cl15  1  0.14623914  0.06001496  0.14514970  1.0
  Cl  Cl16  1  0.74508689  0.64532333  0.45522050  1.0
  Cl  Cl17  1  0.74508689  0.35467667  0.95522050  1.0
  Cl  Cl18  1  0.25491311  0.64532333  0.04477950  1.0
  Cl  Cl19  1  0.25491311  0.35467667  0.54477950  1.0
