# generated using pymatgen
data_Ca(As2Rh3)2
_symmetry_space_group_name_H-M   'P 1'
_cell_length_a   7.28571734
_cell_length_b   7.28571734
_cell_length_c   3.80883846
_cell_angle_alpha   90.00000000
_cell_angle_beta   90.00000000
_cell_angle_gamma   120.00000000
_symmetry_Int_Tables_number   1
_chemical_formula_structural   Ca(As2Rh3)2
_chemical_formula_sum   'Ca1 As4 Rh6'
_cell_volume   175.09261237
_cell_formula_units_Z   1
loop_
 _symmetry_equiv_pos_site_id
 _symmetry_equiv_pos_as_xyz
  1  'x, y, z'
loop_
 _atom_site_type_symbol
 _atom_site_label
 _atom_site_symmetry_multiplicity
 _atom_site_fract_x
 _atom_site_fract_y
 _atom_site_fract_z
 _atom_site_occupancy
  Ca  Ca0  1  -0.00000000  -0.00000000  -0.00000000  1.0
  As  As1  1  0.37738347  0.18869173  0.50000000  1.0
  As  As2  1  0.81130827  0.18869173  0.50000000  1.0
  As  As3  1  0.81130827  0.62261653  0.50000000  1.0
  As  As4  1  0.33333333  0.66666667  -0.00000000  1.0
  Rh  Rh5  1  0.59982946  0.79991473  0.50000000  1.0
  Rh  Rh6  1  0.20008527  0.79991473  0.50000000  1.0
  Rh  Rh7  1  0.20008527  0.40017054  0.50000000  1.0
  Rh  Rh8  1  0.92973318  0.46486659  0.00000000  1.0
  Rh  Rh9  1  0.53513341  0.46486659  -0.00000000  1.0
  Rh  Rh10  1  0.53513341  0.07026682  -0.00000000  1.0
