# generated using pymatgen
data_Nb2CS2
_symmetry_space_group_name_H-M   'P 1'
_cell_length_a   9.50901027
_cell_length_b   9.50901027
_cell_length_c   9.50901027
_cell_angle_alpha   19.86605326
_cell_angle_beta   19.86605326
_cell_angle_gamma   19.86605326
_symmetry_Int_Tables_number   1
_chemical_formula_structural   Nb2CS2
_chemical_formula_sum   'Nb2 C1 S2'
_cell_volume   86.84976731
_cell_formula_units_Z   1
loop_
 _symmetry_equiv_pos_site_id
 _symmetry_equiv_pos_as_xyz
  1  'x, y, z'
loop_
 _atom_site_type_symbol
 _atom_site_label
 _atom_site_symmetry_multiplicity
 _atom_site_fract_x
 _atom_site_fract_y
 _atom_site_fract_z
 _atom_site_occupancy
  Nb  Nb0  1  1.62397946  0.62397946  0.62397946  1.0
  Nb  Nb1  1  1.37602054  0.37602054  0.37602054  1.0
  C  C2  1  0.00000000  -0.00000000  0.00000000  1.0
  S  S3  1  0.76794594  0.76794594  0.76794594  1.0
  S  S4  1  1.23205406  1.23205406  0.23205406  1.0
