# generated using pymatgen
data_Li2ZnGeO4
_symmetry_space_group_name_H-M   'P 1'
_cell_length_a   5.10862058
_cell_length_b   5.48826471
_cell_length_c   8.19843601
_cell_angle_alpha   90.00000000
_cell_angle_beta   128.77244022
_cell_angle_gamma   90.00000000
_symmetry_Int_Tables_number   1
_chemical_formula_structural   Li2ZnGeO4
_chemical_formula_sum   'Li4 Zn2 Ge2 O8'
_cell_volume   179.21048685
_cell_formula_units_Z   2
loop_
 _symmetry_equiv_pos_site_id
 _symmetry_equiv_pos_as_xyz
  1  'x, y, z'
loop_
 _atom_site_type_symbol
 _atom_site_label
 _atom_site_symmetry_multiplicity
 _atom_site_fract_x
 _atom_site_fract_y
 _atom_site_fract_z
 _atom_site_occupancy
  Li  Li0  1  0.50787090  0.82890861  0.00404614  1.0
  Li  Li1  1  0.50787090  0.17109139  0.50404614  1.0
  Li  Li2  1  0.25657615  0.66199424  0.25351446  1.0
  Li  Li3  1  0.25657615  0.33800576  0.75351446  1.0
  Zn  Zn4  1  0.00631586  0.16606334  0.00154484  1.0
  Zn  Zn5  1  0.00631586  0.83393666  0.50154484  1.0
  Ge  Ge6  1  0.76146384  0.33110297  0.25336879  1.0
  Ge  Ge7  1  0.76146384  0.66889703  0.75336879  1.0
  O  O8  1  0.87521016  0.17840791  0.48237886  1.0
  O  O9  1  0.87521016  0.82159209  0.98237886  1.0
  O  O10  1  0.64665631  0.63822408  0.25316443  1.0
  O  O11  1  0.64665631  0.36177592  0.75316443  1.0
  O  O12  1  0.41895501  0.17784535  0.02346910  1.0
  O  O13  1  0.41895501  0.82215465  0.52346910  1.0
  O  O14  1  0.11095177  0.32505186  0.25351338  1.0
  O  O15  1  0.11095177  0.67494814  0.75351338  1.0
