# generated using pymatgen
data_Nb4VS8
_symmetry_space_group_name_H-M   'P 1'
_cell_length_a   6.67252514
_cell_length_b   6.67252514
_cell_length_c   12.23715234
_cell_angle_alpha   90.00000000
_cell_angle_beta   90.00000000
_cell_angle_gamma   120.00000000
_symmetry_Int_Tables_number   1
_chemical_formula_structural   Nb4VS8
_chemical_formula_sum   'Nb8 V2 S16'
_cell_volume   471.83639318
_cell_formula_units_Z   2
loop_
 _symmetry_equiv_pos_site_id
 _symmetry_equiv_pos_as_xyz
  1  'x, y, z'
loop_
 _atom_site_type_symbol
 _atom_site_label
 _atom_site_symmetry_multiplicity
 _atom_site_fract_x
 _atom_site_fract_y
 _atom_site_fract_z
 _atom_site_occupancy
  Nb  Nb0  1  0.00000000  0.00000000  0.25000000  1.0
  Nb  Nb1  1  0.00000000  0.00000000  0.75000000  1.0
  Nb  Nb2  1  0.50507923  0.49492077  0.25000000  1.0
  Nb  Nb3  1  0.50507923  0.01015846  0.25000000  1.0
  Nb  Nb4  1  -0.01015846  0.49492077  0.25000000  1.0
  Nb  Nb5  1  0.49492077  0.50507923  0.75000000  1.0
  Nb  Nb6  1  0.49492077  -0.01015846  0.75000000  1.0
  Nb  Nb7  1  0.01015846  0.50507923  0.75000000  1.0
  V  V8  1  0.00000000  0.00000000  0.50000000  1.0
  V  V9  1  0.00000000  0.00000000  0.00000000  1.0
  S  S10  1  0.33333333  0.66666667  0.87997901  1.0
  S  S11  1  0.66666667  0.33333333  0.12002099  1.0
  S  S12  1  0.66666667  0.33333333  0.37997901  1.0
  S  S13  1  0.33333333  0.66666667  0.62002099  1.0
  S  S14  1  0.16583845  0.83416155  0.37848239  1.0
  S  S15  1  0.16583845  0.33167689  0.37848239  1.0
  S  S16  1  0.66832311  0.83416155  0.37848239  1.0
  S  S17  1  0.83416155  0.16583845  0.62151761  1.0
  S  S18  1  0.83416155  0.66832311  0.62151761  1.0
  S  S19  1  0.33167689  0.16583845  0.62151761  1.0
  S  S20  1  0.83416155  0.16583845  0.87848239  1.0
  S  S21  1  0.83416155  0.66832311  0.87848239  1.0
  S  S22  1  0.33167689  0.16583845  0.87848239  1.0
  S  S23  1  0.16583845  0.83416155  0.12151761  1.0
  S  S24  1  0.16583845  0.33167689  0.12151761  1.0
  S  S25  1  0.66832311  0.83416155  0.12151761  1.0
