# generated using pymatgen
data_Y2Co3Si5
_symmetry_space_group_name_H-M   'P 1'
_cell_length_a   7.88056116
_cell_length_b   7.88056116
_cell_length_c   7.88056116
_cell_angle_alpha   105.52954395
_cell_angle_beta   88.72720789
_cell_angle_gamma   138.97972355
_symmetry_Int_Tables_number   1
_chemical_formula_structural   Y2Co3Si5
_chemical_formula_sum   'Y4 Co6 Si10'
_cell_volume   296.71321186
_cell_formula_units_Z   2
loop_
 _symmetry_equiv_pos_site_id
 _symmetry_equiv_pos_as_xyz
  1  'x, y, z'
loop_
 _atom_site_type_symbol
 _atom_site_label
 _atom_site_symmetry_multiplicity
 _atom_site_fract_x
 _atom_site_fract_y
 _atom_site_fract_z
 _atom_site_occupancy
  Y  Y0  1  0.63407693  0.73324027  0.36731721  1.0
  Y  Y1  1  0.86592307  0.23324027  1.09916334  1.0
  Y  Y2  1  0.13407693  0.76675973  0.90083666  1.0
  Y  Y3  1  1.36592307  1.26675973  1.63268279  1.0
  Co  Co4  1  0.86182749  0.89188372  0.75371121  1.0
  Co  Co5  1  0.63817251  0.39188372  1.03005622  1.0
  Co  Co6  1  0.36182749  0.60811628  0.96994378  1.0
  Co  Co7  1  1.13817251  1.10811628  1.24628879  1.0
  Co  Co8  1  0.75000000  1.25000000  0.50000000  1.0
  Co  Co9  1  0.25000000  0.75000000  0.50000000  1.0
  Si  Si10  1  0.89937631  0.65894016  1.55831647  1.0
  Si  Si11  1  0.60062369  1.15894016  0.75956385  1.0
  Si  Si12  1  1.39937631  0.84105984  1.24043615  1.0
  Si  Si13  1  0.10062369  0.34105984  0.44168353  1.0
  Si  Si14  1  0.47620702  0.75000000  0.72620702  1.0
  Si  Si15  1  0.97620702  1.25000000  0.72620702  1.0
  Si  Si16  1  1.52379298  1.25000000  1.27379298  1.0
  Si  Si17  1  1.02379298  0.75000000  1.27379298  1.0
  Si  Si18  1  0.75000000  0.75000000  0.00000000  1.0
  Si  Si19  1  0.25000000  0.25000000  -0.00000000  1.0
