# generated using pymatgen
data_RbVSO6
_symmetry_space_group_name_H-M   'P 1'
_cell_length_a   5.54949408
_cell_length_b   9.45229499
_cell_length_c   11.30165536
_cell_angle_alpha   90.00000000
_cell_angle_beta   90.00000000
_cell_angle_gamma   90.00000000
_symmetry_Int_Tables_number   1
_chemical_formula_structural   RbVSO6
_chemical_formula_sum   'Rb4 V4 S4 O24'
_cell_volume   592.83347537
_cell_formula_units_Z   4
loop_
 _symmetry_equiv_pos_site_id
 _symmetry_equiv_pos_as_xyz
  1  'x, y, z'
loop_
 _atom_site_type_symbol
 _atom_site_label
 _atom_site_symmetry_multiplicity
 _atom_site_fract_x
 _atom_site_fract_y
 _atom_site_fract_z
 _atom_site_occupancy
  Rb  Rb0  1  -0.00696738  0.67000601  0.65284291  1.0
  Rb  Rb1  1  0.49303262  0.82999399  0.34715709  1.0
  Rb  Rb2  1  1.00696738  0.17000601  0.84715709  1.0
  Rb  Rb3  1  0.50696738  0.32999399  0.15284291  1.0
  V  V4  1  0.47257540  0.34489449  0.55682546  1.0
  V  V5  1  0.97257540  0.15510551  0.44317454  1.0
  V  V6  1  0.52742460  0.84489449  0.94317454  1.0
  V  V7  1  0.02742460  0.65510551  0.05682546  1.0
  S  S8  1  0.48598765  0.93138598  0.71636111  1.0
  S  S9  1  0.98598765  0.56861402  0.28363889  1.0
  S  S10  1  0.51401235  0.43138598  0.78363889  1.0
  S  S11  1  0.01401235  0.06861402  0.21636111  1.0
  O  O12  1  0.47472039  0.84204887  0.61072157  1.0
  O  O13  1  0.97472039  0.65795113  0.38927843  1.0
  O  O14  1  0.52527961  0.34204887  0.88927843  1.0
  O  O15  1  0.02527961  0.15795113  0.11072157  1.0
  O  O16  1  0.30134568  0.74432723  0.01222958  1.0
  O  O17  1  0.80134568  0.75567277  0.98777042  1.0
  O  O18  1  0.69865432  0.24432723  0.48777042  1.0
  O  O19  1  0.19865432  0.25567277  0.51222958  1.0
  O  O20  1  0.28800180  0.39733992  0.70904513  1.0
  O  O21  1  0.78800180  0.10266008  0.29095487  1.0
  O  O22  1  0.71199820  0.89733992  0.79095487  1.0
  O  O23  1  0.21199820  0.60266008  0.20904513  1.0
  O  O24  1  0.29519871  0.88381971  0.80858237  1.0
  O  O25  1  0.79519871  0.61618029  0.19141763  1.0
  O  O26  1  0.70480129  0.38381971  0.69141763  1.0
  O  O27  1  0.20480129  0.11618029  0.30858237  1.0
  O  O28  1  0.03451381  0.91705641  0.19439562  1.0
  O  O29  1  0.53451381  0.58294359  0.80560438  1.0
  O  O30  1  0.96548619  0.41705641  0.30560438  1.0
  O  O31  1  0.46548619  0.08294359  0.69439562  1.0
  O  O32  1  0.96810190  1.00747145  0.51188483  1.0
  O  O33  1  0.46810190  0.49252855  0.48811517  1.0
  O  O34  1  0.03189810  0.50747145  0.98811517  1.0
  O  O35  1  0.53189810  -0.00747145  0.01188483  1.0
