# generated using pymatgen
data_K3AsSe3
_symmetry_space_group_name_H-M   'P 1'
_cell_length_a   9.88911480
_cell_length_b   9.88911480
_cell_length_c   9.88911480
_cell_angle_alpha   90.00000000
_cell_angle_beta   90.00000000
_cell_angle_gamma   90.00000000
_symmetry_Int_Tables_number   1
_chemical_formula_structural   K3AsSe3
_chemical_formula_sum   'K12 As4 Se12'
_cell_volume   967.10194246
_cell_formula_units_Z   4
loop_
 _symmetry_equiv_pos_site_id
 _symmetry_equiv_pos_as_xyz
  1  'x, y, z'
loop_
 _atom_site_type_symbol
 _atom_site_label
 _atom_site_symmetry_multiplicity
 _atom_site_fract_x
 _atom_site_fract_y
 _atom_site_fract_z
 _atom_site_occupancy
  K  K0  1  0.43725937  0.93725937  0.56274063  1.0
  K  K1  1  0.93725937  0.56274063  0.43725937  1.0
  K  K2  1  0.56274063  0.43725937  0.93725937  1.0
  K  K3  1  0.06274063  0.06274063  0.06274063  1.0
  K  K4  1  0.93360066  0.43360066  0.06639934  1.0
  K  K5  1  0.43360066  0.06639934  0.93360066  1.0
  K  K6  1  0.06639934  0.93360066  0.43360066  1.0
  K  K7  1  0.56639934  0.56639934  0.56639934  1.0
  K  K8  1  0.67053158  0.17053158  0.32946842  1.0
  K  K9  1  0.17053158  0.32946842  0.67053158  1.0
  K  K10  1  0.32946842  0.67053158  0.17053158  1.0
  K  K11  1  0.82946842  0.82946842  0.82946842  1.0
  As  As12  1  0.22773124  0.72773124  0.77226876  1.0
  As  As13  1  0.72773124  0.77226876  0.22773124  1.0
  As  As14  1  0.77226876  0.22773124  0.72773124  1.0
  As  As15  1  0.27226876  0.27226876  0.27226876  1.0
  Se  Se16  1  0.46132495  0.74528080  0.84892305  1.0
  Se  Se17  1  0.96132495  0.75471920  0.15107695  1.0
  Se  Se18  1  0.24528080  0.65107695  0.53867505  1.0
  Se  Se19  1  0.74528080  0.84892305  0.46132495  1.0
  Se  Se20  1  0.15107695  0.96132495  0.75471920  1.0
  Se  Se21  1  0.65107695  0.53867505  0.24528080  1.0
  Se  Se22  1  0.53867505  0.24528080  0.65107695  1.0
  Se  Se23  1  0.03867505  0.25471920  0.34892305  1.0
  Se  Se24  1  0.75471920  0.15107695  0.96132495  1.0
  Se  Se25  1  0.25471920  0.34892305  0.03867505  1.0
  Se  Se26  1  0.84892305  0.46132495  0.74528080  1.0
  Se  Se27  1  0.34892305  0.03867505  0.25471920  1.0
