# generated using pymatgen
data_ZnCdTe2
_symmetry_space_group_name_H-M   'P 1'
_cell_length_a   7.80737937
_cell_length_b   7.80737937
_cell_length_c   7.80737937
_cell_angle_alpha   131.42728521
_cell_angle_beta   131.42728521
_cell_angle_gamma   71.13508571
_symmetry_Int_Tables_number   1
_chemical_formula_structural   ZnCdTe2
_chemical_formula_sum   'Zn2 Cd2 Te4'
_cell_volume   261.94374065
_cell_formula_units_Z   2
loop_
 _symmetry_equiv_pos_site_id
 _symmetry_equiv_pos_as_xyz
  1  'x, y, z'
loop_
 _atom_site_type_symbol
 _atom_site_label
 _atom_site_symmetry_multiplicity
 _atom_site_fract_x
 _atom_site_fract_y
 _atom_site_fract_z
 _atom_site_occupancy
  Zn  Zn0  1  1.00000000  1.00000000  1.00000000  1.0
  Zn  Zn1  1  0.75000000  0.25000000  0.50000000  1.0
  Cd  Cd2  1  0.50000000  0.50000000  -0.00000000  1.0
  Cd  Cd3  1  0.25000000  0.75000000  0.50000000  1.0
  Te  Te4  1  1.37500000  0.89835487  1.02335487  1.0
  Te  Te5  1  0.87500000  1.35164513  0.97664513  1.0
  Te  Te6  1  0.64835487  0.62500000  0.52335487  1.0
  Te  Te7  1  1.10164513  1.12500000  1.47664513  1.0
