# generated using pymatgen
data_MnSO3
_symmetry_space_group_name_H-M   'P 1'
_cell_length_a   5.44540183
_cell_length_b   12.55862693
_cell_length_c   8.46557789
_cell_angle_alpha   90.00000000
_cell_angle_beta   100.36711987
_cell_angle_gamma   90.00000000
_symmetry_Int_Tables_number   1
_chemical_formula_structural   MnSO3
_chemical_formula_sum   'Mn8 S8 O24'
_cell_volume   569.48238233
_cell_formula_units_Z   8
loop_
 _symmetry_equiv_pos_site_id
 _symmetry_equiv_pos_as_xyz
  1  'x, y, z'
loop_
 _atom_site_type_symbol
 _atom_site_label
 _atom_site_symmetry_multiplicity
 _atom_site_fract_x
 _atom_site_fract_y
 _atom_site_fract_z
 _atom_site_occupancy
  Mn  Mn0  1  0.65902528  0.08469763  0.39198440  1.0
  Mn  Mn1  1  0.65902528  0.41530237  0.89198440  1.0
  Mn  Mn2  1  0.34097472  0.58469763  0.10801560  1.0
  Mn  Mn3  1  0.34097472  0.91530237  0.60801560  1.0
  Mn  Mn4  1  0.89870944  0.74771063  0.32510614  1.0
  Mn  Mn5  1  0.89870944  0.75228937  0.82510614  1.0
  Mn  Mn6  1  0.10129056  0.24771063  0.17489386  1.0
  Mn  Mn7  1  0.10129056  0.25228937  0.67489386  1.0
  S  S8  1  0.50648283  0.32240224  0.50674505  1.0
  S  S9  1  0.50648283  0.17759776  1.00674505  1.0
  S  S10  1  0.49351717  0.82240224  -0.00674505  1.0
  S  S11  1  0.49351717  0.67759776  0.49325495  1.0
  S  S12  1  0.91765421  0.48604921  0.25418732  1.0
  S  S13  1  0.91765421  0.01395079  0.75418732  1.0
  S  S14  1  0.08234579  0.98604921  0.24581268  1.0
  S  S15  1  0.08234579  0.51395079  0.74581268  1.0
  O  O16  1  0.26168208  0.26085039  0.43788739  1.0
  O  O17  1  0.26168208  0.23914961  0.93788739  1.0
  O  O18  1  0.73831792  0.76085039  0.06211261  1.0
  O  O19  1  0.73831792  0.73914961  0.56211261  1.0
  O  O20  1  0.45911386  0.16572030  0.18340006  1.0
  O  O21  1  0.45911386  0.33427970  0.68340006  1.0
  O  O22  1  0.54088614  0.66572030  0.31659994  1.0
  O  O23  1  0.54088614  0.83427970  0.81659994  1.0
  O  O24  1  0.72045698  0.23717392  0.51797144  1.0
  O  O25  1  0.72045698  0.26282608  1.01797144  1.0
  O  O26  1  0.27954302  0.73717392  -0.01797144  1.0
  O  O27  1  0.27954302  0.76282608  0.48202856  1.0
  O  O28  1  0.67335871  0.48850048  0.12492416  1.0
  O  O29  1  0.67335871  0.01149952  0.62492416  1.0
  O  O30  1  0.32664129  0.98850048  0.37507584  1.0
  O  O31  1  0.32664129  0.51149952  0.87507584  1.0
  O  O32  1  0.95878514  0.09850397  0.25583592  1.0
  O  O33  1  0.95878514  0.40149603  0.75583592  1.0
  O  O34  1  0.04121486  0.59850397  0.24416408  1.0
  O  O35  1  0.04121486  0.90149603  0.74416408  1.0
  O  O36  1  0.90363405  0.91744911  0.32795459  1.0
  O  O37  1  0.90363405  0.58255089  0.82795459  1.0
  O  O38  1  0.09636595  0.41744911  0.17204541  1.0
  O  O39  1  0.09636595  0.08255089  0.67204541  1.0
