# generated using pymatgen
data_CuNi2(PO4)2
_symmetry_space_group_name_H-M   'P 1'
_cell_length_a   4.75924395
_cell_length_b   9.52403694
_cell_length_c   8.00909360
_cell_angle_alpha   90.00000000
_cell_angle_beta   126.07197782
_cell_angle_gamma   90.00000000
_symmetry_Int_Tables_number   1
_chemical_formula_structural   CuNi2(PO4)2
_chemical_formula_sum   'Cu2 Ni4 P4 O16'
_cell_volume   293.42907128
_cell_formula_units_Z   2
loop_
 _symmetry_equiv_pos_site_id
 _symmetry_equiv_pos_as_xyz
  1  'x, y, z'
loop_
 _atom_site_type_symbol
 _atom_site_label
 _atom_site_symmetry_multiplicity
 _atom_site_fract_x
 _atom_site_fract_y
 _atom_site_fract_z
 _atom_site_occupancy
  Cu  Cu0  1  -0.00000000  0.50000000  0.50000000  1.0
  Cu  Cu1  1  -0.00000000  0.00000000  -0.00000000  1.0
  Ni  Ni2  1  0.82212245  0.87538760  0.35128141  1.0
  Ni  Ni3  1  0.82212245  0.62461240  0.85128141  1.0
  Ni  Ni4  1  0.17787755  0.37538760  0.14871858  1.0
  Ni  Ni5  1  0.17787755  0.12461240  0.64871859  1.0
  P  P6  1  0.66489720  0.17829722  0.15185240  1.0
  P  P7  1  0.66489720  0.32170278  0.65185240  1.0
  P  P8  1  0.33510280  0.67829722  0.34814760  1.0
  P  P9  1  0.33510280  0.82170278  0.84814760  1.0
  O  O10  1  0.92096295  0.08212942  0.34281300  1.0
  O  O11  1  0.92096295  0.41787058  0.84281300  1.0
  O  O12  1  0.07903705  0.58212942  0.15718700  1.0
  O  O13  1  0.07903705  0.91787058  0.65718700  1.0
  O  O14  1  0.79849972  0.33000384  0.18088603  1.0
  O  O15  1  0.79849972  0.16999616  0.68088603  1.0
  O  O16  1  0.20150028  0.83000384  0.31911397  1.0
  O  O17  1  0.20150028  0.66999616  0.81911397  1.0
  O  O18  1  0.61490821  0.38759001  0.45594161  1.0
  O  O19  1  0.61490821  0.11240999  0.95594161  1.0
  O  O20  1  0.38509179  0.88759001  0.04405839  1.0
  O  O21  1  0.38509179  0.61240999  0.54405839  1.0
  O  O22  1  0.30667317  0.17907388  0.12030321  1.0
  O  O23  1  0.30667317  0.32092612  0.62030321  1.0
  O  O24  1  0.69332683  0.67907388  0.37969679  1.0
  O  O25  1  0.69332683  0.82092612  0.87969679  1.0
