# generated using pymatgen
data_ZrTi2Al
_symmetry_space_group_name_H-M   'P 1'
_cell_length_a   5.90155436
_cell_length_b   5.90155436
_cell_length_c   4.78709878
_cell_angle_alpha   90.00000000
_cell_angle_beta   90.00000000
_cell_angle_gamma   119.13831077
_symmetry_Int_Tables_number   1
_chemical_formula_structural   ZrTi2Al
_chemical_formula_sum   'Zr2 Ti4 Al2'
_cell_volume   145.62692860
_cell_formula_units_Z   2
loop_
 _symmetry_equiv_pos_site_id
 _symmetry_equiv_pos_as_xyz
  1  'x, y, z'
loop_
 _atom_site_type_symbol
 _atom_site_label
 _atom_site_symmetry_multiplicity
 _atom_site_fract_x
 _atom_site_fract_y
 _atom_site_fract_z
 _atom_site_occupancy
  Zr  Zr0  1  0.33592442  0.66407558  0.75000000  1.0
  Zr  Zr1  1  -0.33592442  1.33592442  0.25000000  1.0
  Ti  Ti2  1  -0.15071731  1.68410645  0.75000000  1.0
  Ti  Ti3  1  0.68410645  0.84928269  0.25000000  1.0
  Ti  Ti4  1  0.15071731  0.31589355  0.25000000  1.0
  Ti  Ti5  1  -0.68410645  1.15071731  0.75000000  1.0
  Al  Al6  1  -0.16498712  1.16498712  0.75000000  1.0
  Al  Al7  1  0.16498712  0.83501288  0.25000000  1.0
