# generated using pymatgen
data_LiAsH6(OF2)3
_symmetry_space_group_name_H-M   'P 1'
_cell_length_a   8.60772522
_cell_length_b   8.60772522
_cell_length_c   5.65603555
_cell_angle_alpha   90.00000000
_cell_angle_beta   90.00000000
_cell_angle_gamma   120.00000000
_symmetry_Int_Tables_number   1
_chemical_formula_structural   LiAsH6(OF2)3
_chemical_formula_sum   'Li2 As2 H12 O6 F12'
_cell_volume   362.92722829
_cell_formula_units_Z   2
loop_
 _symmetry_equiv_pos_site_id
 _symmetry_equiv_pos_as_xyz
  1  'x, y, z'
loop_
 _atom_site_type_symbol
 _atom_site_label
 _atom_site_symmetry_multiplicity
 _atom_site_fract_x
 _atom_site_fract_y
 _atom_site_fract_z
 _atom_site_occupancy
  Li  Li0  1  -0.00000000  -0.00000000  0.31660539  1.0
  Li  Li1  1  0.00000000  0.00000000  0.81660539  1.0
  As  As2  1  0.33333333  0.66666667  0.40865144  1.0
  As  As3  1  0.66666667  0.33333333  0.90865144  1.0
  H  H4  1  0.94085442  0.23858030  0.57469074  1.0
  H  H5  1  0.76141970  0.70227412  0.57469074  1.0
  H  H6  1  0.29772588  0.05914558  0.57469074  1.0
  H  H7  1  0.76141970  0.05914558  0.57469074  1.0
  H  H8  1  0.29772588  0.23858030  0.57469074  1.0
  H  H9  1  0.94085442  0.70227412  0.57469074  1.0
  H  H10  1  0.05914558  0.76141970  0.07469074  1.0
  H  H11  1  0.23858030  0.29772588  0.07469074  1.0
  H  H12  1  0.70227412  0.94085442  0.07469074  1.0
  H  H13  1  0.23858030  0.94085442  0.07469074  1.0
  H  H14  1  0.70227412  0.76141970  0.07469074  1.0
  H  H15  1  0.05914558  0.29772588  0.07469074  1.0
  O  O16  1  0.89098199  0.10901801  0.56593508  1.0
  O  O17  1  0.89098199  0.78196399  0.56593508  1.0
  O  O18  1  0.21803601  0.10901801  0.56593508  1.0
  O  O19  1  0.10901801  0.89098199  0.06593508  1.0
  O  O20  1  0.10901801  0.21803601  0.06593508  1.0
  O  O21  1  0.78196399  0.89098199  0.06593508  1.0
  F  F22  1  0.13639169  0.56819585  0.22375493  1.0
  F  F23  1  0.43180415  0.56819585  0.22375493  1.0
  F  F24  1  0.43180415  0.86360831  0.22375493  1.0
  F  F25  1  0.86360831  0.43180415  0.72375493  1.0
  F  F26  1  0.56819585  0.43180415  0.72375493  1.0
  F  F27  1  0.56819585  0.13639169  0.72375493  1.0
  F  F28  1  0.23439727  0.46879454  0.58944290  1.0
  F  F29  1  0.53120546  0.76560273  0.58944290  1.0
  F  F30  1  0.23439727  0.76560273  0.58944290  1.0
  F  F31  1  0.76560273  0.53120546  0.08944290  1.0
  F  F32  1  0.46879454  0.23439727  0.08944290  1.0
  F  F33  1  0.76560273  0.23439727  0.08944290  1.0
