# generated using pymatgen
data_Ba2ZnGe2O7
_symmetry_space_group_name_H-M   'P 1'
_cell_length_a   8.46070829
_cell_length_b   8.46070829
_cell_length_c   5.63305296
_cell_angle_alpha   90.00000000
_cell_angle_beta   90.00000000
_cell_angle_gamma   90.00000000
_symmetry_Int_Tables_number   1
_chemical_formula_structural   Ba2ZnGe2O7
_chemical_formula_sum   'Ba4 Zn2 Ge4 O14'
_cell_volume   403.23412415
_cell_formula_units_Z   2
loop_
 _symmetry_equiv_pos_site_id
 _symmetry_equiv_pos_as_xyz
  1  'x, y, z'
loop_
 _atom_site_type_symbol
 _atom_site_label
 _atom_site_symmetry_multiplicity
 _atom_site_fract_x
 _atom_site_fract_y
 _atom_site_fract_z
 _atom_site_occupancy
  Ba  Ba0  1  0.83427368  0.33427368  0.49201760  1.0
  Ba  Ba1  1  0.66572632  0.83427368  0.50798240  1.0
  Ba  Ba2  1  0.16572632  0.66572632  0.49201760  1.0
  Ba  Ba3  1  0.33427368  0.16572632  0.50798240  1.0
  Zn  Zn4  1  0.50000000  0.50000000  0.00000000  1.0
  Zn  Zn5  1  0.00000000  0.00000000  0.00000000  1.0
  Ge  Ge6  1  0.35888114  0.85888114  0.03887513  1.0
  Ge  Ge7  1  0.14111886  0.35888114  0.96112487  1.0
  Ge  Ge8  1  0.64111886  0.14111886  0.03887513  1.0
  Ge  Ge9  1  0.85888114  0.64111886  0.96112487  1.0
  O  O10  1  0.31691267  0.41988001  0.81168976  1.0
  O  O11  1  0.18308733  0.91988001  0.18831024  1.0
  O  O12  1  0.58011999  0.31691267  0.18831024  1.0
  O  O13  1  0.91988001  0.81691267  0.81168976  1.0
  O  O14  1  0.68308733  0.58011999  0.81168976  1.0
  O  O15  1  0.81691267  0.08011999  0.18831024  1.0
  O  O16  1  0.41988001  0.68308733  0.18831024  1.0
  O  O17  1  0.08011999  0.18308733  0.81168976  1.0
  O  O18  1  0.36184131  0.86184131  0.72941670  1.0
  O  O19  1  0.13815869  0.36184131  0.27058330  1.0
  O  O20  1  0.63815869  0.13815869  0.72941670  1.0
  O  O21  1  0.86184131  0.63815869  0.27058330  1.0
  O  O22  1  0.00000000  0.50000000  0.83731891  1.0
  O  O23  1  0.50000000  0.00000000  0.16268109  1.0
