# generated using pymatgen
data_TaNiTe5
_symmetry_space_group_name_H-M   'P 1'
_cell_length_a   7.17799120
_cell_length_b   7.17799120
_cell_length_c   15.32899551
_cell_angle_alpha   90.00000000
_cell_angle_beta   90.00000000
_cell_angle_gamma   150.00890251
_symmetry_Int_Tables_number   1
_chemical_formula_structural   TaNiTe5
_chemical_formula_sum   'Ta2 Ni2 Te10'
_cell_volume   394.79590978
_cell_formula_units_Z   2
loop_
 _symmetry_equiv_pos_site_id
 _symmetry_equiv_pos_as_xyz
  1  'x, y, z'
loop_
 _atom_site_type_symbol
 _atom_site_label
 _atom_site_symmetry_multiplicity
 _atom_site_fract_x
 _atom_site_fract_y
 _atom_site_fract_z
 _atom_site_occupancy
  Ta  Ta0  1  -0.50794210  0.50794210  0.75000000  1.0
  Ta  Ta1  1  0.50794210  0.49205790  0.25000000  1.0
  Ni  Ni2  1  0.00000000  0.00000000  0.00000000  1.0
  Ni  Ni3  1  0.00000000  0.00000000  0.50000000  1.0
  Te  Te4  1  0.09904643  0.90095357  0.85500591  1.0
  Te  Te5  1  0.09904643  0.90095357  0.64499409  1.0
  Te  Te6  1  -0.09904643  0.09904643  0.35500591  1.0
  Te  Te7  1  -0.09904643  0.09904643  0.14499409  1.0
  Te  Te8  1  0.40009907  0.59990093  0.92267752  1.0
  Te  Te9  1  0.40009907  0.59990093  0.57732248  1.0
  Te  Te10  1  -0.40009907  0.40009907  0.42267752  1.0
  Te  Te11  1  -0.40009907  0.40009907  0.07732248  1.0
  Te  Te12  1  -0.16402727  0.16402727  0.75000000  1.0
  Te  Te13  1  0.16402727  0.83597273  0.25000000  1.0
