# generated using pymatgen
data_Mn2O3
_symmetry_space_group_name_H-M   'P 1'
_cell_length_a   8.21904344
_cell_length_b   8.21904344
_cell_length_c   8.21904344
_cell_angle_alpha   109.47122063
_cell_angle_beta   109.47122063
_cell_angle_gamma   109.47122063
_symmetry_Int_Tables_number   1
_chemical_formula_structural   Mn2O3
_chemical_formula_sum   'Mn16 O24'
_cell_volume   427.40730123
_cell_formula_units_Z   8
loop_
 _symmetry_equiv_pos_site_id
 _symmetry_equiv_pos_as_xyz
  1  'x, y, z'
loop_
 _atom_site_type_symbol
 _atom_site_label
 _atom_site_symmetry_multiplicity
 _atom_site_fract_x
 _atom_site_fract_y
 _atom_site_fract_z
 _atom_site_occupancy
  Mn  Mn0  1  0.99999630  0.99999630  0.99999630  1.0
  Mn  Mn1  1  0.50000000  1.00000000  0.50000370  1.0
  Mn  Mn2  1  0.00000000  0.50000370  0.50000000  1.0
  Mn  Mn3  1  0.50000370  0.50000000  0.00000000  1.0
  Mn  Mn4  1  1.28484928  1.25000000  1.53484928  1.0
  Mn  Mn5  1  1.25000000  1.53484928  1.28484928  1.0
  Mn  Mn6  1  1.53484928  1.28484928  1.25000000  1.0
  Mn  Mn7  1  1.21515072  0.75000000  0.96515072  1.0
  Mn  Mn8  1  0.75000000  0.96515072  0.21515072  1.0
  Mn  Mn9  1  0.96515072  0.21515072  0.75000000  1.0
  Mn  Mn10  1  0.78480896  1.25000000  1.03480896  1.0
  Mn  Mn11  1  0.25000000  1.03480896  0.78480896  1.0
  Mn  Mn12  1  1.03480896  0.78480896  0.25000000  1.0
  Mn  Mn13  1  0.71519104  0.75000000  0.46519104  1.0
  Mn  Mn14  1  0.75000000  0.46519104  0.71519104  1.0
  Mn  Mn15  1  0.46519104  0.71519104  0.75000000  1.0
  O  O16  1  1.06220330  1.04470470  1.27311383  1.0
  O  O17  1  1.04470470  1.27311383  1.06220330  1.0
  O  O18  1  1.27311383  1.06220330  1.04470470  1.0
  O  O19  1  1.27159087  0.78908947  1.22688617  1.0
  O  O20  1  0.71091053  0.98250140  0.43779670  1.0
  O  O21  1  1.51749860  1.22840913  1.45529530  1.0
  O  O22  1  0.22840913  0.45529530  0.51749860  1.0
  O  O23  1  1.78908947  1.22688617  1.27159087  1.0
  O  O24  1  0.98250140  1.43779670  0.71091053  1.0
  O  O25  1  1.43779670  0.71091053  0.98250140  1.0
  O  O26  1  0.45529530  0.51749860  0.22840913  1.0
  O  O27  1  1.22688617  1.27159087  1.78908947  1.0
  O  O28  1  0.95523443  0.72689431  0.93780181  1.0
  O  O29  1  1.72689431  0.93780181  0.95523443  1.0
  O  O30  1  0.93780181  0.95523443  1.72689431  1.0
  O  O31  1  1.28909250  1.01743262  1.56219819  1.0
  O  O32  1  0.48256738  0.77165988  0.54476557  1.0
  O  O33  1  0.72834012  1.21090750  0.77310569  1.0
  O  O34  1  0.21090750  0.77310569  0.72834012  1.0
  O  O35  1  1.01743262  0.56219819  1.28909250  1.0
  O  O36  1  0.77165988  0.54476557  0.48256738  1.0
  O  O37  1  0.54476557  0.48256738  0.77165988  1.0
  O  O38  1  0.77310569  0.72834012  0.21090750  1.0
  O  O39  1  1.56219819  1.28909250  1.01743262  1.0
