# generated using pymatgen
data_Ba2GeO4
_symmetry_space_group_name_H-M   'P 1'
_cell_length_a   12.79801286
_cell_length_b   7.86829300
_cell_length_c   5.65505511
_cell_angle_alpha   90.00000000
_cell_angle_beta   90.00000000
_cell_angle_gamma   90.00000000
_symmetry_Int_Tables_number   1
_chemical_formula_structural   Ba2GeO4
_chemical_formula_sum   'Ba8 Ge4 O16'
_cell_volume   569.45565176
_cell_formula_units_Z   4
loop_
 _symmetry_equiv_pos_site_id
 _symmetry_equiv_pos_as_xyz
  1  'x, y, z'
loop_
 _atom_site_type_symbol
 _atom_site_label
 _atom_site_symmetry_multiplicity
 _atom_site_fract_x
 _atom_site_fract_y
 _atom_site_fract_z
 _atom_site_occupancy
  Ba  Ba0  1  0.78397580  0.25000000  0.51156531  1.0
  Ba  Ba1  1  0.28397580  0.25000000  0.98843469  1.0
  Ba  Ba2  1  0.21602420  0.75000000  0.48843469  1.0
  Ba  Ba3  1  0.71602420  0.75000000  0.01156531  1.0
  Ba  Ba4  1  0.00000000  0.50000000  -0.00000000  1.0
  Ba  Ba5  1  0.00000000  -0.00000000  0.00000000  1.0
  Ba  Ba6  1  0.50000000  0.50000000  0.50000000  1.0
  Ba  Ba7  1  0.50000000  -0.00000000  0.50000000  1.0
  Ge  Ge8  1  0.59940096  0.25000000  0.06709176  1.0
  Ge  Ge9  1  0.09940096  0.25000000  0.43290824  1.0
  Ge  Ge10  1  0.40059904  0.75000000  0.93290824  1.0
  Ge  Ge11  1  0.90059904  0.75000000  0.56709176  1.0
  O  O12  1  0.66372697  0.43227011  0.19241422  1.0
  O  O13  1  0.66372697  0.06772989  0.19241422  1.0
  O  O14  1  0.16372697  0.43227011  0.30758578  1.0
  O  O15  1  0.16372697  0.06772989  0.30758578  1.0
  O  O16  1  0.33627303  0.93227011  0.80758578  1.0
  O  O17  1  0.33627303  0.56772989  0.80758578  1.0
  O  O18  1  0.83627303  0.93227011  0.69241422  1.0
  O  O19  1  0.83627303  0.56772989  0.69241422  1.0
  O  O20  1  0.96889748  0.25000000  0.30861171  1.0
  O  O21  1  0.46889748  0.25000000  0.19138829  1.0
  O  O22  1  0.03110252  0.75000000  0.69138829  1.0
  O  O23  1  0.53110252  0.75000000  0.80861171  1.0
  O  O24  1  0.59374681  0.25000000  0.75275765  1.0
  O  O25  1  0.09374681  0.25000000  0.74724235  1.0
  O  O26  1  0.40625319  0.75000000  0.24724235  1.0
  O  O27  1  0.90625319  0.75000000  0.25275765  1.0
