# generated using pymatgen
data_K5Nb(CN)8
_symmetry_space_group_name_H-M   'P 1'
_cell_length_a   8.03558999
_cell_length_b   8.03558999
_cell_length_c   8.03558999
_cell_angle_alpha   108.99126369
_cell_angle_beta   108.99126369
_cell_angle_gamma   110.43545881
_symmetry_Int_Tables_number   1
_chemical_formula_structural   K5Nb(CN)8
_chemical_formula_sum   'K5 Nb1 C8 N8'
_cell_volume   399.33647351
_cell_formula_units_Z   1
loop_
 _symmetry_equiv_pos_site_id
 _symmetry_equiv_pos_as_xyz
  1  'x, y, z'
loop_
 _atom_site_type_symbol
 _atom_site_label
 _atom_site_symmetry_multiplicity
 _atom_site_fract_x
 _atom_site_fract_y
 _atom_site_fract_z
 _atom_site_occupancy
  K  K0  1  0.25000000  0.75000000  0.50000000  1.0
  K  K1  1  1.47855621  1.33055015  1.60499440  1.0
  K  K2  1  0.72555575  0.87356181  1.39500560  1.0
  K  K3  1  0.66944985  1.27444425  1.14800606  1.0
  K  K4  1  1.12643819  1.52144379  0.85199394  1.0
  Nb  Nb5  1  0.00000000  0.00000000  0.00000000  1.0
  C  C6  1  0.28043840  0.99382958  1.15886952  1.0
  C  C7  1  0.83496006  1.12156888  0.84113048  1.0
  C  C8  1  1.00617042  1.16503994  0.28660882  1.0
  C  C9  1  0.87843112  0.71956160  0.71339118  1.0
  C  C10  1  1.23177315  1.33635326  1.16584801  1.0
  C  C11  1  1.17050525  1.06592515  1.83415199  1.0
  C  C12  1  0.66364674  0.82949475  0.89541989  1.0
  C  C13  1  0.93407485  1.76822685  1.10458011  1.0
  N  N14  1  0.42412065  0.98286174  1.24285043  1.0
  N  N15  1  0.74001131  1.18127022  0.75714957  1.0
  N  N16  1  1.01713826  1.25998869  0.44125891  1.0
  N  N17  1  0.81872978  0.57587935  0.55874109  1.0
  N  N18  1  1.34928194  1.51220563  1.24447635  1.0
  N  N19  1  1.26772927  1.10480559  1.75552365  1.0
  N  N20  1  0.48779437  0.73227073  0.83707631  1.0
  N  N21  1  0.89519441  1.65071806  1.16292369  1.0
