# generated using pymatgen
data_Mg(PO5)2
_symmetry_space_group_name_H-M   'P 1'
_cell_length_a   5.18886100
_cell_length_b   9.55223074
_cell_length_c   8.98729982
_cell_angle_alpha   90.00000000
_cell_angle_beta   126.74307772
_cell_angle_gamma   90.00000000
_symmetry_Int_Tables_number   1
_chemical_formula_structural   Mg(PO5)2
_chemical_formula_sum   'Mg2 P4 O20'
_cell_volume   356.95655123
_cell_formula_units_Z   2
loop_
 _symmetry_equiv_pos_site_id
 _symmetry_equiv_pos_as_xyz
  1  'x, y, z'
loop_
 _atom_site_type_symbol
 _atom_site_label
 _atom_site_symmetry_multiplicity
 _atom_site_fract_x
 _atom_site_fract_y
 _atom_site_fract_z
 _atom_site_occupancy
  O  O0  1  0.46284829  0.45461894  0.29187268  1.0
  O  O1  1  0.46284829  0.04538106  0.79187268  1.0
  O  O2  1  0.53715171  0.95461894  0.20812732  1.0
  O  O3  1  0.53715171  0.54538106  0.70812732  1.0
  O  O4  1  0.76349028  0.14501351  0.34079681  1.0
  O  O5  1  0.76349028  0.35498649  0.84079681  1.0
  O  O6  1  0.23650972  0.64501351  0.15920319  1.0
  O  O7  1  0.23650972  0.85498649  0.65920319  1.0
  O  O8  1  0.36170258  0.11874218  0.52310694  1.0
  O  O9  1  0.36170258  0.38125782  1.02310694  1.0
  O  O10  1  0.63829742  0.61874218  -0.02310694  1.0
  O  O11  1  0.63829742  0.88125782  0.47689306  1.0
  O  O12  1  1.03605177  0.14200807  0.17614271  1.0
  O  O13  1  1.03605177  0.35799193  0.67614271  1.0
  O  O14  1  -0.03605177  0.64200807  0.32385729  1.0
  O  O15  1  -0.03605177  0.85799193  0.82385729  1.0
  O  O16  1  0.89403794  0.84899507  0.12093833  1.0
  O  O17  1  0.89403794  0.65100493  0.62093833  1.0
  O  O18  1  0.10596206  0.34899507  0.37906167  1.0
  O  O19  1  0.10596206  0.15100493  0.87906167  1.0
  P  P20  1  0.94053645  0.68900225  0.15474175  1.0
  P  P21  1  0.94053645  0.81099775  0.65474175  1.0
  P  P22  1  0.05946355  0.18900225  0.34525825  1.0
  P  P23  1  0.05946355  0.31099775  0.84525825  1.0
  Mg  Mg24  1  0.00000000  0.50000000  0.50000000  1.0
  Mg  Mg25  1  0.00000000  0.00000000  0.00000000  1.0
