# generated using pymatgen
data_AlTl2F5
_symmetry_space_group_name_H-M   'P 1'
_cell_length_a   6.39013002
_cell_length_b   6.39013002
_cell_length_c   7.58905745
_cell_angle_alpha   90.00000000
_cell_angle_beta   90.00000000
_cell_angle_gamma   90.12560909
_symmetry_Int_Tables_number   1
_chemical_formula_structural   AlTl2F5
_chemical_formula_sum   'Al2 Tl4 F10'
_cell_volume   309.88901887
_cell_formula_units_Z   2
loop_
 _symmetry_equiv_pos_site_id
 _symmetry_equiv_pos_as_xyz
  1  'x, y, z'
loop_
 _atom_site_type_symbol
 _atom_site_label
 _atom_site_symmetry_multiplicity
 _atom_site_fract_x
 _atom_site_fract_y
 _atom_site_fract_z
 _atom_site_occupancy
  Al  Al0  1  0.00000000  0.00000000  0.50000000  1.0
  Al  Al1  1  0.00000000  0.00000000  0.00000000  1.0
  Tl  Tl2  1  0.50023801  0.99959670  0.25000000  1.0
  Tl  Tl3  1  0.00040330  0.49976199  0.25000000  1.0
  Tl  Tl4  1  -0.50023801  1.00040330  0.75000000  1.0
  Tl  Tl5  1  -0.00040330  1.50023801  0.75000000  1.0
  F  F6  1  -0.20150414  0.79849586  0.50000000  1.0
  F  F7  1  0.20150414  1.20150414  0.00000000  1.0
  F  F8  1  0.20150414  1.20150414  0.50000000  1.0
  F  F9  1  -0.20150414  0.79849586  0.00000000  1.0
  F  F10  1  0.00041655  -0.00041655  0.25000000  1.0
  F  F11  1  -1.00041655  1.00041655  0.75000000  1.0
  F  F12  1  -0.20112020  0.20112020  0.49953682  1.0
  F  F13  1  -0.20112020  0.20112020  1.00046318  1.0
  F  F14  1  -0.79887980  0.79887980  -0.00046318  1.0
  F  F15  1  -0.79887980  0.79887980  0.50046318  1.0
