# generated using pymatgen
data_TlMoPO6
_symmetry_space_group_name_H-M   'P 1'
_cell_length_a   10.25082650
_cell_length_b   9.72879310
_cell_length_c   8.47502112
_cell_angle_alpha   68.14156786
_cell_angle_beta   61.74408506
_cell_angle_gamma   50.11434708
_symmetry_Int_Tables_number   1
_chemical_formula_structural   TlMoPO6
_chemical_formula_sum   'Tl4 Mo4 P4 O24'
_cell_volume   568.30157319
_cell_formula_units_Z   4
loop_
 _symmetry_equiv_pos_site_id
 _symmetry_equiv_pos_as_xyz
  1  'x, y, z'
loop_
 _atom_site_type_symbol
 _atom_site_label
 _atom_site_symmetry_multiplicity
 _atom_site_fract_x
 _atom_site_fract_y
 _atom_site_fract_z
 _atom_site_occupancy
  Tl  Tl0  1  0.29109438  0.70890562  -0.29109438  1.0
  Tl  Tl1  1  -0.29109438  1.29109438  0.29109438  1.0
  Tl  Tl2  1  -0.04109438  0.54109438  0.54109438  1.0
  Tl  Tl3  1  -0.45890562  0.95890562  0.95890562  1.0
  Mo  Mo4  1  0.21786818  0.78213182  0.21786818  1.0
  Mo  Mo5  1  0.78213182  0.21786818  0.78213182  1.0
  Mo  Mo6  1  0.03213182  0.46786818  0.03213182  1.0
  Mo  Mo7  1  0.46786818  0.03213182  0.46786818  1.0
  P  P8  1  0.13171333  0.13171333  -0.13171333  1.0
  P  P9  1  -0.13171333  0.86828667  0.13171333  1.0
  P  P10  1  0.11828667  1.11828667  0.38171333  1.0
  P  P11  1  0.38171333  0.38171333  0.11828667  1.0
  O  O12  1  0.17370853  0.67928338  0.43125201  1.0
  O  O13  1  0.71575608  0.43125201  0.67928338  1.0
  O  O14  1  0.43125201  0.71575608  0.17370853  1.0
  O  O15  1  0.67928338  0.17370853  0.71575608  1.0
  O  O16  1  1.07629147  -0.42928338  0.81874799  1.0
  O  O17  1  0.53424392  -0.18125201  0.57071662  1.0
  O  O18  1  0.81874799  -0.46575608  1.07629147  1.0
  O  O19  1  0.57071662  0.07629147  0.53424392  1.0
  O  O20  1  0.09408621  1.02217996  0.29318292  1.0
  O  O21  1  0.59055091  0.29318292  0.02217996  1.0
  O  O22  1  0.29318292  0.59055091  0.09408621  1.0
  O  O23  1  0.02217996  1.09408621  0.59055091  1.0
  O  O24  1  0.15591379  0.22782004  -0.04318292  1.0
  O  O25  1  0.65944909  -0.04318292  1.22782004  1.0
  O  O26  1  -0.04318292  0.65944909  0.15591379  1.0
  O  O27  1  0.22782004  0.15591379  1.65944909  1.0
  O  O28  1  -0.05935204  0.90051944  0.22743497  1.0
  O  O29  1  0.93139763  0.22743497  0.90051944  1.0
  O  O30  1  0.22743497  0.93139763  -0.05935204  1.0
  O  O31  1  0.90051944  -0.05935204  0.93139763  1.0
  O  O32  1  0.30935204  0.34948056  0.02256503  1.0
  O  O33  1  0.31860237  0.02256503  0.34948056  1.0
  O  O34  1  0.02256503  0.31860237  0.30935204  1.0
  O  O35  1  0.34948056  0.30935204  0.31860237  1.0
