# generated using pymatgen
data_Li4CO4
_symmetry_space_group_name_H-M   'P 1'
_cell_length_a   4.62220999
_cell_length_b   5.49250710
_cell_length_c   7.67493306
_cell_angle_alpha   90.00000000
_cell_angle_beta   125.92235767
_cell_angle_gamma   90.00000000
_symmetry_Int_Tables_number   1
_chemical_formula_structural   Li4CO4
_chemical_formula_sum   'Li8 C2 O8'
_cell_volume   157.79001393
_cell_formula_units_Z   2
loop_
 _symmetry_equiv_pos_site_id
 _symmetry_equiv_pos_as_xyz
  1  'x, y, z'
loop_
 _atom_site_type_symbol
 _atom_site_label
 _atom_site_symmetry_multiplicity
 _atom_site_fract_x
 _atom_site_fract_y
 _atom_site_fract_z
 _atom_site_occupancy
  Li  Li0  1  0.21379960  0.54117774  0.12140065  1.0
  Li  Li1  1  0.21379960  0.45882226  0.62140065  1.0
  Li  Li2  1  0.44938560  0.93496884  0.90736116  1.0
  Li  Li3  1  0.44938560  0.06503116  0.40736116  1.0
  Li  Li4  1  0.07389567  0.95867936  0.04064498  1.0
  Li  Li5  1  0.07389567  0.04132064  0.54064498  1.0
  Li  Li6  1  0.64641786  0.32986568  0.03789166  1.0
  Li  Li7  1  0.64641786  0.67013432  0.53789166  1.0
  C  C8  1  0.85905949  0.80412553  0.25612323  1.0
  C  C9  1  0.85905949  0.19587447  0.75612323  1.0
  O  O10  1  0.93200524  0.05331944  0.23175927  1.0
  O  O11  1  0.93200524  0.94668056  0.73175926  1.0
  O  O12  1  0.55222012  0.80293447  0.25675135  1.0
  O  O13  1  0.55222012  0.19706553  0.75675135  1.0
  O  O14  1  0.79131622  0.67205455  1.07758026  1.0
  O  O15  1  0.79131622  0.32794545  0.57758026  1.0
  O  O16  1  0.15763021  0.71923456  0.45179744  1.0
  O  O17  1  0.15763021  0.28076544  0.95179744  1.0
