# generated using pymatgen
data_KAlCuF6
_symmetry_space_group_name_H-M   'P 1'
_cell_length_a   6.76790943
_cell_length_b   7.17219589
_cell_length_c   10.00525298
_cell_angle_alpha   90.00000000
_cell_angle_beta   90.00000000
_cell_angle_gamma   90.00000000
_symmetry_Int_Tables_number   1
_chemical_formula_structural   KAlCuF6
_chemical_formula_sum   'K4 Al4 Cu4 F24'
_cell_volume   485.66270588
_cell_formula_units_Z   4
loop_
 _symmetry_equiv_pos_site_id
 _symmetry_equiv_pos_as_xyz
  1  'x, y, z'
loop_
 _atom_site_type_symbol
 _atom_site_label
 _atom_site_symmetry_multiplicity
 _atom_site_fract_x
 _atom_site_fract_y
 _atom_site_fract_z
 _atom_site_occupancy
  F  F0  1  0.23686625  0.94448025  0.92438753  1.0
  F  F1  1  0.23686625  0.55551975  0.92438753  1.0
  F  F2  1  0.73686625  0.94448025  0.57561247  1.0
  F  F3  1  0.73686625  0.55551975  0.57561247  1.0
  F  F4  1  0.76313375  0.44448025  0.07561247  1.0
  F  F5  1  0.76313375  0.05551975  0.07561247  1.0
  F  F6  1  0.26313375  0.44448025  0.42438753  1.0
  F  F7  1  0.26313375  0.05551975  0.42438753  1.0
  F  F8  1  0.38338974  0.49427045  0.66476582  1.0
  F  F9  1  0.38338974  0.00572955  0.66476582  1.0
  F  F10  1  0.88338974  0.49427045  0.83523418  1.0
  F  F11  1  0.88338974  0.00572955  0.83523418  1.0
  F  F12  1  0.61661026  0.99427045  0.33523418  1.0
  F  F13  1  0.61661026  0.50572955  0.33523418  1.0
  F  F14  1  0.11661026  0.99427045  0.16476582  1.0
  F  F15  1  0.11661026  0.50572955  0.16476582  1.0
  F  F16  1  0.93668888  0.75000000  0.01679604  1.0
  F  F17  1  0.43668888  0.75000000  0.48320396  1.0
  F  F18  1  0.06331112  0.25000000  0.98320396  1.0
  F  F19  1  0.56331112  0.25000000  0.51679604  1.0
  F  F20  1  0.07063313  0.75000000  0.66453317  1.0
  F  F21  1  0.57063313  0.75000000  0.83546683  1.0
  F  F22  1  0.92936687  0.25000000  0.33546683  1.0
  F  F23  1  0.42936687  0.25000000  0.16453317  1.0
  Al  Al24  1  0.50000000  0.00000000  0.50000000  1.0
  Al  Al25  1  0.50000000  0.50000000  0.50000000  1.0
  Al  Al26  1  0.00000000  0.00000000  0.00000000  1.0
  Al  Al27  1  0.00000000  0.50000000  0.00000000  1.0
  Cu  Cu28  1  0.31187074  0.75000000  0.76205746  1.0
  Cu  Cu29  1  0.81187074  0.75000000  0.73794254  1.0
  Cu  Cu30  1  0.68812926  0.25000000  0.23794254  1.0
  Cu  Cu31  1  0.18812926  0.25000000  0.26205746  1.0
  K  K32  1  0.48912987  0.75000000  0.11841531  1.0
  K  K33  1  0.98912987  0.75000000  0.38158469  1.0
  K  K34  1  0.51087013  0.25000000  0.88158469  1.0
  K  K35  1  0.01087013  0.25000000  0.61841531  1.0
