# generated using pymatgen
data_SrLiAlN2
_symmetry_space_group_name_H-M   'P 1'
_cell_length_a   5.67541617
_cell_length_b   8.54720317
_cell_length_c   5.54829099
_cell_angle_alpha   90.00000000
_cell_angle_beta   110.55946862
_cell_angle_gamma   90.00000000
_symmetry_Int_Tables_number   1
_chemical_formula_structural   SrLiAlN2
_chemical_formula_sum   'Sr4 Li4 Al4 N8'
_cell_volume   251.99956774
_cell_formula_units_Z   4
loop_
 _symmetry_equiv_pos_site_id
 _symmetry_equiv_pos_as_xyz
  1  'x, y, z'
loop_
 _atom_site_type_symbol
 _atom_site_label
 _atom_site_symmetry_multiplicity
 _atom_site_fract_x
 _atom_site_fract_y
 _atom_site_fract_z
 _atom_site_occupancy
  Sr  Sr0  1  0.21778071  0.11884704  0.44718939  1.0
  Sr  Sr1  1  0.78221929  0.88115296  0.55281061  1.0
  Sr  Sr2  1  0.78221929  0.61884704  0.05281061  1.0
  Sr  Sr3  1  0.21778071  0.38115296  0.94718939  1.0
  Li  Li4  1  0.12214211  0.62803172  0.64805665  1.0
  Li  Li5  1  0.87785789  0.37196828  0.35194335  1.0
  Li  Li6  1  0.87785789  0.12803172  0.85194335  1.0
  Li  Li7  1  0.12214211  0.87196828  0.14805665  1.0
  Al  Al8  1  0.39622005  0.63028936  0.38921545  1.0
  Al  Al9  1  0.60377995  0.36971064  0.61078455  1.0
  Al  Al10  1  0.60377995  0.13028936  0.11078455  1.0
  Al  Al11  1  0.39622005  0.86971064  0.88921545  1.0
  N  N12  1  0.25403404  0.06520168  0.95596077  1.0
  N  N13  1  0.74596596  0.93479832  0.04403923  1.0
  N  N14  1  0.74596596  0.56520168  0.54403923  1.0
  N  N15  1  0.25403404  0.43479832  0.45596077  1.0
  N  N16  1  0.29983762  0.68534266  0.03428274  1.0
  N  N17  1  0.70016238  0.31465734  0.96571726  1.0
  N  N18  1  0.70016238  0.18534266  0.46571726  1.0
  N  N19  1  0.29983762  0.81465734  0.53428274  1.0
