# generated using pymatgen
data_KBH4
_symmetry_space_group_name_H-M   'P 1'
_cell_length_a   4.74594149
_cell_length_b   4.74594149
_cell_length_c   6.66355375
_cell_angle_alpha   90.00000000
_cell_angle_beta   90.00000000
_cell_angle_gamma   90.00000000
_symmetry_Int_Tables_number   1
_chemical_formula_structural   KBH4
_chemical_formula_sum   'K2 B2 H8'
_cell_volume   150.08962251
_cell_formula_units_Z   2
loop_
 _symmetry_equiv_pos_site_id
 _symmetry_equiv_pos_as_xyz
  1  'x, y, z'
loop_
 _atom_site_type_symbol
 _atom_site_label
 _atom_site_symmetry_multiplicity
 _atom_site_fract_x
 _atom_site_fract_y
 _atom_site_fract_z
 _atom_site_occupancy
  K  K0  1  0.50000000  0.50000000  0.00000000  1.0
  K  K1  1  0.00000000  0.00000000  0.50000000  1.0
  B  B2  1  0.50000000  0.50000000  0.50000000  1.0
  B  B3  1  0.00000000  0.00000000  0.00000000  1.0
  H  H4  1  0.50000000  0.71163947  0.39363727  1.0
  H  H5  1  0.00000000  0.78836053  0.10636273  1.0
  H  H6  1  0.28836053  0.50000000  0.60636273  1.0
  H  H7  1  0.78836053  0.00000000  0.89363727  1.0
  H  H8  1  0.50000000  0.28836053  0.39363727  1.0
  H  H9  1  0.00000000  0.21163947  0.10636273  1.0
  H  H10  1  0.71163947  0.50000000  0.60636273  1.0
  H  H11  1  0.21163947  0.00000000  0.89363727  1.0
