# generated using pymatgen
data_Cr2Hg2O9
_symmetry_space_group_name_H-M   'P 1'
_cell_length_a   6.71941906
_cell_length_b   6.71941906
_cell_length_c   16.16672353
_cell_angle_alpha   56.98634693
_cell_angle_beta   123.01365307
_cell_angle_gamma   132.59062840
_symmetry_Int_Tables_number   1
_chemical_formula_structural   Cr2Hg2O9
_chemical_formula_sum   'Cr4 Hg4 O18'
_cell_volume   431.89344115
_cell_formula_units_Z   2
loop_
 _symmetry_equiv_pos_site_id
 _symmetry_equiv_pos_as_xyz
  1  'x, y, z'
loop_
 _atom_site_type_symbol
 _atom_site_label
 _atom_site_symmetry_multiplicity
 _atom_site_fract_x
 _atom_site_fract_y
 _atom_site_fract_z
 _atom_site_occupancy
  Hg  Hg0  1  1.67881311  -0.15726905  0.61166556  1.0
  Hg  Hg1  1  1.15726905  -0.67881311  0.11166556  1.0
  Hg  Hg2  1  0.84273095  0.67881311  0.88833444  1.0
  Hg  Hg3  1  0.32118689  0.15726905  0.38833444  1.0
  O  O4  1  1.69789135  0.11152205  0.45731025  1.0
  O  O5  1  0.88847795  0.30210865  0.95731025  1.0
  O  O6  1  1.11152205  -0.30210865  0.04268975  1.0
  O  O7  1  0.30210865  -0.11152205  0.54268975  1.0
  O  O8  1  0.34390848  -0.01917892  0.84759909  1.0
  O  O9  1  1.01917892  -0.34390848  0.34759909  1.0
  O  O10  1  0.98082108  0.34390848  0.65240091  1.0
  O  O11  1  1.65609152  0.01917892  0.15240091  1.0
  O  O12  1  0.41939435  0.27156078  0.97903439  1.0
  O  O13  1  0.72843922  0.58060565  0.47903439  1.0
  O  O14  1  1.27156078  -0.58060565  0.52096561  1.0
  O  O15  1  1.58060565  -0.27156078  0.02096561  1.0
  O  O16  1  0.58638019  0.58638019  0.75000000  1.0
  O  O17  1  0.41361981  0.41361981  0.25000000  1.0
  O  O18  1  1.74971098  -0.02326317  0.85280734  1.0
  O  O19  1  1.02326317  -0.74971099  0.35280734  1.0
  O  O20  1  0.97673683  0.74971099  0.64719266  1.0
  O  O21  1  0.25028901  0.02326317  0.14719266  1.0
  Cr  Cr22  1  0.63215953  -0.01201940  0.91829421  1.0
  Cr  Cr23  1  1.01201940  -0.63215953  0.41829421  1.0
  Cr  Cr24  1  0.98798060  0.63215953  0.58170579  1.0
  Cr  Cr25  1  1.36784047  0.01201940  0.08170579  1.0
