# generated using pymatgen
data_ReN2
_symmetry_space_group_name_H-M   'P 1'
_cell_length_a   9.55345256
_cell_length_b   2.85115353
_cell_length_c   4.14427097
_cell_angle_alpha   90.00000000
_cell_angle_beta   90.00000000
_cell_angle_gamma   90.00000000
_symmetry_Int_Tables_number   1
_chemical_formula_structural   ReN2
_chemical_formula_sum   'Re4 N8'
_cell_volume   112.88314447
_cell_formula_units_Z   4
loop_
 _symmetry_equiv_pos_site_id
 _symmetry_equiv_pos_as_xyz
  1  'x, y, z'
loop_
 _atom_site_type_symbol
 _atom_site_label
 _atom_site_symmetry_multiplicity
 _atom_site_fract_x
 _atom_site_fract_y
 _atom_site_fract_z
 _atom_site_occupancy
  Re  Re0  1  0.60857335  0.75000000  0.40059115  1.0
  Re  Re1  1  0.10857335  0.75000000  0.09940885  1.0
  Re  Re2  1  0.39142665  0.25000000  0.59940885  1.0
  Re  Re3  1  0.89142665  0.25000000  0.90059115  1.0
  N  N4  1  0.67347604  0.25000000  0.04374502  1.0
  N  N5  1  0.17347604  0.25000000  0.45625498  1.0
  N  N6  1  0.32652396  0.75000000  0.95625498  1.0
  N  N7  1  0.82652396  0.75000000  0.54374502  1.0
  N  N8  1  0.59485031  0.25000000  0.75998066  1.0
  N  N9  1  0.09485031  0.25000000  0.74001934  1.0
  N  N10  1  0.40514969  0.75000000  0.24001934  1.0
  N  N11  1  0.90514969  0.75000000  0.25998066  1.0
