# generated using pymatgen
data_CuP4Se3Cl
_symmetry_space_group_name_H-M   'P 1'
_cell_length_a   13.01523775
_cell_length_b   12.02301901
_cell_length_c   6.77511225
_cell_angle_alpha   90.00000000
_cell_angle_beta   99.91989476
_cell_angle_gamma   90.00000000
_symmetry_Int_Tables_number   1
_chemical_formula_structural   CuP4Se3Cl
_chemical_formula_sum   'Cu4 P16 Se12 Cl4'
_cell_volume   1044.33593010
_cell_formula_units_Z   4
loop_
 _symmetry_equiv_pos_site_id
 _symmetry_equiv_pos_as_xyz
  1  'x, y, z'
loop_
 _atom_site_type_symbol
 _atom_site_label
 _atom_site_symmetry_multiplicity
 _atom_site_fract_x
 _atom_site_fract_y
 _atom_site_fract_z
 _atom_site_occupancy
  Cu  Cu0  1  0.98305109  0.34647147  0.22109364  1.0
  Cu  Cu1  1  0.98305109  0.15352853  0.72109364  1.0
  Cu  Cu2  1  0.01694891  0.84647147  0.27890636  1.0
  Cu  Cu3  1  0.01694891  0.65352853  0.77890636  1.0
  P  P4  1  0.86497535  0.92693761  0.31792257  1.0
  P  P5  1  0.86497535  0.57306239  0.81792257  1.0
  P  P6  1  0.13502465  0.42693761  0.18207743  1.0
  P  P7  1  0.13502465  0.07306239  0.68207743  1.0
  P  P8  1  0.84777521  0.44686950  0.05303359  1.0
  P  P9  1  0.84777521  0.05313050  0.55303359  1.0
  P  P10  1  0.15222479  0.94686950  0.44696641  1.0
  P  P11  1  0.15222479  0.55313050  0.94696641  1.0
  P  P12  1  0.61138570  0.02361096  0.23555482  1.0
  P  P13  1  0.61138570  0.47638904  0.73555482  1.0
  P  P14  1  0.38861430  0.52361096  0.26444518  1.0
  P  P15  1  0.38861430  0.97638904  0.76444518  1.0
  P  P16  1  0.20882156  0.12358655  0.41790758  1.0
  P  P17  1  0.20882156  0.37641345  0.91790758  1.0
  P  P18  1  0.79117844  0.62358655  0.08209242  1.0
  P  P19  1  0.79117844  0.87641345  0.58209242  1.0
  Se  Se20  1  0.70613095  0.15572238  0.42649570  1.0
  Se  Se21  1  0.70613095  0.34427762  0.92649570  1.0
  Se  Se22  1  0.29386905  0.65572238  0.07350430  1.0
  Se  Se23  1  0.29386905  0.84427762  0.57350430  1.0
  Se  Se24  1  0.38249182  0.38417316  0.03318126  1.0
  Se  Se25  1  0.38249182  0.11582684  0.53318126  1.0
  Se  Se26  1  0.61750818  0.88417316  0.46681874  1.0
  Se  Se27  1  0.61750818  0.61582684  0.96681874  1.0
  Se  Se28  1  0.26699726  0.45907140  0.44011329  1.0
  Se  Se29  1  0.26699726  0.04092860  0.94011329  1.0
  Se  Se30  1  0.73300274  0.95907140  0.05988671  1.0
  Se  Se31  1  0.73300274  0.54092860  0.55988671  1.0
  Cl  Cl32  1  0.97185705  0.17504762  0.05657207  1.0
  Cl  Cl33  1  0.97185705  0.32495238  0.55657207  1.0
  Cl  Cl34  1  0.02814295  0.67504762  0.44342793  1.0
  Cl  Cl35  1  0.02814295  0.82495238  0.94342793  1.0
