# generated using pymatgen
data_BiI
_symmetry_space_group_name_H-M   'P 1'
_cell_length_a   8.13329154
_cell_length_b   8.13329154
_cell_length_c   21.45117204
_cell_angle_alpha   83.48412712
_cell_angle_beta   96.51587288
_cell_angle_gamma   148.58178650
_symmetry_Int_Tables_number   1
_chemical_formula_structural   BiI
_chemical_formula_sum   'Bi8 I8'
_cell_volume   734.54245142
_cell_formula_units_Z   8
loop_
 _symmetry_equiv_pos_site_id
 _symmetry_equiv_pos_as_xyz
  1  'x, y, z'
loop_
 _atom_site_type_symbol
 _atom_site_label
 _atom_site_symmetry_multiplicity
 _atom_site_fract_x
 _atom_site_fract_y
 _atom_site_fract_z
 _atom_site_occupancy
  Bi  Bi0  1  0.99996217  0.00003783  0.88813582  1.0
  Bi  Bi1  1  0.00003783  -0.00003783  0.11186418  1.0
  Bi  Bi2  1  0.93967321  0.06032679  0.74571470  1.0
  Bi  Bi3  1  0.06032679  -0.06032679  0.25428530  1.0
  Bi  Bi4  1  0.75051942  0.24948058  0.38850101  1.0
  Bi  Bi5  1  0.24948058  -0.24948058  0.61149899  1.0
  Bi  Bi6  1  0.30647793  -0.30647793  0.75457600  1.0
  Bi  Bi7  1  0.69352207  0.30647793  0.24542400  1.0
  I  I8  1  0.87360791  0.12639209  0.56828586  1.0
  I  I9  1  0.12639209  -0.12639209  0.43171414  1.0
  I  I10  1  0.63021327  0.36978673  0.85571189  1.0
  I  I11  1  0.36978673  -0.36978673  0.14428811  1.0
  I  I12  1  0.61661160  0.38338840  0.63762869  1.0
  I  I13  1  0.38338840  -0.38338840  0.36237131  1.0
  I  I14  1  0.37615943  -0.37615943  0.93084423  1.0
  I  I15  1  0.62384057  0.37615943  0.06915577  1.0
