# generated using pymatgen
data_BaNi(SeO3)2
_symmetry_space_group_name_H-M   'P 1'
_cell_length_a   15.06825809
_cell_length_b   5.50109976
_cell_length_c   7.42541645
_cell_angle_alpha   90.00000000
_cell_angle_beta   90.00000000
_cell_angle_gamma   90.00000000
_symmetry_Int_Tables_number   1
_chemical_formula_structural   BaNi(SeO3)2
_chemical_formula_sum   'Ba4 Ni4 Se8 O24'
_cell_volume   615.50755268
_cell_formula_units_Z   4
loop_
 _symmetry_equiv_pos_site_id
 _symmetry_equiv_pos_as_xyz
  1  'x, y, z'
loop_
 _atom_site_type_symbol
 _atom_site_label
 _atom_site_symmetry_multiplicity
 _atom_site_fract_x
 _atom_site_fract_y
 _atom_site_fract_z
 _atom_site_occupancy
  Ba  Ba0  1  0.38292335  0.75000000  0.06858683  1.0
  Ba  Ba1  1  0.88292335  0.75000000  0.43141317  1.0
  Ba  Ba2  1  0.61707665  0.25000000  0.93141317  1.0
  Ba  Ba3  1  0.11707665  0.25000000  0.56858683  1.0
  Ni  Ni4  1  0.12465873  0.75000000  0.20490856  1.0
  Ni  Ni5  1  0.62465873  0.75000000  0.29509144  1.0
  Ni  Ni6  1  0.87534127  0.25000000  0.79509144  1.0
  Ni  Ni7  1  0.37534127  0.25000000  0.70490856  1.0
  Se  Se8  1  0.27024535  0.75000000  0.52782776  1.0
  Se  Se9  1  0.77024535  0.75000000  0.97217224  1.0
  Se  Se10  1  0.72975465  0.25000000  0.47217224  1.0
  Se  Se11  1  0.22975465  0.25000000  0.02782776  1.0
  Se  Se12  1  0.48336837  0.75000000  0.62528342  1.0
  Se  Se13  1  0.98336837  0.75000000  0.87471658  1.0
  Se  Se14  1  0.51663163  0.25000000  0.37471658  1.0
  Se  Se15  1  0.01663163  0.25000000  0.12528342  1.0
  O  O16  1  0.47462511  0.99106082  0.77675238  1.0
  O  O17  1  0.47462511  0.50893918  0.77675238  1.0
  O  O18  1  0.97462511  0.99106082  0.72324762  1.0
  O  O19  1  0.97462511  0.50893918  0.72324762  1.0
  O  O20  1  0.52537489  0.49106082  0.22324762  1.0
  O  O21  1  0.52537489  0.00893918  0.22324762  1.0
  O  O22  1  0.02537489  0.49106082  0.27675238  1.0
  O  O23  1  0.02537489  0.00893918  0.27675238  1.0
  O  O24  1  0.09315894  0.75000000  0.93267019  1.0
  O  O25  1  0.59315894  0.75000000  0.56732981  1.0
  O  O26  1  0.90684106  0.25000000  0.06732981  1.0
  O  O27  1  0.40684106  0.25000000  0.43267019  1.0
  O  O28  1  0.65714792  0.75000000  0.02028604  1.0
  O  O29  1  0.15714792  0.75000000  0.47971396  1.0
  O  O30  1  0.34285208  0.25000000  0.97971396  1.0
  O  O31  1  0.84285208  0.25000000  0.52028604  1.0
  O  O32  1  0.27396923  0.99435886  0.67431031  1.0
  O  O33  1  0.27396923  0.50564114  0.67431031  1.0
  O  O34  1  0.77396923  0.99435886  0.82568969  1.0
  O  O35  1  0.77396923  0.50564114  0.82568969  1.0
  O  O36  1  0.72603077  0.49435886  0.32568969  1.0
  O  O37  1  0.72603077  0.00564114  0.32568969  1.0
  O  O38  1  0.22603077  0.49435886  0.17431031  1.0
  O  O39  1  0.22603077  0.00564114  0.17431031  1.0
