# generated using pymatgen
data_Co2PHO5
_symmetry_space_group_name_H-M   'P 1'
_cell_length_a   7.96215940
_cell_length_b   8.49200829
_cell_length_c   5.93771668
_cell_angle_alpha   90.00000000
_cell_angle_beta   90.00000000
_cell_angle_gamma   90.00000000
_symmetry_Int_Tables_number   1
_chemical_formula_structural   Co2PHO5
_chemical_formula_sum   'Co8 P4 H4 O20'
_cell_volume   401.47707178
_cell_formula_units_Z   4
loop_
 _symmetry_equiv_pos_site_id
 _symmetry_equiv_pos_as_xyz
  1  'x, y, z'
loop_
 _atom_site_type_symbol
 _atom_site_label
 _atom_site_symmetry_multiplicity
 _atom_site_fract_x
 _atom_site_fract_y
 _atom_site_fract_z
 _atom_site_occupancy
  Co  Co0  1  0.50000000  0.50000000  0.23235655  1.0
  Co  Co1  1  0.50000000  0.50000000  0.76764345  1.0
  Co  Co2  1  0.00000000  0.00000000  0.73235655  1.0
  Co  Co3  1  0.00000000  0.00000000  0.26764345  1.0
  Co  Co4  1  0.85924304  0.63093901  0.50000000  1.0
  Co  Co5  1  0.35924304  0.86906099  0.00000000  1.0
  Co  Co6  1  0.14075696  0.36906099  0.50000000  1.0
  Co  Co7  1  0.64075696  0.13093901  0.00000000  1.0
  P  P8  1  0.25120708  0.74127048  0.50000000  1.0
  P  P9  1  0.75120708  0.75872952  0.00000000  1.0
  P  P10  1  0.74879292  0.25872952  0.50000000  1.0
  P  P11  1  0.24879292  0.24127048  0.00000000  1.0
  H  H12  1  0.23995870  0.08411171  0.50000000  1.0
  H  H13  1  0.73995870  0.41588829  0.00000000  1.0
  H  H14  1  0.76004130  0.91588829  0.50000000  1.0
  H  H15  1  0.26004130  0.58411171  0.00000000  1.0
  O  O16  1  0.23255015  0.85122418  0.28963701  1.0
  O  O17  1  0.23255015  0.85122418  0.71036299  1.0
  O  O18  1  0.73255015  0.64877582  0.78963701  1.0
  O  O19  1  0.73255015  0.64877582  0.21036299  1.0
  O  O20  1  0.76744985  0.14877582  0.28963701  1.0
  O  O21  1  0.76744985  0.14877582  0.71036299  1.0
  O  O22  1  0.26744985  0.35122418  0.78963701  1.0
  O  O23  1  0.26744985  0.35122418  0.21036299  1.0
  O  O24  1  0.87328964  0.87237931  0.50000000  1.0
  O  O25  1  0.37328964  0.62762069  0.00000000  1.0
  O  O26  1  0.12671036  0.12762069  0.50000000  1.0
  O  O27  1  0.62671036  0.37237931  0.00000000  1.0
  O  O28  1  0.10848715  0.61370694  0.50000000  1.0
  O  O29  1  0.60848715  0.88629306  0.00000000  1.0
  O  O30  1  0.89151285  0.38629306  0.50000000  1.0
  O  O31  1  0.39151285  0.11370694  0.00000000  1.0
  O  O32  1  0.42101685  0.65069066  0.50000000  1.0
  O  O33  1  0.92101685  0.84930934  0.00000000  1.0
  O  O34  1  0.57898315  0.34930934  0.50000000  1.0
  O  O35  1  0.07898315  0.15069066  0.00000000  1.0
