# generated using pymatgen
data_Ti4CoS8
_symmetry_space_group_name_H-M   'P 1'
_cell_length_a   6.54173322
_cell_length_b   6.54173322
_cell_length_c   8.04525578
_cell_angle_alpha   54.04526290
_cell_angle_beta   125.95473710
_cell_angle_gamma   117.44081936
_symmetry_Int_Tables_number   1
_chemical_formula_structural   Ti4CoS8
_chemical_formula_sum   'Ti4 Co1 S8'
_cell_volume   222.03101361
_cell_formula_units_Z   1
loop_
 _symmetry_equiv_pos_site_id
 _symmetry_equiv_pos_as_xyz
  1  'x, y, z'
loop_
 _atom_site_type_symbol
 _atom_site_label
 _atom_site_symmetry_multiplicity
 _atom_site_fract_x
 _atom_site_fract_y
 _atom_site_fract_z
 _atom_site_occupancy
  Ti  Ti0  1  1.26039438  -0.26039438  0.00493001  1.0
  Ti  Ti1  1  0.73960562  0.26039438  -0.00493001  1.0
  Ti  Ti2  1  0.74083441  -0.25916559  0.50000000  1.0
  Ti  Ti3  1  0.25916559  0.25916559  0.50000000  1.0
  Co  Co4  1  0.00000000  0.00000000  0.00000000  1.0
  S  S5  1  0.96379463  -0.96379463  0.67574232  1.0
  S  S6  1  1.03620537  -0.03620537  0.32425768  1.0
  S  S7  1  1.45116396  -0.45116396  0.66527575  1.0
  S  S8  1  0.54883604  -0.54883604  0.33472425  1.0
  S  S9  1  1.55618218  -0.04128613  0.83400569  1.0
  S  S10  1  1.04128613  -0.55618218  0.83400569  1.0
  S  S11  1  1.44381782  0.04128613  0.16599431  1.0
  S  S12  1  0.95871387  -0.44381782  0.16599431  1.0
