# generated using pymatgen
data_K2Li14Zr3O14
_symmetry_space_group_name_H-M   'P 1'
_cell_length_a   8.25898596
_cell_length_b   8.25898596
_cell_length_c   8.25898596
_cell_angle_alpha   127.57740803
_cell_angle_beta   123.28628152
_cell_angle_gamma   80.87114078
_symmetry_Int_Tables_number   1
_chemical_formula_structural   K2Li14Zr3O14
_chemical_formula_sum   'K2 Li14 Zr3 O14'
_cell_volume   359.80846830
_cell_formula_units_Z   1
loop_
 _symmetry_equiv_pos_site_id
 _symmetry_equiv_pos_as_xyz
  1  'x, y, z'
loop_
 _atom_site_type_symbol
 _atom_site_label
 _atom_site_symmetry_multiplicity
 _atom_site_fract_x
 _atom_site_fract_y
 _atom_site_fract_z
 _atom_site_occupancy
  K  K0  1  0.50000000  0.76001190  1.26001190  1.0
  K  K1  1  0.50000000  0.23998810  0.73998810  1.0
  Li  Li2  1  0.70561641  0.59217346  0.56937907  1.0
  Li  Li3  1  0.97720561  0.86376266  1.56937907  1.0
  Li  Li4  1  1.02279439  0.59217346  0.88655704  1.0
  Li  Li5  1  0.29438359  0.86376266  0.88655704  1.0
  Li  Li6  1  0.70561641  1.13623734  1.11344296  1.0
  Li  Li7  1  0.97720561  0.40782654  1.11344296  1.0
  Li  Li8  1  1.02279439  1.13623734  1.43062093  1.0
  Li  Li9  1  0.29438359  0.40782654  0.43062093  1.0
  Li  Li10  1  0.41381690  0.77144410  0.64237280  1.0
  Li  Li11  1  0.87092870  0.22855590  0.64237280  1.0
  Li  Li12  1  1.12907130  0.77144410  1.35762720  1.0
  Li  Li13  1  0.58618310  0.22855590  0.35762720  1.0
  Li  Li14  1  0.15470627  0.50000000  0.65470627  1.0
  Li  Li15  1  0.84529373  0.50000000  1.34529373  1.0
  Zr  Zr16  1  0.72787668  0.72787668  1.00000000  1.0
  Zr  Zr17  1  0.27212332  0.27212332  -0.00000000  1.0
  Zr  Zr18  1  0.00000000  0.00000000  0.00000000  1.0
  O  O19  1  0.74503237  0.45919266  0.71416029  1.0
  O  O20  1  0.25496763  0.96912791  0.71416029  1.0
  O  O21  1  0.74503237  1.03087209  1.28583971  1.0
  O  O22  1  0.25496763  0.54080734  0.28583971  1.0
  O  O23  1  0.69323823  0.87238438  0.82085385  1.0
  O  O24  1  0.94846948  0.12761562  0.82085385  1.0
  O  O25  1  1.05153052  0.87238438  1.17914615  1.0
  O  O26  1  0.30676177  0.12761562  0.17914615  1.0
  O  O27  1  0.42113276  0.62947504  0.79165772  1.0
  O  O28  1  1.16218267  0.37052496  0.79165772  1.0
  O  O29  1  0.83781733  0.62947504  1.20834228  1.0
  O  O30  1  0.57886724  0.37052496  0.20834228  1.0
  O  O31  1  -0.00000000  0.71240947  0.71240947  1.0
  O  O32  1  -0.00000000  0.28759053  0.28759053  1.0
