# generated using pymatgen
data_NaNbO3
_symmetry_space_group_name_H-M   'P 1'
_cell_length_a   5.63876865
_cell_length_b   5.63876865
_cell_length_c   5.63876865
_cell_angle_alpha   58.99965750
_cell_angle_beta   58.99965750
_cell_angle_gamma   58.99965750
_symmetry_Int_Tables_number   1
_chemical_formula_structural   NaNbO3
_chemical_formula_sum   'Na2 Nb2 O6'
_cell_volume   123.88340814
_cell_formula_units_Z   2
loop_
 _symmetry_equiv_pos_site_id
 _symmetry_equiv_pos_as_xyz
  1  'x, y, z'
loop_
 _atom_site_type_symbol
 _atom_site_label
 _atom_site_symmetry_multiplicity
 _atom_site_fract_x
 _atom_site_fract_y
 _atom_site_fract_z
 _atom_site_occupancy
  Na  Na0  1  0.75775208  -0.24224792  -0.24224792  1.0
  Na  Na1  1  0.25775208  0.25775208  0.25775208  1.0
  Nb  Nb2  1  -0.00076861  -0.00076861  -0.00076861  1.0
  Nb  Nb3  1  0.49923139  0.49923139  -0.50076861  1.0
  O  O4  1  0.67098147  -0.20349547  0.23053053  1.0
  O  O5  1  0.17098147  0.73053053  -0.70349547  1.0
  O  O6  1  0.73053053  0.29650453  -0.82901853  1.0
  O  O7  1  1.23053053  -0.32901853  -0.20349547  1.0
  O  O8  1  0.29650453  0.17098147  -0.26946947  1.0
  O  O9  1  0.79650453  0.23053053  -0.32901853  1.0
