# generated using pymatgen
data_Rb3YbV2O8
_symmetry_space_group_name_H-M   'P 1'
_cell_length_a   6.04720075
_cell_length_b   6.04720075
_cell_length_c   7.97366485
_cell_angle_alpha   90.00000000
_cell_angle_beta   90.00000000
_cell_angle_gamma   120.00000000
_symmetry_Int_Tables_number   1
_chemical_formula_structural   Rb3YbV2O8
_chemical_formula_sum   'Rb3 Yb1 V2 O8'
_cell_volume   252.52093068
_cell_formula_units_Z   1
loop_
 _symmetry_equiv_pos_site_id
 _symmetry_equiv_pos_as_xyz
  1  'x, y, z'
loop_
 _atom_site_type_symbol
 _atom_site_label
 _atom_site_symmetry_multiplicity
 _atom_site_fract_x
 _atom_site_fract_y
 _atom_site_fract_z
 _atom_site_occupancy
  V  V0  1  0.33333333  0.66666667  0.26319268  1.0
  V  V1  1  0.66666667  0.33333333  0.73680732  1.0
  Yb  Yb2  1  0.00000000  0.00000000  0.50000000  1.0
  O  O3  1  0.64870303  0.82435151  0.33530217  1.0
  O  O4  1  0.82435151  0.64870303  0.66469783  1.0
  O  O5  1  0.82435151  0.17564849  0.66469783  1.0
  O  O6  1  0.17564849  0.82435151  0.33530217  1.0
  O  O7  1  0.17564849  0.35129697  0.33530217  1.0
  O  O8  1  0.35129697  0.17564849  0.66469783  1.0
  O  O9  1  0.33333333  0.66666667  0.05454116  1.0
  O  O10  1  0.66666667  0.33333333  0.94545884  1.0
  Rb  Rb11  1  0.33333333  0.66666667  0.70689531  1.0
  Rb  Rb12  1  0.66666667  0.33333333  0.29310469  1.0
  Rb  Rb13  1  0.00000000  0.00000000  0.00000000  1.0
