# generated using pymatgen
data_BiKrF7
_symmetry_space_group_name_H-M   'P 1'
_cell_length_a   5.73052145
_cell_length_b   11.15058074
_cell_length_c   11.69272685
_cell_angle_alpha   90.00000000
_cell_angle_beta   96.72535255
_cell_angle_gamma   90.00000000
_symmetry_Int_Tables_number   1
_chemical_formula_structural   BiKrF7
_chemical_formula_sum   'Bi4 Kr4 F28'
_cell_volume   742.00817886
_cell_formula_units_Z   4
loop_
 _symmetry_equiv_pos_site_id
 _symmetry_equiv_pos_as_xyz
  1  'x, y, z'
loop_
 _atom_site_type_symbol
 _atom_site_label
 _atom_site_symmetry_multiplicity
 _atom_site_fract_x
 _atom_site_fract_y
 _atom_site_fract_z
 _atom_site_occupancy
  Bi  Bi0  1  0.39467206  0.49667937  0.72906773  1.0
  Bi  Bi1  1  0.39467206  1.00332063  0.22906773  1.0
  Bi  Bi2  1  0.60532794  -0.00332063  0.77093227  1.0
  Bi  Bi3  1  0.60532794  0.50332063  0.27093227  1.0
  Kr  Kr4  1  0.98810606  0.75758562  0.96775078  1.0
  Kr  Kr5  1  0.98810606  0.74241438  0.46775078  1.0
  Kr  Kr6  1  0.01189394  0.25758562  0.53224922  1.0
  Kr  Kr7  1  0.01189394  0.24241438  0.03224922  1.0
  F  F8  1  0.85307128  0.38378677  0.98802613  1.0
  F  F9  1  0.85307128  0.11621323  0.48802613  1.0
  F  F10  1  0.14692872  0.88378677  0.51197387  1.0
  F  F11  1  0.14692872  0.61621323  0.01197387  1.0
  F  F12  1  0.89505537  0.09690561  0.75913185  1.0
  F  F13  1  0.89505537  0.40309439  0.25913185  1.0
  F  F14  1  0.10494463  0.59690561  0.74086815  1.0
  F  F15  1  0.10494463  0.90309439  0.24086815  1.0
  F  F16  1  0.82069865  0.91784433  0.92682627  1.0
  F  F17  1  0.82069865  0.58215567  0.42682627  1.0
  F  F18  1  0.17930135  0.41784433  0.57317373  1.0
  F  F19  1  0.17930135  0.08215567  0.07317373  1.0
  F  F20  1  0.74241522  0.86343605  0.68371763  1.0
  F  F21  1  0.74241522  0.63656395  0.18371763  1.0
  F  F22  1  0.25758478  0.36343605  0.81628237  1.0
  F  F23  1  0.25758478  0.13656395  0.31628237  1.0
  F  F24  1  0.58535573  0.57557511  0.86363299  1.0
  F  F25  1  0.58535573  0.92442489  0.36363299  1.0
  F  F26  1  0.41464427  0.07557511  0.63636701  1.0
  F  F27  1  0.41464427  0.42442489  0.13636701  1.0
  F  F28  1  0.48074299  0.61283185  0.60886531  1.0
  F  F29  1  0.48074299  0.88716815  0.10886531  1.0
  F  F30  1  0.51925701  0.11283185  0.89113469  1.0
  F  F31  1  0.51925701  0.38716815  0.39113469  1.0
  F  F32  1  0.35040282  0.88393386  0.80860386  1.0
  F  F33  1  0.35040282  0.61606614  0.30860386  1.0
  F  F34  1  0.64959718  0.38393386  0.69139614  1.0
  F  F35  1  0.64959718  0.11606614  0.19139614  1.0
