# generated using pymatgen
data_KAg3Te2
_symmetry_space_group_name_H-M   'P 1'
_cell_length_a   9.12209083
_cell_length_b   9.12209083
_cell_length_c   9.24532210
_cell_angle_alpha   66.67484883
_cell_angle_beta   113.32515117
_cell_angle_gamma   150.67524482
_symmetry_Int_Tables_number   1
_chemical_formula_structural   KAg3Te2
_chemical_formula_sum   'K2 Ag6 Te4'
_cell_volume   343.78231414
_cell_formula_units_Z   2
loop_
 _symmetry_equiv_pos_site_id
 _symmetry_equiv_pos_as_xyz
  1  'x, y, z'
loop_
 _atom_site_type_symbol
 _atom_site_label
 _atom_site_symmetry_multiplicity
 _atom_site_fract_x
 _atom_site_fract_y
 _atom_site_fract_z
 _atom_site_occupancy
  K  K0  1  0.86459753  0.13540247  0.94709576  1.0
  K  K1  1  0.13540247  -0.13540247  0.05290424  1.0
  Ag  Ag2  1  0.94065287  0.05934713  0.59159465  1.0
  Ag  Ag3  1  0.05934713  -0.05934713  0.40840535  1.0
  Ag  Ag4  1  0.69054167  0.30945833  0.45591293  1.0
  Ag  Ag5  1  0.30945833  -0.30945833  0.54408707  1.0
  Ag  Ag6  1  0.58749445  0.41250555  0.62836338  1.0
  Ag  Ag7  1  0.41250555  -0.41250555  0.37163662  1.0
  Te  Te8  1  0.79629112  0.20370888  0.29536965  1.0
  Te  Te9  1  0.20370888  -0.20370888  0.70463035  1.0
  Te  Te10  1  0.48275617  -0.48275617  0.78556546  1.0
  Te  Te11  1  0.51724383  0.48275617  0.21443454  1.0
