# generated using pymatgen
data_Y2OsC2
_symmetry_space_group_name_H-M   'P 1'
_cell_length_a   6.45548422
_cell_length_b   5.13292659
_cell_length_c   9.79705906
_cell_angle_alpha   90.00000000
_cell_angle_beta   90.00000000
_cell_angle_gamma   90.00000000
_symmetry_Int_Tables_number   1
_chemical_formula_structural   Y2OsC2
_chemical_formula_sum   'Y8 Os4 C8'
_cell_volume   324.63071117
_cell_formula_units_Z   4
loop_
 _symmetry_equiv_pos_site_id
 _symmetry_equiv_pos_as_xyz
  1  'x, y, z'
loop_
 _atom_site_type_symbol
 _atom_site_label
 _atom_site_symmetry_multiplicity
 _atom_site_fract_x
 _atom_site_fract_y
 _atom_site_fract_z
 _atom_site_occupancy
  Y  Y0  1  0.97316302  0.75000000  0.71967847  1.0
  Y  Y1  1  0.47316302  0.75000000  0.78032153  1.0
  Y  Y2  1  0.02683698  0.25000000  0.28032153  1.0
  Y  Y3  1  0.52683698  0.25000000  0.21967847  1.0
  Y  Y4  1  0.81620180  0.75000000  0.05242797  1.0
  Y  Y5  1  0.31620180  0.75000000  0.44757203  1.0
  Y  Y6  1  0.18379820  0.25000000  0.94757203  1.0
  Y  Y7  1  0.68379820  0.25000000  0.55242797  1.0
  Os  Os8  1  0.77425490  0.75000000  0.36444933  1.0
  Os  Os9  1  0.27425490  0.75000000  0.13555067  1.0
  Os  Os10  1  0.22574510  0.25000000  0.63555067  1.0
  Os  Os11  1  0.72574510  0.25000000  0.86444933  1.0
  C  C12  1  1.03805607  0.75000000  0.25817193  1.0
  C  C13  1  0.53805607  0.75000000  0.24182807  1.0
  C  C14  1  -0.03805607  0.25000000  0.74182807  1.0
  C  C15  1  0.46194393  0.25000000  0.75817193  1.0
  C  C16  1  0.67618958  0.75000000  0.55169567  1.0
  C  C17  1  0.17618958  0.75000000  0.94830433  1.0
  C  C18  1  0.32381042  0.25000000  0.44830433  1.0
  C  C19  1  0.82381042  0.25000000  0.05169567  1.0
