# generated using pymatgen
data_Sr3(GaN2)2
_symmetry_space_group_name_H-M   'P 1'
_cell_length_a   5.98376187
_cell_length_b   10.34765155
_cell_length_c   9.59280022
_cell_angle_alpha   90.00000000
_cell_angle_beta   90.00000000
_cell_angle_gamma   90.00000000
_symmetry_Int_Tables_number   1
_chemical_formula_structural   Sr3(GaN2)2
_chemical_formula_sum   'Sr12 Ga8 N16'
_cell_volume   593.96587970
_cell_formula_units_Z   4
loop_
 _symmetry_equiv_pos_site_id
 _symmetry_equiv_pos_as_xyz
  1  'x, y, z'
loop_
 _atom_site_type_symbol
 _atom_site_label
 _atom_site_symmetry_multiplicity
 _atom_site_fract_x
 _atom_site_fract_y
 _atom_site_fract_z
 _atom_site_occupancy
  Sr  Sr0  1  0.39204674  0.34597708  0.58826279  1.0
  Sr  Sr1  1  0.39204674  0.15402292  0.91173721  1.0
  Sr  Sr2  1  0.89204674  0.34597708  0.41173721  1.0
  Sr  Sr3  1  0.89204674  0.15402292  0.08826279  1.0
  Sr  Sr4  1  0.60795326  0.84597708  0.08826279  1.0
  Sr  Sr5  1  0.60795326  0.65402292  0.41173721  1.0
  Sr  Sr6  1  0.10795326  0.84597708  0.91173721  1.0
  Sr  Sr7  1  0.10795326  0.65402292  0.58826279  1.0
  Sr  Sr8  1  0.75000000  0.50000000  0.09526125  1.0
  Sr  Sr9  1  0.75000000  0.00000000  0.40473875  1.0
  Sr  Sr10  1  0.25000000  0.50000000  0.90473875  1.0
  Sr  Sr11  1  0.25000000  0.00000000  0.59526125  1.0
  Ga  Ga12  1  0.83986207  0.25000000  0.75000000  1.0
  Ga  Ga13  1  0.33986207  0.25000000  0.25000000  1.0
  Ga  Ga14  1  0.16013793  0.75000000  0.25000000  1.0
  Ga  Ga15  1  0.66013793  0.75000000  0.75000000  1.0
  Ga  Ga16  1  0.75000000  0.50000000  0.76952011  1.0
  Ga  Ga17  1  0.75000000  0.00000000  0.73047989  1.0
  Ga  Ga18  1  0.25000000  0.50000000  0.23047989  1.0
  Ga  Ga19  1  0.25000000  0.00000000  0.26952011  1.0
  N  N20  1  0.99392097  0.40421267  0.66720706  1.0
  N  N21  1  0.99392097  0.09578733  0.83279294  1.0
  N  N22  1  0.49392097  0.40421267  0.33279294  1.0
  N  N23  1  0.49392097  0.09578733  0.16720706  1.0
  N  N24  1  0.00607903  0.90421267  0.16720706  1.0
  N  N25  1  0.00607903  0.59578733  0.33279294  1.0
  N  N26  1  0.50607903  0.90421267  0.83279294  1.0
  N  N27  1  0.50607903  0.59578733  0.66720706  1.0
  N  N28  1  0.62210380  0.14648953  0.62481452  1.0
  N  N29  1  0.62210380  0.35351047  0.87518548  1.0
  N  N30  1  0.12210380  0.14648953  0.37518548  1.0
  N  N31  1  0.12210380  0.35351047  0.12481452  1.0
  N  N32  1  0.37789620  0.64648953  0.12481452  1.0
  N  N33  1  0.37789620  0.85351047  0.37518548  1.0
  N  N34  1  0.87789620  0.64648953  0.87518548  1.0
  N  N35  1  0.87789620  0.85351047  0.62481452  1.0
