# generated using pymatgen
data_TlBrO4
_symmetry_space_group_name_H-M   'P 1'
_cell_length_a   9.47027265
_cell_length_b   6.27608549
_cell_length_c   7.92324048
_cell_angle_alpha   90.00000000
_cell_angle_beta   90.00000000
_cell_angle_gamma   90.00000000
_symmetry_Int_Tables_number   1
_chemical_formula_structural   TlBrO4
_chemical_formula_sum   'Tl4 Br4 O16'
_cell_volume   470.92762893
_cell_formula_units_Z   4
loop_
 _symmetry_equiv_pos_site_id
 _symmetry_equiv_pos_as_xyz
  1  'x, y, z'
loop_
 _atom_site_type_symbol
 _atom_site_label
 _atom_site_symmetry_multiplicity
 _atom_site_fract_x
 _atom_site_fract_y
 _atom_site_fract_z
 _atom_site_occupancy
  Tl  Tl0  1  0.31873487  0.75000000  0.16707313  1.0
  Tl  Tl1  1  0.81873487  0.75000000  0.33292687  1.0
  Tl  Tl2  1  0.68126513  0.25000000  0.83292687  1.0
  Tl  Tl3  1  0.18126513  0.25000000  0.66707313  1.0
  Br  Br4  1  0.43369620  0.75000000  0.68336461  1.0
  Br  Br5  1  0.93369620  0.75000000  0.81663539  1.0
  Br  Br6  1  0.56630380  0.25000000  0.31663539  1.0
  Br  Br7  1  0.06630380  0.25000000  0.18336461  1.0
  O  O8  1  0.42044216  0.96594165  0.80541241  1.0
  O  O9  1  0.42044216  0.53405835  0.80541241  1.0
  O  O10  1  0.92044216  0.96594165  0.69458759  1.0
  O  O11  1  0.92044216  0.53405835  0.69458759  1.0
  O  O12  1  0.57955784  0.46594165  0.19458759  1.0
  O  O13  1  0.57955784  0.03405835  0.19458759  1.0
  O  O14  1  0.07955784  0.46594165  0.30541241  1.0
  O  O15  1  0.07955784  0.03405835  0.30541241  1.0
  O  O16  1  0.30232649  0.75000000  0.54478574  1.0
  O  O17  1  0.80232649  0.75000000  0.95521426  1.0
  O  O18  1  0.69767351  0.25000000  0.45521426  1.0
  O  O19  1  0.19767351  0.25000000  0.04478574  1.0
  O  O20  1  0.08874826  0.75000000  0.91271430  1.0
  O  O21  1  0.58874826  0.75000000  0.58728570  1.0
  O  O22  1  0.91125174  0.25000000  0.08728570  1.0
  O  O23  1  0.41125174  0.25000000  0.41271430  1.0
