# generated using pymatgen
data_Hf3P
_symmetry_space_group_name_H-M   'P 1'
_cell_length_a   10.91446365
_cell_length_b   10.91446365
_cell_length_c   5.31485912
_cell_angle_alpha   90.00000000
_cell_angle_beta   90.00000000
_cell_angle_gamma   90.00000000
_symmetry_Int_Tables_number   1
_chemical_formula_structural   Hf3P
_chemical_formula_sum   'Hf24 P8'
_cell_volume   633.13533901
_cell_formula_units_Z   8
loop_
 _symmetry_equiv_pos_site_id
 _symmetry_equiv_pos_as_xyz
  1  'x, y, z'
loop_
 _atom_site_type_symbol
 _atom_site_label
 _atom_site_symmetry_multiplicity
 _atom_site_fract_x
 _atom_site_fract_y
 _atom_site_fract_z
 _atom_site_occupancy
  Hf  Hf0  1  0.40448620  0.35592008  1.14966461  1.0
  Hf  Hf1  1  0.90448620  0.85592008  0.35033539  1.0
  Hf  Hf2  1  0.35592008  0.59551380  -0.14966461  1.0
  Hf  Hf3  1  0.85592008  0.09551380  0.64966461  1.0
  Hf  Hf4  1  0.59551380  0.64407992  1.14966461  1.0
  Hf  Hf5  1  0.09551380  0.14407992  0.35033539  1.0
  Hf  Hf6  1  0.64407992  0.40448620  -0.14966461  1.0
  Hf  Hf7  1  0.14407992  0.90448620  0.64966461  1.0
  Hf  Hf8  1  0.36444806  0.78000855  0.39433373  1.0
  Hf  Hf9  1  0.86444806  0.28000855  0.10566627  1.0
  Hf  Hf10  1  0.78000855  0.63555194  0.60566627  1.0
  Hf  Hf11  1  0.28000855  0.13555194  0.89433373  1.0
  Hf  Hf12  1  0.63555194  0.21999145  0.39433373  1.0
  Hf  Hf13  1  0.13555194  0.71999145  0.10566627  1.0
  Hf  Hf14  1  0.21999145  0.36444806  0.60566627  1.0
  Hf  Hf15  1  0.71999145  0.86444806  0.89433373  1.0
  Hf  Hf16  1  1.11637471  0.42305524  0.09631964  1.0
  Hf  Hf17  1  0.61637471  0.92305524  0.40368036  1.0
  Hf  Hf18  1  0.42305524  -0.11637471  0.90368036  1.0
  Hf  Hf19  1  0.92305524  0.38362529  0.59631964  1.0
  Hf  Hf20  1  -0.11637471  0.57694476  0.09631964  1.0
  Hf  Hf21  1  0.38362529  0.07694476  0.40368036  1.0
  Hf  Hf22  1  0.57694476  1.11637471  0.90368036  1.0
  Hf  Hf23  1  0.07694476  0.61637471  0.59631964  1.0
  P  P24  1  0.44517212  0.28669214  0.66469217  1.0
  P  P25  1  0.94517212  0.78669214  -0.16469217  1.0
  P  P26  1  0.28669214  0.55482788  0.33530783  1.0
  P  P27  1  0.78669214  0.05482788  1.16469217  1.0
  P  P28  1  0.55482788  0.71330786  0.66469217  1.0
  P  P29  1  0.05482788  0.21330786  -0.16469217  1.0
  P  P30  1  0.71330786  0.44517212  0.33530783  1.0
  P  P31  1  0.21330786  0.94517212  1.16469217  1.0
