# generated using pymatgen
data_Mn
_symmetry_space_group_name_H-M   'P 1'
_cell_length_a   7.83766765
_cell_length_b   7.83766765
_cell_length_c   7.83766765
_cell_angle_alpha   60.00000000
_cell_angle_beta   60.00000000
_cell_angle_gamma   60.00000000
_symmetry_Int_Tables_number   1
_chemical_formula_structural   Mn
_chemical_formula_sum   Mn22
_cell_volume   340.44388172
_cell_formula_units_Z   22
loop_
 _symmetry_equiv_pos_site_id
 _symmetry_equiv_pos_as_xyz
  1  'x, y, z'
loop_
 _atom_site_type_symbol
 _atom_site_label
 _atom_site_symmetry_multiplicity
 _atom_site_fract_x
 _atom_site_fract_y
 _atom_site_fract_z
 _atom_site_occupancy
  Mn  Mn0  1  -0.19577727  0.80422273  0.19577727  1.0
  Mn  Mn1  1  -0.19577727  0.19577727  0.80422273  1.0
  Mn  Mn2  1  -0.80422273  0.80422273  0.80422273  1.0
  Mn  Mn3  1  0.19577727  1.19577727  -0.19577727  1.0
  Mn  Mn4  1  0.19577727  -0.19577727  0.19577727  1.0
  Mn  Mn5  1  -0.19577727  0.19577727  0.19577727  1.0
  Mn  Mn6  1  0.67363607  0.67363607  -0.32636393  1.0
  Mn  Mn7  1  0.97909180  0.67363607  -0.32636393  1.0
  Mn  Mn8  1  0.67363607  0.67363607  -0.02090820  1.0
  Mn  Mn9  1  0.67363607  0.97909180  -0.32636393  1.0
  Mn  Mn10  1  0.36676385  1.36676385  0.36676385  1.0
  Mn  Mn11  1  -0.10029154  0.36676385  0.36676385  1.0
  Mn  Mn12  1  0.36676385  1.36676385  -0.10029154  1.0
  Mn  Mn13  1  0.36676385  -0.10029154  0.36676385  1.0
  Mn  Mn14  1  0.16018721  0.16018721  0.16018721  1.0
  Mn  Mn15  1  0.51943837  0.16018721  0.16018721  1.0
  Mn  Mn16  1  0.16018721  0.16018721  0.51943837  1.0
  Mn  Mn17  1  0.16018721  0.51943837  0.16018721  1.0
  Mn  Mn18  1  -0.42604305  0.57395695  0.57395695  1.0
  Mn  Mn19  1  1.27812915  0.57395695  -0.42604305  1.0
  Mn  Mn20  1  -0.42604305  0.57395695  1.27812915  1.0
  Mn  Mn21  1  0.57395695  1.27812915  -0.42604305  1.0
