# generated using pymatgen
data_ZrCl4
_symmetry_space_group_name_H-M   'P 1'
_cell_length_a   7.14844611
_cell_length_b   8.31785990
_cell_length_c   6.34707638
_cell_angle_alpha   90.00000000
_cell_angle_beta   108.95756543
_cell_angle_gamma   90.00000000
_symmetry_Int_Tables_number   1
_chemical_formula_structural   ZrCl4
_chemical_formula_sum   'Zr2 Cl8'
_cell_volume   356.92556673
_cell_formula_units_Z   2
loop_
 _symmetry_equiv_pos_site_id
 _symmetry_equiv_pos_as_xyz
  1  'x, y, z'
loop_
 _atom_site_type_symbol
 _atom_site_label
 _atom_site_symmetry_multiplicity
 _atom_site_fract_x
 _atom_site_fract_y
 _atom_site_fract_z
 _atom_site_occupancy
  Zr  Zr0  1  0.50000000  0.64935014  0.75000000  1.0
  Zr  Zr1  1  0.50000000  0.35064986  0.25000000  1.0
  Cl  Cl2  1  0.73029868  0.82959072  0.97185320  1.0
  Cl  Cl3  1  0.73029868  0.17040928  0.47185320  1.0
  Cl  Cl4  1  0.26970132  0.82959072  0.52814680  1.0
  Cl  Cl5  1  0.26970132  0.17040928  0.02814680  1.0
  Cl  Cl6  1  0.70268730  0.40456450  1.00029001  1.0
  Cl  Cl7  1  0.70268730  0.59543550  0.50029001  1.0
  Cl  Cl8  1  0.29731270  0.40456450  0.49970999  1.0
  Cl  Cl9  1  0.29731270  0.59543550  -0.00029001  1.0
