# generated using pymatgen
data_AlBi2Te2BrCl4
_symmetry_space_group_name_H-M   'P 1'
_cell_length_a   11.74940285
_cell_length_b   11.74940285
_cell_length_c   13.92019984
_cell_angle_alpha   80.89050393
_cell_angle_beta   99.10949607
_cell_angle_gamma   136.81777236
_symmetry_Int_Tables_number   1
_chemical_formula_structural   AlBi2Te2BrCl4
_chemical_formula_sum   'Al4 Bi8 Te8 Br4 Cl16'
_cell_volume   1295.83115525
_cell_formula_units_Z   4
loop_
 _symmetry_equiv_pos_site_id
 _symmetry_equiv_pos_as_xyz
  1  'x, y, z'
loop_
 _atom_site_type_symbol
 _atom_site_label
 _atom_site_symmetry_multiplicity
 _atom_site_fract_x
 _atom_site_fract_y
 _atom_site_fract_z
 _atom_site_occupancy
  Al  Al0  1  0.64402682  0.10521724  0.82699512  1.0
  Al  Al1  1  0.89478276  0.35597318  0.32699512  1.0
  Al  Al2  1  1.10521724  0.64402682  0.67300488  1.0
  Al  Al3  1  0.35597318  -0.10521724  0.17300488  1.0
  Bi  Bi4  1  0.56979043  -0.31283937  0.88791145  1.0
  Bi  Bi5  1  1.31283937  0.43020957  0.38791145  1.0
  Bi  Bi6  1  0.68716063  0.56979043  0.61208855  1.0
  Bi  Bi7  1  0.43020957  0.31283937  0.11208855  1.0
  Bi  Bi8  1  0.81359400  -0.05495466  0.38848866  1.0
  Bi  Bi9  1  1.05495466  0.18640600  0.88848866  1.0
  Bi  Bi10  1  0.94504534  0.81359400  0.11151134  1.0
  Bi  Bi11  1  0.18640600  0.05495466  0.61151134  1.0
  Te  Te12  1  0.54489787  -0.29898626  0.53098286  1.0
  Te  Te13  1  1.29898626  0.45510213  0.03098286  1.0
  Te  Te14  1  0.70101374  0.54489787  0.96901714  1.0
  Te  Te15  1  0.45510213  0.29898626  0.46901714  1.0
  Te  Te16  1  0.19870678  0.05622709  0.96180415  1.0
  Te  Te17  1  0.94377291  0.80129322  0.46180415  1.0
  Te  Te18  1  1.05622709  0.19870678  0.53819585  1.0
  Te  Te19  1  0.80129322  -0.05622709  0.03819585  1.0
  Br  Br20  1  0.87356256  0.87356256  0.75000000  1.0
  Br  Br21  1  0.12643744  0.12643744  0.25000000  1.0
  Br  Br22  1  0.37704895  0.37704895  0.75000000  1.0
  Br  Br23  1  0.62295105  0.62295105  0.25000000  1.0
  Cl  Cl24  1  0.71665491  0.05405678  0.72180261  1.0
  Cl  Cl25  1  0.94594322  0.28334509  0.22180261  1.0
  Cl  Cl26  1  1.05405678  0.71665491  0.77819739  1.0
  Cl  Cl27  1  0.28334509  -0.05405678  0.27819739  1.0
  Cl  Cl28  1  0.45978699  -0.13158185  0.90936805  1.0
  Cl  Cl29  1  1.13158185  0.54021301  0.40936805  1.0
  Cl  Cl30  1  0.86841815  0.45978699  0.59063195  1.0
  Cl  Cl31  1  0.54021301  0.13158185  0.09063195  1.0
  Cl  Cl32  1  0.71136399  0.13247343  0.41835867  1.0
  Cl  Cl33  1  0.86752657  0.28863601  0.91835867  1.0
  Cl  Cl34  1  1.13247343  0.71136399  0.08164133  1.0
  Cl  Cl35  1  0.28863601  -0.13247343  0.58164133  1.0
  Cl  Cl36  1  0.54002452  0.19762330  0.77091904  1.0
  Cl  Cl37  1  0.80237670  0.45997548  0.27091904  1.0
  Cl  Cl38  1  1.19762330  0.54002452  0.72908096  1.0
  Cl  Cl39  1  0.45997548  -0.19762330  0.22908096  1.0
