# generated using pymatgen
data_Ba6SrZr(BO3)6
_symmetry_space_group_name_H-M   'P 1'
_cell_length_a   8.25978501
_cell_length_b   8.25978501
_cell_length_c   8.25978501
_cell_angle_alpha   105.68095145
_cell_angle_beta   105.68095145
_cell_angle_gamma   105.68095144
_symmetry_Int_Tables_number   1
_chemical_formula_structural   Ba6SrZr(BO3)6
_chemical_formula_sum   'Ba6 Sr1 Zr1 B6 O18'
_cell_volume   485.19896563
_cell_formula_units_Z   1
loop_
 _symmetry_equiv_pos_site_id
 _symmetry_equiv_pos_as_xyz
  1  'x, y, z'
loop_
 _atom_site_type_symbol
 _atom_site_label
 _atom_site_symmetry_multiplicity
 _atom_site_fract_x
 _atom_site_fract_y
 _atom_site_fract_z
 _atom_site_occupancy
  Ba  Ba0  1  0.76352141  0.65475368  0.15014416  1.0
  Ba  Ba1  1  1.34524632  -0.15014416  0.23647859  1.0
  Ba  Ba2  1  0.84985584  0.23647859  0.34524632  1.0
  Ba  Ba3  1  1.23647859  0.34524632  -0.15014416  1.0
  Ba  Ba4  1  0.65475368  1.15014416  -0.23647859  1.0
  Ba  Ba5  1  1.15014416  0.76352141  -0.34524632  1.0
  Sr  Sr6  1  0.50000000  0.50000000  0.50000000  1.0
  Zr  Zr7  1  0.00000000  0.00000000  0.00000000  1.0
  B  B8  1  1.55165841  0.79947302  -0.11945244  1.0
  B  B9  1  1.20052698  0.11945244  -0.55165841  1.0
  B  B10  1  1.11945244  -0.55165841  0.20052698  1.0
  B  B11  1  0.44834159  0.20052698  0.11945244  1.0
  B  B12  1  0.79947302  0.88054756  0.55165841  1.0
  B  B13  1  0.88054756  1.55165841  -0.20052698  1.0
  O  O14  1  0.73242642  0.92184225  -0.00831597  1.0
  O  O15  1  1.07815775  0.00831597  -0.73242642  1.0
  O  O16  1  1.00831597  -0.73242642  0.07815775  1.0
  O  O17  1  0.26757358  0.07815775  0.00831597  1.0
  O  O18  1  0.92184225  0.99168403  -0.26757358  1.0
  O  O19  1  0.99168403  0.73242642  -0.07815775  1.0
  O  O20  1  1.48666185  0.78587449  -0.29637115  1.0
  O  O21  1  1.21412551  0.29637115  -0.48666185  1.0
  O  O22  1  1.29637115  -0.48666185  0.21412551  1.0
  O  O23  1  0.51333815  0.21412551  0.29637115  1.0
  O  O24  1  0.78587449  0.70362885  0.48666185  1.0
  O  O25  1  0.70362885  1.48666185  -0.21412551  1.0
  O  O26  1  0.55028955  0.29388681  0.04335974  1.0
  O  O27  1  0.70611319  0.95664026  0.44971045  1.0
  O  O28  1  0.95664026  1.44971045  -0.29388681  1.0
  O  O29  1  1.44971045  0.70611319  -0.04335974  1.0
  O  O30  1  1.29388681  0.04335974  -0.44971045  1.0
  O  O31  1  1.04335974  -0.44971045  0.29388681  1.0
