# generated using pymatgen
data_Hf4Fe4Ge7
_symmetry_space_group_name_H-M   'P 1'
_cell_length_a   9.79148500
_cell_length_b   9.79148500
_cell_length_c   9.79148500
_cell_angle_alpha   93.95047631
_cell_angle_beta   93.95047631
_cell_angle_gamma   149.56581511
_symmetry_Int_Tables_number   1
_chemical_formula_structural   Hf4Fe4Ge7
_chemical_formula_sum   'Hf8 Fe8 Ge14'
_cell_volume   458.84505152
_cell_formula_units_Z   2
loop_
 _symmetry_equiv_pos_site_id
 _symmetry_equiv_pos_as_xyz
  1  'x, y, z'
loop_
 _atom_site_type_symbol
 _atom_site_label
 _atom_site_symmetry_multiplicity
 _atom_site_fract_x
 _atom_site_fract_y
 _atom_site_fract_z
 _atom_site_occupancy
  Hf  Hf0  1  -0.00000000  0.80569324  0.80569324  1.0
  Hf  Hf1  1  0.80569324  1.00000000  0.80569324  1.0
  Hf  Hf2  1  1.19430676  1.00000000  1.19430676  1.0
  Hf  Hf3  1  0.00000000  0.19430676  0.19430676  1.0
  Hf  Hf4  1  0.63902797  0.63902797  0.27805595  1.0
  Hf  Hf5  1  1.36097203  0.63902797  1.00000000  1.0
  Hf  Hf6  1  0.63902797  0.36097203  1.00000000  1.0
  Hf  Hf7  1  0.36097203  0.36097203  0.72194405  1.0
  Fe  Fe8  1  1.10099521  0.60099521  1.20199043  1.0
  Fe  Fe9  1  1.60099521  1.10099521  1.20199043  1.0
  Fe  Fe10  1  0.39900479  0.60099521  0.50000000  1.0
  Fe  Fe11  1  0.89900479  1.10099521  0.50000000  1.0
  Fe  Fe12  1  1.10099521  0.89900479  1.50000000  1.0
  Fe  Fe13  1  1.60099521  1.39900479  1.50000000  1.0
  Fe  Fe14  1  0.39900479  0.89900479  0.79800957  1.0
  Fe  Fe15  1  0.89900479  1.39900479  0.79800957  1.0
  Ge  Ge16  1  0.50000000  0.78938410  0.28938410  1.0
  Ge  Ge17  1  0.78938410  0.50000000  1.28938410  1.0
  Ge  Ge18  1  0.21061590  0.50000000  0.71061590  1.0
  Ge  Ge19  1  0.50000000  1.21061590  0.71061590  1.0
  Ge  Ge20  1  -0.00000000  0.59371906  0.59371906  1.0
  Ge  Ge21  1  0.59371906  1.00000000  0.59371906  1.0
  Ge  Ge22  1  1.40628094  1.00000000  1.40628094  1.0
  Ge  Ge23  1  -0.00000000  0.40628094  0.40628094  1.0
  Ge  Ge24  1  0.79434606  0.79434606  0.58869212  1.0
  Ge  Ge25  1  1.20565394  0.79434606  1.00000000  1.0
  Ge  Ge26  1  0.79434606  0.20565394  1.00000000  1.0
  Ge  Ge27  1  0.20565394  0.20565394  0.41130788  1.0
  Ge  Ge28  1  0.74859627  0.74859627  -0.00000000  1.0
  Ge  Ge29  1  0.25140373  0.25140373  0.00000000  1.0
