# generated using pymatgen
data_GdPOs2C
_symmetry_space_group_name_H-M   'P 1'
_cell_length_a   5.86477294
_cell_length_b   5.86477294
_cell_length_c   7.07271279
_cell_angle_alpha   90.00000000
_cell_angle_beta   90.00000000
_cell_angle_gamma   141.55714345
_symmetry_Int_Tables_number   1
_chemical_formula_structural   GdPOs2C
_chemical_formula_sum   'Gd2 P2 Os4 C2'
_cell_volume   151.24913722
_cell_formula_units_Z   2
loop_
 _symmetry_equiv_pos_site_id
 _symmetry_equiv_pos_as_xyz
  1  'x, y, z'
loop_
 _atom_site_type_symbol
 _atom_site_label
 _atom_site_symmetry_multiplicity
 _atom_site_fract_x
 _atom_site_fract_y
 _atom_site_fract_z
 _atom_site_occupancy
  Gd  Gd0  1  0.45523760  0.54476240  0.75000000  1.0
  Gd  Gd1  1  -0.45523760  0.45523760  0.25000000  1.0
  P  P2  1  -0.26974885  0.26974885  0.75000000  1.0
  P  P3  1  0.26974885  0.73025115  0.25000000  1.0
  Os  Os4  1  0.16678292  0.83321708  0.94638712  1.0
  Os  Os5  1  0.16678292  0.83321708  0.55361288  1.0
  Os  Os6  1  -0.16678292  0.16678292  0.44638712  1.0
  Os  Os7  1  -0.16678292  0.16678292  0.05361288  1.0
  C  C8  1  0.00000000  0.00000000  0.00000000  1.0
  C  C9  1  0.00000000  0.00000000  0.50000000  1.0
