# generated using pymatgen
data_Sb2O5
_symmetry_space_group_name_H-M   'P 1'
_cell_length_a   7.86564349
_cell_length_b   7.86564349
_cell_length_c   7.86564349
_cell_angle_alpha   60.00000000
_cell_angle_beta   60.00000000
_cell_angle_gamma   60.00000000
_symmetry_Int_Tables_number   1
_chemical_formula_structural   Sb2O5
_chemical_formula_sum   'Sb8 O20'
_cell_volume   344.10245898
_cell_formula_units_Z   4
loop_
 _symmetry_equiv_pos_site_id
 _symmetry_equiv_pos_as_xyz
  1  'x, y, z'
loop_
 _atom_site_type_symbol
 _atom_site_label
 _atom_site_symmetry_multiplicity
 _atom_site_fract_x
 _atom_site_fract_y
 _atom_site_fract_z
 _atom_site_occupancy
  Sb  Sb0  1  -0.11930936  0.88069064  0.35792808  1.0
  Sb  Sb1  1  0.88069064  -0.64207192  0.88069064  1.0
  Sb  Sb2  1  -0.64207192  0.88069064  0.88069064  1.0
  Sb  Sb3  1  0.88069064  -0.11930936  0.88069064  1.0
  Sb  Sb4  1  0.36930936  0.36930936  -0.10792808  1.0
  Sb  Sb5  1  0.36930936  -0.10792808  0.36930936  1.0
  Sb  Sb6  1  -0.10792808  0.36930936  0.36930936  1.0
  Sb  Sb7  1  0.36930936  0.36930936  0.36930936  1.0
  O  O8  1  0.56597442  -0.43402558  0.93402558  1.0
  O  O9  1  0.93402558  -0.43402558  0.93402558  1.0
  O  O10  1  0.56597442  -0.06597442  0.93402558  1.0
  O  O11  1  0.93402558  -0.06597442  0.56597442  1.0
  O  O12  1  0.56597442  -0.06597442  0.56597442  1.0
  O  O13  1  0.93402558  -0.43402558  0.56597442  1.0
  O  O14  1  -0.31597442  0.68402558  0.31597442  1.0
  O  O15  1  0.31597442  0.68402558  0.31597442  1.0
  O  O16  1  -0.31597442  1.31597442  0.31597442  1.0
  O  O17  1  0.31597442  0.31597442  -0.31597442  1.0
  O  O18  1  0.68402558  0.31597442  0.68402558  1.0
  O  O19  1  0.31597442  0.68402558  -0.31597442  1.0
  O  O20  1  0.62500000  -0.37500000  1.12500000  1.0
  O  O21  1  0.62500000  0.12500000  0.62500000  1.0
  O  O22  1  1.12500000  -0.37500000  0.62500000  1.0
  O  O23  1  0.62500000  -0.37500000  0.62500000  1.0
  O  O24  1  0.12500000  0.12500000  1.62500000  1.0
  O  O25  1  0.12500000  0.62500000  0.12500000  1.0
  O  O26  1  0.62500000  0.12500000  1.12500000  1.0
  O  O27  1  0.12500000  0.12500000  0.12500000  1.0
