# generated using pymatgen
data_Ta6Ga5
_symmetry_space_group_name_H-M   'P 1'
_cell_length_a   8.93746884
_cell_length_b   8.93746884
_cell_length_c   5.47467791
_cell_angle_alpha   90.00000000
_cell_angle_beta   90.00000000
_cell_angle_gamma   120.00000000
_symmetry_Int_Tables_number   1
_chemical_formula_structural   Ta6Ga5
_chemical_formula_sum   'Ta12 Ga10'
_cell_volume   378.72003956
_cell_formula_units_Z   2
loop_
 _symmetry_equiv_pos_site_id
 _symmetry_equiv_pos_as_xyz
  1  'x, y, z'
loop_
 _atom_site_type_symbol
 _atom_site_label
 _atom_site_symmetry_multiplicity
 _atom_site_fract_x
 _atom_site_fract_y
 _atom_site_fract_z
 _atom_site_occupancy
  Ta  Ta0  1  0.15316242  0.84683758  0.25000000  1.0
  Ta  Ta1  1  0.15316242  0.30632483  0.25000000  1.0
  Ta  Ta2  1  0.84683758  0.15316242  0.75000000  1.0
  Ta  Ta3  1  0.84683758  0.69367517  0.75000000  1.0
  Ta  Ta4  1  0.69367517  0.84683758  0.25000000  1.0
  Ta  Ta5  1  0.30632483  0.15316242  0.75000000  1.0
  Ta  Ta6  1  0.50000000  0.50000000  0.50000000  1.0
  Ta  Ta7  1  0.50000000  0.50000000  0.00000000  1.0
  Ta  Ta8  1  0.50000000  0.00000000  0.50000000  1.0
  Ta  Ta9  1  0.50000000  0.00000000  0.00000000  1.0
  Ta  Ta10  1  -0.00000000  0.50000000  0.50000000  1.0
  Ta  Ta11  1  -0.00000000  0.50000000  0.00000000  1.0
  Ga  Ga12  1  0.79424570  0.20575430  0.25000000  1.0
  Ga  Ga13  1  0.79424570  0.58849140  0.25000000  1.0
  Ga  Ga14  1  0.20575430  0.79424570  0.75000000  1.0
  Ga  Ga15  1  0.20575430  0.41150860  0.75000000  1.0
  Ga  Ga16  1  0.41150860  0.20575430  0.25000000  1.0
  Ga  Ga17  1  0.58849140  0.79424570  0.75000000  1.0
  Ga  Ga18  1  0.33333333  0.66666667  0.25000000  1.0
  Ga  Ga19  1  0.66666667  0.33333333  0.75000000  1.0
  Ga  Ga20  1  0.00000000  0.00000000  0.50000000  1.0
  Ga  Ga21  1  0.00000000  0.00000000  0.00000000  1.0
