# generated using pymatgen
data_Li2AgGe
_symmetry_space_group_name_H-M   'P 1'
_cell_length_a   14.59037769
_cell_length_b   14.59037769
_cell_length_c   14.59037769
_cell_angle_alpha   17.64842560
_cell_angle_beta   17.64842560
_cell_angle_gamma   17.64842560
_symmetry_Int_Tables_number   1
_chemical_formula_structural   Li2AgGe
_chemical_formula_sum   'Li8 Ag4 Ge4'
_cell_volume   249.19415858
_cell_formula_units_Z   4
loop_
 _symmetry_equiv_pos_site_id
 _symmetry_equiv_pos_as_xyz
  1  'x, y, z'
loop_
 _atom_site_type_symbol
 _atom_site_label
 _atom_site_symmetry_multiplicity
 _atom_site_fract_x
 _atom_site_fract_y
 _atom_site_fract_z
 _atom_site_occupancy
  Li  Li0  1  0.90726381  0.90726381  0.90726381  1.0
  Li  Li1  1  1.09273619  1.09273619  0.09273619  1.0
  Li  Li2  1  0.84558323  0.84558323  0.84558323  1.0
  Li  Li3  1  1.15441677  1.15441677  0.15441677  1.0
  Li  Li4  1  1.65775577  0.65775577  0.65775577  1.0
  Li  Li5  1  1.34224423  0.34224423  0.34224423  1.0
  Li  Li6  1  1.59637527  0.59637527  0.59637527  1.0
  Li  Li7  1  1.40362473  0.40362473  0.40362473  1.0
  Ag  Ag8  1  0.71947984  0.71947984  0.71947984  1.0
  Ag  Ag9  1  1.28052016  1.28052016  0.28052016  1.0
  Ag  Ag10  1  1.53478998  0.53478998  0.53478998  1.0
  Ag  Ag11  1  1.46521002  0.46521002  0.46521002  1.0
  Ge  Ge12  1  0.97020924  0.97020924  0.97020924  1.0
  Ge  Ge13  1  1.02979076  1.02979076  0.02979076  1.0
  Ge  Ge14  1  0.78316344  0.78316344  0.78316344  1.0
  Ge  Ge15  1  1.21683656  1.21683656  0.21683656  1.0
