# generated using pymatgen
data_Zr3As2
_symmetry_space_group_name_H-M   'P 1'
_cell_length_a   10.60108284
_cell_length_b   3.76595377
_cell_length_c   10.17098965
_cell_angle_alpha   90.00000000
_cell_angle_beta   90.00000000
_cell_angle_gamma   90.00000000
_symmetry_Int_Tables_number   1
_chemical_formula_structural   Zr3As2
_chemical_formula_sum   'Zr12 As8'
_cell_volume   406.05833112
_cell_formula_units_Z   4
loop_
 _symmetry_equiv_pos_site_id
 _symmetry_equiv_pos_as_xyz
  1  'x, y, z'
loop_
 _atom_site_type_symbol
 _atom_site_label
 _atom_site_symmetry_multiplicity
 _atom_site_fract_x
 _atom_site_fract_y
 _atom_site_fract_z
 _atom_site_occupancy
  Zr  Zr0  1  0.37610379  0.75000000  0.93252120  1.0
  Zr  Zr1  1  0.87610379  0.75000000  0.56747880  1.0
  Zr  Zr2  1  0.62389621  0.25000000  0.06747880  1.0
  Zr  Zr3  1  0.12389621  0.25000000  0.43252120  1.0
  Zr  Zr4  1  0.21493516  0.75000000  0.20451009  1.0
  Zr  Zr5  1  0.71493516  0.75000000  0.29548991  1.0
  Zr  Zr6  1  0.78506484  0.25000000  0.79548991  1.0
  Zr  Zr7  1  0.28506484  0.25000000  0.70451009  1.0
  Zr  Zr8  1  0.04461610  0.75000000  0.87494981  1.0
  Zr  Zr9  1  0.54461610  0.75000000  0.62505019  1.0
  Zr  Zr10  1  0.95538390  0.25000000  0.12505019  1.0
  Zr  Zr11  1  0.45538390  0.25000000  0.37494981  1.0
  As  As12  1  0.47175772  0.75000000  0.17967631  1.0
  As  As13  1  0.97175772  0.75000000  0.32032369  1.0
  As  As14  1  0.52824228  0.25000000  0.82032369  1.0
  As  As15  1  0.02824228  0.25000000  0.67967631  1.0
  As  As16  1  0.30556185  0.75000000  0.49983206  1.0
  As  As17  1  0.80556185  0.75000000  1.00016794  1.0
  As  As18  1  0.69443815  0.25000000  0.50016794  1.0
  As  As19  1  0.19443815  0.25000000  -0.00016794  1.0
