# generated using pymatgen
data_Gd3Pd4
_symmetry_space_group_name_H-M   'P 1'
_cell_length_a   7.97801256
_cell_length_b   7.97801256
_cell_length_c   7.97801256
_cell_angle_alpha   114.35435031
_cell_angle_beta   114.35435031
_cell_angle_gamma   114.35435031
_symmetry_Int_Tables_number   1
_chemical_formula_structural   Gd3Pd4
_chemical_formula_sum   'Gd6 Pd8'
_cell_volume   300.23070134
_cell_formula_units_Z   2
loop_
 _symmetry_equiv_pos_site_id
 _symmetry_equiv_pos_as_xyz
  1  'x, y, z'
loop_
 _atom_site_type_symbol
 _atom_site_label
 _atom_site_symmetry_multiplicity
 _atom_site_fract_x
 _atom_site_fract_y
 _atom_site_fract_z
 _atom_site_occupancy
  Gd  Gd0  1  1.09463427  0.22204473  0.47361936  1.0
  Gd  Gd1  1  0.52638064  -0.09463427  -0.22204473  1.0
  Gd  Gd2  1  0.77795527  0.52638064  -0.09463427  1.0
  Gd  Gd3  1  0.90536573  0.77795527  0.52638064  1.0
  Gd  Gd4  1  0.47361936  0.09463427  0.22204473  1.0
  Gd  Gd5  1  1.22204473  1.47361936  0.09463427  1.0
  Pd  Pd6  1  0.94982828  0.43935816  0.27447768  1.0
  Pd  Pd7  1  0.72552232  1.05017172  -0.43935816  1.0
  Pd  Pd8  1  0.56064184  -0.27447768  0.05017172  1.0
  Pd  Pd9  1  1.05017172  0.56064184  0.72552232  1.0
  Pd  Pd10  1  1.27447768  0.94982828  0.43935816  1.0
  Pd  Pd11  1  0.43935816  0.27447768  -0.05017172  1.0
  Pd  Pd12  1  0.50000000  0.50000000  0.50000000  1.0
  Pd  Pd13  1  0.00000000  -0.00000000  -0.00000000  1.0
