# generated using pymatgen
data_K2ZnSn3S8
_symmetry_space_group_name_H-M   'P 1'
_cell_length_a   7.46269591
_cell_length_b   15.78687158
_cell_length_c   8.16516034
_cell_angle_alpha   94.32162971
_cell_angle_beta   113.68628802
_cell_angle_gamma   89.32209096
_symmetry_Int_Tables_number   1
_chemical_formula_structural   K2ZnSn3S8
_chemical_formula_sum   'K4 Zn2 Sn6 S16'
_cell_volume   878.23852150
_cell_formula_units_Z   2
loop_
 _symmetry_equiv_pos_site_id
 _symmetry_equiv_pos_as_xyz
  1  'x, y, z'
loop_
 _atom_site_type_symbol
 _atom_site_label
 _atom_site_symmetry_multiplicity
 _atom_site_fract_x
 _atom_site_fract_y
 _atom_site_fract_z
 _atom_site_occupancy
  K  K0  1  -0.66726927  -0.66739000  -0.75619798  1.0
  K  K1  1  -0.33273073  -0.33261000  -0.24380202  1.0
  K  K2  1  -0.35761580  -0.98014594  -0.68158473  1.0
  K  K3  1  -0.64238420  -0.01985406  -0.31841527  1.0
  Zn  Zn4  1  -0.74614738  -0.77691929  -0.26811680  1.0
  Zn  Zn5  1  -0.25385262  -0.22308071  -0.73188320  1.0
  Sn  Sn6  1  -0.98231804  -0.57268850  -0.35656447  1.0
  Sn  Sn7  1  -0.01768196  -0.42731150  -0.64343553  1.0
  Sn  Sn8  1  -0.92677589  -0.89994518  -1.00838116  1.0
  Sn  Sn9  1  -0.07322411  -0.10005482  0.00838116  1.0
  Sn  Sn10  1  -0.73477605  -0.24269949  -0.69430006  1.0
  Sn  Sn11  1  -0.26522395  -0.75730051  -0.30569994  1.0
  S  S12  1  -0.92991592  -0.18195560  -0.54598635  1.0
  S  S13  1  -0.07008408  -0.81804440  -0.45401365  1.0
  S  S14  1  -0.96012732  -0.41604876  -0.32315423  1.0
  S  S15  1  -0.03987268  -0.58395124  -0.67684577  1.0
  S  S16  1  -0.88365945  -0.98913283  -0.75895193  1.0
  S  S17  1  -0.11634055  -0.01086717  -0.24104807  1.0
  S  S18  1  -0.70895671  -0.39713761  -0.66930788  1.0
  S  S19  1  -0.29104329  -0.60286239  -0.33069212  1.0
  S  S20  1  -0.62059280  -0.86116435  -1.01020124  1.0
  S  S21  1  -0.37940720  -0.13883565  0.01020124  1.0
  S  S22  1  -0.58686062  -0.81928335  -0.45871499  1.0
  S  S23  1  -0.41313938  -0.18071665  -0.54128501  1.0
  S  S24  1  -0.30399748  -0.36512866  -0.84638815  1.0
  S  S25  1  -0.69600252  -0.63487134  -0.15361185  1.0
  S  S26  1  -0.12056268  -0.77878266  -0.98237911  1.0
  S  S27  1  -0.87943732  -0.22121734  -0.01762089  1.0
