# generated using pymatgen
data_NaB15
_symmetry_space_group_name_H-M   'P 1'
_cell_length_a   7.26056479
_cell_length_b   7.26056479
_cell_length_c   7.26056479
_cell_angle_alpha   132.56007796
_cell_angle_beta   89.72452818
_cell_angle_gamma   109.17441789
_symmetry_Int_Tables_number   1
_chemical_formula_structural   NaB15
_chemical_formula_sum   'Na2 B30'
_cell_volume   252.95174280
_cell_formula_units_Z   2
loop_
 _symmetry_equiv_pos_site_id
 _symmetry_equiv_pos_as_xyz
  1  'x, y, z'
loop_
 _atom_site_type_symbol
 _atom_site_label
 _atom_site_symmetry_multiplicity
 _atom_site_fract_x
 _atom_site_fract_y
 _atom_site_fract_z
 _atom_site_occupancy
  Na  Na0  1  1.08863117  0.33863117  0.75000000  1.0
  Na  Na1  1  0.91136883  0.66136883  0.25000000  1.0
  B  B2  1  1.28690365  0.67393003  1.29160190  1.0
  B  B3  1  1.11767187  1.00469825  1.79160190  1.0
  B  B4  1  0.71309635  1.00469825  0.38702638  1.0
  B  B5  1  0.88232813  1.67393003  0.88702638  1.0
  B  B6  1  1.28690365  0.99530175  1.61297362  1.0
  B  B7  1  1.11767187  0.32606997  1.11297362  1.0
  B  B8  1  0.71309635  1.32606997  0.70839810  1.0
  B  B9  1  0.88232813  0.99530175  0.20839810  1.0
  B  B10  1  0.88233719  0.71575065  0.67128397  1.0
  B  B11  1  1.45553333  0.78894678  1.17128397  1.0
  B  B12  1  1.11766281  0.78894678  0.83341346  1.0
  B  B13  1  0.54446667  0.71575065  0.33341346  1.0
  B  B14  1  0.88233719  1.21105322  1.16658654  1.0
  B  B15  1  1.45553333  1.28424935  1.66658654  1.0
  B  B16  1  1.11766281  1.28424935  1.32871603  1.0
  B  B17  1  0.54446667  1.21105322  0.82871603  1.0
  B  B18  1  1.74581373  0.84719036  0.89862337  1.0
  B  B19  1  1.55143300  1.15280964  1.39862337  1.0
  B  B20  1  0.25418627  0.15280964  0.10137663  1.0
  B  B21  1  0.44856700  0.84719036  0.60137663  1.0
  B  B22  1  1.46083245  0.60612504  0.85470741  1.0
  B  B23  1  0.74858237  0.39387496  0.35470741  1.0
  B  B24  1  0.53916755  0.39387496  0.14529259  1.0
  B  B25  1  1.25141763  0.60612504  0.64529259  1.0
  B  B26  1  1.28883546  0.95363273  1.33520272  1.0
  B  B27  1  0.88156999  1.04636727  0.83520272  1.0
  B  B28  1  0.71116454  1.04636727  0.66479728  1.0
  B  B29  1  1.11843001  0.95363273  1.16479728  1.0
  B  B30  1  1.49677419  0.74677419  0.75000000  1.0
  B  B31  1  0.50322581  0.25322581  0.25000000  1.0
