# generated using pymatgen
data_TbZnSb2
_symmetry_space_group_name_H-M   'P 1'
_cell_length_a   4.44734191
_cell_length_b   4.44734191
_cell_length_c   9.99313954
_cell_angle_alpha   90.00000000
_cell_angle_beta   90.00000000
_cell_angle_gamma   90.00000000
_symmetry_Int_Tables_number   1
_chemical_formula_structural   TbZnSb2
_chemical_formula_sum   'Tb2 Zn2 Sb4'
_cell_volume   197.65280839
_cell_formula_units_Z   2
loop_
 _symmetry_equiv_pos_site_id
 _symmetry_equiv_pos_as_xyz
  1  'x, y, z'
loop_
 _atom_site_type_symbol
 _atom_site_label
 _atom_site_symmetry_multiplicity
 _atom_site_fract_x
 _atom_site_fract_y
 _atom_site_fract_z
 _atom_site_occupancy
  Tb  Tb0  1  0.50000000  0.00000000  0.23735740  1.0
  Tb  Tb1  1  0.00000000  0.50000000  0.76264260  1.0
  Zn  Zn2  1  0.00000000  0.00000000  0.50000000  1.0
  Zn  Zn3  1  0.50000000  0.50000000  0.50000000  1.0
  Sb  Sb4  1  0.00000000  0.00000000  0.00000000  1.0
  Sb  Sb5  1  0.50000000  0.50000000  0.00000000  1.0
  Sb  Sb6  1  0.50000000  0.00000000  0.67339660  1.0
  Sb  Sb7  1  0.00000000  0.50000000  0.32660340  1.0
