# generated using pymatgen
data_Ba2Ge
_symmetry_space_group_name_H-M   'P 1'
_cell_length_a   8.55903083
_cell_length_b   5.43302109
_cell_length_c   10.22603285
_cell_angle_alpha   90.00000000
_cell_angle_beta   90.00000000
_cell_angle_gamma   90.00000000
_symmetry_Int_Tables_number   1
_chemical_formula_structural   Ba2Ge
_chemical_formula_sum   'Ba8 Ge4'
_cell_volume   475.52479298
_cell_formula_units_Z   4
loop_
 _symmetry_equiv_pos_site_id
 _symmetry_equiv_pos_as_xyz
  1  'x, y, z'
loop_
 _atom_site_type_symbol
 _atom_site_label
 _atom_site_symmetry_multiplicity
 _atom_site_fract_x
 _atom_site_fract_y
 _atom_site_fract_z
 _atom_site_occupancy
  Ba  Ba0  1  0.97821275  0.75000000  0.67059175  1.0
  Ba  Ba1  1  0.47821275  0.75000000  0.82940825  1.0
  Ba  Ba2  1  0.02178725  0.25000000  0.32940825  1.0
  Ba  Ba3  1  0.52178725  0.25000000  0.17059175  1.0
  Ba  Ba4  1  0.85474209  0.75000000  0.08278253  1.0
  Ba  Ba5  1  0.35474209  0.75000000  0.41721747  1.0
  Ba  Ba6  1  0.14525791  0.25000000  0.91721747  1.0
  Ba  Ba7  1  0.64525791  0.25000000  0.58278253  1.0
  Ge  Ge8  1  0.75040789  0.75000000  0.39758144  1.0
  Ge  Ge9  1  0.25040789  0.75000000  0.10241856  1.0
  Ge  Ge10  1  0.24959211  0.25000000  0.60241856  1.0
  Ge  Ge11  1  0.74959211  0.25000000  0.89758144  1.0
