# generated using pymatgen
data_LiYF4
_symmetry_space_group_name_H-M   'P 1'
_cell_length_a   5.22993899
_cell_length_b   10.82326444
_cell_length_c   5.22208945
_cell_angle_alpha   90.00000000
_cell_angle_beta   90.14673904
_cell_angle_gamma   90.00000000
_symmetry_Int_Tables_number   1
_chemical_formula_structural   LiYF4
_chemical_formula_sum   'Li4 Y4 F16'
_cell_volume   295.59546999
_cell_formula_units_Z   4
loop_
 _symmetry_equiv_pos_site_id
 _symmetry_equiv_pos_as_xyz
  1  'x, y, z'
loop_
 _atom_site_type_symbol
 _atom_site_label
 _atom_site_symmetry_multiplicity
 _atom_site_fract_x
 _atom_site_fract_y
 _atom_site_fract_z
 _atom_site_occupancy
  Li  Li0  1  0.74991815  0.62560122  0.99997822  1.0
  Li  Li1  1  0.74991815  0.87439878  0.49997822  1.0
  Li  Li2  1  0.25008185  0.12560122  0.50002178  1.0
  Li  Li3  1  0.25008185  0.37439878  0.00002178  1.0
  Y  Y4  1  0.24994778  0.87510150  0.99999341  1.0
  Y  Y5  1  0.24994778  0.62489850  0.49999341  1.0
  Y  Y6  1  0.75005222  0.37510150  0.50000659  1.0
  Y  Y7  1  0.75005222  0.12489850  0.00000659  1.0
  F  F8  1  1.03240292  0.70562634  0.83395794  1.0
  F  F9  1  1.03240292  0.79437366  0.33395794  1.0
  F  F10  1  -0.03240292  0.20562634  0.66604206  1.0
  F  F11  1  -0.03240292  0.29437366  0.16604206  1.0
  F  F12  1  0.91501581  0.95552852  0.78234063  1.0
  F  F13  1  0.91501581  0.54447148  0.28234063  1.0
  F  F14  1  0.08498419  0.45552852  0.71765937  1.0
  F  F15  1  0.08498419  0.04447148  0.21765937  1.0
  F  F16  1  0.58494755  0.54449438  0.71760932  1.0
  F  F17  1  0.58494755  0.95550562  0.21760932  1.0
  F  F18  1  0.41505245  0.04449438  0.78239068  1.0
  F  F19  1  0.41505245  0.45550562  0.28239068  1.0
  F  F20  1  0.46738533  0.79441321  0.66592106  1.0
  F  F21  1  0.46738533  0.70558679  0.16592106  1.0
  F  F22  1  0.53261467  0.29441321  0.83407894  1.0
  F  F23  1  0.53261467  0.20558679  0.33407894  1.0
