# generated using pymatgen
data_SbBrF8
_symmetry_space_group_name_H-M   'P 1'
_cell_length_a   10.46156535
_cell_length_b   6.09716247
_cell_length_c   11.61406906
_cell_angle_alpha   90.00000000
_cell_angle_beta   90.00000000
_cell_angle_gamma   90.00000000
_symmetry_Int_Tables_number   1
_chemical_formula_structural   SbBrF8
_chemical_formula_sum   'Sb4 Br4 F32'
_cell_volume   740.81342418
_cell_formula_units_Z   4
loop_
 _symmetry_equiv_pos_site_id
 _symmetry_equiv_pos_as_xyz
  1  'x, y, z'
loop_
 _atom_site_type_symbol
 _atom_site_label
 _atom_site_symmetry_multiplicity
 _atom_site_fract_x
 _atom_site_fract_y
 _atom_site_fract_z
 _atom_site_occupancy
  Sb  Sb0  1  0.00000000  0.62790289  0.25000000  1.0
  Sb  Sb1  1  0.00000000  0.37209711  0.75000000  1.0
  Sb  Sb2  1  0.50000000  0.62790289  0.75000000  1.0
  Sb  Sb3  1  0.50000000  0.37209711  0.25000000  1.0
  Br  Br4  1  0.75000000  0.00000000  0.06325698  1.0
  Br  Br5  1  0.75000000  0.00000000  0.56325698  1.0
  Br  Br6  1  0.25000000  0.00000000  0.93674302  1.0
  Br  Br7  1  0.25000000  0.00000000  0.43674302  1.0
  F  F8  1  0.91328783  0.65056022  0.39344999  1.0
  F  F9  1  0.91328783  0.34943978  0.89344999  1.0
  F  F10  1  0.41328783  0.65056022  0.60655001  1.0
  F  F11  1  0.41328783  0.34943978  0.10655001  1.0
  F  F12  1  0.08671217  0.65056022  0.10655001  1.0
  F  F13  1  0.08671217  0.34943978  0.60655001  1.0
  F  F14  1  0.58671217  0.65056022  0.89344999  1.0
  F  F15  1  0.58671217  0.34943978  0.39344999  1.0
  F  F16  1  0.88589122  0.87242261  0.19654767  1.0
  F  F17  1  0.88589122  0.12757739  0.69654767  1.0
  F  F18  1  0.38589122  0.87242261  0.80345233  1.0
  F  F19  1  0.38589122  0.12757739  0.30345233  1.0
  F  F20  1  0.11410878  0.87242261  0.30345233  1.0
  F  F21  1  0.11410878  0.12757739  0.80345233  1.0
  F  F22  1  0.61410878  0.87242261  0.69654767  1.0
  F  F23  1  0.61410878  0.12757739  0.19654767  1.0
  F  F24  1  0.64669860  0.88452170  0.45823528  1.0
  F  F25  1  0.64669860  0.11547830  0.95823528  1.0
  F  F26  1  0.14669860  0.88452170  0.54176472  1.0
  F  F27  1  0.14669860  0.11547830  0.04176472  1.0
  F  F28  1  0.35330140  0.88452170  0.04176472  1.0
  F  F29  1  0.35330140  0.11547830  0.54176472  1.0
  F  F30  1  0.85330140  0.88452170  0.95823528  1.0
  F  F31  1  0.85330140  0.11547830  0.45823528  1.0
  F  F32  1  0.61621786  0.58421635  0.19121479  1.0
  F  F33  1  0.61621786  0.41578365  0.69121479  1.0
  F  F34  1  0.11621786  0.58421635  0.80878521  1.0
  F  F35  1  0.11621786  0.41578365  0.30878521  1.0
  F  F36  1  0.38378214  0.58421635  0.30878521  1.0
  F  F37  1  0.38378214  0.41578365  0.80878521  1.0
  F  F38  1  0.88378214  0.58421635  0.69121479  1.0
  F  F39  1  0.88378214  0.41578365  0.19121479  1.0
