# generated using pymatgen
data_Li4GeS4
_symmetry_space_group_name_H-M   'P 1'
_cell_length_a   14.12169156
_cell_length_b   7.78658847
_cell_length_c   6.20908032
_cell_angle_alpha   90.00000000
_cell_angle_beta   90.00000000
_cell_angle_gamma   90.00000000
_symmetry_Int_Tables_number   1
_chemical_formula_structural   Li4GeS4
_chemical_formula_sum   'Li16 Ge4 S16'
_cell_volume   682.74923473
_cell_formula_units_Z   4
loop_
 _symmetry_equiv_pos_site_id
 _symmetry_equiv_pos_as_xyz
  1  'x, y, z'
loop_
 _atom_site_type_symbol
 _atom_site_label
 _atom_site_symmetry_multiplicity
 _atom_site_fract_x
 _atom_site_fract_y
 _atom_site_fract_z
 _atom_site_occupancy
  Li  Li0  1  0.82216067  0.49788054  0.18701902  1.0
  Li  Li1  1  0.82216067  0.00211946  0.18701902  1.0
  Li  Li2  1  0.32216067  0.49788054  0.31298098  1.0
  Li  Li3  1  0.32216067  0.00211946  0.31298098  1.0
  Li  Li4  1  0.17783933  -0.00211946  0.81298098  1.0
  Li  Li5  1  0.17783933  0.50211946  0.81298098  1.0
  Li  Li6  1  0.67783933  -0.00211946  0.68701902  1.0
  Li  Li7  1  0.67783933  0.50211946  0.68701902  1.0
  Li  Li8  1  0.58654405  0.25000000  0.12775644  1.0
  Li  Li9  1  0.08654405  0.25000000  0.37224356  1.0
  Li  Li10  1  0.41345595  0.75000000  0.87224356  1.0
  Li  Li11  1  0.91345595  0.75000000  0.62775644  1.0
  Li  Li12  1  0.00000000  0.50000000  0.00000000  1.0
  Li  Li13  1  0.00000000  0.00000000  0.00000000  1.0
  Li  Li14  1  0.50000000  0.50000000  0.50000000  1.0
  Li  Li15  1  0.50000000  0.00000000  0.50000000  1.0
  Ge  Ge16  1  0.91080244  0.25000000  0.64995581  1.0
  Ge  Ge17  1  0.41080244  0.25000000  0.85004419  1.0
  Ge  Ge18  1  0.08919756  0.75000000  0.35004419  1.0
  Ge  Ge19  1  0.58919756  0.75000000  0.14995581  1.0
  S  S20  1  0.65634177  0.98741621  0.28332595  1.0
  S  S21  1  0.65634177  0.51258379  0.28332595  1.0
  S  S22  1  0.15634177  0.98741621  0.21667405  1.0
  S  S23  1  0.15634177  0.51258379  0.21667405  1.0
  S  S24  1  0.34365823  0.48741621  0.71667405  1.0
  S  S25  1  0.34365823  0.01258379  0.71667405  1.0
  S  S26  1  0.84365823  0.48741621  0.78332595  1.0
  S  S27  1  0.84365823  0.01258379  0.78332595  1.0
  S  S28  1  0.56253006  0.25000000  0.73078862  1.0
  S  S29  1  0.06253006  0.25000000  0.76921138  1.0
  S  S30  1  0.43746994  0.75000000  0.26921138  1.0
  S  S31  1  0.93746994  0.75000000  0.23078862  1.0
  S  S32  1  0.91364966  0.25000000  0.29038419  1.0
  S  S33  1  0.41364966  0.25000000  0.20961581  1.0
  S  S34  1  0.08635034  0.75000000  0.70961581  1.0
  S  S35  1  0.58635034  0.75000000  0.79038419  1.0
