# generated using pymatgen
data_H7N2F
_symmetry_space_group_name_H-M   'P 1'
_cell_length_a   8.16150177
_cell_length_b   5.74601716
_cell_length_c   7.47393053
_cell_angle_alpha   90.00000000
_cell_angle_beta   90.00000000
_cell_angle_gamma   90.00000000
_symmetry_Int_Tables_number   1
_chemical_formula_structural   H7N2F
_chemical_formula_sum   'H28 N8 F4'
_cell_volume   350.49841204
_cell_formula_units_Z   4
loop_
 _symmetry_equiv_pos_site_id
 _symmetry_equiv_pos_as_xyz
  1  'x, y, z'
loop_
 _atom_site_type_symbol
 _atom_site_label
 _atom_site_symmetry_multiplicity
 _atom_site_fract_x
 _atom_site_fract_y
 _atom_site_fract_z
 _atom_site_occupancy
  H  H0  1  0.27568068  0.21171594  0.54294102  1.0
  H  H1  1  0.77568068  0.78828406  0.54294102  1.0
  H  H2  1  0.72431932  0.78828406  0.04294102  1.0
  H  H3  1  0.22431932  0.21171594  0.04294102  1.0
  H  H4  1  0.23584389  0.56517763  0.69827929  1.0
  H  H5  1  0.73584389  0.43482237  0.69827929  1.0
  H  H6  1  0.76415611  0.43482237  0.19827929  1.0
  H  H7  1  0.26415611  0.56517763  0.19827929  1.0
  H  H8  1  0.13060826  0.56412226  0.51040948  1.0
  H  H9  1  0.63060826  0.43587774  0.51040948  1.0
  H  H10  1  0.86939174  0.43587774  0.01040948  1.0
  H  H11  1  0.36939174  0.56412226  0.01040948  1.0
  H  H12  1  0.06624069  0.40549237  0.68290410  1.0
  H  H13  1  0.56624069  0.59450763  0.68290410  1.0
  H  H14  1  0.93375931  0.59450763  0.18290410  1.0
  H  H15  1  0.43375931  0.40549237  0.18290410  1.0
  H  H16  1  0.05939093  0.09773011  0.92696695  1.0
  H  H17  1  0.55939093  0.90226989  0.92696695  1.0
  H  H18  1  0.94060907  0.90226989  0.42696695  1.0
  H  H19  1  0.44060907  0.09773011  0.42696695  1.0
  H  H20  1  0.86779260  0.04123834  0.61594291  1.0
  H  H21  1  0.36779260  0.95876166  0.61594291  1.0
  H  H22  1  0.13220740  0.95876166  0.11594291  1.0
  H  H23  1  0.63220740  0.04123834  0.11594291  1.0
  H  H24  1  0.74576596  0.04330849  0.92401315  1.0
  H  H25  1  0.24576596  0.95669151  0.92401315  1.0
  H  H26  1  0.25423404  0.95669151  0.42401315  1.0
  H  H27  1  0.75423404  0.04330849  0.42401315  1.0
  N  N28  1  0.33611780  0.05459899  0.50161172  1.0
  N  N29  1  0.83611780  0.94540101  0.50161172  1.0
  N  N30  1  0.66388220  0.94540101  0.00161172  1.0
  N  N31  1  0.16388220  0.05459899  0.00161172  1.0
  N  N32  1  0.16817342  0.46086403  0.61472839  1.0
  N  N33  1  0.66817342  0.53913597  0.61472839  1.0
  N  N34  1  0.83182658  0.53913597  0.11472839  1.0
  N  N35  1  0.33182658  0.46086403  0.11472839  1.0
  F  F36  1  0.89354140  0.19199265  0.81000297  1.0
  F  F37  1  0.39354140  0.80800735  0.81000297  1.0
  F  F38  1  0.10645860  0.80800735  0.31000297  1.0
  F  F39  1  0.60645860  0.19199265  0.31000297  1.0
