# generated using pymatgen
data_Na2CaP2O7
_symmetry_space_group_name_H-M   'P 1'
_cell_length_a   5.47126817
_cell_length_b   8.98645732
_cell_length_c   7.22264272
_cell_angle_alpha   69.01120785
_cell_angle_beta   89.13554534
_cell_angle_gamma   89.11394824
_symmetry_Int_Tables_number   1
_chemical_formula_structural   Na2CaP2O7
_chemical_formula_sum   'Na4 Ca2 P4 O14'
_cell_volume   331.49908925
_cell_formula_units_Z   2
loop_
 _symmetry_equiv_pos_site_id
 _symmetry_equiv_pos_as_xyz
  1  'x, y, z'
loop_
 _atom_site_type_symbol
 _atom_site_label
 _atom_site_symmetry_multiplicity
 _atom_site_fract_x
 _atom_site_fract_y
 _atom_site_fract_z
 _atom_site_occupancy
  Na  Na0  1  -0.27077464  -0.98893236  -0.79536449  1.0
  Na  Na1  1  -0.72922536  -0.01106764  -0.20463551  1.0
  Na  Na2  1  -0.23863377  -0.55636516  -0.86053275  1.0
  Na  Na3  1  -0.76136623  -0.44363484  -0.13946725  1.0
  Ca  Ca4  1  -0.76382978  -0.28109506  -0.75221492  1.0
  Ca  Ca5  1  -0.23617022  -0.71890494  -0.24778508  1.0
  P  P6  1  -0.75591608  -0.82697620  -0.88348191  1.0
  P  P7  1  -0.24408392  -0.17302380  -0.11651809  1.0
  P  P8  1  -0.71317350  -0.68917035  -0.57251361  1.0
  P  P9  1  -0.28682650  -0.31082965  -0.42748639  1.0
  O  O10  1  -0.85402870  -0.75129416  -0.37489984  1.0
  O  O11  1  -0.14597130  -0.24870584  -0.62510016  1.0
  O  O12  1  -0.83219298  -0.54357545  -0.73116850  1.0
  O  O13  1  -0.16780702  -0.45642455  -0.26883150  1.0
  O  O14  1  -0.72760436  -0.84037644  -0.65173594  1.0
  O  O15  1  -0.27239564  -0.15962356  -0.34826406  1.0
  O  O16  1  -0.71608714  -1.00064988  -0.86906138  1.0
  O  O17  1  -0.28391286  0.00064988  -0.13093862  1.0
  O  O18  1  -0.55375783  -0.71424565  -1.00406674  1.0
  O  O19  1  -0.44624217  -0.28575435  0.00406674  1.0
  O  O20  1  -0.43952112  -0.66656297  -0.54640633  1.0
  O  O21  1  -0.56047888  -0.33343703  -0.45359367  1.0
  O  O22  1  -0.01701208  -0.76515464  -0.94621556  1.0
  O  O23  1  -0.98298792  -0.23484536  -0.05378444  1.0
