# generated using pymatgen
data_Tb2B6Os
_symmetry_space_group_name_H-M   'P 1'
_cell_length_a   9.14588892
_cell_length_b   11.51471217
_cell_length_c   3.65328619
_cell_angle_alpha   90.00000000
_cell_angle_beta   90.00000000
_cell_angle_gamma   90.00000000
_symmetry_Int_Tables_number   1
_chemical_formula_structural   Tb2B6Os
_chemical_formula_sum   'Tb8 B24 Os4'
_cell_volume   384.73589264
_cell_formula_units_Z   4
loop_
 _symmetry_equiv_pos_site_id
 _symmetry_equiv_pos_as_xyz
  1  'x, y, z'
loop_
 _atom_site_type_symbol
 _atom_site_label
 _atom_site_symmetry_multiplicity
 _atom_site_fract_x
 _atom_site_fract_y
 _atom_site_fract_z
 _atom_site_occupancy
  Tb  Tb0  1  0.17731871  0.91323563  0.50000000  1.0
  Tb  Tb1  1  0.67731871  0.58676437  0.50000000  1.0
  Tb  Tb2  1  0.82268129  0.08676437  0.50000000  1.0
  Tb  Tb3  1  0.32268129  0.41323563  0.50000000  1.0
  Tb  Tb4  1  0.05598038  0.62628635  0.50000000  1.0
  Tb  Tb5  1  0.55598038  0.87371365  0.50000000  1.0
  Tb  Tb6  1  0.94401962  0.37371365  0.50000000  1.0
  Tb  Tb7  1  0.44401962  0.12628635  0.50000000  1.0
  B  B8  1  0.44690599  0.56693074  0.00000000  1.0
  B  B9  1  0.94690599  0.93306926  0.00000000  1.0
  B  B10  1  0.55309401  0.43306926  0.00000000  1.0
  B  B11  1  0.05309401  0.06693074  0.00000000  1.0
  B  B12  1  0.39118356  0.96986359  0.00000000  1.0
  B  B13  1  0.89118356  0.53013641  0.00000000  1.0
  B  B14  1  0.60881644  0.03013641  0.00000000  1.0
  B  B15  1  0.10881644  0.46986359  0.00000000  1.0
  B  B16  1  0.36837740  0.81456655  0.00000000  1.0
  B  B17  1  0.86837740  0.68543345  0.00000000  1.0
  B  B18  1  0.63162260  0.18543345  0.00000000  1.0
  B  B19  1  0.13162260  0.31456655  0.00000000  1.0
  B  B20  1  0.25182091  0.58022251  0.00000000  1.0
  B  B21  1  0.75182091  0.91977749  0.00000000  1.0
  B  B22  1  0.74817909  0.41977749  0.00000000  1.0
  B  B23  1  0.24817909  0.08022251  0.00000000  1.0
  B  B24  1  0.20839884  0.73336490  0.00000000  1.0
  B  B25  1  0.70839884  0.76663510  0.00000000  1.0
  B  B26  1  0.79160116  0.26663510  0.00000000  1.0
  B  B27  1  0.29160116  0.23336490  0.00000000  1.0
  B  B28  1  0.01756607  0.78702906  0.00000000  1.0
  B  B29  1  0.51756607  0.71297094  0.00000000  1.0
  B  B30  1  0.98243393  0.21297094  0.00000000  1.0
  B  B31  1  0.48243393  0.28702906  0.00000000  1.0
  Os  Os32  1  0.36211166  0.67884699  0.50000000  1.0
  Os  Os33  1  0.86211166  0.82115301  0.50000000  1.0
  Os  Os34  1  0.63788834  0.32115301  0.50000000  1.0
  Os  Os35  1  0.13788834  0.17884699  0.50000000  1.0
