# generated using pymatgen
data_GeH4
_symmetry_space_group_name_H-M   'P 1'
_cell_length_a   5.79978106
_cell_length_b   4.06843823
_cell_length_c   7.83613339
_cell_angle_alpha   90.00000000
_cell_angle_beta   90.30980510
_cell_angle_gamma   90.00000000
_symmetry_Int_Tables_number   1
_chemical_formula_structural   GeH4
_chemical_formula_sum   'Ge2 H8'
_cell_volume   184.89910036
_cell_formula_units_Z   2
loop_
 _symmetry_equiv_pos_site_id
 _symmetry_equiv_pos_as_xyz
  1  'x, y, z'
loop_
 _atom_site_type_symbol
 _atom_site_label
 _atom_site_symmetry_multiplicity
 _atom_site_fract_x
 _atom_site_fract_y
 _atom_site_fract_z
 _atom_site_occupancy
  Ge  Ge0  1  0.88625562  0.25000000  0.98224995  1.0
  Ge  Ge1  1  0.11374438  0.75000000  0.01775005  1.0
  H  H2  1  0.77451965  0.25000000  0.80298414  1.0
  H  H3  1  0.22548035  0.75000000  0.19701586  1.0
  H  H4  1  0.31763888  0.25000000  0.56884210  1.0
  H  H5  1  0.68236112  0.75000000  0.43115790  1.0
  H  H6  1  0.68829603  0.25000000  0.11317163  1.0
  H  H7  1  0.31170397  0.75000000  0.88682837  1.0
  H  H8  1  0.78008225  0.75000000  0.49441606  1.0
  H  H9  1  0.21991775  0.25000000  0.50558394  1.0
