# generated using pymatgen
data_FeB
_symmetry_space_group_name_H-M   'P 1'
_cell_length_a   5.41112203
_cell_length_b   2.94582121
_cell_length_c   3.99263970
_cell_angle_alpha   90.00000000
_cell_angle_beta   90.00000000
_cell_angle_gamma   90.00000000
_symmetry_Int_Tables_number   1
_chemical_formula_structural   FeB
_chemical_formula_sum   'Fe4 B4'
_cell_volume   63.64346756
_cell_formula_units_Z   4
loop_
 _symmetry_equiv_pos_site_id
 _symmetry_equiv_pos_as_xyz
  1  'x, y, z'
loop_
 _atom_site_type_symbol
 _atom_site_label
 _atom_site_symmetry_multiplicity
 _atom_site_fract_x
 _atom_site_fract_y
 _atom_site_fract_z
 _atom_site_occupancy
  Fe  Fe0  1  0.17780883  0.75000000  0.12048618  1.0
  Fe  Fe1  1  0.67780883  0.75000000  0.37951382  1.0
  Fe  Fe2  1  0.82219117  0.25000000  0.87951382  1.0
  Fe  Fe3  1  0.32219117  0.25000000  0.62048618  1.0
  B  B4  1  0.53452451  0.75000000  0.88114620  1.0
  B  B5  1  1.03452451  0.75000000  0.61885380  1.0
  B  B6  1  0.46547549  0.25000000  0.11885380  1.0
  B  B7  1  -0.03452451  0.25000000  0.38114620  1.0
