# generated using pymatgen
data_NaCa3RuO6
_symmetry_space_group_name_H-M   'P 1'
_cell_length_a   6.55006210
_cell_length_b   6.55006210
_cell_length_c   6.55006210
_cell_angle_alpha   90.39565535
_cell_angle_beta   90.39565535
_cell_angle_gamma   90.39565535
_symmetry_Int_Tables_number   1
_chemical_formula_structural   NaCa3RuO6
_chemical_formula_sum   'Na2 Ca6 Ru2 O12'
_cell_volume   280.99917410
_cell_formula_units_Z   2
loop_
 _symmetry_equiv_pos_site_id
 _symmetry_equiv_pos_as_xyz
  1  'x, y, z'
loop_
 _atom_site_type_symbol
 _atom_site_label
 _atom_site_symmetry_multiplicity
 _atom_site_fract_x
 _atom_site_fract_y
 _atom_site_fract_z
 _atom_site_occupancy
  Na  Na0  1  0.25000000  0.25000000  0.25000000  1.0
  Na  Na1  1  0.75000000  0.75000000  0.75000000  1.0
  Ca  Ca2  1  0.89571592  1.25000000  -0.39571592  1.0
  Ca  Ca3  1  1.39571592  0.10428408  -0.25000000  1.0
  Ca  Ca4  1  0.75000000  0.39571592  0.10428408  1.0
  Ca  Ca5  1  1.25000000  0.60428408  -0.10428408  1.0
  Ca  Ca6  1  1.10428408  -0.25000000  0.39571592  1.0
  Ca  Ca7  1  0.60428408  0.89571592  0.25000000  1.0
  Ru  Ru8  1  0.50000000  0.50000000  0.50000000  1.0
  Ru  Ru9  1  0.00000000  0.00000000  0.00000000  1.0
  O  O10  1  1.21053604  0.43337793  -0.44237752  1.0
  O  O11  1  0.71053604  1.05762248  -0.06662207  1.0
  O  O12  1  0.94237752  0.06662207  0.28946396  1.0
  O  O13  1  1.44237752  -0.21053604  0.56662207  1.0
  O  O14  1  1.56662207  0.44237752  -0.21053604  1.0
  O  O15  1  1.06662207  0.28946396  -0.05762248  1.0
  O  O16  1  0.78946396  0.56662207  0.44237752  1.0
  O  O17  1  1.28946396  -0.05762248  0.06662207  1.0
  O  O18  1  0.55762248  1.21053604  -0.56662207  1.0
  O  O19  1  1.05762248  0.93337793  -0.28946396  1.0
  O  O20  1  0.93337793  0.71053604  0.05762248  1.0
  O  O21  1  0.43337793  0.55762248  0.21053604  1.0
