# generated using pymatgen
data_Na2Cu(CO2)4
_symmetry_space_group_name_H-M   'P 1'
_cell_length_a   7.31667355
_cell_length_b   5.96999178
_cell_length_c   10.02212326
_cell_angle_alpha   90.00000000
_cell_angle_beta   115.97179009
_cell_angle_gamma   90.00000000
_symmetry_Int_Tables_number   1
_chemical_formula_structural   Na2Cu(CO2)4
_chemical_formula_sum   'Na4 Cu2 C8 O16'
_cell_volume   393.56055481
_cell_formula_units_Z   2
loop_
 _symmetry_equiv_pos_site_id
 _symmetry_equiv_pos_as_xyz
  1  'x, y, z'
loop_
 _atom_site_type_symbol
 _atom_site_label
 _atom_site_symmetry_multiplicity
 _atom_site_fract_x
 _atom_site_fract_y
 _atom_site_fract_z
 _atom_site_occupancy
  Na  Na0  1  0.93466223  0.46455594  0.16037491  1.0
  Na  Na1  1  0.93466223  0.03544406  0.66037491  1.0
  Na  Na2  1  0.06533777  0.53544406  0.83962509  1.0
  Na  Na3  1  0.06533777  0.96455594  0.33962509  1.0
  Cu  Cu4  1  0.50000000  0.00000000  -0.00000000  1.0
  Cu  Cu5  1  0.50000000  0.50000000  0.50000000  1.0
  C  C6  1  0.21842108  0.88401669  0.09705257  1.0
  C  C7  1  0.21842108  0.61598331  0.59705257  1.0
  C  C8  1  0.78157892  0.11598331  0.90294743  1.0
  C  C9  1  0.78157892  0.38401669  0.40294743  1.0
  C  C10  1  0.29778245  0.12063693  0.16114913  1.0
  C  C11  1  0.29778245  0.37936307  0.66114913  1.0
  C  C12  1  0.70221755  0.87936307  0.83885087  1.0
  C  C13  1  0.70221755  0.62063693  0.33885087  1.0
  O  O14  1  0.09229671  0.78660464  0.12918841  1.0
  O  O15  1  0.09229671  0.71339536  0.62918841  1.0
  O  O16  1  0.90770329  0.21339536  0.87081159  1.0
  O  O17  1  0.90770329  0.28660464  0.37081159  1.0
  O  O18  1  0.28471429  0.80767714  0.00627498  1.0
  O  O19  1  0.28471429  0.69232286  0.50627498  1.0
  O  O20  1  0.71528571  0.19232286  0.99372502  1.0
  O  O21  1  0.71528571  0.30767714  0.49372502  1.0
  O  O22  1  0.22599637  0.21607670  0.23875403  1.0
  O  O23  1  0.22599637  0.28392330  0.73875403  1.0
  O  O24  1  0.77400363  0.78392330  0.76124597  1.0
  O  O25  1  0.77400363  0.71607670  0.26124597  1.0
  O  O26  1  0.43002122  0.20382974  0.12380527  1.0
  O  O27  1  0.43002122  0.29617026  0.62380527  1.0
  O  O28  1  0.56997878  0.79617026  0.87619473  1.0
  O  O29  1  0.56997878  0.70382974  0.37619473  1.0
