# generated using pymatgen
data_H4CS(NO)2
_symmetry_space_group_name_H-M   'P 1'
_cell_length_a   9.30531417
_cell_length_b   10.16993659
_cell_length_c   5.60667325
_cell_angle_alpha   90.00000000
_cell_angle_beta   90.00000000
_cell_angle_gamma   90.00000000
_symmetry_Int_Tables_number   1
_chemical_formula_structural   H4CS(NO)2
_chemical_formula_sum   'H16 C4 S4 N8 O8'
_cell_volume   530.58446807
_cell_formula_units_Z   4
loop_
 _symmetry_equiv_pos_site_id
 _symmetry_equiv_pos_as_xyz
  1  'x, y, z'
loop_
 _atom_site_type_symbol
 _atom_site_label
 _atom_site_symmetry_multiplicity
 _atom_site_fract_x
 _atom_site_fract_y
 _atom_site_fract_z
 _atom_site_occupancy
  H  H0  1  0.88438985  0.45072206  0.15041862  1.0
  H  H1  1  0.88438985  0.04927794  0.15041862  1.0
  H  H2  1  0.38438985  0.45072206  0.34958138  1.0
  H  H3  1  0.38438985  0.04927794  0.34958138  1.0
  H  H4  1  0.11561015  0.95072206  0.84958138  1.0
  H  H5  1  0.11561015  0.54927794  0.84958138  1.0
  H  H6  1  0.61561015  0.95072206  0.65041862  1.0
  H  H7  1  0.61561015  0.54927794  0.65041862  1.0
  H  H8  1  0.75810205  0.37045409  0.33725402  1.0
  H  H9  1  0.75810205  0.12954591  0.33725402  1.0
  H  H10  1  0.25810205  0.37045409  0.16274598  1.0
  H  H11  1  0.25810205  0.12954591  0.16274598  1.0
  H  H12  1  0.24189795  0.87045409  0.66274598  1.0
  H  H13  1  0.24189795  0.62954591  0.66274598  1.0
  H  H14  1  0.74189795  0.87045409  0.83725402  1.0
  H  H15  1  0.74189795  0.62954591  0.83725402  1.0
  C  C16  1  0.88907924  0.25000000  0.14074180  1.0
  C  C17  1  0.38907924  0.25000000  0.35925820  1.0
  C  C18  1  0.11092076  0.75000000  0.85925820  1.0
  C  C19  1  0.61092076  0.75000000  0.64074180  1.0
  S  S20  1  0.52631705  0.25000000  0.60927529  1.0
  S  S21  1  0.02631705  0.25000000  0.89072471  1.0
  S  S22  1  0.47368295  0.75000000  0.39072471  1.0
  S  S23  1  0.97368295  0.75000000  0.10927529  1.0
  N  N24  1  0.84150312  0.36444219  0.21469367  1.0
  N  N25  1  0.84150312  0.13555781  0.21469367  1.0
  N  N26  1  0.34150312  0.36444219  0.28530633  1.0
  N  N27  1  0.34150312  0.13555781  0.28530633  1.0
  N  N28  1  0.15849688  0.86444219  0.78530633  1.0
  N  N29  1  0.15849688  0.63555781  0.78530633  1.0
  N  N30  1  0.65849688  0.86444219  0.71469367  1.0
  N  N31  1  0.65849688  0.63555781  0.71469367  1.0
  O  O32  1  0.61069338  0.37333225  0.54726725  1.0
  O  O33  1  0.61069338  0.12666775  0.54726725  1.0
  O  O34  1  0.11069338  0.37333225  -0.04726725  1.0
  O  O35  1  0.11069338  0.12666775  -0.04726725  1.0
  O  O36  1  0.38930662  0.87333225  0.45273275  1.0
  O  O37  1  0.38930662  0.62666775  0.45273275  1.0
  O  O38  1  0.88930662  0.87333225  1.04726725  1.0
  O  O39  1  0.88930662  0.62666775  1.04726725  1.0
