# generated using pymatgen
data_AgTe2Au
_symmetry_space_group_name_H-M   'P 1'
_cell_length_a   5.63500167
_cell_length_b   4.46513214
_cell_length_c   8.21358644
_cell_angle_alpha   90.00000000
_cell_angle_beta   90.04478779
_cell_angle_gamma   90.00000000
_symmetry_Int_Tables_number   1
_chemical_formula_structural   AgTe2Au
_chemical_formula_sum   'Ag2 Te4 Au2'
_cell_volume   206.66220753
_cell_formula_units_Z   2
loop_
 _symmetry_equiv_pos_site_id
 _symmetry_equiv_pos_as_xyz
  1  'x, y, z'
loop_
 _atom_site_type_symbol
 _atom_site_label
 _atom_site_symmetry_multiplicity
 _atom_site_fract_x
 _atom_site_fract_y
 _atom_site_fract_z
 _atom_site_occupancy
  Ag  Ag0  1  -0.00000000  0.00000000  0.50000000  1.0
  Ag  Ag1  1  0.00000000  0.00000000  0.00000000  1.0
  Te  Te2  1  0.82783910  0.50000000  0.75003685  1.0
  Te  Te3  1  0.17216090  0.50000000  0.24996315  1.0
  Te  Te4  1  0.33669120  0.00000000  0.75015430  1.0
  Te  Te5  1  0.66330880  0.00000000  0.24984570  1.0
  Au  Au6  1  0.50000000  0.50000000  0.50000000  1.0
  Au  Au7  1  0.50000000  0.50000000  -0.00000000  1.0
