# generated using pymatgen
data_CuAs4S3Cl
_symmetry_space_group_name_H-M   'P 1'
_cell_length_a   11.68197478
_cell_length_b   11.83423498
_cell_length_c   7.41863067
_cell_angle_alpha   90.00000000
_cell_angle_beta   90.00000000
_cell_angle_gamma   90.00000000
_symmetry_Int_Tables_number   1
_chemical_formula_structural   CuAs4S3Cl
_chemical_formula_sum   'Cu4 As16 S12 Cl4'
_cell_volume   1025.60517505
_cell_formula_units_Z   4
loop_
 _symmetry_equiv_pos_site_id
 _symmetry_equiv_pos_as_xyz
  1  'x, y, z'
loop_
 _atom_site_type_symbol
 _atom_site_label
 _atom_site_symmetry_multiplicity
 _atom_site_fract_x
 _atom_site_fract_y
 _atom_site_fract_z
 _atom_site_occupancy
  Cu  Cu0  1  0.83770406  0.75000000  0.00000000  1.0
  Cu  Cu1  1  0.83770406  0.75000000  0.50000000  1.0
  Cu  Cu2  1  0.16229594  0.25000000  0.00000000  1.0
  Cu  Cu3  1  0.16229594  0.25000000  0.50000000  1.0
  As  As4  1  0.86715955  0.44967890  0.41886227  1.0
  As  As5  1  0.86715955  0.44967890  0.08113773  1.0
  As  As6  1  0.86715955  0.05032110  0.91886227  1.0
  As  As7  1  0.86715955  0.05032110  0.58113773  1.0
  As  As8  1  0.13284045  0.94967890  0.41886227  1.0
  As  As9  1  0.13284045  0.94967890  0.08113773  1.0
  As  As10  1  0.13284045  0.55032110  0.91886227  1.0
  As  As11  1  0.13284045  0.55032110  0.58113773  1.0
  As  As12  1  0.60847669  0.91134091  0.75000000  1.0
  As  As13  1  0.60847669  0.58865909  0.25000000  1.0
  As  As14  1  0.39152331  0.41134091  0.75000000  1.0
  As  As15  1  0.39152331  0.08865909  0.25000000  1.0
  As  As16  1  0.25692157  0.68782964  0.75000000  1.0
  As  As17  1  0.25692157  0.81217036  0.25000000  1.0
  As  As18  1  0.74307843  0.18782964  0.75000000  1.0
  As  As19  1  0.74307843  0.31217036  0.25000000  1.0
  S  S20  1  0.73673362  0.91239728  0.98547582  1.0
  S  S21  1  0.73673362  0.91239728  0.51452418  1.0
  S  S22  1  0.73673362  0.58760272  0.48547582  1.0
  S  S23  1  0.73673362  0.58760272  0.01452418  1.0
  S  S24  1  0.26326638  0.41239728  0.98547582  1.0
  S  S25  1  0.26326638  0.41239728  0.51452418  1.0
  S  S26  1  0.26326638  0.08760272  0.48547582  1.0
  S  S27  1  0.26326638  0.08760272  0.01452418  1.0
  S  S28  1  0.42855378  0.59853595  0.75000000  1.0
  S  S29  1  0.42855378  0.90146405  0.25000000  1.0
  S  S30  1  0.57144622  0.09853595  0.75000000  1.0
  S  S31  1  0.57144622  0.40146405  0.25000000  1.0
  Cl  Cl32  1  0.96645119  0.73527811  0.75000000  1.0
  Cl  Cl33  1  0.96645119  0.76472189  0.25000000  1.0
  Cl  Cl34  1  0.03354881  0.23527811  0.75000000  1.0
  Cl  Cl35  1  0.03354881  0.26472189  0.25000000  1.0
