# generated using pymatgen
data_Nb3CuO8
_symmetry_space_group_name_H-M   'P 1'
_cell_length_a   7.61669279
_cell_length_b   5.06498168
_cell_length_c   15.50818901
_cell_angle_alpha   90.00000000
_cell_angle_beta   106.96042796
_cell_angle_gamma   90.00000000
_symmetry_Int_Tables_number   1
_chemical_formula_structural   Nb3CuO8
_chemical_formula_sum   'Nb12 Cu4 O32'
_cell_volume   572.25989357
_cell_formula_units_Z   4
loop_
 _symmetry_equiv_pos_site_id
 _symmetry_equiv_pos_as_xyz
  1  'x, y, z'
loop_
 _atom_site_type_symbol
 _atom_site_label
 _atom_site_symmetry_multiplicity
 _atom_site_fract_x
 _atom_site_fract_y
 _atom_site_fract_z
 _atom_site_occupancy
  Nb  Nb0  1  0.98362331  0.26443985  0.33502700  1.0
  Nb  Nb1  1  0.98362331  0.23556015  0.83502700  1.0
  Nb  Nb2  1  0.01637669  0.76443985  0.16497300  1.0
  Nb  Nb3  1  0.01637669  0.73556015  0.66497300  1.0
  Nb  Nb4  1  0.75266822  0.25855065  0.07616894  1.0
  Nb  Nb5  1  0.75266822  0.24144935  0.57616894  1.0
  Nb  Nb6  1  0.24733178  0.75855065  0.42383106  1.0
  Nb  Nb7  1  0.24733178  0.74144935  0.92383106  1.0
  Nb  Nb8  1  0.49371810  0.26889660  0.33347457  1.0
  Nb  Nb9  1  0.49371810  0.23110340  0.83347457  1.0
  Nb  Nb10  1  0.50628190  0.76889660  0.16652543  1.0
  Nb  Nb11  1  0.50628190  0.73110340  0.66652543  1.0
  Cu  Cu12  1  0.76219295  0.75894332  0.42082361  1.0
  Cu  Cu13  1  0.76219295  0.74105668  0.92082361  1.0
  Cu  Cu14  1  0.23780705  0.25894332  0.07917639  1.0
  Cu  Cu15  1  0.23780705  0.24105668  0.57917639  1.0
  O  O16  1  1.00239049  0.43843040  0.09992925  1.0
  O  O17  1  1.00239049  0.06156960  0.59992925  1.0
  O  O18  1  -0.00239049  0.93843040  0.40007075  1.0
  O  O19  1  -0.00239049  0.56156960  0.90007075  1.0
  O  O20  1  0.91664004  0.08950309  0.21662606  1.0
  O  O21  1  0.91664004  0.41049691  0.71662606  1.0
  O  O22  1  0.08335996  0.58950309  0.28337394  1.0
  O  O23  1  0.08335996  0.91049691  0.78337394  1.0
  O  O24  1  0.85319620  0.93328790  0.04924455  1.0
  O  O25  1  0.85319620  0.56671210  0.54924455  1.0
  O  O26  1  0.14680380  0.43328790  0.45075545  1.0
  O  O27  1  0.14680380  0.06671210  0.95075545  1.0
  O  O28  1  0.76743092  0.40631619  0.34705490  1.0
  O  O29  1  0.76743092  0.09368381  0.84705490  1.0
  O  O30  1  0.23256908  0.90631619  0.15294510  1.0
  O  O31  1  0.23256908  0.59368381  0.65294510  1.0
  O  O32  1  0.65347991  0.10096118  0.46108434  1.0
  O  O33  1  0.65347991  0.39903882  0.96108434  1.0
  O  O34  1  0.34652009  0.60096118  0.03891566  1.0
  O  O35  1  0.34652009  0.89903882  0.53891566  1.0
  O  O36  1  0.54416652  0.07850312  0.09983399  1.0
  O  O37  1  0.54416652  0.42149688  0.59983399  1.0
  O  O38  1  0.45583348  0.57850312  0.40016601  1.0
  O  O39  1  0.45583348  0.92149688  0.90016601  1.0
  O  O40  1  0.42000298  0.43815498  0.22168871  1.0
  O  O41  1  0.42000298  0.06184502  0.72168871  1.0
  O  O42  1  0.57999702  0.93815498  0.27831129  1.0
  O  O43  1  0.57999702  0.56184502  0.77831129  1.0
  O  O44  1  0.28201997  0.08509357  0.34597478  1.0
  O  O45  1  0.28201997  0.41490643  0.84597478  1.0
  O  O46  1  0.71798003  0.58509357  0.15402522  1.0
  O  O47  1  0.71798003  0.91490643  0.65402522  1.0
