# generated using pymatgen
data_ZnHg3(SCl2)2
_symmetry_space_group_name_H-M   'P 1'
_cell_length_a   7.37866818
_cell_length_b   7.37866818
_cell_length_c   12.23195807
_cell_angle_alpha   90.00000000
_cell_angle_beta   90.00000000
_cell_angle_gamma   120.00000000
_symmetry_Int_Tables_number   1
_chemical_formula_structural   ZnHg3(SCl2)2
_chemical_formula_sum   'Zn2 Hg6 S4 Cl8'
_cell_volume   576.74332480
_cell_formula_units_Z   2
loop_
 _symmetry_equiv_pos_site_id
 _symmetry_equiv_pos_as_xyz
  1  'x, y, z'
loop_
 _atom_site_type_symbol
 _atom_site_label
 _atom_site_symmetry_multiplicity
 _atom_site_fract_x
 _atom_site_fract_y
 _atom_site_fract_z
 _atom_site_occupancy
  Zn  Zn0  1  0.00000000  0.00000000  0.27948070  1.0
  Zn  Zn1  1  0.00000000  0.00000000  0.77948070  1.0
  Hg  Hg2  1  -0.02713649  0.48643175  0.03542036  1.0
  Hg  Hg3  1  0.48643175  -0.02713649  0.53542036  1.0
  Hg  Hg4  1  0.48643175  0.51356825  0.53542036  1.0
  Hg  Hg5  1  0.51356825  0.48643175  0.03542036  1.0
  Hg  Hg6  1  0.51356825  1.02713649  0.03542036  1.0
  Hg  Hg7  1  1.02713649  0.51356825  0.53542036  1.0
  S  S8  1  0.33333333  0.66666667  0.41616111  1.0
  S  S9  1  0.66666667  0.33333333  0.91616111  1.0
  S  S10  1  0.00000000  0.00000000  -0.03966924  1.0
  S  S11  1  0.00000000  0.00000000  0.46033076  1.0
  Cl  Cl12  1  0.34228995  0.17114497  0.20187148  1.0
  Cl  Cl13  1  0.17114497  0.34228995  0.70187148  1.0
  Cl  Cl14  1  0.17114497  0.82885503  0.70187148  1.0
  Cl  Cl15  1  0.82885503  0.17114497  0.20187148  1.0
  Cl  Cl16  1  0.82885503  0.65771005  0.20187148  1.0
  Cl  Cl17  1  0.65771005  0.82885503  0.70187148  1.0
  Cl  Cl18  1  0.33333333  0.66666667  0.12085191  1.0
  Cl  Cl19  1  0.66666667  0.33333333  0.62085191  1.0
