# generated using pymatgen
data_RbIn3S5
_symmetry_space_group_name_H-M   'P 1'
_cell_length_a   12.64245228
_cell_length_b   3.83584964
_cell_length_c   15.69412580
_cell_angle_alpha   90.00000000
_cell_angle_beta   112.96721994
_cell_angle_gamma   90.00000000
_symmetry_Int_Tables_number   1
_chemical_formula_structural   RbIn3S5
_chemical_formula_sum   'Rb3 In9 S15'
_cell_volume   700.74739952
_cell_formula_units_Z   3
loop_
 _symmetry_equiv_pos_site_id
 _symmetry_equiv_pos_as_xyz
  1  'x, y, z'
loop_
 _atom_site_type_symbol
 _atom_site_label
 _atom_site_symmetry_multiplicity
 _atom_site_fract_x
 _atom_site_fract_y
 _atom_site_fract_z
 _atom_site_occupancy
  Rb  Rb0  1  0.63666727  0.00000000  0.42320115  1.0
  Rb  Rb1  1  0.36333273  0.00000000  0.57679885  1.0
  Rb  Rb2  1  0.00000000  0.50000000  0.00000000  1.0
  In  In3  1  0.99222914  0.50000000  0.29118460  1.0
  In  In4  1  0.00777086  0.50000000  0.70881540  1.0
  In  In5  1  0.61261324  0.50000000  0.92907488  1.0
  In  In6  1  0.38738676  0.50000000  0.07092512  1.0
  In  In7  1  0.71662941  0.00000000  0.72781246  1.0
  In  In8  1  0.28337059  0.00000000  0.27218754  1.0
  In  In9  1  0.32021567  0.00000000  0.83668090  1.0
  In  In10  1  0.67978433  0.00000000  0.16331910  1.0
  In  In11  1  -0.00000000  0.00000000  0.50000000  1.0
  S  S12  1  0.87874800  0.50000000  0.53606303  1.0
  S  S13  1  0.12125200  0.50000000  0.46393697  1.0
  S  S14  1  0.62064120  0.50000000  0.62754683  1.0
  S  S15  1  0.37935880  0.50000000  0.37245317  1.0
  S  S16  1  0.42587862  0.50000000  0.78282448  1.0
  S  S17  1  0.57412138  0.50000000  0.21717552  1.0
  S  S18  1  0.23030234  0.50000000  0.90178598  1.0
  S  S19  1  0.76969766  0.50000000  0.09821402  1.0
  S  S20  1  0.93342369  0.00000000  0.78512723  1.0
  S  S21  1  0.06657631  0.00000000  0.21487277  1.0
  S  S22  1  0.86561233  0.00000000  0.31807792  1.0
  S  S23  1  0.13438767  0.00000000  0.68192208  1.0
  S  S24  1  0.72651739  0.00000000  0.89105273  1.0
  S  S25  1  0.27348261  0.00000000  0.10894727  1.0
  S  S26  1  0.50000000  0.00000000  -0.00000000  1.0
