# generated using pymatgen
data_CsI
_symmetry_space_group_name_H-M   'P 1'
_cell_length_a   6.15104421
_cell_length_b   4.92773360
_cell_length_c   14.51099792
_cell_angle_alpha   90.00000000
_cell_angle_beta   90.00000000
_cell_angle_gamma   90.00000000
_symmetry_Int_Tables_number   1
_chemical_formula_structural   CsI
_chemical_formula_sum   'Cs4 I4'
_cell_volume   439.83860989
_cell_formula_units_Z   4
loop_
 _symmetry_equiv_pos_site_id
 _symmetry_equiv_pos_as_xyz
  1  'x, y, z'
loop_
 _atom_site_type_symbol
 _atom_site_label
 _atom_site_symmetry_multiplicity
 _atom_site_fract_x
 _atom_site_fract_y
 _atom_site_fract_z
 _atom_site_occupancy
  Cs  Cs0  1  0.75209661  0.25000000  0.36581872  1.0
  Cs  Cs1  1  0.25209661  0.25000000  0.13418128  1.0
  Cs  Cs2  1  0.24790339  0.75000000  0.63418128  1.0
  Cs  Cs3  1  0.74790339  0.75000000  0.86581872  1.0
  I  I4  1  0.24785364  0.25000000  0.86733202  1.0
  I  I5  1  0.74785364  0.25000000  0.63266798  1.0
  I  I6  1  0.75214636  0.75000000  0.13266798  1.0
  I  I7  1  0.25214636  0.75000000  0.36733202  1.0
