# generated using pymatgen
data_Zn2BiPO6
_symmetry_space_group_name_H-M   'P 1'
_cell_length_a   12.12991791
_cell_length_b   5.33916814
_cell_length_c   7.92621998
_cell_angle_alpha   90.00000000
_cell_angle_beta   90.00000000
_cell_angle_gamma   90.00000000
_symmetry_Int_Tables_number   1
_chemical_formula_structural   Zn2BiPO6
_chemical_formula_sum   'Zn8 Bi4 P4 O24'
_cell_volume   513.33110470
_cell_formula_units_Z   4
loop_
 _symmetry_equiv_pos_site_id
 _symmetry_equiv_pos_as_xyz
  1  'x, y, z'
loop_
 _atom_site_type_symbol
 _atom_site_label
 _atom_site_symmetry_multiplicity
 _atom_site_fract_x
 _atom_site_fract_y
 _atom_site_fract_z
 _atom_site_occupancy
  Zn  Zn0  1  0.40889156  0.75000000  0.20168743  1.0
  Zn  Zn1  1  0.90889156  0.75000000  0.29831257  1.0
  Zn  Zn2  1  0.59110844  0.25000000  0.79831257  1.0
  Zn  Zn3  1  0.09110844  0.25000000  0.70168743  1.0
  Zn  Zn4  1  0.39642306  0.75000000  0.80545421  1.0
  Zn  Zn5  1  0.89642306  0.75000000  0.69454579  1.0
  Zn  Zn6  1  0.60357694  0.25000000  0.19454579  1.0
  Zn  Zn7  1  0.10357694  0.25000000  0.30545421  1.0
  Bi  Bi8  1  0.09799723  0.75000000  0.98332599  1.0
  Bi  Bi9  1  0.59799723  0.75000000  0.51667401  1.0
  Bi  Bi10  1  0.90200277  0.25000000  0.01667401  1.0
  Bi  Bi11  1  0.40200277  0.25000000  0.48332599  1.0
  P  P12  1  0.19959339  0.75000000  0.52892623  1.0
  P  P13  1  0.69959339  0.75000000  0.97107377  1.0
  P  P14  1  0.80040661  0.25000000  0.47107377  1.0
  P  P15  1  0.30040661  0.25000000  0.02892623  1.0
  O  O16  1  0.49290543  0.99765108  0.67325147  1.0
  O  O17  1  0.49290543  0.50234892  0.67325147  1.0
  O  O18  1  0.99290543  0.99765108  0.82674853  1.0
  O  O19  1  0.99290543  0.50234892  0.82674853  1.0
  O  O20  1  0.50709457  0.49765108  0.32674853  1.0
  O  O21  1  0.50709457  0.00234892  0.32674853  1.0
  O  O22  1  0.00709457  0.49765108  0.17325147  1.0
  O  O23  1  0.00709457  0.00234892  0.17325147  1.0
  O  O24  1  0.12784837  0.99397494  0.50747689  1.0
  O  O25  1  0.12784837  0.50602506  0.50747689  1.0
  O  O26  1  0.62784837  0.99397494  0.99252311  1.0
  O  O27  1  0.62784837  0.50602506  0.99252311  1.0
  O  O28  1  0.87215163  0.49397494  0.49252311  1.0
  O  O29  1  0.87215163  0.00602506  0.49252311  1.0
  O  O30  1  0.37215163  0.49397494  0.00747689  1.0
  O  O31  1  0.37215163  0.00602506  0.00747689  1.0
  O  O32  1  0.24269762  0.75000000  0.71403678  1.0
  O  O33  1  0.74269762  0.75000000  0.78596322  1.0
  O  O34  1  0.75730238  0.25000000  0.28596322  1.0
  O  O35  1  0.25730238  0.25000000  0.21403678  1.0
  O  O36  1  0.79599299  0.75000000  0.09823001  1.0
  O  O37  1  0.29599299  0.75000000  0.40176999  1.0
  O  O38  1  0.20400701  0.25000000  0.90176999  1.0
  O  O39  1  0.70400701  0.25000000  0.59823001  1.0
