# generated using pymatgen
data_ZnB3Ir4
_symmetry_space_group_name_H-M   'P 1'
_cell_length_a   2.80604702
_cell_length_b   2.83575547
_cell_length_c   23.47676231
_cell_angle_alpha   90.00000000
_cell_angle_beta   90.00000000
_cell_angle_gamma   90.00000000
_symmetry_Int_Tables_number   1
_chemical_formula_structural   ZnB3Ir4
_chemical_formula_sum   'Zn2 B6 Ir8'
_cell_volume   186.81077689
_cell_formula_units_Z   2
loop_
 _symmetry_equiv_pos_site_id
 _symmetry_equiv_pos_as_xyz
  1  'x, y, z'
loop_
 _atom_site_type_symbol
 _atom_site_label
 _atom_site_symmetry_multiplicity
 _atom_site_fract_x
 _atom_site_fract_y
 _atom_site_fract_z
 _atom_site_occupancy
  Zn  Zn0  1  0.50000000  0.00000000  0.50000000  1.0
  Zn  Zn1  1  0.00000000  0.00000000  0.00000000  1.0
  B  B2  1  0.50000000  0.00000000  0.62325745  1.0
  B  B3  1  0.50000000  0.00000000  0.37674255  1.0
  B  B4  1  0.00000000  0.50000000  0.76003052  1.0
  B  B5  1  0.00000000  0.50000000  0.23996948  1.0
  B  B6  1  0.00000000  0.00000000  0.87772000  1.0
  B  B7  1  0.00000000  0.00000000  0.12228000  1.0
  Ir  Ir8  1  0.50000000  0.50000000  0.91552816  1.0
  Ir  Ir9  1  0.50000000  0.50000000  0.08447184  1.0
  Ir  Ir10  1  0.50000000  0.00000000  0.80324852  1.0
  Ir  Ir11  1  0.50000000  0.00000000  0.19675148  1.0
  Ir  Ir12  1  0.00000000  0.50000000  0.58310738  1.0
  Ir  Ir13  1  0.00000000  0.50000000  0.41689262  1.0
  Ir  Ir14  1  0.00000000  0.00000000  0.69278713  1.0
  Ir  Ir15  1  0.00000000  0.00000000  0.30721287  1.0
