# generated using pymatgen
data_Nb2Cd2O7
_symmetry_space_group_name_H-M   'P 1'
_cell_length_a   7.41716557
_cell_length_b   7.41716557
_cell_length_c   7.41716557
_cell_angle_alpha   120.00175422
_cell_angle_beta   120.00175422
_cell_angle_gamma   89.99696163
_symmetry_Int_Tables_number   1
_chemical_formula_structural   Nb2Cd2O7
_chemical_formula_sum   'Nb4 Cd4 O14'
_cell_volume   288.52762932
_cell_formula_units_Z   2
loop_
 _symmetry_equiv_pos_site_id
 _symmetry_equiv_pos_as_xyz
  1  'x, y, z'
loop_
 _atom_site_type_symbol
 _atom_site_label
 _atom_site_symmetry_multiplicity
 _atom_site_fract_x
 _atom_site_fract_y
 _atom_site_fract_z
 _atom_site_occupancy
  Nb  Nb0  1  0.87500474  0.62501301  1.24999172  1.0
  Nb  Nb1  1  0.37498699  1.12499526  0.75000828  1.0
  Nb  Nb2  1  0.37498699  0.62497871  0.24999172  1.0
  Nb  Nb3  1  0.37502129  0.62501301  0.75000828  1.0
  Cd  Cd4  1  0.37498513  0.12495740  0.25002774  1.0
  Cd  Cd5  1  0.87504260  0.62501487  0.74997226  1.0
  Cd  Cd6  1  0.87504260  1.12507034  1.25002774  1.0
  Cd  Cd7  1  0.87492966  0.12495740  0.74997226  1.0
  O  O8  1  0.44196296  0.55803704  0.50000000  1.0
  O  O9  1  0.44196296  0.94196296  0.88392592  1.0
  O  O10  1  1.05803704  0.55803704  1.11607408  1.0
  O  O11  1  1.05803704  0.94196296  1.50000000  1.0
  O  O12  1  0.30807304  0.69192696  1.00000000  1.0
  O  O13  1  0.30807304  0.30807304  0.61614607  1.0
  O  O14  1  0.69192696  0.69192696  1.38385393  1.0
  O  O15  1  0.69192696  0.30807304  1.00000000  1.0
  O  O16  1  0.05797474  0.55797474  0.50000000  1.0
  O  O17  1  0.44202526  0.94202526  0.50000000  1.0
  O  O18  1  0.30798751  0.30798751  -0.00000000  1.0
  O  O19  1  0.69201249  0.69201249  1.00000000  1.0
  O  O20  1  0.75000000  0.25000000  0.50000000  1.0
  O  O21  1  0.00000000  0.00000000  0.00000000  1.0
