# generated using pymatgen
data_CdI2
_symmetry_space_group_name_H-M   'P 1'
_cell_length_a   22.95759651
_cell_length_b   22.95759651
_cell_length_c   22.95759651
_cell_angle_alpha   10.81570299
_cell_angle_beta   10.81570299
_cell_angle_gamma   10.81570299
_symmetry_Int_Tables_number   1
_chemical_formula_structural   CdI2
_chemical_formula_sum   'Cd3 I6'
_cell_volume   370.08129623
_cell_formula_units_Z   3
loop_
 _symmetry_equiv_pos_site_id
 _symmetry_equiv_pos_as_xyz
  1  'x, y, z'
loop_
 _atom_site_type_symbol
 _atom_site_label
 _atom_site_symmetry_multiplicity
 _atom_site_fract_x
 _atom_site_fract_y
 _atom_site_fract_z
 _atom_site_occupancy
  Cd  Cd0  1  1.55551599  0.55551599  0.55551599  1.0
  Cd  Cd1  1  1.44448401  0.44448401  0.44448401  1.0
  Cd  Cd2  1  0.00000000  0.00000000  0.00000000  1.0
  I  I3  1  0.86372922  0.86372922  0.86372922  1.0
  I  I4  1  1.13627078  1.13627078  0.13627078  1.0
  I  I5  1  0.75270490  0.75270490  0.75270490  1.0
  I  I6  1  1.24729510  1.24729510  0.24729510  1.0
  I  I7  1  1.64155515  0.64155515  0.64155515  1.0
  I  I8  1  1.35844485  0.35844485  0.35844485  1.0
