# generated using pymatgen
data_Na2Li3CoO4
_symmetry_space_group_name_H-M   'P 1'
_cell_length_a   8.03883553
_cell_length_b   8.24483742
_cell_length_c   6.56265946
_cell_angle_alpha   90.00000000
_cell_angle_beta   90.00000000
_cell_angle_gamma   90.00000000
_symmetry_Int_Tables_number   1
_chemical_formula_structural   Na2Li3CoO4
_chemical_formula_sum   'Na8 Li12 Co4 O16'
_cell_volume   434.96579794
_cell_formula_units_Z   4
loop_
 _symmetry_equiv_pos_site_id
 _symmetry_equiv_pos_as_xyz
  1  'x, y, z'
loop_
 _atom_site_type_symbol
 _atom_site_label
 _atom_site_symmetry_multiplicity
 _atom_site_fract_x
 _atom_site_fract_y
 _atom_site_fract_z
 _atom_site_occupancy
  Na  Na0  1  0.25871249  0.24806949  0.50000000  1.0
  Na  Na1  1  0.75871249  0.25193051  0.00000000  1.0
  Na  Na2  1  0.74128751  0.75193051  0.50000000  1.0
  Na  Na3  1  0.24128751  0.74806949  0.00000000  1.0
  Na  Na4  1  0.50000000  0.50000000  0.24461401  1.0
  Na  Na5  1  0.50000000  0.50000000  0.75538599  1.0
  Na  Na6  1  0.00000000  0.00000000  0.74461401  1.0
  Na  Na7  1  0.00000000  0.00000000  0.25538599  1.0
  Li  Li8  1  0.48654721  0.85095885  0.25443694  1.0
  Li  Li9  1  0.48654721  0.85095885  0.74556306  1.0
  Li  Li10  1  0.98654721  0.64904115  0.75443694  1.0
  Li  Li11  1  0.98654721  0.64904115  0.24556306  1.0
  Li  Li12  1  0.51345279  0.14904115  0.25443694  1.0
  Li  Li13  1  0.51345279  0.14904115  0.74556306  1.0
  Li  Li14  1  0.01345279  0.35095885  0.75443694  1.0
  Li  Li15  1  0.01345279  0.35095885  0.24556306  1.0
  Li  Li16  1  0.26502645  0.90531277  0.50000000  1.0
  Li  Li17  1  0.76502645  0.59468723  -0.00000000  1.0
  Li  Li18  1  0.73497355  0.09468723  0.50000000  1.0
  Li  Li19  1  0.23497355  0.40531277  -0.00000000  1.0
  Co  Co20  1  0.22446001  0.61688681  0.50000000  1.0
  Co  Co21  1  0.72446001  0.88311319  0.00000000  1.0
  Co  Co22  1  0.77553999  0.38311319  0.50000000  1.0
  Co  Co23  1  0.27553999  0.11688681  0.00000000  1.0
  O  O24  1  0.19499931  0.51382389  0.25140469  1.0
  O  O25  1  0.19499931  0.51382389  0.74859531  1.0
  O  O26  1  0.69499931  0.98617611  0.75140469  1.0
  O  O27  1  0.69499931  0.98617611  0.24859531  1.0
  O  O28  1  0.80500069  0.48617611  0.25140469  1.0
  O  O29  1  0.80500069  0.48617611  0.74859531  1.0
  O  O30  1  0.30500069  0.01382389  0.75140469  1.0
  O  O31  1  0.30500069  0.01382389  0.24859531  1.0
  O  O32  1  0.43766432  0.72109987  0.50000000  1.0
  O  O33  1  0.93766432  0.77890013  0.00000000  1.0
  O  O34  1  0.56233568  0.27890013  0.50000000  1.0
  O  O35  1  0.06233568  0.22109987  0.00000000  1.0
  O  O36  1  0.04616471  0.77458062  0.50000000  1.0
  O  O37  1  0.54616471  0.72541938  0.00000000  1.0
  O  O38  1  0.95383529  0.22541938  0.50000000  1.0
  O  O39  1  0.45383529  0.27458062  0.00000000  1.0
