# generated using pymatgen
data_AgN
_symmetry_space_group_name_H-M   'P 1'
_cell_length_a   4.08341665
_cell_length_b   4.08341665
_cell_length_c   7.21631581
_cell_angle_alpha   90.00000000
_cell_angle_beta   90.00000000
_cell_angle_gamma   91.26319002
_symmetry_Int_Tables_number   1
_chemical_formula_structural   AgN
_chemical_formula_sum   'Ag4 N4'
_cell_volume   120.29771160
_cell_formula_units_Z   4
loop_
 _symmetry_equiv_pos_site_id
 _symmetry_equiv_pos_as_xyz
  1  'x, y, z'
loop_
 _atom_site_type_symbol
 _atom_site_label
 _atom_site_symmetry_multiplicity
 _atom_site_fract_x
 _atom_site_fract_y
 _atom_site_fract_z
 _atom_site_occupancy
  Ag  Ag0  1  -0.34861477  1.34861477  0.66346741  1.0
  Ag  Ag1  1  0.34861477  0.65138523  0.33653259  1.0
  Ag  Ag2  1  -0.15138523  1.15138523  0.16346741  1.0
  Ag  Ag3  1  0.15138523  0.84861477  0.83653259  1.0
  N  N4  1  0.64968976  0.85031024  0.75000000  1.0
  N  N5  1  -0.14968976  1.64968976  0.25000000  1.0
  N  N6  1  -0.64968976  1.14968976  0.25000000  1.0
  N  N7  1  0.14968976  0.35031024  0.75000000  1.0
