# generated using pymatgen
data_Sr3Li2
_symmetry_space_group_name_H-M   'P 1'
_cell_length_a   9.73742124
_cell_length_b   9.73742124
_cell_length_c   8.69211752
_cell_angle_alpha   90.00000000
_cell_angle_beta   90.00000000
_cell_angle_gamma   90.00000000
_symmetry_Int_Tables_number   1
_chemical_formula_structural   Sr3Li2
_chemical_formula_sum   'Sr12 Li8'
_cell_volume   824.16374407
_cell_formula_units_Z   4
loop_
 _symmetry_equiv_pos_site_id
 _symmetry_equiv_pos_as_xyz
  1  'x, y, z'
loop_
 _atom_site_type_symbol
 _atom_site_label
 _atom_site_symmetry_multiplicity
 _atom_site_fract_x
 _atom_site_fract_y
 _atom_site_fract_z
 _atom_site_occupancy
  Sr  Sr0  1  0.28811051  0.28811051  0.50000000  1.0
  Sr  Sr1  1  0.78811051  0.21188949  0.00000000  1.0
  Sr  Sr2  1  0.71188949  0.71188949  0.50000000  1.0
  Sr  Sr3  1  0.21188949  0.78811051  0.00000000  1.0
  Sr  Sr4  1  0.14947940  0.85052060  0.50000000  1.0
  Sr  Sr5  1  0.64947940  0.64947940  0.00000000  1.0
  Sr  Sr6  1  0.85052060  0.14947940  0.50000000  1.0
  Sr  Sr7  1  0.35052060  0.35052060  0.00000000  1.0
  Sr  Sr8  1  0.50000000  0.00000000  0.25000000  1.0
  Sr  Sr9  1  0.50000000  0.00000000  0.75000000  1.0
  Sr  Sr10  1  0.00000000  0.50000000  0.75000000  1.0
  Sr  Sr11  1  0.00000000  0.50000000  0.25000000  1.0
  Li  Li12  1  0.38736561  0.61263439  0.31870993  1.0
  Li  Li13  1  0.38736561  0.61263439  0.68129007  1.0
  Li  Li14  1  0.88736561  0.88736561  0.81870993  1.0
  Li  Li15  1  0.88736561  0.88736561  0.18129007  1.0
  Li  Li16  1  0.61263439  0.38736561  0.31870993  1.0
  Li  Li17  1  0.61263439  0.38736561  0.68129007  1.0
  Li  Li18  1  0.11263439  0.11263439  0.81870993  1.0
  Li  Li19  1  0.11263439  0.11263439  0.18129007  1.0
