# generated using pymatgen
data_Ga2S3
_symmetry_space_group_name_H-M   'P 1'
_cell_length_a   9.82310307
_cell_length_b   9.82310307
_cell_length_c   9.82310307
_cell_angle_alpha   20.89077894
_cell_angle_beta   20.89077894
_cell_angle_gamma   20.89077894
_symmetry_Int_Tables_number   1
_chemical_formula_structural   Ga2S3
_chemical_formula_sum   'Ga2 S3'
_cell_volume   105.53405876
_cell_formula_units_Z   1
loop_
 _symmetry_equiv_pos_site_id
 _symmetry_equiv_pos_as_xyz
  1  'x, y, z'
loop_
 _atom_site_type_symbol
 _atom_site_label
 _atom_site_symmetry_multiplicity
 _atom_site_fract_x
 _atom_site_fract_y
 _atom_site_fract_z
 _atom_site_occupancy
  Ga  Ga0  1  1.60705452  0.60705452  0.60705452  1.0
  Ga  Ga1  1  1.39294548  0.39294548  0.39294548  1.0
  S  S2  1  -0.00000000  0.00000000  -0.00000000  1.0
  S  S3  1  0.76621585  0.76621585  0.76621586  1.0
  S  S4  1  1.23378414  1.23378414  0.23378415  1.0
