# generated using pymatgen
data_AlPO4
_symmetry_space_group_name_H-M   'P 1'
_cell_length_a   8.97346618
_cell_length_b   8.97346618
_cell_length_c   8.97346618
_cell_angle_alpha   90.00725736
_cell_angle_beta   90.00725736
_cell_angle_gamma   90.00725736
_symmetry_Int_Tables_number   1
_chemical_formula_structural   AlPO4
_chemical_formula_sum   'Al6 P6 O24'
_cell_volume   722.57125431
_cell_formula_units_Z   6
loop_
 _symmetry_equiv_pos_site_id
 _symmetry_equiv_pos_as_xyz
  1  'x, y, z'
loop_
 _atom_site_type_symbol
 _atom_site_label
 _atom_site_symmetry_multiplicity
 _atom_site_fract_x
 _atom_site_fract_y
 _atom_site_fract_z
 _atom_site_occupancy
  Al  Al0  1  1.05930848  -0.19076541  0.30921258  1.0
  Al  Al1  1  0.55930848  0.80921258  0.30923459  1.0
  Al  Al2  1  1.30923459  0.55930848  -0.19078742  1.0
  Al  Al3  1  0.80923459  0.30921258  0.05930848  1.0
  Al  Al4  1  0.80921258  1.30923459  -0.44069152  1.0
  Al  Al5  1  1.30921258  0.05930848  -0.19076541  1.0
  P  P6  1  1.30927077  -0.19062831  0.05922186  1.0
  P  P7  1  0.80927077  0.55922186  0.30937169  1.0
  P  P8  1  1.30937169  0.80927077  -0.44077814  1.0
  P  P9  1  0.80937169  0.05922186  0.30927077  1.0
  P  P10  1  0.55922186  1.30937169  -0.19072923  1.0
  P  P11  1  1.05922186  0.30927077  -0.19062831  1.0
  O  O12  1  1.44526643  -0.14948559  0.15608901  1.0
  O  O13  1  0.94526643  0.65608901  0.35051441  1.0
  O  O14  1  1.35051441  0.94526643  -0.34391099  1.0
  O  O15  1  0.85051441  0.15608901  0.44526643  1.0
  O  O16  1  0.65608901  1.35051441  -0.05473357  1.0
  O  O17  1  1.15608901  0.44526643  -0.14948559  1.0
  O  O18  1  1.17331526  -0.23189493  0.15602206  1.0
  O  O19  1  0.67331526  0.65602206  0.26810507  1.0
  O  O20  1  1.26810507  0.67331526  -0.34397794  1.0
  O  O21  1  0.76810507  0.15602206  0.17331526  1.0
  O  O22  1  0.65602206  1.26810507  -0.32668474  1.0
  O  O23  1  1.15602206  0.17331526  -0.23189493  1.0
  O  O24  1  0.94539561  0.96249144  0.26807461  1.0
  O  O25  1  1.44539561  -0.23192539  0.46249144  1.0
  O  O26  1  1.46249144  0.44539561  -0.23192539  1.0
  O  O27  1  0.96249144  1.26807461  -0.05460439  1.0
  O  O28  1  0.76807461  0.46249144  0.44539561  1.0
  O  O29  1  1.26807461  0.94539561  -0.03750856  1.0
  O  O30  1  0.67347580  0.96228670  0.35044364  1.0
  O  O31  1  1.17347580  -0.14955636  0.46228670  1.0
  O  O32  1  1.46228670  0.17347580  -0.14955636  1.0
  O  O33  1  0.96228670  1.35044364  -0.32652420  1.0
  O  O34  1  0.85044364  0.46228670  0.17347580  1.0
  O  O35  1  1.35044364  0.67347580  -0.03771330  1.0
