# generated using pymatgen
data_CuNi(CN)4
_symmetry_space_group_name_H-M   'P 1'
_cell_length_a   6.99585895
_cell_length_b   6.99585895
_cell_length_c   7.37473099
_cell_angle_alpha   90.00000000
_cell_angle_beta   90.00000000
_cell_angle_gamma   90.10523376
_symmetry_Int_Tables_number   1
_chemical_formula_structural   CuNi(CN)4
_chemical_formula_sum   'Cu2 Ni2 C8 N8'
_cell_volume   360.93378825
_cell_formula_units_Z   2
loop_
 _symmetry_equiv_pos_site_id
 _symmetry_equiv_pos_as_xyz
  1  'x, y, z'
loop_
 _atom_site_type_symbol
 _atom_site_label
 _atom_site_symmetry_multiplicity
 _atom_site_fract_x
 _atom_site_fract_y
 _atom_site_fract_z
 _atom_site_occupancy
  Cu  Cu0  1  -0.11778208  1.11778208  0.25000000  1.0
  Cu  Cu1  1  0.11778208  0.88221792  0.75000000  1.0
  Ni  Ni2  1  0.38244176  0.61755824  0.25000000  1.0
  Ni  Ni3  1  -0.38244176  1.38244176  0.75000000  1.0
  C  C4  1  0.19613622  0.43131724  0.25000000  1.0
  C  C5  1  -0.56868276  1.19613622  0.75000000  1.0
  C  C6  1  0.56868276  0.80386378  0.25000000  1.0
  C  C7  1  -0.19613622  1.56868276  0.75000000  1.0
  C  C8  1  0.19657559  0.80342441  0.25000000  1.0
  C  C9  1  -0.19657559  1.19657559  0.75000000  1.0
  C  C10  1  -0.43172419  1.43172419  0.25000000  1.0
  C  C11  1  0.43172419  0.56827581  0.75000000  1.0
  N  N12  1  0.07802501  0.31331466  0.25000000  1.0
  N  N13  1  -0.68668534  1.07802501  0.75000000  1.0
  N  N14  1  0.68668534  0.92197499  0.25000000  1.0
  N  N15  1  -0.07802501  1.68668534  0.75000000  1.0
  N  N16  1  0.07860163  0.92139837  0.25000000  1.0
  N  N17  1  -0.07860163  1.07860163  0.75000000  1.0
  N  N18  1  -0.31379452  1.31379452  0.25000000  1.0
  N  N19  1  0.31379452  0.68620548  0.75000000  1.0
