# generated using pymatgen
data_K2VO2F3
_symmetry_space_group_name_H-M   'P 1'
_cell_length_a   7.51545785
_cell_length_b   5.78127263
_cell_length_c   11.49547150
_cell_angle_alpha   90.00000000
_cell_angle_beta   90.00000000
_cell_angle_gamma   90.00000000
_symmetry_Int_Tables_number   1
_chemical_formula_structural   K2VO2F3
_chemical_formula_sum   'K8 V4 O8 F12'
_cell_volume   499.46571575
_cell_formula_units_Z   4
loop_
 _symmetry_equiv_pos_site_id
 _symmetry_equiv_pos_as_xyz
  1  'x, y, z'
loop_
 _atom_site_type_symbol
 _atom_site_label
 _atom_site_symmetry_multiplicity
 _atom_site_fract_x
 _atom_site_fract_y
 _atom_site_fract_z
 _atom_site_occupancy
  F  F0  1  0.96122601  0.25000000  0.19347847  1.0
  F  F1  1  0.53877399  0.75000000  0.69347847  1.0
  F  F2  1  0.46122601  0.25000000  0.30652153  1.0
  F  F3  1  0.03877399  0.75000000  0.80652153  1.0
  F  F4  1  0.50000000  0.00000000  0.50000000  1.0
  F  F5  1  0.00000000  0.00000000  0.00000000  1.0
  F  F6  1  0.00000000  0.50000000  0.00000000  1.0
  F  F7  1  0.50000000  0.50000000  0.50000000  1.0
  F  F8  1  0.73158718  0.25000000  0.90932556  1.0
  F  F9  1  0.76841282  0.75000000  0.40932556  1.0
  F  F10  1  0.23158718  0.25000000  0.59067444  1.0
  F  F11  1  0.26841282  0.75000000  0.09067444  1.0
  O  O12  1  0.82242857  -0.02623496  0.61139409  1.0
  O  O13  1  0.67757143  1.02623496  0.11139409  1.0
  O  O14  1  0.32242857  0.52623496  0.88860591  1.0
  O  O15  1  0.17757143  0.47376504  0.38860591  1.0
  O  O16  1  0.17757143  1.02623496  0.38860591  1.0
  O  O17  1  0.32242857  -0.02623496  0.88860591  1.0
  O  O18  1  0.67757143  0.47376504  0.11139409  1.0
  O  O19  1  0.82242857  0.52623496  0.61139409  1.0
  K  K20  1  0.52809906  0.25000000  0.71404649  1.0
  K  K21  1  0.97190094  0.75000000  0.21404649  1.0
  K  K22  1  0.02809906  0.25000000  0.78595351  1.0
  K  K23  1  0.47190094  0.75000000  0.28595351  1.0
  K  K24  1  1.30834548  0.25000000  0.08735376  1.0
  K  K25  1  0.19165452  0.75000000  0.58735376  1.0
  K  K26  1  0.80834548  0.25000000  0.41264624  1.0
  K  K27  1  -0.30834548  0.75000000  0.91264624  1.0
  V  V28  1  0.79693632  0.25000000  0.07030488  1.0
  V  V29  1  0.70306368  0.75000000  0.57030488  1.0
  V  V30  1  0.29693632  0.25000000  0.42969512  1.0
  V  V31  1  0.20306368  0.75000000  0.92969512  1.0
