# generated using pymatgen
data_BaLi2Mg(PO4)2
_symmetry_space_group_name_H-M   'P 1'
_cell_length_a   5.09079527
_cell_length_b   5.09079527
_cell_length_c   7.18383366
_cell_angle_alpha   90.00000000
_cell_angle_beta   90.00000000
_cell_angle_gamma   120.00000000
_symmetry_Int_Tables_number   1
_chemical_formula_structural   BaLi2Mg(PO4)2
_chemical_formula_sum   'Ba1 Li2 Mg1 P2 O8'
_cell_volume   161.23457016
_cell_formula_units_Z   1
loop_
 _symmetry_equiv_pos_site_id
 _symmetry_equiv_pos_as_xyz
  1  'x, y, z'
loop_
 _atom_site_type_symbol
 _atom_site_label
 _atom_site_symmetry_multiplicity
 _atom_site_fract_x
 _atom_site_fract_y
 _atom_site_fract_z
 _atom_site_occupancy
  Ba  Ba0  1  0.00000000  0.00000000  0.00000000  1.0
  Li  Li1  1  0.33333333  0.66666667  0.73843005  1.0
  Li  Li2  1  0.66666667  0.33333333  0.26156995  1.0
  Mg  Mg3  1  0.00000000  0.00000000  0.50000000  1.0
  P  P4  1  0.33333333  0.66666667  0.25030943  1.0
  P  P5  1  0.66666667  0.33333333  0.74969057  1.0
  O  O6  1  0.29794809  0.93898458  0.31994862  1.0
  O  O7  1  0.93898458  0.64103649  0.68005138  1.0
  O  O8  1  0.64103649  0.70205191  0.31994862  1.0
  O  O9  1  0.06101542  0.35896351  0.31994862  1.0
  O  O10  1  0.70205191  0.06101542  0.68005138  1.0
  O  O11  1  0.35896351  0.29794809  0.68005138  1.0
  O  O12  1  0.33333333  0.66666667  0.03379317  1.0
  O  O13  1  0.66666667  0.33333333  0.96620683  1.0
