# generated using pymatgen
data_OsN2
_symmetry_space_group_name_H-M   'P 1'
_cell_length_a   4.92336503
_cell_length_b   4.90846353
_cell_length_c   4.96625454
_cell_angle_alpha   90.00000000
_cell_angle_beta   112.18733203
_cell_angle_gamma   90.00000000
_symmetry_Int_Tables_number   1
_chemical_formula_structural   OsN2
_chemical_formula_sum   'Os4 N8'
_cell_volume   111.12865052
_cell_formula_units_Z   4
loop_
 _symmetry_equiv_pos_site_id
 _symmetry_equiv_pos_as_xyz
  1  'x, y, z'
loop_
 _atom_site_type_symbol
 _atom_site_label
 _atom_site_symmetry_multiplicity
 _atom_site_fract_x
 _atom_site_fract_y
 _atom_site_fract_z
 _atom_site_occupancy
  Os  Os0  1  0.76961833  0.49712296  0.28122685  1.0
  Os  Os1  1  0.76961833  0.00287704  0.78122685  1.0
  Os  Os2  1  0.23038167  -0.00287704  0.21877315  1.0
  Os  Os3  1  0.23038167  0.50287704  0.71877315  1.0
  N  N4  1  0.80685650  0.90007335  0.19342928  1.0
  N  N5  1  0.80685650  0.59992665  0.69342928  1.0
  N  N6  1  0.19314350  0.40007335  0.30657072  1.0
  N  N7  1  0.19314350  0.09992665  0.80657072  1.0
  N  N8  1  0.67637949  0.09062982  0.32786001  1.0
  N  N9  1  0.67637949  0.40937018  0.82786001  1.0
  N  N10  1  0.32362051  0.59062982  0.17213999  1.0
  N  N11  1  0.32362051  0.90937018  0.67213999  1.0
