# generated using pymatgen
data_BaReH9
_symmetry_space_group_name_H-M   'P 1'
_cell_length_a   5.24559194
_cell_length_b   5.24559194
_cell_length_c   9.66258240
_cell_angle_alpha   90.00000000
_cell_angle_beta   90.00000000
_cell_angle_gamma   119.95380802
_symmetry_Int_Tables_number   1
_chemical_formula_structural   BaReH9
_chemical_formula_sum   'Ba2 Re2 H18'
_cell_volume   230.36410490
_cell_formula_units_Z   2
loop_
 _symmetry_equiv_pos_site_id
 _symmetry_equiv_pos_as_xyz
  1  'x, y, z'
loop_
 _atom_site_type_symbol
 _atom_site_label
 _atom_site_symmetry_multiplicity
 _atom_site_fract_x
 _atom_site_fract_y
 _atom_site_fract_z
 _atom_site_occupancy
  Ba  Ba0  1  0.00000000  0.00000000  0.00000000  1.0
  Ba  Ba1  1  0.00000000  0.00000000  0.50000000  1.0
  Re  Re2  1  0.33353625  0.66646375  0.25000000  1.0
  Re  Re3  1  -0.33353625  1.33353625  0.75000000  1.0
  H  H4  1  -0.53295901  1.53295901  0.12516187  1.0
  H  H5  1  0.53295901  0.46704099  0.87483813  1.0
  H  H6  1  -0.53295901  1.53295901  0.37483813  1.0
  H  H7  1  0.53295901  0.46704099  0.62516187  1.0
  H  H8  1  0.46663808  0.93303768  0.37492491  1.0
  H  H9  1  -0.06696232  1.46663808  0.62507509  1.0
  H  H10  1  0.46663808  0.93303768  0.12507509  1.0
  H  H11  1  -0.06696232  1.46663808  0.87492491  1.0
  H  H12  1  -0.46663808  1.06696232  0.62507509  1.0
  H  H13  1  0.06696232  0.53336192  0.37492491  1.0
  H  H14  1  -0.46663808  1.06696232  0.87492491  1.0
  H  H15  1  0.06696232  0.53336192  0.12507509  1.0
  H  H16  1  0.70173916  0.85063281  0.25000000  1.0
  H  H17  1  -0.14936719  1.70173916  0.75000000  1.0
  H  H18  1  -0.70173916  1.14936719  0.75000000  1.0
  H  H19  1  0.14936719  0.29826084  0.25000000  1.0
  H  H20  1  0.14930326  0.85069674  0.25000000  1.0
  H  H21  1  -0.14930326  1.14930326  0.75000000  1.0
