# generated using pymatgen
data_Nb2CdO6
_symmetry_space_group_name_H-M   'P 1'
_cell_length_a   14.95315151
_cell_length_b   5.98084395
_cell_length_c   5.16783555
_cell_angle_alpha   90.00000000
_cell_angle_beta   90.00000000
_cell_angle_gamma   90.00000000
_symmetry_Int_Tables_number   1
_chemical_formula_structural   Nb2CdO6
_chemical_formula_sum   'Nb8 Cd4 O24'
_cell_volume   462.17227539
_cell_formula_units_Z   4
loop_
 _symmetry_equiv_pos_site_id
 _symmetry_equiv_pos_as_xyz
  1  'x, y, z'
loop_
 _atom_site_type_symbol
 _atom_site_label
 _atom_site_symmetry_multiplicity
 _atom_site_fract_x
 _atom_site_fract_y
 _atom_site_fract_z
 _atom_site_occupancy
  Nb  Nb0  1  0.66543965  0.68056471  0.73583172  1.0
  Nb  Nb1  1  0.66543965  0.31943529  0.23583172  1.0
  Nb  Nb2  1  0.16543965  0.18056471  0.76416828  1.0
  Nb  Nb3  1  0.16543965  0.81943529  0.26416828  1.0
  Nb  Nb4  1  0.33456035  0.68056471  0.76416828  1.0
  Nb  Nb5  1  0.33456035  0.31943529  0.26416828  1.0
  Nb  Nb6  1  0.83456035  0.18056471  0.73583172  1.0
  Nb  Nb7  1  0.83456035  0.81943529  0.23583172  1.0
  Cd  Cd8  1  0.00000000  0.69327652  0.75000000  1.0
  Cd  Cd9  1  0.00000000  0.30672348  0.25000000  1.0
  Cd  Cd10  1  0.50000000  0.19327652  0.75000000  1.0
  Cd  Cd11  1  0.50000000  0.80672348  0.25000000  1.0
  O  O12  1  0.89559735  0.91030168  0.54788932  1.0
  O  O13  1  0.89559735  0.08969832  0.04788932  1.0
  O  O14  1  0.39559735  0.41030168  0.95211068  1.0
  O  O15  1  0.39559735  0.58969832  0.45211068  1.0
  O  O16  1  0.10440265  0.91030168  0.95211068  1.0
  O  O17  1  0.10440265  0.08969832  0.45211068  1.0
  O  O18  1  0.60440265  0.41030168  0.54788932  1.0
  O  O19  1  0.60440265  0.58969832  0.04788932  1.0
  O  O20  1  0.75495081  0.86507127  0.91018530  1.0
  O  O21  1  0.75495081  0.13492873  0.41018530  1.0
  O  O22  1  0.25495081  0.36507127  0.58981470  1.0
  O  O23  1  0.25495081  0.63492873  0.08981470  1.0
  O  O24  1  0.24504919  0.86507127  0.58981470  1.0
  O  O25  1  0.24504919  0.13492873  0.08981470  1.0
  O  O26  1  0.74504919  0.36507127  0.91018530  1.0
  O  O27  1  0.74504919  0.63492873  0.41018530  1.0
  O  O28  1  0.58605012  0.87934396  0.60644806  1.0
  O  O29  1  0.58605012  0.12065604  0.10644806  1.0
  O  O30  1  0.08605012  0.37934396  0.89355194  1.0
  O  O31  1  0.08605012  0.62065604  0.39355194  1.0
  O  O32  1  0.41394988  0.87934396  0.89355194  1.0
  O  O33  1  0.41394988  0.12065604  0.39355194  1.0
  O  O34  1  0.91394988  0.37934396  0.60644806  1.0
  O  O35  1  0.91394988  0.62065604  0.10644806  1.0
