# generated using pymatgen
data_ZnS
_symmetry_space_group_name_H-M   'P 1'
_cell_length_a   3.84999627
_cell_length_b   3.84999627
_cell_length_c   69.19203419
_cell_angle_alpha   90.00000000
_cell_angle_beta   90.00000000
_cell_angle_gamma   120.00000000
_symmetry_Int_Tables_number   1
_chemical_formula_structural   ZnS
_chemical_formula_sum   'Zn22 S22'
_cell_volume   888.19300453
_cell_formula_units_Z   22
loop_
 _symmetry_equiv_pos_site_id
 _symmetry_equiv_pos_as_xyz
  1  'x, y, z'
loop_
 _atom_site_type_symbol
 _atom_site_label
 _atom_site_symmetry_multiplicity
 _atom_site_fract_x
 _atom_site_fract_y
 _atom_site_fract_z
 _atom_site_occupancy
  Zn  Zn0  1  0.00000000  0.00000000  0.04541506  1.0
  Zn  Zn1  1  0.00000000  0.00000000  0.22731157  1.0
  Zn  Zn2  1  0.00000000  0.00000000  0.36363198  1.0
  Zn  Zn3  1  0.00000000  0.00000000  0.49999208  1.0
  Zn  Zn4  1  0.00000000  0.00000000  0.63635373  1.0
  Zn  Zn5  1  0.00000000  0.00000000  0.77272866  1.0
  Zn  Zn6  1  0.00000000  0.00000000  0.90908026  1.0
  Zn  Zn7  1  0.66666667  0.33333333  0.13639963  1.0
  Zn  Zn8  1  0.66666667  0.33333333  0.27274384  1.0
  Zn  Zn9  1  0.66666667  0.33333333  0.40908087  1.0
  Zn  Zn10  1  0.66666667  0.33333333  0.54544929  1.0
  Zn  Zn11  1  0.66666667  0.33333333  0.68181253  1.0
  Zn  Zn12  1  0.66666667  0.33333333  0.81818071  1.0
  Zn  Zn13  1  0.66666667  0.33333333  0.95451216  1.0
  Zn  Zn14  1  0.33333333  0.66666667  -0.00007554  1.0
  Zn  Zn15  1  0.33333333  0.66666667  0.09090237  1.0
  Zn  Zn16  1  0.33333333  0.66666667  0.18189123  1.0
  Zn  Zn17  1  0.33333333  0.66666667  0.31818215  1.0
  Zn  Zn18  1  0.33333333  0.66666667  0.45453561  1.0
  Zn  Zn19  1  0.33333333  0.66666667  0.59090165  1.0
  Zn  Zn20  1  0.33333333  0.66666667  0.72727184  1.0
  Zn  Zn21  1  0.33333333  0.66666667  0.86363486  1.0
  S  S22  1  0.00000000  0.00000000  0.01128329  1.0
  S  S23  1  0.00000000  0.00000000  0.19323834  1.0
  S  S24  1  0.00000000  0.00000000  0.32954840  1.0
  S  S25  1  0.00000000  0.00000000  0.46590661  1.0
  S  S26  1  0.00000000  0.00000000  0.60226850  1.0
  S  S27  1  0.00000000  0.00000000  0.73864264  1.0
  S  S28  1  0.00000000  0.00000000  0.87499965  1.0
  S  S29  1  0.66666667  0.33333333  0.10226462  1.0
  S  S30  1  0.66666667  0.33333333  0.23866771  1.0
  S  S31  1  0.66666667  0.33333333  0.37499781  1.0
  S  S32  1  0.66666667  0.33333333  0.51136291  1.0
  S  S33  1  0.66666667  0.33333333  0.64772526  1.0
  S  S34  1  0.66666667  0.33333333  0.78409617  1.0
  S  S35  1  0.66666667  0.33333333  0.92043670  1.0
  S  S36  1  0.33333333  0.66666667  0.05683779  1.0
  S  S37  1  0.33333333  0.66666667  0.14782043  1.0
  S  S38  1  0.33333333  0.66666667  0.28410216  1.0
  S  S39  1  0.33333333  0.66666667  0.42044977  1.0
  S  S40  1  0.33333333  0.66666667  0.55681797  1.0
  S  S41  1  0.33333333  0.66666667  0.69318414  1.0
  S  S42  1  0.33333333  0.66666667  0.82955038  1.0
  S  S43  1  0.33333333  0.66666667  0.96586222  1.0
