# generated using pymatgen
data_Tl3In2Cl9
_symmetry_space_group_name_H-M   'P 1'
_cell_length_a   9.61129432
_cell_length_b   9.61129432
_cell_length_c   9.61129432
_cell_angle_alpha   82.31319285
_cell_angle_beta   82.31319285
_cell_angle_gamma   82.31319285
_symmetry_Int_Tables_number   1
_chemical_formula_structural   Tl3In2Cl9
_chemical_formula_sum   'Tl6 In4 Cl18'
_cell_volume   865.88774237
_cell_formula_units_Z   2
loop_
 _symmetry_equiv_pos_site_id
 _symmetry_equiv_pos_as_xyz
  1  'x, y, z'
loop_
 _atom_site_type_symbol
 _atom_site_label
 _atom_site_symmetry_multiplicity
 _atom_site_fract_x
 _atom_site_fract_y
 _atom_site_fract_z
 _atom_site_occupancy
  Tl  Tl0  1  0.55805912  0.25000000  -0.05805912  1.0
  Tl  Tl1  1  1.05805912  -0.55805912  -0.25000000  1.0
  Tl  Tl2  1  0.75000000  0.05805912  -0.55805912  1.0
  Tl  Tl3  1  0.25000000  0.94194088  -0.44194088  1.0
  Tl  Tl4  1  0.44194088  -0.25000000  0.05805912  1.0
  Tl  Tl5  1  0.94194088  -0.44194088  0.25000000  1.0
  In  In6  1  0.34830433  0.34830433  -0.65169567  1.0
  In  In7  1  0.84830433  0.84830433  -0.15169567  1.0
  In  In8  1  1.15169567  1.15169567  0.15169567  1.0
  In  In9  1  0.65169567  0.65169567  -0.34830433  1.0
  Cl  Cl10  1  0.22541423  0.57393120  -0.58167087  1.0
  Cl  Cl11  1  0.72541423  -0.08167087  0.07393120  1.0
  Cl  Cl12  1  1.08167087  -0.07393120  -0.72541423  1.0
  Cl  Cl13  1  0.58167087  0.77458577  -0.57393120  1.0
  Cl  Cl14  1  0.42606880  0.58167087  -0.22541423  1.0
  Cl  Cl15  1  0.92606880  -0.72541423  0.08167087  1.0
  Cl  Cl16  1  0.77458577  0.42606880  -0.41832913  1.0
  Cl  Cl17  1  0.27458577  0.08167087  -0.07393120  1.0
  Cl  Cl18  1  0.41832913  0.22541423  -0.42606880  1.0
  Cl  Cl19  1  0.91832913  0.07393120  -0.27458577  1.0
  Cl  Cl20  1  1.07393120  -0.27458577  -0.08167087  1.0
  Cl  Cl21  1  0.57393120  0.41832913  -0.77458577  1.0
  Cl  Cl22  1  1.09532403  1.25000000  0.40467597  1.0
  Cl  Cl23  1  0.59532403  0.90467597  -0.25000000  1.0
  Cl  Cl24  1  0.75000000  0.59532403  -0.09532403  1.0
  Cl  Cl25  1  1.25000000  1.40467597  0.09532403  1.0
  Cl  Cl26  1  0.90467597  0.75000000  -0.40467597  1.0
  Cl  Cl27  1  1.40467597  1.09532403  0.25000000  1.0
