# generated using pymatgen
data_Ti2Se
_symmetry_space_group_name_H-M   'P 1'
_cell_length_a   11.75620334
_cell_length_b   14.55736534
_cell_length_c   3.44355852
_cell_angle_alpha   90.00000000
_cell_angle_beta   90.00000000
_cell_angle_gamma   90.00000000
_symmetry_Int_Tables_number   1
_chemical_formula_structural   Ti2Se
_chemical_formula_sum   'Ti24 Se12'
_cell_volume   589.32835574
_cell_formula_units_Z   12
loop_
 _symmetry_equiv_pos_site_id
 _symmetry_equiv_pos_as_xyz
  1  'x, y, z'
loop_
 _atom_site_type_symbol
 _atom_site_label
 _atom_site_symmetry_multiplicity
 _atom_site_fract_x
 _atom_site_fract_y
 _atom_site_fract_z
 _atom_site_occupancy
  Ti  Ti0  1  0.47084895  0.60865082  0.50000000  1.0
  Ti  Ti1  1  0.97084895  0.89134918  -0.00000000  1.0
  Ti  Ti2  1  0.52915105  0.39134918  0.50000000  1.0
  Ti  Ti3  1  0.02915105  0.10865082  -0.00000000  1.0
  Ti  Ti4  1  0.41422273  0.07653866  0.50000000  1.0
  Ti  Ti5  1  0.91422273  0.42346134  0.00000000  1.0
  Ti  Ti6  1  0.58577727  0.92346134  0.50000000  1.0
  Ti  Ti7  1  0.08577727  0.57653866  0.00000000  1.0
  Ti  Ti8  1  0.14481390  0.97972236  0.50000000  1.0
  Ti  Ti9  1  0.64481390  0.52027764  0.00000000  1.0
  Ti  Ti10  1  0.85518610  0.02027764  0.50000000  1.0
  Ti  Ti11  1  0.35518610  0.47972236  0.00000000  1.0
  Ti  Ti12  1  0.09093368  0.73975010  0.50000000  1.0
  Ti  Ti13  1  0.59093368  0.76024990  0.00000000  1.0
  Ti  Ti14  1  0.90906632  0.26024990  0.50000000  1.0
  Ti  Ti15  1  0.40906632  0.23975010  0.00000000  1.0
  Ti  Ti16  1  0.88588474  0.57384774  0.50000000  1.0
  Ti  Ti17  1  0.38588474  0.92615226  0.00000000  1.0
  Ti  Ti18  1  0.11411526  0.42615226  0.50000000  1.0
  Ti  Ti19  1  0.61411526  0.07384774  0.00000000  1.0
  Ti  Ti20  1  0.81232988  0.79462162  0.50000000  1.0
  Ti  Ti21  1  0.31232988  0.70537838  0.00000000  1.0
  Ti  Ti22  1  0.18767012  0.20537838  0.50000000  1.0
  Ti  Ti23  1  0.68767012  0.29462162  0.00000000  1.0
  Se  Se24  1  0.43220055  0.79429812  0.50000000  1.0
  Se  Se25  1  0.93220055  0.70570188  -0.00000000  1.0
  Se  Se26  1  0.56779945  0.20570188  0.50000000  1.0
  Se  Se27  1  0.06779945  0.29429812  -0.00000000  1.0
  Se  Se28  1  0.24506863  0.58628190  0.50000000  1.0
  Se  Se29  1  0.74506863  0.91371810  -0.00000000  1.0
  Se  Se30  1  0.75493137  0.41371810  0.50000000  1.0
  Se  Se31  1  0.25493137  0.08628190  -0.00000000  1.0
  Se  Se32  1  0.68760209  0.64999320  0.50000000  1.0
  Se  Se33  1  0.18760209  0.85000680  0.00000000  1.0
  Se  Se34  1  0.31239791  0.35000680  0.50000000  1.0
  Se  Se35  1  0.81239791  0.14999320  0.00000000  1.0
