# generated using pymatgen
data_V2CrSe4
_symmetry_space_group_name_H-M   'P 1'
_cell_length_a   6.74842267
_cell_length_b   6.74842267
_cell_length_c   6.15318911
_cell_angle_alpha   64.93899974
_cell_angle_beta   115.06100026
_cell_angle_gamma   151.67653432
_symmetry_Int_Tables_number   1
_chemical_formula_structural   V2CrSe4
_chemical_formula_sum   'V2 Cr1 Se4'
_cell_volume   119.59407538
_cell_formula_units_Z   1
loop_
 _symmetry_equiv_pos_site_id
 _symmetry_equiv_pos_as_xyz
  1  'x, y, z'
loop_
 _atom_site_type_symbol
 _atom_site_label
 _atom_site_symmetry_multiplicity
 _atom_site_fract_x
 _atom_site_fract_y
 _atom_site_fract_z
 _atom_site_occupancy
  V  V0  1  0.74358892  -0.74358892  0.67750867  1.0
  V  V1  1  1.25641108  -0.25641108  0.32249133  1.0
  Cr  Cr2  1  0.00000000  0.00000000  0.00000000  1.0
  Se  Se3  1  0.89816363  -0.89816363  0.56120300  1.0
  Se  Se4  1  1.10183637  -0.10183637  0.43879700  1.0
  Se  Se5  1  0.63840007  -0.63840007  0.97470032  1.0
  Se  Se6  1  1.36159993  -0.36159993  0.02529968  1.0
