# generated using pymatgen
data_Fe
_symmetry_space_group_name_H-M   'P 1'
_cell_length_a   8.61056019
_cell_length_b   8.61056019
_cell_length_c   4.57478032
_cell_angle_alpha   90.00000000
_cell_angle_beta   90.00000000
_cell_angle_gamma   90.00000000
_symmetry_Int_Tables_number   1
_chemical_formula_structural   Fe
_chemical_formula_sum   Fe28
_cell_volume   339.18220391
_cell_formula_units_Z   28
loop_
 _symmetry_equiv_pos_site_id
 _symmetry_equiv_pos_as_xyz
  1  'x, y, z'
loop_
 _atom_site_type_symbol
 _atom_site_label
 _atom_site_symmetry_multiplicity
 _atom_site_fract_x
 _atom_site_fract_y
 _atom_site_fract_z
 _atom_site_occupancy
  Fe  Fe0  1  0.09695813  0.90304187  0.50000000  1.0
  Fe  Fe1  1  0.90304187  0.09695813  0.50000000  1.0
  Fe  Fe2  1  0.40304187  0.40304187  -0.00000000  1.0
  Fe  Fe3  1  0.59695813  0.59695813  -0.00000000  1.0
  Fe  Fe4  1  0.36739946  0.97722507  0.50000000  1.0
  Fe  Fe5  1  0.63260054  0.02277493  0.50000000  1.0
  Fe  Fe6  1  0.13260054  0.47722507  -0.00000000  1.0
  Fe  Fe7  1  0.86739946  0.52277493  -0.00000000  1.0
  Fe  Fe8  1  0.97722507  0.36739946  0.50000000  1.0
  Fe  Fe9  1  0.02277493  0.63260054  0.50000000  1.0
  Fe  Fe10  1  0.47722507  0.13260054  0.00000000  1.0
  Fe  Fe11  1  0.52277493  0.86739946  0.00000000  1.0
  Fe  Fe12  1  0.46209886  0.26590430  0.50000000  1.0
  Fe  Fe13  1  0.53790114  0.73409570  0.50000000  1.0
  Fe  Fe14  1  0.03790114  0.76590430  0.00000000  1.0
  Fe  Fe15  1  0.96209886  0.23409570  0.00000000  1.0
  Fe  Fe16  1  0.26590430  0.46209886  0.50000000  1.0
  Fe  Fe17  1  0.73409570  0.53790114  0.50000000  1.0
  Fe  Fe18  1  0.76590430  0.03790114  0.00000000  1.0
  Fe  Fe19  1  0.23409570  0.96209886  -0.00000000  1.0
  Fe  Fe20  1  0.29135766  0.70864234  0.24602179  1.0
  Fe  Fe21  1  0.70864234  0.29135766  0.24602179  1.0
  Fe  Fe22  1  0.20864234  0.20864234  0.74602179  1.0
  Fe  Fe23  1  0.79135766  0.79135766  0.74602179  1.0
  Fe  Fe24  1  0.70864234  0.29135766  0.75397821  1.0
  Fe  Fe25  1  0.29135766  0.70864234  0.75397821  1.0
  Fe  Fe26  1  0.79135766  0.79135766  0.25397821  1.0
  Fe  Fe27  1  0.20864234  0.20864234  0.25397821  1.0
