# generated using pymatgen
data_Rb2CdP2O7
_symmetry_space_group_name_H-M   'P 1'
_cell_length_a   5.44926388
_cell_length_b   10.07263885
_cell_length_c   15.94404661
_cell_angle_alpha   90.00000000
_cell_angle_beta   92.58817283
_cell_angle_gamma   90.00000000
_symmetry_Int_Tables_number   1
_chemical_formula_structural   Rb2CdP2O7
_chemical_formula_sum   'Rb8 Cd4 P8 O28'
_cell_volume   874.25155326
_cell_formula_units_Z   4
loop_
 _symmetry_equiv_pos_site_id
 _symmetry_equiv_pos_as_xyz
  1  'x, y, z'
loop_
 _atom_site_type_symbol
 _atom_site_label
 _atom_site_symmetry_multiplicity
 _atom_site_fract_x
 _atom_site_fract_y
 _atom_site_fract_z
 _atom_site_occupancy
  Rb  Rb0  1  0.78208580  0.84633512  0.92525464  1.0
  Rb  Rb1  1  0.21791420  0.34633512  0.57474536  1.0
  Rb  Rb2  1  0.21791420  0.15366488  0.07474536  1.0
  Rb  Rb3  1  0.78208580  0.65366488  0.42525464  1.0
  Rb  Rb4  1  0.76558027  0.98512237  0.61043834  1.0
  Rb  Rb5  1  0.23441973  0.48512237  0.88956166  1.0
  Rb  Rb6  1  0.23441973  0.01487763  0.38956166  1.0
  Rb  Rb7  1  0.76558027  0.51487763  0.11043834  1.0
  Cd  Cd8  1  0.75917150  0.61750694  0.68738540  1.0
  Cd  Cd9  1  0.24082850  0.11750694  0.81261460  1.0
  Cd  Cd10  1  0.24082850  0.38249306  0.31261460  1.0
  Cd  Cd11  1  0.75917150  0.88249306  0.18738540  1.0
  P  P12  1  0.25905784  0.77817617  0.77185398  1.0
  P  P13  1  0.74094216  0.27817617  0.72814602  1.0
  P  P14  1  0.74094216  0.22182383  0.22814602  1.0
  P  P15  1  0.25905784  0.72182383  0.27185398  1.0
  P  P16  1  0.25436304  0.74593326  0.58785570  1.0
  P  P17  1  0.74563696  0.24593326  0.91214430  1.0
  P  P18  1  0.74563696  0.25406674  0.41214430  1.0
  P  P19  1  0.25436304  0.75406674  0.08785570  1.0
  O  O20  1  0.52967506  0.71091391  0.58114611  1.0
  O  O21  1  0.47032494  0.21091391  0.91885389  1.0
  O  O22  1  0.47032494  0.28908609  0.41885389  1.0
  O  O23  1  0.52967506  0.78908609  0.08114611  1.0
  O  O24  1  0.09169987  0.62297352  0.60100705  1.0
  O  O25  1  0.90830013  0.12297352  0.89899295  1.0
  O  O26  1  0.90830013  0.37702648  0.39899295  1.0
  O  O27  1  0.09169987  0.87702648  0.10100705  1.0
  O  O28  1  0.01168887  0.70942118  0.78708813  1.0
  O  O29  1  0.98831113  0.20942118  0.71291187  1.0
  O  O30  1  0.98831113  0.29057882  0.21291187  1.0
  O  O31  1  0.01168887  0.79057882  0.28708813  1.0
  O  O32  1  0.24281955  0.83757759  0.67566052  1.0
  O  O33  1  0.75718045  0.33757759  0.82433948  1.0
  O  O34  1  0.75718045  0.16242241  0.32433948  1.0
  O  O35  1  0.24281955  0.66242241  0.17566052  1.0
  O  O36  1  0.47517093  0.68051604  0.78135389  1.0
  O  O37  1  0.52482907  0.18051604  0.71864611  1.0
  O  O38  1  0.52482907  0.31948396  0.21864611  1.0
  O  O39  1  0.47517093  0.81948396  0.28135389  1.0
  O  O40  1  0.29721419  0.90147071  0.82803911  1.0
  O  O41  1  0.70278581  0.40147071  0.67196089  1.0
  O  O42  1  0.70278581  0.09852929  0.17196089  1.0
  O  O43  1  0.29721419  0.59852929  0.32803911  1.0
  O  O44  1  0.15878523  0.84068503  0.51977424  1.0
  O  O45  1  0.84121477  0.34068503  0.98022576  1.0
  O  O46  1  0.84121477  0.15931497  0.48022576  1.0
  O  O47  1  0.15878523  0.65931497  0.01977424  1.0
