# generated using pymatgen
data_CrAs2
_symmetry_space_group_name_H-M   'P 1'
_cell_length_a   4.74522944
_cell_length_b   4.74522944
_cell_length_c   7.42854119
_cell_angle_alpha   62.09105673
_cell_angle_beta   117.90894327
_cell_angle_gamma   140.22872455
_symmetry_Int_Tables_number   1
_chemical_formula_structural   CrAs2
_chemical_formula_sum   'Cr2 As4'
_cell_volume   92.80930197
_cell_formula_units_Z   2
loop_
 _symmetry_equiv_pos_site_id
 _symmetry_equiv_pos_as_xyz
  1  'x, y, z'
loop_
 _atom_site_type_symbol
 _atom_site_label
 _atom_site_symmetry_multiplicity
 _atom_site_fract_x
 _atom_site_fract_y
 _atom_site_fract_z
 _atom_site_occupancy
  Cr  Cr0  1  0.84720559  0.15279441  0.80021290  1.0
  Cr  Cr1  1  1.15279441  -0.15279441  0.19978710  1.0
  As  As2  1  0.84970085  -0.84970085  0.46298838  1.0
  As  As3  1  0.15029915  -0.15029915  0.53701162  1.0
  As  As4  1  0.59626413  0.40373587  0.89456585  1.0
  As  As5  1  1.40373587  -0.40373587  0.10543415  1.0
