# generated using pymatgen
data_CuClO2
_symmetry_space_group_name_H-M   'P 1'
_cell_length_a   3.55695676
_cell_length_b   7.04379527
_cell_length_c   7.04361622
_cell_angle_alpha   61.32182947
_cell_angle_beta   89.91501573
_cell_angle_gamma   89.89895998
_symmetry_Int_Tables_number   1
_chemical_formula_structural   CuClO2
_chemical_formula_sum   'Cu2 Cl2 O4'
_cell_volume   154.82558240
_cell_formula_units_Z   2
loop_
 _symmetry_equiv_pos_site_id
 _symmetry_equiv_pos_as_xyz
  1  'x, y, z'
loop_
 _atom_site_type_symbol
 _atom_site_label
 _atom_site_symmetry_multiplicity
 _atom_site_fract_x
 _atom_site_fract_y
 _atom_site_fract_z
 _atom_site_occupancy
  Cu  Cu0  1  -0.02122564  -0.34931319  -0.76261837  1.0
  Cu  Cu1  1  -0.51967779  -0.66621973  -0.08016968  1.0
  Cl  Cl2  1  -0.52197776  -0.23065214  -0.64389185  1.0
  Cl  Cl3  1  -0.01883175  -0.78499085  -0.19877489  1.0
  O  O4  1  -0.31984437  -0.58646271  -0.74032811  1.0
  O  O5  1  -0.22101976  -0.68881624  -0.84286350  1.0
  O  O6  1  -0.72190719  -0.32636986  -0.00031184  1.0
  O  O7  1  -0.81947573  -0.42875526  -0.10279176  1.0
