# generated using pymatgen
data_CsHC(NO)2
_symmetry_space_group_name_H-M   'P 1'
_cell_length_a   4.71974737
_cell_length_b   13.24482489
_cell_length_c   8.17169630
_cell_angle_alpha   90.00000000
_cell_angle_beta   94.94808919
_cell_angle_gamma   90.00000000
_symmetry_Int_Tables_number   1
_chemical_formula_structural   CsHC(NO)2
_chemical_formula_sum   'Cs4 H4 C4 N8 O8'
_cell_volume   508.92720030
_cell_formula_units_Z   4
loop_
 _symmetry_equiv_pos_site_id
 _symmetry_equiv_pos_as_xyz
  1  'x, y, z'
loop_
 _atom_site_type_symbol
 _atom_site_label
 _atom_site_symmetry_multiplicity
 _atom_site_fract_x
 _atom_site_fract_y
 _atom_site_fract_z
 _atom_site_occupancy
  Cs  Cs0  1  0.24953263  0.65709508  0.59877541  1.0
  Cs  Cs1  1  0.75046737  0.15709508  0.90122459  1.0
  Cs  Cs2  1  0.75046737  0.34290492  0.40122459  1.0
  Cs  Cs3  1  0.24953263  0.84290492  0.09877541  1.0
  H  H4  1  0.04809831  0.43929497  0.87773425  1.0
  H  H5  1  0.95190169  0.93929497  0.62226575  1.0
  H  H6  1  0.95190169  0.56070503  0.12226575  1.0
  H  H7  1  0.04809831  0.06070503  0.37773425  1.0
  C  C8  1  0.24583539  0.39484633  0.88939644  1.0
  C  C9  1  0.75416461  0.89484633  0.61060356  1.0
  C  C10  1  0.75416461  0.60515367  0.11060356  1.0
  C  C11  1  0.24583539  0.10515367  0.38939644  1.0
  N  N12  1  0.35489018  0.35575506  0.03362814  1.0
  N  N13  1  0.64510982  0.85575506  0.46637186  1.0
  N  N14  1  0.64510982  0.64424494  0.96637186  1.0
  N  N15  1  0.35489018  0.14424494  0.53362814  1.0
  N  N16  1  0.39726954  0.37590797  0.76047368  1.0
  N  N17  1  0.60273046  0.87590797  0.73952632  1.0
  N  N18  1  0.60273046  0.62409203  0.23952632  1.0
  N  N19  1  0.39726954  0.12409203  0.26047368  1.0
  O  O20  1  0.29381039  0.41367041  0.62403111  1.0
  O  O21  1  0.70618961  0.91367041  0.87596889  1.0
  O  O22  1  0.70618961  0.58632959  0.37596889  1.0
  O  O23  1  0.29381039  0.08632959  0.12403111  1.0
  O  O24  1  0.21128627  0.37241630  0.15592156  1.0
  O  O25  1  0.78871373  0.87241630  0.34407844  1.0
  O  O26  1  0.78871373  0.62758370  0.84407844  1.0
  O  O27  1  0.21128627  0.12758370  0.65592156  1.0
