# generated using pymatgen
data_BaCuP2O7
_symmetry_space_group_name_H-M   'P 1'
_cell_length_a   5.28043741
_cell_length_b   7.67825641
_cell_length_c   7.69575486
_cell_angle_alpha   103.69325656
_cell_angle_beta   84.57843720
_cell_angle_gamma   88.10894803
_symmetry_Int_Tables_number   1
_chemical_formula_structural   BaCuP2O7
_chemical_formula_sum   'Ba2 Cu2 P4 O14'
_cell_volume   301.30137055
_cell_formula_units_Z   2
loop_
 _symmetry_equiv_pos_site_id
 _symmetry_equiv_pos_as_xyz
  1  'x, y, z'
loop_
 _atom_site_type_symbol
 _atom_site_label
 _atom_site_symmetry_multiplicity
 _atom_site_fract_x
 _atom_site_fract_y
 _atom_site_fract_z
 _atom_site_occupancy
  Ba  Ba0  1  -0.19048731  -0.07004280  -0.22265925  1.0
  Ba  Ba1  1  -0.80951269  -0.92995720  -0.77734075  1.0
  Cu  Cu2  1  -0.17789145  -0.59601651  -0.35562157  1.0
  Cu  Cu3  1  -0.82210855  -0.40398349  -0.64437843  1.0
  P  P4  1  -0.71256140  -0.39832378  -0.19218536  1.0
  P  P5  1  -0.28743860  -0.60167622  -0.80781464  1.0
  P  P6  1  -0.68587340  -0.78035291  -0.26678828  1.0
  P  P7  1  -0.31412660  -0.21964709  -0.73321172  1.0
  O  O8  1  -0.90594296  -0.79488115  -0.39014825  1.0
  O  O9  1  -0.09405704  -0.20511885  -0.60985175  1.0
  O  O10  1  -0.69822605  -0.92340175  -0.15878618  1.0
  O  O11  1  -0.30177395  -0.07659825  -0.84121382  1.0
  O  O12  1  -0.72731171  -0.58470945  -0.12443833  1.0
  O  O13  1  -0.27268829  -0.41529055  -0.87556167  1.0
  O  O14  1  -0.09443340  -0.58498213  -0.66281274  1.0
  O  O15  1  -0.90556660  -0.41501787  -0.33718726  1.0
  O  O16  1  -0.79062682  -0.24308491  -0.03289076  1.0
  O  O17  1  -0.20937318  -0.75691509  -0.96710924  1.0
  O  O18  1  -0.56527223  -0.60664165  -0.72377890  1.0
  O  O19  1  -0.43472777  -0.39335835  -0.27622110  1.0
  O  O20  1  -0.42106813  -0.78830111  -0.37491636  1.0
  O  O21  1  -0.57893187  -0.21169889  -0.62508364  1.0
