# generated using pymatgen
data_Rb2LiRuCl6
_symmetry_space_group_name_H-M   'P 1'
_cell_length_a   7.13022809
_cell_length_b   7.13022809
_cell_length_c   6.10812731
_cell_angle_alpha   90.00000000
_cell_angle_beta   90.00000000
_cell_angle_gamma   120.00000000
_symmetry_Int_Tables_number   1
_chemical_formula_structural   Rb2LiRuCl6
_chemical_formula_sum   'Rb2 Li1 Ru1 Cl6'
_cell_volume   268.93390462
_cell_formula_units_Z   1
loop_
 _symmetry_equiv_pos_site_id
 _symmetry_equiv_pos_as_xyz
  1  'x, y, z'
loop_
 _atom_site_type_symbol
 _atom_site_label
 _atom_site_symmetry_multiplicity
 _atom_site_fract_x
 _atom_site_fract_y
 _atom_site_fract_z
 _atom_site_occupancy
  Rb  Rb0  1  0.33333333  0.66666667  0.28101115  1.0
  Rb  Rb1  1  0.66666667  0.33333333  0.71898885  1.0
  Li  Li2  1  0.00000000  0.00000000  0.00000000  1.0
  Ru  Ru3  1  0.00000000  0.00000000  0.50000000  1.0
  Cl  Cl4  1  0.31248462  0.15624231  0.27033955  1.0
  Cl  Cl5  1  0.15624231  0.31248462  0.72966045  1.0
  Cl  Cl6  1  0.15624231  0.84375769  0.72966045  1.0
  Cl  Cl7  1  0.84375769  0.15624231  0.27033955  1.0
  Cl  Cl8  1  0.84375769  0.68751538  0.27033955  1.0
  Cl  Cl9  1  0.68751538  0.84375769  0.72966045  1.0
