# generated using pymatgen
data_LiIO3
_symmetry_space_group_name_H-M   'P 1'
_cell_length_a   10.02684994
_cell_length_b   10.02684994
_cell_length_c   6.25936709
_cell_angle_alpha   90.00000000
_cell_angle_beta   90.00000000
_cell_angle_gamma   90.00000000
_symmetry_Int_Tables_number   1
_chemical_formula_structural   LiIO3
_chemical_formula_sum   'Li8 I8 O24'
_cell_volume   629.30249438
_cell_formula_units_Z   8
loop_
 _symmetry_equiv_pos_site_id
 _symmetry_equiv_pos_as_xyz
  1  'x, y, z'
loop_
 _atom_site_type_symbol
 _atom_site_label
 _atom_site_symmetry_multiplicity
 _atom_site_fract_x
 _atom_site_fract_y
 _atom_site_fract_z
 _atom_site_occupancy
  Li  Li0  1  0.01976047  0.18136881  0.85216618  1.0
  Li  Li1  1  0.98023953  0.81863119  0.85216618  1.0
  Li  Li2  1  0.68136881  0.48023953  0.35216618  1.0
  Li  Li3  1  0.31863119  0.51976047  0.35216618  1.0
  Li  Li4  1  0.48023953  0.31863119  0.64783382  1.0
  Li  Li5  1  0.51976047  0.68136881  0.64783382  1.0
  Li  Li6  1  0.81863119  0.01976047  0.14783382  1.0
  Li  Li7  1  0.18136881  0.98023953  0.14783382  1.0
  I  I8  1  0.48635356  0.78050046  0.13098009  1.0
  I  I9  1  0.51364644  0.21949954  0.13098009  1.0
  I  I10  1  0.28050046  0.01364644  0.63098009  1.0
  I  I11  1  0.71949954  0.98635356  0.63098009  1.0
  I  I12  1  0.01364644  0.71949954  0.36901991  1.0
  I  I13  1  0.98635356  0.28050046  0.36901991  1.0
  I  I14  1  0.21949954  0.48635356  0.86901991  1.0
  I  I15  1  0.78050046  0.51364644  0.86901991  1.0
  O  O16  1  0.13335852  0.58123981  0.30542369  1.0
  O  O17  1  0.86664148  0.41876019  0.30542369  1.0
  O  O18  1  0.08123981  0.36664148  0.80542369  1.0
  O  O19  1  0.91876019  0.63335852  0.80542369  1.0
  O  O20  1  0.36664148  0.91876019  0.19457631  1.0
  O  O21  1  0.63335852  0.08123981  0.19457631  1.0
  O  O22  1  0.41876019  0.13335852  0.69457631  1.0
  O  O23  1  0.58123981  0.86664148  0.69457631  1.0
  O  O24  1  0.04855445  0.83705657  0.14167904  1.0
  O  O25  1  0.95144555  0.16294343  0.14167904  1.0
  O  O26  1  0.33705657  0.45144555  0.64167904  1.0
  O  O27  1  0.66294343  0.54855445  0.64167904  1.0
  O  O28  1  0.45144555  0.66294343  0.35832096  1.0
  O  O29  1  0.54855445  0.33705657  0.35832096  1.0
  O  O30  1  0.16294343  0.04855445  0.85832096  1.0
  O  O31  1  0.83705657  0.95144555  0.85832096  1.0
  O  O32  1  0.69210302  0.59958531  0.09556399  1.0
  O  O33  1  0.30789698  0.40041469  0.09556399  1.0
  O  O34  1  0.09958531  0.80789698  0.59556399  1.0
  O  O35  1  0.90041469  0.19210302  0.59556399  1.0
  O  O36  1  0.80789698  0.90041469  0.40443601  1.0
  O  O37  1  0.19210302  0.09958531  0.40443601  1.0
  O  O38  1  0.40041469  0.69210302  0.90443601  1.0
  O  O39  1  0.59958531  0.30789698  0.90443601  1.0
