# generated using pymatgen
data_Cs3Pb2C3IO9
_symmetry_space_group_name_H-M   'P 1'
_cell_length_a   13.17763256
_cell_length_b   13.17763256
_cell_length_c   13.20394900
_cell_angle_alpha   64.96611801
_cell_angle_beta   115.03388199
_cell_angle_gamma   155.93401889
_symmetry_Int_Tables_number   1
_chemical_formula_structural   Cs3Pb2C3IO9
_chemical_formula_sum   'Cs6 Pb4 C6 I2 O18'
_cell_volume   842.95930348
_cell_formula_units_Z   2
loop_
 _symmetry_equiv_pos_site_id
 _symmetry_equiv_pos_as_xyz
  1  'x, y, z'
loop_
 _atom_site_type_symbol
 _atom_site_label
 _atom_site_symmetry_multiplicity
 _atom_site_fract_x
 _atom_site_fract_y
 _atom_site_fract_z
 _atom_site_occupancy
  Cs  Cs0  1  0.51810264  0.48189736  0.20409820  1.0
  Cs  Cs1  1  0.48189736  -0.48189736  0.79590180  1.0
  Cs  Cs2  1  0.70336611  0.29663389  0.84125028  1.0
  Cs  Cs3  1  0.29663389  -0.29663389  0.15874972  1.0
  Cs  Cs4  1  0.72604000  0.27396000  0.35546688  1.0
  Cs  Cs5  1  0.27396000  -0.27396000  0.64453312  1.0
  Pb  Pb6  1  0.10801303  -0.10801303  0.04052848  1.0
  Pb  Pb7  1  0.89198697  0.10801303  0.95947152  1.0
  Pb  Pb8  1  0.09641828  -0.09641828  0.47941143  1.0
  Pb  Pb9  1  0.90358172  0.09641828  0.52058857  1.0
  C  C10  1  0.13684616  -0.13684616  0.29054942  1.0
  C  C11  1  0.86315384  0.13684616  0.70945058  1.0
  C  C12  1  0.64441279  0.35558721  0.54782172  1.0
  C  C13  1  0.35558721  -0.35558721  0.45217828  1.0
  C  C14  1  0.65308404  0.34691596  0.04879374  1.0
  C  C15  1  0.34691596  -0.34691596  0.95120626  1.0
  I  I16  1  0.07353051  -0.07353051  0.74037880  1.0
  I  I17  1  0.92646949  0.07353051  0.25962120  1.0
  O  O18  1  0.88239429  0.52604741  0.04630954  1.0
  O  O19  1  0.47395259  0.11760571  0.04630954  1.0
  O  O20  1  1.11760571  0.47395259  0.95369046  1.0
  O  O21  1  0.52604741  -0.11760571  0.95369046  1.0
  O  O22  1  0.60368820  0.39631180  0.05325596  1.0
  O  O23  1  0.39631180  -0.39631180  0.94674404  1.0
  O  O24  1  0.08161100  -0.08161100  0.23974316  1.0
  O  O25  1  0.91838900  0.08161100  0.76025684  1.0
  O  O26  1  0.60152108  0.39847892  0.44902096  1.0
  O  O27  1  0.39847892  -0.39847892  0.55097904  1.0
  O  O28  1  0.87056659  0.53837657  0.59852730  1.0
  O  O29  1  0.46162343  0.12943341  0.59852730  1.0
  O  O30  1  1.12943341  0.46162343  0.40147270  1.0
  O  O31  1  0.53837657  -0.12943341  0.40147270  1.0
  O  O32  1  0.16828244  -0.16828244  0.23466720  1.0
  O  O33  1  0.83171756  0.16828244  0.76533280  1.0
  O  O34  1  0.16441732  -0.16441732  0.39990600  1.0
  O  O35  1  0.83558268  0.16441732  0.60009400  1.0
