# generated using pymatgen
data_CaGe2O5
_symmetry_space_group_name_H-M   'P 1'
_cell_length_a   5.54482475
_cell_length_b   6.98400793
_cell_length_c   5.56888203
_cell_angle_alpha   104.22754198
_cell_angle_beta   106.31551715
_cell_angle_gamma   103.52910081
_symmetry_Int_Tables_number   1
_chemical_formula_structural   CaGe2O5
_chemical_formula_sum   'Ca2 Ge4 O10'
_cell_volume   189.68417010
_cell_formula_units_Z   2
loop_
 _symmetry_equiv_pos_site_id
 _symmetry_equiv_pos_as_xyz
  1  'x, y, z'
loop_
 _atom_site_type_symbol
 _atom_site_label
 _atom_site_symmetry_multiplicity
 _atom_site_fract_x
 _atom_site_fract_y
 _atom_site_fract_z
 _atom_site_occupancy
  Ca  Ca0  1  -0.33036644  -0.74589436  -0.67374999  1.0
  Ca  Ca1  1  -0.66963356  -0.25410564  -0.32625001  1.0
  Ge  Ge2  1  -0.68529914  -0.75162885  -0.31642767  1.0
  Ge  Ge3  1  -0.31470086  -0.24837115  -0.68357233  1.0
  Ge  Ge4  1  -0.00000000  -0.50000000  0.00000000  1.0
  Ge  Ge5  1  0.00000000  0.00000000  0.00000000  1.0
  O  O6  1  -0.90596430  -0.60417093  -0.31001525  1.0
  O  O7  1  -0.09403570  -0.39582907  -0.68998475  1.0
  O  O8  1  -0.74761941  -0.92335175  -0.63699554  1.0
  O  O9  1  -0.25238059  -0.07664825  -0.36300446  1.0
  O  O10  1  -0.69333820  -0.90154691  -0.10179349  1.0
  O  O11  1  -0.30666180  -0.09845309  -0.89820651  1.0
  O  O12  1  -0.63242540  -0.42722108  -0.75332373  1.0
  O  O13  1  -0.36757460  -0.57277892  -0.24667627  1.0
  O  O14  1  -0.07025610  -0.74914211  -0.92960011  1.0
  O  O15  1  -0.92974390  -0.25085789  -0.07039989  1.0
