# generated using pymatgen
data_Li2HN
_symmetry_space_group_name_H-M   'P 1'
_cell_length_a   7.11248849
_cell_length_b   7.11248849
_cell_length_c   7.11248849
_cell_angle_alpha   119.96785118
_cell_angle_beta   89.84837307
_cell_angle_gamma   120.20745481
_symmetry_Int_Tables_number   1
_chemical_formula_structural   Li2HN
_chemical_formula_sum   'Li16 H8 N8'
_cell_volume   254.07968108
_cell_formula_units_Z   8
loop_
 _symmetry_equiv_pos_site_id
 _symmetry_equiv_pos_as_xyz
  1  'x, y, z'
loop_
 _atom_site_type_symbol
 _atom_site_label
 _atom_site_symmetry_multiplicity
 _atom_site_fract_x
 _atom_site_fract_y
 _atom_site_fract_z
 _atom_site_occupancy
  Li  Li0  1  0.24734534  0.87973199  0.86761335  1.0
  Li  Li1  1  1.01211864  0.37973199  1.13238665  1.0
  Li  Li2  1  0.75254262  0.87970785  0.37283476  1.0
  Li  Li3  1  1.50687309  1.37970785  1.62716524  1.0
  Li  Li4  1  1.52357477  0.87965758  1.14391719  1.0
  Li  Li5  1  0.73574039  1.37965758  0.85608281  1.0
  Li  Li6  1  1.62971486  1.12962310  1.00009176  1.0
  Li  Li7  1  1.12953134  1.62962310  0.99990824  1.0
  Li  Li8  1  0.74613689  0.85420964  0.87759009  1.0
  Li  Li9  1  0.97661955  0.86854680  1.12240991  1.0
  Li  Li10  1  1.74613689  1.36854680  1.39192725  1.0
  Li  Li11  1  0.97661955  1.35420964  0.60807275  1.0
  Li  Li12  1  0.51334328  0.89097259  0.60813996  1.0
  Li  Li13  1  1.28283263  0.90520331  1.39186004  1.0
  Li  Li14  1  1.51334328  1.40520331  1.12237069  1.0
  Li  Li15  1  1.28283263  1.39097259  0.87762931  1.0
  H  H16  1  1.22133748  1.02162518  1.69971230  1.0
  H  H17  1  0.32191288  0.52162518  0.30028770  1.0
  H  H18  1  1.93751813  1.73777922  1.69973891  1.0
  H  H19  1  1.03804031  1.23777922  0.30026109  1.0
  H  H20  1  0.93488054  1.04893635  0.72422716  1.0
  H  H21  1  1.32470919  1.21065337  1.27577284  1.0
  H  H22  1  0.93488054  0.71065337  1.38594419  1.0
  H  H23  1  0.32470919  0.54893635  0.61405581  1.0
  N  N24  1  1.38189400  0.64092454  1.24096946  1.0
  N  N25  1  0.39995508  1.14092454  0.75903054  1.0
  N  N26  1  1.85942082  1.11850533  1.24091549  1.0
  N  N27  1  0.87758984  1.61850533  0.75908451  1.0
  N  N28  1  0.38989785  0.66143928  0.79181397  1.0
  N  N29  1  0.86962531  0.59808387  1.20818603  1.0
  N  N30  1  1.38989785  1.09808387  1.22845857  1.0
  N  N31  1  0.86962531  1.16143928  0.77154143  1.0
