# generated using pymatgen
data_Cr3HO8
_symmetry_space_group_name_H-M   'P 1'
_cell_length_a   6.69810390
_cell_length_b   3.73829291
_cell_length_c   14.16668291
_cell_angle_alpha   90.00000000
_cell_angle_beta   107.79678874
_cell_angle_gamma   90.00000000
_symmetry_Int_Tables_number   1
_chemical_formula_structural   Cr3HO8
_chemical_formula_sum   'Cr6 H2 O16'
_cell_volume   337.75140676
_cell_formula_units_Z   2
loop_
 _symmetry_equiv_pos_site_id
 _symmetry_equiv_pos_as_xyz
  1  'x, y, z'
loop_
 _atom_site_type_symbol
 _atom_site_label
 _atom_site_symmetry_multiplicity
 _atom_site_fract_x
 _atom_site_fract_y
 _atom_site_fract_z
 _atom_site_occupancy
  Cr  Cr0  1  0.97759931  0.75000000  0.13816924  1.0
  Cr  Cr1  1  0.02240069  0.25000000  0.86183076  1.0
  Cr  Cr2  1  0.71404881  0.75000000  0.90798618  1.0
  Cr  Cr3  1  0.28595119  0.25000000  0.09201382  1.0
  Cr  Cr4  1  0.65017821  0.75000000  0.47490182  1.0
  Cr  Cr5  1  0.34982179  0.25000000  0.52509818  1.0
  O  O6  1  0.42341737  0.75000000  0.52554592  1.0
  O  O7  1  0.57658263  0.25000000  0.47445408  1.0
  O  O8  1  0.22286557  0.75000000  0.10030925  1.0
  O  O9  1  0.77713443  0.25000000  0.89969075  1.0
  O  O10  1  0.63928825  0.75000000  0.34922554  1.0
  O  O11  1  0.36071175  0.25000000  0.65077446  1.0
  O  O12  1  0.87226307  0.75000000  0.55320476  1.0
  O  O13  1  0.12773693  0.25000000  0.44679524  1.0
  O  O14  1  0.74404157  0.75000000  0.03733876  1.0
  O  O15  1  0.25595843  0.25000000  0.96266124  1.0
  O  O16  1  0.95783695  0.75000000  0.24625014  1.0
  O  O17  1  0.04216305  0.25000000  0.75374986  1.0
  O  O18  1  0.95880672  0.75000000  0.86949080  1.0
  O  O19  1  0.04119328  0.25000000  0.13050920  1.0
  O  O20  1  0.48406396  0.75000000  0.83690344  1.0
  O  O21  1  0.51593604  0.25000000  0.16309656  1.0
  H  H22  1  0.76505052  0.75000000  0.32728931  1.0
  H  H23  1  0.23494948  0.25000000  0.67271069  1.0
