# generated using pymatgen
data_CdO2
_symmetry_space_group_name_H-M   'P 1'
_cell_length_a   6.02930356
_cell_length_b   6.02930356
_cell_length_c   3.48900130
_cell_angle_alpha   74.69194096
_cell_angle_beta   105.30805904
_cell_angle_gamma   69.48558427
_symmetry_Int_Tables_number   1
_chemical_formula_structural   CdO2
_chemical_formula_sum   'Cd2 O4'
_cell_volume   105.27493004
_cell_formula_units_Z   2
loop_
 _symmetry_equiv_pos_site_id
 _symmetry_equiv_pos_as_xyz
  1  'x, y, z'
loop_
 _atom_site_type_symbol
 _atom_site_label
 _atom_site_symmetry_multiplicity
 _atom_site_fract_x
 _atom_site_fract_y
 _atom_site_fract_z
 _atom_site_occupancy
  Cd  Cd0  1  0.82704701  0.84285746  0.09170880  1.0
  Cd  Cd1  1  1.15714254  0.17295299  0.09170880  1.0
  O  O2  1  0.88871709  -0.88871709  0.39450096  1.0
  O  O3  1  0.20206855  -0.20206855  -0.00741509  1.0
  O  O4  1  1.41278566  0.06476085  0.76624826  1.0
  O  O5  1  0.93523916  0.58721434  0.76624826  1.0
