# generated using pymatgen
data_NbCrN3
_symmetry_space_group_name_H-M   'P 1'
_cell_length_a   3.44949812
_cell_length_b   3.44949812
_cell_length_c   9.42471704
_cell_angle_alpha   90.00000000
_cell_angle_beta   90.00000000
_cell_angle_gamma   90.00000000
_symmetry_Int_Tables_number   1
_chemical_formula_structural   NbCrN3
_chemical_formula_sum   'Nb2 Cr2 N6'
_cell_volume   112.14505976
_cell_formula_units_Z   2
loop_
 _symmetry_equiv_pos_site_id
 _symmetry_equiv_pos_as_xyz
  1  'x, y, z'
loop_
 _atom_site_type_symbol
 _atom_site_label
 _atom_site_symmetry_multiplicity
 _atom_site_fract_x
 _atom_site_fract_y
 _atom_site_fract_z
 _atom_site_occupancy
  N  N0  1  0.00000000  0.50000000  0.26969450  1.0
  N  N1  1  0.50000000  0.00000000  0.73030550  1.0
  N  N2  1  0.00000000  0.00000000  0.50000000  1.0
  N  N3  1  0.50000000  0.50000000  0.50000000  1.0
  N  N4  1  0.50000000  0.50000000  0.00000000  1.0
  N  N5  1  0.00000000  0.00000000  0.00000000  1.0
  Nb  Nb6  1  0.00000000  0.50000000  0.61816269  1.0
  Nb  Nb7  1  0.50000000  0.00000000  0.38183731  1.0
  Cr  Cr8  1  0.00000000  0.50000000  0.08853172  1.0
  Cr  Cr9  1  0.50000000  0.00000000  0.91146828  1.0
