# generated using pymatgen
data_NaClO3
_symmetry_space_group_name_H-M   'P 1'
_cell_length_a   7.33372749
_cell_length_b   7.33372749
_cell_length_c   7.33372749
_cell_angle_alpha   90.00000000
_cell_angle_beta   90.00000000
_cell_angle_gamma   90.00000000
_symmetry_Int_Tables_number   1
_chemical_formula_structural   NaClO3
_chemical_formula_sum   'Na4 Cl4 O12'
_cell_volume   394.43396453
_cell_formula_units_Z   4
loop_
 _symmetry_equiv_pos_site_id
 _symmetry_equiv_pos_as_xyz
  1  'x, y, z'
loop_
 _atom_site_type_symbol
 _atom_site_label
 _atom_site_symmetry_multiplicity
 _atom_site_fract_x
 _atom_site_fract_y
 _atom_site_fract_z
 _atom_site_occupancy
  Na  Na0  1  0.59914970  0.09914970  0.40085030  1.0
  Na  Na1  1  0.09914970  0.40085030  0.59914970  1.0
  Na  Na2  1  0.40085030  0.59914970  0.09914970  1.0
  Na  Na3  1  -0.09914970  -0.09914970  -0.09914970  1.0
  Cl  Cl4  1  0.25987534  0.75987534  0.74012466  1.0
  Cl  Cl5  1  0.75987534  0.74012466  0.25987534  1.0
  Cl  Cl6  1  0.74012466  0.25987534  0.75987534  1.0
  Cl  Cl7  1  0.24012466  0.24012466  0.24012466  1.0
  O  O8  1  0.23329648  0.83861961  0.92948501  1.0
  O  O9  1  0.73329648  0.66138039  0.07051499  1.0
  O  O10  1  0.33861961  0.57051499  0.76670352  1.0
  O  O11  1  0.83861961  0.92948501  0.23329648  1.0
  O  O12  1  0.07051499  0.73329648  0.66138039  1.0
  O  O13  1  0.57051499  0.76670352  0.33861961  1.0
  O  O14  1  0.76670352  0.33861961  0.57051499  1.0
  O  O15  1  0.26670352  0.16138039  0.42948501  1.0
  O  O16  1  0.66138039  0.07051499  0.73329648  1.0
  O  O17  1  0.16138039  0.42948501  0.26670352  1.0
  O  O18  1  0.92948501  0.23329648  0.83861961  1.0
  O  O19  1  0.42948501  0.26670352  0.16138039  1.0
