# generated using pymatgen
data_AuN5O14
_symmetry_space_group_name_H-M   'P 1'
_cell_length_a   7.94306016
_cell_length_b   8.36293987
_cell_length_c   9.85165177
_cell_angle_alpha   90.00000000
_cell_angle_beta   119.05059737
_cell_angle_gamma   90.00000000
_symmetry_Int_Tables_number   1
_chemical_formula_structural   AuN5O14
_chemical_formula_sum   'Au2 N10 O28'
_cell_volume   572.08732564
_cell_formula_units_Z   2
loop_
 _symmetry_equiv_pos_site_id
 _symmetry_equiv_pos_as_xyz
  1  'x, y, z'
loop_
 _atom_site_type_symbol
 _atom_site_label
 _atom_site_symmetry_multiplicity
 _atom_site_fract_x
 _atom_site_fract_y
 _atom_site_fract_z
 _atom_site_occupancy
  Au  Au0  1  0.00000000  0.50000000  0.50000000  1.0
  Au  Au1  1  0.00000000  0.00000000  0.00000000  1.0
  N  N2  1  0.85685510  0.93245474  0.21267760  1.0
  N  N3  1  0.85685510  0.56754526  0.71267760  1.0
  N  N4  1  0.14314490  0.43245474  0.28732240  1.0
  N  N5  1  0.14314490  0.06754526  0.78732240  1.0
  N  N6  1  0.69253972  0.26569567  0.35724774  1.0
  N  N7  1  0.69253972  0.23430433  0.85724774  1.0
  N  N8  1  0.30746028  0.76569567  0.14275226  1.0
  N  N9  1  0.30746028  0.73430433  0.64275226  1.0
  N  N10  1  0.50000000  0.50000000  -0.00000000  1.0
  N  N11  1  0.50000000  0.00000000  0.50000000  1.0
  O  O12  1  0.97278037  0.03822962  0.28411165  1.0
  O  O13  1  0.97278037  0.46177038  0.78411165  1.0
  O  O14  1  0.02721963  0.53822962  0.21588835  1.0
  O  O15  1  0.02721963  0.96177038  0.71588835  1.0
  O  O16  1  0.82670707  0.89036200  0.06834080  1.0
  O  O17  1  0.82670707  0.60963800  0.56834080  1.0
  O  O18  1  0.17329293  0.39036200  0.43165920  1.0
  O  O19  1  0.17329293  0.10963800  0.93165920  1.0
  O  O20  1  0.75829784  0.85621649  0.25422307  1.0
  O  O21  1  0.75829784  0.64378351  0.75422307  1.0
  O  O22  1  0.24170216  0.35621649  0.24577693  1.0
  O  O23  1  0.24170216  0.14378351  0.74577693  1.0
  O  O24  1  0.76885399  0.39313802  0.31980364  1.0
  O  O25  1  0.76885399  0.10686198  0.81980364  1.0
  O  O26  1  0.23114601  0.89313802  0.18019636  1.0
  O  O27  1  0.23114601  0.60686198  0.68019636  1.0
  O  O28  1  0.75204013  0.26648859  -0.00529967  1.0
  O  O29  1  0.75204013  0.23351141  0.49470033  1.0
  O  O30  1  0.24795987  0.76648859  0.50529967  1.0
  O  O31  1  0.24795987  0.73351141  1.00529967  1.0
  O  O32  1  0.56703579  0.19478964  0.24513718  1.0
  O  O33  1  0.56703579  0.30521036  0.74513718  1.0
  O  O34  1  0.43296421  0.69478964  0.25486282  1.0
  O  O35  1  0.43296421  0.80521036  0.75486282  1.0
  O  O36  1  0.39145941  0.09403001  0.48828683  1.0
  O  O37  1  0.39145941  0.40596999  0.98828683  1.0
  O  O38  1  0.60854059  0.59403001  0.01171317  1.0
  O  O39  1  0.60854059  0.90596999  0.51171317  1.0
