# generated using pymatgen
data_VCoSi
_symmetry_space_group_name_H-M   'P 1'
_cell_length_a   5.95611864
_cell_length_b   3.55082262
_cell_length_c   6.81985354
_cell_angle_alpha   90.00000000
_cell_angle_beta   90.00000000
_cell_angle_gamma   90.00000000
_symmetry_Int_Tables_number   1
_chemical_formula_structural   VCoSi
_chemical_formula_sum   'V4 Co4 Si4'
_cell_volume   144.23390636
_cell_formula_units_Z   4
loop_
 _symmetry_equiv_pos_site_id
 _symmetry_equiv_pos_as_xyz
  1  'x, y, z'
loop_
 _atom_site_type_symbol
 _atom_site_label
 _atom_site_symmetry_multiplicity
 _atom_site_fract_x
 _atom_site_fract_y
 _atom_site_fract_z
 _atom_site_occupancy
  V  V0  1  0.97505634  0.75000000  0.67781035  1.0
  V  V1  1  0.47505634  0.75000000  0.82218965  1.0
  V  V2  1  0.02494366  0.25000000  0.32218965  1.0
  V  V3  1  0.52494366  0.25000000  0.17781035  1.0
  Co  Co4  1  0.85732538  0.75000000  0.06087118  1.0
  Co  Co5  1  0.35732538  0.75000000  0.43912882  1.0
  Co  Co6  1  0.14267462  0.25000000  0.93912882  1.0
  Co  Co7  1  0.64267462  0.25000000  0.56087118  1.0
  Si  Si8  1  0.73308719  0.75000000  0.37602168  1.0
  Si  Si9  1  0.23308719  0.75000000  0.12397832  1.0
  Si  Si10  1  0.26691281  0.25000000  0.62397832  1.0
  Si  Si11  1  0.76691281  0.25000000  0.87602168  1.0
