# generated using pymatgen
data_Y3Ge3Ru2
_symmetry_space_group_name_H-M   'P 1'
_cell_length_a   5.83715401
_cell_length_b   5.83715401
_cell_length_c   13.98669046
_cell_angle_alpha   90.00000000
_cell_angle_beta   90.00000000
_cell_angle_gamma   137.13513639
_symmetry_Int_Tables_number   1
_chemical_formula_structural   Y3Ge3Ru2
_chemical_formula_sum   'Y6 Ge6 Ru4'
_cell_volume   324.18995353
_cell_formula_units_Z   2
loop_
 _symmetry_equiv_pos_site_id
 _symmetry_equiv_pos_as_xyz
  1  'x, y, z'
loop_
 _atom_site_type_symbol
 _atom_site_label
 _atom_site_symmetry_multiplicity
 _atom_site_fract_x
 _atom_site_fract_y
 _atom_site_fract_z
 _atom_site_occupancy
  Y  Y0  1  0.07847689  0.92152311  0.88701268  1.0
  Y  Y1  1  0.07847689  0.92152311  0.61298732  1.0
  Y  Y2  1  -0.07847689  0.07847689  0.38701268  1.0
  Y  Y3  1  -0.07847689  0.07847689  0.11298732  1.0
  Y  Y4  1  0.35404849  0.64595151  0.75000000  1.0
  Y  Y5  1  -0.35404849  0.35404849  0.25000000  1.0
  Ge  Ge6  1  0.38288246  0.61711754  0.95922823  1.0
  Ge  Ge7  1  0.38288246  0.61711754  0.54077177  1.0
  Ge  Ge8  1  -0.38288246  0.38288246  0.45922823  1.0
  Ge  Ge9  1  -0.38288246  0.38288246  0.04077177  1.0
  Ge  Ge10  1  -0.33479073  0.33479073  0.75000000  1.0
  Ge  Ge11  1  0.33479073  0.66520927  0.25000000  1.0
  Ru  Ru12  1  0.21400948  0.78599052  0.41761583  1.0
  Ru  Ru13  1  0.21400948  0.78599052  0.08238417  1.0
  Ru  Ru14  1  -0.21400948  0.21400948  0.91761583  1.0
  Ru  Ru15  1  -0.21400948  0.21400948  0.58238417  1.0
