# generated using pymatgen
data_K3TaS4
_symmetry_space_group_name_H-M   'P 1'
_cell_length_a   9.36651325
_cell_length_b   10.90534333
_cell_length_c   9.61079986
_cell_angle_alpha   90.00000000
_cell_angle_beta   90.00000000
_cell_angle_gamma   90.00000000
_symmetry_Int_Tables_number   1
_chemical_formula_structural   K3TaS4
_chemical_formula_sum   'K12 Ta4 S16'
_cell_volume   981.69556360
_cell_formula_units_Z   4
loop_
 _symmetry_equiv_pos_site_id
 _symmetry_equiv_pos_as_xyz
  1  'x, y, z'
loop_
 _atom_site_type_symbol
 _atom_site_label
 _atom_site_symmetry_multiplicity
 _atom_site_fract_x
 _atom_site_fract_y
 _atom_site_fract_z
 _atom_site_occupancy
  K  K0  1  0.43920259  0.45483303  0.78651905  1.0
  K  K1  1  0.43920259  0.04516697  0.78651905  1.0
  K  K2  1  0.93920259  0.45483303  0.71348095  1.0
  K  K3  1  0.93920259  0.04516697  0.71348095  1.0
  K  K4  1  0.56079741  0.95483303  0.21348095  1.0
  K  K5  1  0.56079741  0.54516697  0.21348095  1.0
  K  K6  1  0.06079741  0.95483303  0.28651905  1.0
  K  K7  1  0.06079741  0.54516697  0.28651905  1.0
  K  K8  1  0.13233384  0.25000000  0.07356171  1.0
  K  K9  1  0.63233384  0.25000000  0.42643829  1.0
  K  K10  1  0.86766616  0.75000000  0.92643829  1.0
  K  K11  1  0.36766616  0.75000000  0.57356171  1.0
  Ta  Ta12  1  0.21274354  0.25000000  0.51153017  1.0
  Ta  Ta13  1  0.71274354  0.25000000  0.98846983  1.0
  Ta  Ta14  1  0.78725646  0.75000000  0.48846983  1.0
  Ta  Ta15  1  0.28725646  0.75000000  0.01153017  1.0
  S  S16  1  0.16631172  0.92304739  0.94848323  1.0
  S  S17  1  0.16631172  0.57695261  0.94848323  1.0
  S  S18  1  0.66631172  0.92304739  0.55151677  1.0
  S  S19  1  0.66631172  0.57695261  0.55151677  1.0
  S  S20  1  0.83368828  0.42304739  0.05151677  1.0
  S  S21  1  0.83368828  0.07695261  0.05151677  1.0
  S  S22  1  0.33368828  0.42304739  0.44848323  1.0
  S  S23  1  0.33368828  0.07695261  0.44848323  1.0
  S  S24  1  0.49137929  0.25000000  0.08902062  1.0
  S  S25  1  0.99137929  0.25000000  0.41097938  1.0
  S  S26  1  0.50862071  0.75000000  0.91097938  1.0
  S  S27  1  0.00862071  0.75000000  0.58902062  1.0
  S  S28  1  0.18791273  0.25000000  0.74853906  1.0
  S  S29  1  0.68791273  0.25000000  0.75146094  1.0
  S  S30  1  0.81208727  0.75000000  0.25146094  1.0
  S  S31  1  0.31208727  0.75000000  0.24853906  1.0
