# generated using pymatgen
data_GdHSO5
_symmetry_space_group_name_H-M   'P 1'
_cell_length_a   4.40491340
_cell_length_b   12.24460169
_cell_length_c   7.20311183
_cell_angle_alpha   90.00000000
_cell_angle_beta   109.70648092
_cell_angle_gamma   90.00000000
_symmetry_Int_Tables_number   1
_chemical_formula_structural   GdHSO5
_chemical_formula_sum   'Gd4 H4 S4 O20'
_cell_volume   365.75589884
_cell_formula_units_Z   4
loop_
 _symmetry_equiv_pos_site_id
 _symmetry_equiv_pos_as_xyz
  1  'x, y, z'
loop_
 _atom_site_type_symbol
 _atom_site_label
 _atom_site_symmetry_multiplicity
 _atom_site_fract_x
 _atom_site_fract_y
 _atom_site_fract_z
 _atom_site_occupancy
  Gd  Gd0  1  0.65924474  0.05790431  0.29471393  1.0
  Gd  Gd1  1  0.65924474  0.44209569  0.79471393  1.0
  Gd  Gd2  1  0.34075526  0.55790431  0.20528607  1.0
  Gd  Gd3  1  0.34075526  0.94209569  0.70528607  1.0
  H  H4  1  0.27401430  0.15202651  0.51332548  1.0
  H  H5  1  0.27401430  0.34797349  0.01332548  1.0
  H  H6  1  0.72598570  0.65202651  -0.01332548  1.0
  H  H7  1  0.72598570  0.84797349  0.48667452  1.0
  S  S8  1  0.92065373  0.34984504  0.40196738  1.0
  S  S9  1  0.92065373  0.15015496  0.90196738  1.0
  S  S10  1  0.07934627  0.84984504  0.09803262  1.0
  S  S11  1  0.07934627  0.65015496  0.59803262  1.0
  O  O12  1  1.00028451  0.39830261  0.23489213  1.0
  O  O13  1  1.00028451  0.10169739  0.73489213  1.0
  O  O14  1  -0.00028451  0.89830261  0.26510787  1.0
  O  O15  1  -0.00028451  0.60169739  0.76510787  1.0
  O  O16  1  0.79068855  0.66843642  0.42262449  1.0
  O  O17  1  0.79068855  0.83156358  0.92262449  1.0
  O  O18  1  0.20931145  0.16843642  0.07737551  1.0
  O  O19  1  0.20931145  0.33156358  0.57737551  1.0
  O  O20  1  0.74571985  0.24554898  0.33954248  1.0
  O  O21  1  0.74571985  0.25445102  0.83954248  1.0
  O  O22  1  0.25428015  0.74554898  0.16045752  1.0
  O  O23  1  0.25428015  0.75445102  0.66045752  1.0
  O  O24  1  0.69824702  0.42977181  0.45565478  1.0
  O  O25  1  0.69824702  0.07022819  0.95565478  1.0
  O  O26  1  0.30175298  0.92977181  0.04434522  1.0
  O  O27  1  0.30175298  0.57022819  0.54434522  1.0
  O  O28  1  0.25841083  0.07874649  0.45623753  1.0
  O  O29  1  0.25841083  0.42125351  0.95623753  1.0
  O  O30  1  0.74158917  0.57874649  0.04376247  1.0
  O  O31  1  0.74158917  0.92125351  0.54376247  1.0
