# generated using pymatgen
data_FeH4(CN)6
_symmetry_space_group_name_H-M   'P 1'
_cell_length_a   6.09423127
_cell_length_b   11.46075632
_cell_length_c   6.99725242
_cell_angle_alpha   90.00000000
_cell_angle_beta   104.93445874
_cell_angle_gamma   90.00000000
_symmetry_Int_Tables_number   1
_chemical_formula_structural   FeH4(CN)6
_chemical_formula_sum   'Fe2 H8 C12 N12'
_cell_volume   472.21126146
_cell_formula_units_Z   2
loop_
 _symmetry_equiv_pos_site_id
 _symmetry_equiv_pos_as_xyz
  1  'x, y, z'
loop_
 _atom_site_type_symbol
 _atom_site_label
 _atom_site_symmetry_multiplicity
 _atom_site_fract_x
 _atom_site_fract_y
 _atom_site_fract_z
 _atom_site_occupancy
  Fe  Fe0  1  0.00000000  0.50000000  0.50000000  1.0
  Fe  Fe1  1  0.00000000  0.00000000  0.00000000  1.0
  H  H2  1  0.73018567  0.10124371  0.44686758  1.0
  H  H3  1  0.73018567  0.39875629  0.94686758  1.0
  H  H4  1  0.26981433  0.60124371  0.05313242  1.0
  H  H5  1  0.26981433  0.89875629  0.55313242  1.0
  H  H6  1  0.43947847  0.27648840  0.10513329  1.0
  H  H7  1  0.43947847  0.22351160  0.60513329  1.0
  H  H8  1  0.56052153  0.77648840  0.39486671  1.0
  H  H9  1  0.56052153  0.72351160  0.89486671  1.0
  C  C10  1  0.86843716  0.05045678  0.19754868  1.0
  C  C11  1  0.86843716  0.44954322  0.69754868  1.0
  C  C12  1  0.13156284  0.55045678  0.30245132  1.0
  C  C13  1  0.13156284  0.94954322  0.80245132  1.0
  C  C14  1  0.80974083  0.86952849  0.95797326  1.0
  C  C15  1  0.80974083  0.63047151  0.45797326  1.0
  C  C16  1  0.19025917  0.36952849  0.54202674  1.0
  C  C17  1  0.19025917  0.13047151  0.04202674  1.0
  C  C18  1  0.78184551  0.41838970  0.30313836  1.0
  C  C19  1  0.78184551  0.08161030  0.80313836  1.0
  C  C20  1  0.21815449  0.91838970  0.19686164  1.0
  C  C21  1  0.21815449  0.58161030  0.69686164  1.0
  N  N22  1  0.78917185  0.08055202  0.32440999  1.0
  N  N23  1  0.78917185  0.41944798  0.82440999  1.0
  N  N24  1  0.21082815  0.58055202  0.17559001  1.0
  N  N25  1  0.21082815  0.91944798  0.67559001  1.0
  N  N26  1  0.68927868  0.71140341  0.43098441  1.0
  N  N27  1  0.68927868  0.78859659  0.93098441  1.0
  N  N28  1  0.31072132  0.21140341  0.06901559  1.0
  N  N29  1  0.31072132  0.28859659  0.56901559  1.0
  N  N30  1  0.65088189  0.37018275  0.17422902  1.0
  N  N31  1  0.65088189  0.12981725  0.67422902  1.0
  N  N32  1  0.34911811  0.87018275  0.32577098  1.0
  N  N33  1  0.34911811  0.62981725  0.82577098  1.0
