# generated using pymatgen
data_SrBr2
_symmetry_space_group_name_H-M   'P 1'
_cell_length_a   11.50587142
_cell_length_b   4.79735155
_cell_length_c   7.86220137
_cell_angle_alpha   90.00000000
_cell_angle_beta   90.00000000
_cell_angle_gamma   90.00000000
_symmetry_Int_Tables_number   1
_chemical_formula_structural   SrBr2
_chemical_formula_sum   'Sr4 Br8'
_cell_volume   433.97551203
_cell_formula_units_Z   4
loop_
 _symmetry_equiv_pos_site_id
 _symmetry_equiv_pos_as_xyz
  1  'x, y, z'
loop_
 _atom_site_type_symbol
 _atom_site_label
 _atom_site_symmetry_multiplicity
 _atom_site_fract_x
 _atom_site_fract_y
 _atom_site_fract_z
 _atom_site_occupancy
  Sr  Sr0  1  0.16679396  0.75000000  0.86353391  1.0
  Sr  Sr1  1  0.66679396  0.75000000  0.63646609  1.0
  Sr  Sr2  1  0.83320604  0.25000000  0.13646609  1.0
  Sr  Sr3  1  0.33320604  0.25000000  0.36353391  1.0
  Br  Br4  1  0.39042982  0.75000000  0.61631663  1.0
  Br  Br5  1  0.89042982  0.75000000  0.88368337  1.0
  Br  Br6  1  0.60957018  0.25000000  0.38368337  1.0
  Br  Br7  1  0.10957018  0.25000000  0.11631663  1.0
  Br  Br8  1  0.37043377  0.75000000  0.12159963  1.0
  Br  Br9  1  0.87043377  0.75000000  0.37840037  1.0
  Br  Br10  1  0.62956623  0.25000000  0.87840037  1.0
  Br  Br11  1  0.12956623  0.25000000  0.62159963  1.0
