# generated using pymatgen
data_NClOF4
_symmetry_space_group_name_H-M   'P 1'
_cell_length_a   7.63673931
_cell_length_b   7.63673931
_cell_length_c   7.63673931
_cell_angle_alpha   133.55985011
_cell_angle_beta   133.55985011
_cell_angle_gamma   67.77629437
_symmetry_Int_Tables_number   1
_chemical_formula_structural   NClOF4
_chemical_formula_sum   'N2 Cl2 O2 F8'
_cell_volume   229.88088097
_cell_formula_units_Z   2
loop_
 _symmetry_equiv_pos_site_id
 _symmetry_equiv_pos_as_xyz
  1  'x, y, z'
loop_
 _atom_site_type_symbol
 _atom_site_label
 _atom_site_symmetry_multiplicity
 _atom_site_fract_x
 _atom_site_fract_y
 _atom_site_fract_z
 _atom_site_occupancy
  N  N0  1  0.10007193  0.10007193  0.00000000  1.0
  N  N1  1  0.60007193  0.60007193  1.00000000  1.0
  Cl  Cl2  1  0.27110641  0.77110641  0.50000000  1.0
  Cl  Cl3  1  0.77110641  0.27110641  0.50000000  1.0
  O  O4  1  0.01367936  0.01367936  0.00000000  1.0
  O  O5  1  0.51367936  0.51367936  1.00000000  1.0
  F  F6  1  0.48621191  0.98621191  1.17979488  1.0
  F  F7  1  0.30641703  0.48621191  0.50000000  1.0
  F  F8  1  0.98621191  0.80641703  1.50000000  1.0
  F  F9  1  0.80641703  0.30641703  0.82020512  1.0
  F  F10  1  1.23944293  0.73944293  1.21537248  1.0
  F  F11  1  1.02407044  1.23944293  1.50000000  1.0
  F  F12  1  0.73944293  0.52407044  0.50000000  1.0
  F  F13  1  0.52407044  1.02407044  0.78462752  1.0
