# generated using pymatgen
data_K5InPb8
_symmetry_space_group_name_H-M   'P 1'
_cell_length_a   13.48572966
_cell_length_b   13.48572966
_cell_length_c   13.48572966
_cell_angle_alpha   30.02285329
_cell_angle_beta   30.02285329
_cell_angle_gamma   30.02285329
_symmetry_Int_Tables_number   1
_chemical_formula_structural   K5InPb8
_chemical_formula_sum   'K5 In1 Pb8'
_cell_volume   543.88202047
_cell_formula_units_Z   1
loop_
 _symmetry_equiv_pos_site_id
 _symmetry_equiv_pos_as_xyz
  1  'x, y, z'
loop_
 _atom_site_type_symbol
 _atom_site_label
 _atom_site_symmetry_multiplicity
 _atom_site_fract_x
 _atom_site_fract_y
 _atom_site_fract_z
 _atom_site_occupancy
  K  K0  1  0.77970228  0.77970228  0.77970228  1.0
  K  K1  1  1.22029772  1.22029772  0.22029772  1.0
  K  K2  1  0.68160574  0.68160574  0.68160574  1.0
  K  K3  1  1.31839426  1.31839426  0.31839426  1.0
  K  K4  1  1.50000000  0.50000000  0.50000000  1.0
  In  In5  1  0.00000000  0.00000000  0.00000000  1.0
  Pb  Pb6  1  1.22748066  1.22748066  -0.25792283  1.0
  Pb  Pb7  1  1.22748066  0.74207717  0.22748066  1.0
  Pb  Pb8  1  1.25792283  0.77251934  0.77251934  1.0
  Pb  Pb9  1  1.77251934  0.25792283  0.77251934  1.0
  Pb  Pb10  1  1.77251934  0.77251934  0.25792283  1.0
  Pb  Pb11  1  0.74207717  1.22748066  0.22748066  1.0
  Pb  Pb12  1  0.87196570  0.87196570  0.87196570  1.0
  Pb  Pb13  1  1.12803430  1.12803430  0.12803430  1.0
