# generated using pymatgen
data_Mn2Hg(CO)10
_symmetry_space_group_name_H-M   'P 1'
_cell_length_a   9.89930424
_cell_length_b   6.65815452
_cell_length_c   6.64649840
_cell_angle_alpha   98.33547790
_cell_angle_beta   98.62798965
_cell_angle_gamma   87.89759809
_symmetry_Int_Tables_number   1
_chemical_formula_structural   Mn2Hg(CO)10
_chemical_formula_sum   'Mn2 Hg1 C10 O10'
_cell_volume   428.49501119
_cell_formula_units_Z   1
loop_
 _symmetry_equiv_pos_site_id
 _symmetry_equiv_pos_as_xyz
  1  'x, y, z'
loop_
 _atom_site_type_symbol
 _atom_site_label
 _atom_site_symmetry_multiplicity
 _atom_site_fract_x
 _atom_site_fract_y
 _atom_site_fract_z
 _atom_site_occupancy
  Mn  Mn0  1  0.26178300  0.63276346  -0.18248713  1.0
  Mn  Mn1  1  0.73821700  0.36723654  -0.81751287  1.0
  Hg  Hg2  1  0.50000000  0.50000000  -0.00000000  1.0
  C  C3  1  0.75609825  0.23614762  -0.07610012  1.0
  C  C4  1  0.24390175  0.76385238  -0.92389988  1.0
  C  C5  1  0.19110919  0.40320535  -0.11660216  1.0
  C  C6  1  0.80889081  0.59679465  -0.88339784  1.0
  C  C7  1  0.31172311  0.48492659  -0.41591716  1.0
  C  C8  1  0.68827689  0.51507341  -0.58408284  1.0
  C  C9  1  0.10059785  0.72039040  -0.30829280  1.0
  C  C10  1  0.89940215  0.27960960  -0.69170720  1.0
  C  C11  1  0.36036421  0.84779635  -0.22399803  1.0
  C  C12  1  0.63963579  0.15220365  -0.77600197  1.0
  O  O13  1  0.42005000  -0.01457850  -0.25061167  1.0
  O  O14  1  0.57995000  1.01457850  -0.74938833  1.0
  O  O15  1  0.76910404  0.15388599  -0.23759497  1.0
  O  O16  1  0.23089596  0.84611401  -0.76240503  1.0
  O  O17  1  0.00299445  0.22622888  -0.60934867  1.0
  O  O18  1  0.99700555  0.77377112  -0.39065133  1.0
  O  O19  1  0.14352491  0.26095037  -0.07599801  1.0
  O  O20  1  0.85647509  0.73904963  -0.92400199  1.0
  O  O21  1  0.34146231  0.39456780  -0.56551648  1.0
  O  O22  1  0.65853769  0.60543220  -0.43448352  1.0
