# generated using pymatgen
data_NaTiCuS3
_symmetry_space_group_name_H-M   'P 1'
_cell_length_a   13.07963280
_cell_length_b   3.58071485
_cell_length_c   9.62424495
_cell_angle_alpha   90.00000000
_cell_angle_beta   90.00000000
_cell_angle_gamma   90.00000000
_symmetry_Int_Tables_number   1
_chemical_formula_structural   NaTiCuS3
_chemical_formula_sum   'Na4 Ti4 Cu4 S12'
_cell_volume   450.74607794
_cell_formula_units_Z   4
loop_
 _symmetry_equiv_pos_site_id
 _symmetry_equiv_pos_as_xyz
  1  'x, y, z'
loop_
 _atom_site_type_symbol
 _atom_site_label
 _atom_site_symmetry_multiplicity
 _atom_site_fract_x
 _atom_site_fract_y
 _atom_site_fract_z
 _atom_site_occupancy
  Na  Na0  1  0.23471114  0.75000000  0.54645413  1.0
  Na  Na1  1  0.73471114  0.75000000  0.95354587  1.0
  Na  Na2  1  0.76528886  0.25000000  0.45354587  1.0
  Na  Na3  1  0.26528886  0.25000000  0.04645413  1.0
  Ti  Ti4  1  0.01130130  0.75000000  0.82567869  1.0
  Ti  Ti5  1  0.51130130  0.75000000  0.67432131  1.0
  Ti  Ti6  1  0.98869870  0.25000000  0.17432131  1.0
  Ti  Ti7  1  0.48869870  0.25000000  0.32567869  1.0
  Cu  Cu8  1  0.48844221  0.75000000  0.09596090  1.0
  Cu  Cu9  1  0.98844221  0.75000000  0.40403910  1.0
  Cu  Cu10  1  0.51155779  0.25000000  0.90403910  1.0
  Cu  Cu11  1  0.01155779  0.25000000  0.59596090  1.0
  S  S12  1  0.40104282  0.75000000  0.87224944  1.0
  S  S13  1  0.90104282  0.75000000  0.62775056  1.0
  S  S14  1  0.59895718  0.25000000  0.12775056  1.0
  S  S15  1  0.09895718  0.25000000  0.37224944  1.0
  S  S16  1  0.36733230  0.75000000  0.26266219  1.0
  S  S17  1  0.86733230  0.75000000  0.23733781  1.0
  S  S18  1  0.63266770  0.25000000  0.73733781  1.0
  S  S19  1  0.13266770  0.25000000  0.76266219  1.0
  S  S20  1  0.09347809  0.75000000  0.06494995  1.0
  S  S21  1  0.59347809  0.75000000  0.43505005  1.0
  S  S22  1  0.90652191  0.25000000  0.93505005  1.0
  S  S23  1  0.40652191  0.25000000  0.56494995  1.0
