# generated using pymatgen
data_RbCa(FeAs)4
_symmetry_space_group_name_H-M   'P 1'
_cell_length_a   3.96701326
_cell_length_b   3.96701326
_cell_length_c   12.12173586
_cell_angle_alpha   90.00000000
_cell_angle_beta   90.00000000
_cell_angle_gamma   90.00000000
_symmetry_Int_Tables_number   1
_chemical_formula_structural   RbCa(FeAs)4
_chemical_formula_sum   'Rb1 Ca1 Fe4 As4'
_cell_volume   190.76211131
_cell_formula_units_Z   1
loop_
 _symmetry_equiv_pos_site_id
 _symmetry_equiv_pos_as_xyz
  1  'x, y, z'
loop_
 _atom_site_type_symbol
 _atom_site_label
 _atom_site_symmetry_multiplicity
 _atom_site_fract_x
 _atom_site_fract_y
 _atom_site_fract_z
 _atom_site_occupancy
  Ca  Ca0  1  0.00000000  0.00000000  0.00000000  1.0
  Fe  Fe1  1  0.50000000  0.00000000  0.78613665  1.0
  Fe  Fe2  1  0.00000000  0.50000000  0.78613665  1.0
  Fe  Fe3  1  0.50000000  0.00000000  0.21386335  1.0
  Fe  Fe4  1  0.00000000  0.50000000  0.21386335  1.0
  As  As5  1  0.50000000  0.50000000  0.88188432  1.0
  As  As6  1  0.50000000  0.50000000  0.11811568  1.0
  As  As7  1  0.00000000  0.00000000  0.68491257  1.0
  As  As8  1  0.00000000  0.00000000  0.31508743  1.0
  Rb  Rb9  1  0.50000000  0.50000000  0.50000000  1.0
