# generated using pymatgen
data_CaZnH10Br4O5
_symmetry_space_group_name_H-M   'P 1'
_cell_length_a   9.42027180
_cell_length_b   9.74786551
_cell_length_c   8.05705841
_cell_angle_alpha   69.47675306
_cell_angle_beta   70.36125535
_cell_angle_gamma   80.23767554
_symmetry_Int_Tables_number   1
_chemical_formula_structural   CaZnH10Br4O5
_chemical_formula_sum   'Ca2 Zn2 H20 Br8 O10'
_cell_volume   651.47180411
_cell_formula_units_Z   2
loop_
 _symmetry_equiv_pos_site_id
 _symmetry_equiv_pos_as_xyz
  1  'x, y, z'
loop_
 _atom_site_type_symbol
 _atom_site_label
 _atom_site_symmetry_multiplicity
 _atom_site_fract_x
 _atom_site_fract_y
 _atom_site_fract_z
 _atom_site_occupancy
  Ca  Ca0  1  -0.70833452  -0.35097704  -0.70409012  1.0
  Ca  Ca1  1  -0.29166548  -0.64902296  -0.29590988  1.0
  Zn  Zn2  1  -0.77880421  -0.77218133  -0.85355954  1.0
  Zn  Zn3  1  -0.22119579  -0.22781867  -0.14644046  1.0
  H  H4  1  -0.20072230  -0.84863024  -0.96266266  1.0
  H  H5  1  -0.79927770  -0.15136976  -0.03733734  1.0
  H  H6  1  -0.34300478  -0.92072397  -0.94593339  1.0
  H  H7  1  -0.65699522  -0.07927603  -0.05406661  1.0
  H  H8  1  -0.41499295  -0.52928726  -0.82399785  1.0
  H  H9  1  -0.58500705  -0.47071274  -0.17600215  1.0
  H  H10  1  -0.54088436  -0.64203117  -0.70743442  1.0
  H  H11  1  -0.45911564  -0.35796883  -0.29256558  1.0
  H  H12  1  -0.19274888  -0.80582629  -0.57743801  1.0
  H  H13  1  -0.80725112  -0.19417371  -0.42256199  1.0
  H  H14  1  -0.34004257  -0.87713083  -0.44006722  1.0
  H  H15  1  -0.65995743  -0.12286917  -0.55993278  1.0
  H  H16  1  -0.94316232  -0.67570024  -0.40190617  1.0
  H  H17  1  -0.05683768  -0.32429976  -0.59809383  1.0
  H  H18  1  -1.00345068  -0.83114331  -0.35234567  1.0
  H  H19  1  0.00345068  -0.16885669  -0.64765433  1.0
  H  H20  1  -0.74807566  -0.61430694  -0.33630733  1.0
  H  H21  1  -0.25192434  -0.38569306  -0.66369267  1.0
  H  H22  1  -0.89395881  -0.50961885  -0.30891391  1.0
  H  H23  1  -0.10604119  -0.49038115  -0.69108609  1.0
  Br  Br24  1  -0.83323765  -0.50669605  -0.90666774  1.0
  Br  Br25  1  -0.16676235  -0.49330395  -0.09333226  1.0
  Br  Br26  1  -1.00367979  -0.89568521  -0.79192730  1.0
  Br  Br27  1  0.00367979  -0.10431479  -0.20807270  1.0
  Br  Br28  1  -0.64686671  -0.86455944  -0.62338714  1.0
  Br  Br29  1  -0.35313329  -0.13544056  -0.37661286  1.0
  Br  Br30  1  -0.61143936  -0.79609719  -0.15513595  1.0
  Br  Br31  1  -0.38856064  -0.20390281  -0.84486405  1.0
  O  O32  1  -0.28709473  -0.83162476  -1.01078871  1.0
  O  O33  1  -0.71290527  -0.16837524  0.01078871  1.0
  O  O34  1  -0.51733711  -0.53961351  -0.73719080  1.0
  O  O35  1  -0.48266289  -0.46038649  -0.26280920  1.0
  O  O36  1  -0.96817020  -0.27434716  -0.61489968  1.0
  O  O37  1  -0.03182980  -0.72565284  -0.38510032  1.0
  O  O38  1  -0.28694795  -0.78650213  -0.48498737  1.0
  O  O39  1  -0.71305205  -0.21349787  -0.51501263  1.0
  O  O40  1  -0.81490148  -0.54443142  -0.40371492  1.0
  O  O41  1  -0.18509852  -0.45556858  -0.59628508  1.0
