# generated using pymatgen
data_Cu8GeS6
_symmetry_space_group_name_H-M   'P 1'
_cell_length_a   7.02161370
_cell_length_b   6.97736945
_cell_length_c   9.96462888
_cell_angle_alpha   90.00000000
_cell_angle_beta   90.00000000
_cell_angle_gamma   90.00000000
_symmetry_Int_Tables_number   1
_chemical_formula_structural   Cu8GeS6
_chemical_formula_sum   'Cu16 Ge2 S12'
_cell_volume   488.19101374
_cell_formula_units_Z   2
loop_
 _symmetry_equiv_pos_site_id
 _symmetry_equiv_pos_as_xyz
  1  'x, y, z'
loop_
 _atom_site_type_symbol
 _atom_site_label
 _atom_site_symmetry_multiplicity
 _atom_site_fract_x
 _atom_site_fract_y
 _atom_site_fract_z
 _atom_site_occupancy
  Cu  Cu0  1  0.76048580  0.83496944  0.51263478  1.0
  Cu  Cu1  1  0.26048580  0.16503056  1.01263478  1.0
  Cu  Cu2  1  0.23951420  0.83496944  0.51263478  1.0
  Cu  Cu3  1  0.73951420  0.16503056  1.01263478  1.0
  Cu  Cu4  1  0.79217823  0.87975395  0.78144457  1.0
  Cu  Cu5  1  0.29217823  0.12024605  0.28144457  1.0
  Cu  Cu6  1  0.20782177  0.87975395  0.78144457  1.0
  Cu  Cu7  1  0.70782177  0.12024605  0.28144457  1.0
  Cu  Cu8  1  0.79838625  0.48969748  0.38407383  1.0
  Cu  Cu9  1  0.29838625  0.51030252  0.88407383  1.0
  Cu  Cu10  1  0.20161375  0.48969748  0.38407383  1.0
  Cu  Cu11  1  0.70161375  0.51030252  0.88407383  1.0
  Cu  Cu12  1  -0.00000000  0.38882256  0.61192124  1.0
  Cu  Cu13  1  0.50000000  0.61117744  0.11192124  1.0
  Cu  Cu14  1  0.00000000  0.31103549  0.18448174  1.0
  Cu  Cu15  1  0.50000000  0.68896451  0.68448174  1.0
  Ge  Ge16  1  0.00000000  0.75114555  0.12767558  1.0
  Ge  Ge17  1  0.50000000  0.24885445  0.62767558  1.0
  S  S18  1  0.73794485  0.75935853  0.25051576  1.0
  S  S19  1  0.23794485  0.24064147  0.75051576  1.0
  S  S20  1  0.26205515  0.75935853  0.25051576  1.0
  S  S21  1  0.76205515  0.24064147  0.75051576  1.0
  S  S22  1  0.00000000  -0.01403740  0.97313252  1.0
  S  S23  1  0.50000000  1.01403740  0.47313252  1.0
  S  S24  1  0.00000000  0.72136521  0.63236394  1.0
  S  S25  1  0.50000000  0.27863479  0.13236394  1.0
  S  S26  1  0.00000000  0.49117097  -0.00272443  1.0
  S  S27  1  0.50000000  0.50882903  0.49727557  1.0
  S  S28  1  0.00000000  0.22350150  0.39801154  1.0
  S  S29  1  0.50000000  0.77649850  0.89801154  1.0
