# generated using pymatgen
data_C3SN2Cl
_symmetry_space_group_name_H-M   'P 1'
_cell_length_a   5.16708134
_cell_length_b   6.89953495
_cell_length_c   15.55328351
_cell_angle_alpha   90.00000000
_cell_angle_beta   106.17355351
_cell_angle_gamma   90.00000000
_symmetry_Int_Tables_number   1
_chemical_formula_structural   C3SN2Cl
_chemical_formula_sum   'C12 S4 N8 Cl4'
_cell_volume   532.53660837
_cell_formula_units_Z   4
loop_
 _symmetry_equiv_pos_site_id
 _symmetry_equiv_pos_as_xyz
  1  'x, y, z'
loop_
 _atom_site_type_symbol
 _atom_site_label
 _atom_site_symmetry_multiplicity
 _atom_site_fract_x
 _atom_site_fract_y
 _atom_site_fract_z
 _atom_site_occupancy
  C  C0  1  0.67323353  0.34149024  0.00574217  1.0
  C  C1  1  0.32676647  0.84149024  0.49425783  1.0
  C  C2  1  0.32676647  0.65850976  0.99425783  1.0
  C  C3  1  0.67323353  0.15850976  0.50574217  1.0
  C  C4  1  0.28595465  0.54218029  0.91745926  1.0
  C  C5  1  0.71404535  0.04218029  0.58254074  1.0
  C  C6  1  0.71404535  0.45781971  0.08254074  1.0
  C  C7  1  0.28595465  0.95781971  0.41745926  1.0
  C  C8  1  0.45982846  0.38309393  0.92337284  1.0
  C  C9  1  0.54017154  0.88309393  0.57662716  1.0
  C  C10  1  0.54017154  0.61690607  0.07662716  1.0
  C  C11  1  0.45982846  0.11690607  0.42337284  1.0
  S  S12  1  0.69445563  0.10077131  0.89782490  1.0
  S  S13  1  0.30554437  0.60077131  0.60217510  1.0
  S  S14  1  0.30554437  0.89922869  0.10217510  1.0
  S  S15  1  0.69445563  0.39922869  0.39782490  1.0
  N  N16  1  0.81952136  0.18219841  0.99814679  1.0
  N  N17  1  0.18047864  0.68219841  0.50185321  1.0
  N  N18  1  0.18047864  0.81780159  0.00185321  1.0
  N  N19  1  0.81952136  0.31780159  0.49814679  1.0
  N  N20  1  0.45488921  0.25290594  0.85749499  1.0
  N  N21  1  0.54511079  0.75290594  0.64250501  1.0
  N  N22  1  0.54511079  0.74709406  0.14250501  1.0
  N  N23  1  0.45488921  0.24709406  0.35749499  1.0
  Cl  Cl24  1  0.03678549  0.59396700  0.82160505  1.0
  Cl  Cl25  1  0.96321451  0.09396700  0.67839495  1.0
  Cl  Cl26  1  0.96321451  0.40603300  0.17839495  1.0
  Cl  Cl27  1  0.03678549  0.90603300  0.32160505  1.0
