# generated using pymatgen
data_Eu4As3
_symmetry_space_group_name_H-M   'P 1'
_cell_length_a   7.89542173
_cell_length_b   7.89542173
_cell_length_c   7.89542173
_cell_angle_alpha   109.47122063
_cell_angle_beta   109.47122063
_cell_angle_gamma   109.47122063
_symmetry_Int_Tables_number   1
_chemical_formula_structural   Eu4As3
_chemical_formula_sum   'Eu8 As6'
_cell_volume   378.88211613
_cell_formula_units_Z   2
loop_
 _symmetry_equiv_pos_site_id
 _symmetry_equiv_pos_as_xyz
  1  'x, y, z'
loop_
 _atom_site_type_symbol
 _atom_site_label
 _atom_site_symmetry_multiplicity
 _atom_site_fract_x
 _atom_site_fract_y
 _atom_site_fract_z
 _atom_site_occupancy
  Eu  Eu0  1  1.36497916  1.36497916  1.36497916  1.0
  Eu  Eu1  1  1.50000000  1.00000000  1.13502084  1.0
  Eu  Eu2  1  0.86497916  0.86497916  0.86497916  1.0
  Eu  Eu3  1  0.50000000  1.00000000  0.63502084  1.0
  Eu  Eu4  1  1.00000000  1.13502084  1.50000000  1.0
  Eu  Eu5  1  1.13502084  0.50000000  1.00000000  1.0
  Eu  Eu6  1  1.00000000  0.63502084  1.50000000  1.0
  Eu  Eu7  1  0.63502084  1.50000000  1.00000000  1.0
  As  As8  1  1.12500000  0.87500000  1.25000000  1.0
  As  As9  1  0.37500000  0.62500000  0.75000000  1.0
  As  As10  1  0.25000000  1.12500000  0.87500000  1.0
  As  As11  1  0.75000000  1.37500000  0.62500000  1.0
  As  As12  1  0.62500000  0.75000000  0.37500000  1.0
  As  As13  1  0.87500000  0.25000000  1.12500000  1.0
