# generated using pymatgen
data_Na2ZnPHO5
_symmetry_space_group_name_H-M   'P 1'
_cell_length_a   8.65687143
_cell_length_b   10.05191377
_cell_length_c   5.86775329
_cell_angle_alpha   90.00000000
_cell_angle_beta   104.62976136
_cell_angle_gamma   90.00000000
_symmetry_Int_Tables_number   1
_chemical_formula_structural   Na2ZnPHO5
_chemical_formula_sum   'Na8 Zn4 P4 H4 O20'
_cell_volume   494.04624183
_cell_formula_units_Z   4
loop_
 _symmetry_equiv_pos_site_id
 _symmetry_equiv_pos_as_xyz
  1  'x, y, z'
loop_
 _atom_site_type_symbol
 _atom_site_label
 _atom_site_symmetry_multiplicity
 _atom_site_fract_x
 _atom_site_fract_y
 _atom_site_fract_z
 _atom_site_occupancy
  Na  Na0  1  0.69852941  0.64451689  0.80851788  1.0
  Na  Na1  1  0.69852941  0.85548311  0.30851788  1.0
  Na  Na2  1  0.30147059  0.14451689  0.69148212  1.0
  Na  Na3  1  0.30147059  0.35548311  0.19148212  1.0
  Na  Na4  1  0.38519738  0.83109056  0.65014602  1.0
  Na  Na5  1  0.38519738  0.66890944  0.15014602  1.0
  Na  Na6  1  0.61480262  0.33109056  0.84985398  1.0
  Na  Na7  1  0.61480262  0.16890944  0.34985398  1.0
  Zn  Zn8  1  0.98906181  0.35737875  0.72472686  1.0
  Zn  Zn9  1  0.98906181  0.14262125  0.22472686  1.0
  Zn  Zn10  1  0.01093819  0.85737875  0.77527314  1.0
  Zn  Zn11  1  0.01093819  0.64262125  0.27527314  1.0
  P  P12  1  0.70617269  0.49159667  0.36076178  1.0
  P  P13  1  0.70617269  0.00840333  0.86076178  1.0
  P  P14  1  0.29382731  0.99159667  0.13923822  1.0
  P  P15  1  0.29382731  0.50840333  0.63923822  1.0
  H  H16  1  0.95527363  0.12399652  0.63310505  1.0
  H  H17  1  0.95527363  0.37600348  0.13310505  1.0
  H  H18  1  0.04472637  0.62399652  0.86689495  1.0
  H  H19  1  0.04472637  0.87600348  0.36689495  1.0
  O  O20  1  0.98702891  0.69175856  0.93682466  1.0
  O  O21  1  0.98702891  0.80824144  0.43682466  1.0
  O  O22  1  0.01297109  0.19175856  0.56317534  1.0
  O  O23  1  0.01297109  0.30824144  0.06317534  1.0
  O  O24  1  0.84866556  0.99919232  0.73606201  1.0
  O  O25  1  0.84866556  0.50080768  0.23606201  1.0
  O  O26  1  0.15133444  0.49919232  0.76393799  1.0
  O  O27  1  0.15133444  0.00080768  0.26393799  1.0
  O  O28  1  0.77243352  0.43537269  0.62022548  1.0
  O  O29  1  0.77243352  0.06462731  0.12022548  1.0
  O  O30  1  0.22756648  0.93537269  0.87977452  1.0
  O  O31  1  0.22756648  0.56462731  0.37977452  1.0
  O  O32  1  0.63994079  0.86748059  0.88030661  1.0
  O  O33  1  0.63994079  0.63251941  0.38030661  1.0
  O  O34  1  0.36005921  0.36748059  0.61969339  1.0
  O  O35  1  0.36005921  0.13251941  0.11969339  1.0
  O  O36  1  0.41770193  0.60735536  0.78223537  1.0
  O  O37  1  0.41770193  0.89264464  0.28223537  1.0
  O  O38  1  0.58229807  0.10735536  0.71776463  1.0
  O  O39  1  0.58229807  0.39264464  0.21776463  1.0
