# generated using pymatgen
data_K4CdBr6
_symmetry_space_group_name_H-M   'P 1'
_cell_length_a   9.16433918
_cell_length_b   9.16433918
_cell_length_c   9.16433918
_cell_angle_alpha   89.98032991
_cell_angle_beta   89.98032991
_cell_angle_gamma   89.98032991
_symmetry_Int_Tables_number   1
_chemical_formula_structural   K4CdBr6
_chemical_formula_sum   'K8 Cd2 Br12'
_cell_volume   769.66792095
_cell_formula_units_Z   2
loop_
 _symmetry_equiv_pos_site_id
 _symmetry_equiv_pos_as_xyz
  1  'x, y, z'
loop_
 _atom_site_type_symbol
 _atom_site_label
 _atom_site_symmetry_multiplicity
 _atom_site_fract_x
 _atom_site_fract_y
 _atom_site_fract_z
 _atom_site_occupancy
  K  K0  1  0.86730961  1.25000000  -0.36730961  1.0
  K  K1  1  1.36730961  0.13269039  -0.25000000  1.0
  K  K2  1  0.75000000  0.36730961  0.13269039  1.0
  K  K3  1  1.25000000  0.63269039  -0.13269039  1.0
  K  K4  1  1.13269039  -0.25000000  0.36730961  1.0
  K  K5  1  0.63269039  0.86730961  0.25000000  1.0
  K  K6  1  0.25000000  0.25000000  0.25000000  1.0
  K  K7  1  0.75000000  0.75000000  0.75000000  1.0
  Cd  Cd8  1  0.50000000  0.50000000  0.50000000  1.0
  Cd  Cd9  1  0.00000000  0.00000000  0.00000000  1.0
  Br  Br10  1  1.20364073  0.43262271  -0.44498080  1.0
  Br  Br11  1  0.70364073  1.05501920  -0.06737729  1.0
  Br  Br12  1  0.94498080  0.06737729  0.29635927  1.0
  Br  Br13  1  1.44498080  -0.20364073  0.56737729  1.0
  Br  Br14  1  1.56737729  0.44498080  -0.20364073  1.0
  Br  Br15  1  1.06737729  0.29635927  -0.05501920  1.0
  Br  Br16  1  0.79635927  0.56737729  0.44498080  1.0
  Br  Br17  1  1.29635927  -0.05501920  0.06737729  1.0
  Br  Br18  1  0.55501920  1.20364073  -0.56737729  1.0
  Br  Br19  1  1.05501920  0.93262271  -0.29635927  1.0
  Br  Br20  1  0.93262271  0.70364073  0.05501920  1.0
  Br  Br21  1  0.43262271  0.55501920  0.20364073  1.0
