# generated using pymatgen
data_Re4Ge7
_symmetry_space_group_name_H-M   'P 1'
_cell_length_a   5.98463059
_cell_length_b   5.98463059
_cell_length_c   19.11985270
_cell_angle_alpha   90.00000000
_cell_angle_beta   90.00000000
_cell_angle_gamma   90.00000000
_symmetry_Int_Tables_number   1
_chemical_formula_structural   Re4Ge7
_chemical_formula_sum   'Re16 Ge28'
_cell_volume   684.79288414
_cell_formula_units_Z   4
loop_
 _symmetry_equiv_pos_site_id
 _symmetry_equiv_pos_as_xyz
  1  'x, y, z'
loop_
 _atom_site_type_symbol
 _atom_site_label
 _atom_site_symmetry_multiplicity
 _atom_site_fract_x
 _atom_site_fract_y
 _atom_site_fract_z
 _atom_site_occupancy
  Re  Re0  1  0.50000000  0.00000000  0.06451089  1.0
  Re  Re1  1  0.50000000  0.00000000  0.56451089  1.0
  Re  Re2  1  0.00000000  0.50000000  0.43548911  1.0
  Re  Re3  1  0.00000000  0.50000000  0.93548911  1.0
  Re  Re4  1  0.50000000  0.00000000  0.30578829  1.0
  Re  Re5  1  0.50000000  0.00000000  0.80578829  1.0
  Re  Re6  1  0.00000000  0.50000000  0.19421171  1.0
  Re  Re7  1  0.00000000  0.50000000  0.69421171  1.0
  Re  Re8  1  0.50000000  0.50000000  0.12996506  1.0
  Re  Re9  1  0.50000000  0.50000000  0.62996506  1.0
  Re  Re10  1  0.50000000  0.50000000  0.37003494  1.0
  Re  Re11  1  0.50000000  0.50000000  0.87003494  1.0
  Re  Re12  1  0.00000000  0.00000000  0.00000000  1.0
  Re  Re13  1  0.00000000  0.00000000  0.50000000  1.0
  Re  Re14  1  0.00000000  0.00000000  0.25000000  1.0
  Re  Re15  1  0.00000000  0.00000000  0.75000000  1.0
  Ge  Ge16  1  0.67786157  0.84794086  0.18189517  1.0
  Ge  Ge17  1  0.32213843  0.84794086  0.68189517  1.0
  Ge  Ge18  1  0.15205914  0.32213843  0.31810483  1.0
  Ge  Ge19  1  0.84794086  0.32213843  0.81810483  1.0
  Ge  Ge20  1  0.67786157  0.15205914  0.68189517  1.0
  Ge  Ge21  1  0.32213843  0.15205914  0.18189517  1.0
  Ge  Ge22  1  0.15205914  0.67786157  0.81810483  1.0
  Ge  Ge23  1  0.84794086  0.67786157  0.31810483  1.0
  Ge  Ge24  1  0.14899253  0.79592529  0.11204982  1.0
  Ge  Ge25  1  0.85100747  0.79592529  0.61204982  1.0
  Ge  Ge26  1  0.20407471  0.85100747  0.38795018  1.0
  Ge  Ge27  1  0.79592529  0.85100747  0.88795018  1.0
  Ge  Ge28  1  0.14899253  0.20407471  0.61204982  1.0
  Ge  Ge29  1  0.85100747  0.20407471  0.11204982  1.0
  Ge  Ge30  1  0.20407471  0.14899253  0.88795018  1.0
  Ge  Ge31  1  0.79592529  0.14899253  0.38795018  1.0
  Ge  Ge32  1  0.23594163  0.65219393  0.53727927  1.0
  Ge  Ge33  1  0.76405837  0.65219393  0.03727927  1.0
  Ge  Ge34  1  0.34780607  0.76405837  0.96272073  1.0
  Ge  Ge35  1  0.65219393  0.76405837  0.46272073  1.0
  Ge  Ge36  1  0.23594163  0.34780607  0.03727927  1.0
  Ge  Ge37  1  0.76405837  0.34780607  0.53727927  1.0
  Ge  Ge38  1  0.34780607  0.23594163  0.46272073  1.0
  Ge  Ge39  1  0.65219393  0.23594163  0.96272073  1.0
  Ge  Ge40  1  0.33862708  0.66137292  0.25000000  1.0
  Ge  Ge41  1  0.66137292  0.66137292  0.75000000  1.0
  Ge  Ge42  1  0.33862708  0.33862708  0.75000000  1.0
  Ge  Ge43  1  0.66137292  0.33862708  0.25000000  1.0
