# generated using pymatgen
data_NaLuGeO4
_symmetry_space_group_name_H-M   'P 1'
_cell_length_a   11.38179420
_cell_length_b   6.42677212
_cell_length_c   5.30848305
_cell_angle_alpha   90.00000000
_cell_angle_beta   90.00000000
_cell_angle_gamma   90.00000000
_symmetry_Int_Tables_number   1
_chemical_formula_structural   NaLuGeO4
_chemical_formula_sum   'Na4 Lu4 Ge4 O16'
_cell_volume   388.30596714
_cell_formula_units_Z   4
loop_
 _symmetry_equiv_pos_site_id
 _symmetry_equiv_pos_as_xyz
  1  'x, y, z'
loop_
 _atom_site_type_symbol
 _atom_site_label
 _atom_site_symmetry_multiplicity
 _atom_site_fract_x
 _atom_site_fract_y
 _atom_site_fract_z
 _atom_site_occupancy
  Na  Na0  1  0.00000000  0.50000000  0.00000000  1.0
  Na  Na1  1  0.00000000  0.00000000  0.00000000  1.0
  Na  Na2  1  0.50000000  0.50000000  0.50000000  1.0
  Na  Na3  1  0.50000000  0.00000000  0.50000000  1.0
  Lu  Lu4  1  0.77700628  0.25000000  0.49372125  1.0
  Lu  Lu5  1  0.27700628  0.25000000  0.00627875  1.0
  Lu  Lu6  1  0.22299372  0.75000000  0.50627875  1.0
  Lu  Lu7  1  0.72299372  0.75000000  0.99372125  1.0
  Ge  Ge8  1  0.59892247  0.25000000  0.05034382  1.0
  Ge  Ge9  1  0.09892247  0.25000000  0.44965618  1.0
  Ge  Ge10  1  0.40107753  0.75000000  0.94965618  1.0
  Ge  Ge11  1  0.90107753  0.75000000  0.55034382  1.0
  O  O12  1  0.67676655  0.45913891  0.20666843  1.0
  O  O13  1  0.67676655  0.04086109  0.20666843  1.0
  O  O14  1  0.17676655  0.45913891  0.29333157  1.0
  O  O15  1  0.17676655  0.04086109  0.29333157  1.0
  O  O16  1  0.32323345  0.95913891  0.79333157  1.0
  O  O17  1  0.32323345  0.54086109  0.79333157  1.0
  O  O18  1  0.82323345  0.95913891  0.70666843  1.0
  O  O19  1  0.82323345  0.54086109  0.70666843  1.0
  O  O20  1  0.95387852  0.25000000  0.33164451  1.0
  O  O21  1  0.45387852  0.25000000  0.16835549  1.0
  O  O22  1  0.04612148  0.75000000  0.66835549  1.0
  O  O23  1  0.54612148  0.75000000  0.83164451  1.0
  O  O24  1  0.61227863  0.25000000  0.72246917  1.0
  O  O25  1  0.11227863  0.25000000  0.77753083  1.0
  O  O26  1  0.38772137  0.75000000  0.27753083  1.0
  O  O27  1  0.88772137  0.75000000  0.22246917  1.0
