# generated using pymatgen
data_Al2P3(HO3)3
_symmetry_space_group_name_H-M   'P 1'
_cell_length_a   8.02211566
_cell_length_b   8.02211566
_cell_length_c   7.19408705
_cell_angle_alpha   90.00000000
_cell_angle_beta   90.00000000
_cell_angle_gamma   120.00000000
_symmetry_Int_Tables_number   1
_chemical_formula_structural   Al2P3(HO3)3
_chemical_formula_sum   'Al4 P6 H6 O18'
_cell_volume   400.94440641
_cell_formula_units_Z   2
loop_
 _symmetry_equiv_pos_site_id
 _symmetry_equiv_pos_as_xyz
  1  'x, y, z'
loop_
 _atom_site_type_symbol
 _atom_site_label
 _atom_site_symmetry_multiplicity
 _atom_site_fract_x
 _atom_site_fract_y
 _atom_site_fract_z
 _atom_site_occupancy
  Al  Al0  1  0.33333333  0.66666667  0.44514647  1.0
  Al  Al1  1  0.33333333  0.66666667  0.05485353  1.0
  Al  Al2  1  0.66666667  0.33333333  0.94514647  1.0
  Al  Al3  1  0.66666667  0.33333333  0.55485353  1.0
  P  P4  1  0.68551401  0.63633318  0.25000000  1.0
  P  P5  1  0.63633318  0.95081917  0.75000000  1.0
  P  P6  1  0.95081917  0.31448599  0.25000000  1.0
  P  P7  1  0.36366682  0.04918083  0.25000000  1.0
  P  P8  1  0.31448599  0.36366682  0.75000000  1.0
  P  P9  1  0.04918083  0.68551401  0.75000000  1.0
  H  H10  1  0.16693500  0.99138430  0.25000000  1.0
  H  H11  1  0.99138430  0.82444930  0.75000000  1.0
  H  H12  1  0.82444930  0.83306500  0.25000000  1.0
  H  H13  1  0.00861570  0.17555070  0.25000000  1.0
  H  H14  1  0.83306500  0.00861570  0.75000000  1.0
  H  H15  1  0.17555070  0.16693500  0.75000000  1.0
  O  O16  1  0.71589304  0.55313297  0.42926089  1.0
  O  O17  1  0.71589304  0.55313297  0.07073911  1.0
  O  O18  1  0.55313297  0.83723993  0.92926089  1.0
  O  O19  1  0.55313297  0.83723993  0.57073911  1.0
  O  O20  1  0.83723993  0.28410696  0.42926089  1.0
  O  O21  1  0.83723993  0.28410696  0.07073911  1.0
  O  O22  1  0.44686703  0.16276007  0.42926089  1.0
  O  O23  1  0.44686703  0.16276007  0.07073911  1.0
  O  O24  1  0.28410696  0.44686703  0.92926089  1.0
  O  O25  1  0.28410696  0.44686703  0.57073911  1.0
  O  O26  1  0.16276007  0.71589304  0.92926089  1.0
  O  O27  1  0.16276007  0.71589304  0.57073911  1.0
  O  O28  1  0.37583172  0.85996330  0.25000000  1.0
  O  O29  1  0.85996330  0.48413158  0.75000000  1.0
  O  O30  1  0.48413158  0.62416828  0.25000000  1.0
  O  O31  1  0.14003670  0.51586842  0.25000000  1.0
  O  O32  1  0.62416828  0.14003670  0.75000000  1.0
  O  O33  1  0.51586842  0.37583172  0.75000000  1.0
