# generated using pymatgen
data_PbWO4
_symmetry_space_group_name_H-M   'P 1'
_cell_length_a   8.09315150
_cell_length_b   8.09315150
_cell_length_c   5.49838483
_cell_angle_alpha   90.00000000
_cell_angle_beta   90.00000000
_cell_angle_gamma   120.45349113
_symmetry_Int_Tables_number   1
_chemical_formula_structural   PbWO4
_chemical_formula_sum   'Pb4 W4 O16'
_cell_volume   310.45476197
_cell_formula_units_Z   4
loop_
 _symmetry_equiv_pos_site_id
 _symmetry_equiv_pos_as_xyz
  1  'x, y, z'
loop_
 _atom_site_type_symbol
 _atom_site_label
 _atom_site_symmetry_multiplicity
 _atom_site_fract_x
 _atom_site_fract_y
 _atom_site_fract_z
 _atom_site_occupancy
  Pb  Pb0  1  0.41364460  1.08635540  0.25000000  1.0
  Pb  Pb1  1  -0.08635540  0.58635540  0.25000000  1.0
  Pb  Pb2  1  0.08635540  1.41364460  0.75000000  1.0
  Pb  Pb3  1  -0.41364460  0.91364460  0.75000000  1.0
  W  W4  1  -0.08772978  1.08772978  0.20395778  1.0
  W  W5  1  0.41227022  0.58772978  0.29604222  1.0
  W  W6  1  0.08772978  0.91227022  0.79604222  1.0
  W  W7  1  -0.41227022  1.41227022  0.70395778  1.0
  O  O8  1  -0.40954651  1.40954651  0.03666529  1.0
  O  O9  1  0.09045349  0.90954651  0.46333471  1.0
  O  O10  1  0.40954651  0.59045349  0.96333471  1.0
  O  O11  1  -0.09045349  1.09045349  0.53666529  1.0
  O  O12  1  -0.30389274  1.30389274  0.52638080  1.0
  O  O13  1  0.19610726  0.80389274  0.97361920  1.0
  O  O14  1  0.30389274  0.69610726  0.47361920  1.0
  O  O15  1  -0.19610726  1.19610726  0.02638080  1.0
  O  O16  1  -0.38501752  0.88501752  0.25000000  1.0
  O  O17  1  0.11498248  1.38501752  0.25000000  1.0
  O  O18  1  -0.11498248  0.61498248  0.75000000  1.0
  O  O19  1  0.38501752  1.11498248  0.75000000  1.0
  O  O20  1  0.35861418  1.35861418  0.50000000  1.0
  O  O21  1  -0.14138582  0.85861418  0.00000000  1.0
  O  O22  1  -0.35861418  0.64138582  0.50000000  1.0
  O  O23  1  0.14138582  1.14138582  0.00000000  1.0
