# generated using pymatgen
data_Gd4B3C4
_symmetry_space_group_name_H-M   'P 1'
_cell_length_a   3.66002027
_cell_length_b   3.64417774
_cell_length_c   11.96886534
_cell_angle_alpha   96.95899200
_cell_angle_beta   89.99672052
_cell_angle_gamma   89.99585711
_symmetry_Int_Tables_number   1
_chemical_formula_structural   Gd4B3C4
_chemical_formula_sum   'Gd4 B3 C4'
_cell_volume   158.46187226
_cell_formula_units_Z   1
loop_
 _symmetry_equiv_pos_site_id
 _symmetry_equiv_pos_as_xyz
  1  'x, y, z'
loop_
 _atom_site_type_symbol
 _atom_site_label
 _atom_site_symmetry_multiplicity
 _atom_site_fract_x
 _atom_site_fract_y
 _atom_site_fract_z
 _atom_site_occupancy
  Gd  Gd0  1  -1.00000293  -0.64635336  -0.63552203  1.0
  Gd  Gd1  1  0.00000293  -0.35364664  -0.36447797  1.0
  Gd  Gd2  1  -0.49995967  -0.23439944  -0.84788654  1.0
  Gd  Gd3  1  -0.50004033  -0.76560056  -0.15211346  1.0
  B  B4  1  -0.99995720  -0.81401379  -0.95217358  1.0
  B  B5  1  -0.00004280  -0.18598621  -0.04782642  1.0
  B  B6  1  -0.50000000  0.00000000  -0.50000000  1.0
  C  C7  1  -0.50002471  -0.86738204  -0.37857567  1.0
  C  C8  1  -0.49997529  -0.13261796  -0.62142433  1.0
  C  C9  1  -0.99993946  -0.72762162  -0.82896634  1.0
  C  C10  1  -0.00006054  -0.27237838  -0.17103366  1.0
