# generated using pymatgen
data_Re5(Ni2Mo3)2
_symmetry_space_group_name_H-M   'P 1'
_cell_length_a   9.27747608
_cell_length_b   9.27747608
_cell_length_c   4.93240899
_cell_angle_alpha   90.00000000
_cell_angle_beta   90.00000000
_cell_angle_gamma   90.00000000
_symmetry_Int_Tables_number   1
_chemical_formula_structural   Re5(Ni2Mo3)2
_chemical_formula_sum   'Re10 Ni8 Mo12'
_cell_volume   424.54014828
_cell_formula_units_Z   2
loop_
 _symmetry_equiv_pos_site_id
 _symmetry_equiv_pos_as_xyz
  1  'x, y, z'
loop_
 _atom_site_type_symbol
 _atom_site_label
 _atom_site_symmetry_multiplicity
 _atom_site_fract_x
 _atom_site_fract_y
 _atom_site_fract_z
 _atom_site_occupancy
  Re  Re0  1  0.50000000  0.50000000  0.50000000  1.0
  Re  Re1  1  0.00000000  0.00000000  0.00000000  1.0
  Re  Re2  1  0.31594635  0.68405365  0.25034266  1.0
  Re  Re3  1  0.68405365  0.31594635  0.25034266  1.0
  Re  Re4  1  0.18405365  0.18405365  0.75034266  1.0
  Re  Re5  1  0.81594635  0.81594635  0.75034266  1.0
  Re  Re6  1  0.68405365  0.31594635  0.74965734  1.0
  Re  Re7  1  0.31594635  0.68405365  0.74965734  1.0
  Re  Re8  1  0.81594635  0.81594635  0.24965734  1.0
  Re  Re9  1  0.18405365  0.18405365  0.24965734  1.0
  Ni  Ni10  1  0.43166831  0.24210850  0.50000000  1.0
  Ni  Ni11  1  0.56833169  0.75789150  0.50000000  1.0
  Ni  Ni12  1  0.06833169  0.74210850  0.00000000  1.0
  Ni  Ni13  1  0.93166831  0.25789150  0.00000000  1.0
  Ni  Ni14  1  0.24210850  0.43166831  0.50000000  1.0
  Ni  Ni15  1  0.75789150  0.56833169  0.50000000  1.0
  Ni  Ni16  1  0.74210850  0.06833169  0.00000000  1.0
  Ni  Ni17  1  0.25789150  0.93166831  0.00000000  1.0
  Mo  Mo18  1  0.10652637  0.89347363  0.50000000  1.0
  Mo  Mo19  1  0.89347363  0.10652637  0.50000000  1.0
  Mo  Mo20  1  0.39347363  0.39347363  0.00000000  1.0
  Mo  Mo21  1  0.60652637  0.60652637  0.00000000  1.0
  Mo  Mo22  1  0.37079795  0.96326679  0.50000000  1.0
  Mo  Mo23  1  0.62920205  0.03673321  0.50000000  1.0
  Mo  Mo24  1  0.12920205  0.46326679  0.00000000  1.0
  Mo  Mo25  1  0.87079795  0.53673321  0.00000000  1.0
  Mo  Mo26  1  0.96326679  0.37079795  0.50000000  1.0
  Mo  Mo27  1  0.03673321  0.62920205  0.50000000  1.0
  Mo  Mo28  1  0.46326679  0.12920205  0.00000000  1.0
  Mo  Mo29  1  0.53673321  0.87079795  0.00000000  1.0
