# generated using pymatgen
data_Y2Nb3Si4
_symmetry_space_group_name_H-M   'P 1'
_cell_length_a   7.06025827
_cell_length_b   7.06025827
_cell_length_c   13.05605892
_cell_angle_alpha   90.00000000
_cell_angle_beta   90.00000000
_cell_angle_gamma   90.00000000
_symmetry_Int_Tables_number   1
_chemical_formula_structural   Y2Nb3Si4
_chemical_formula_sum   'Y8 Nb12 Si16'
_cell_volume   650.80859246
_cell_formula_units_Z   4
loop_
 _symmetry_equiv_pos_site_id
 _symmetry_equiv_pos_as_xyz
  1  'x, y, z'
loop_
 _atom_site_type_symbol
 _atom_site_label
 _atom_site_symmetry_multiplicity
 _atom_site_fract_x
 _atom_site_fract_y
 _atom_site_fract_z
 _atom_site_occupancy
  Y  Y0  1  0.50111102  0.84094194  0.03244075  1.0
  Y  Y1  1  1.00111102  0.65905806  0.71755925  1.0
  Y  Y2  1  0.15905806  0.49888898  0.46755925  1.0
  Y  Y3  1  0.65905806  1.00111102  0.28244075  1.0
  Y  Y4  1  0.49888898  0.15905806  0.53244075  1.0
  Y  Y5  1  -0.00111102  0.34094194  0.21755925  1.0
  Y  Y6  1  0.84094194  0.50111102  0.96755925  1.0
  Y  Y7  1  0.34094194  -0.00111102  0.78244075  1.0
  Nb  Nb8  1  0.34737187  0.49195335  0.87360876  1.0
  Nb  Nb9  1  0.84737187  1.00804665  0.87639124  1.0
  Nb  Nb10  1  0.50804665  0.65262813  0.62639124  1.0
  Nb  Nb11  1  1.00804665  0.84737187  0.12360876  1.0
  Nb  Nb12  1  0.65262813  0.50804665  0.37360876  1.0
  Nb  Nb13  1  0.15262813  -0.00804665  0.37639124  1.0
  Nb  Nb14  1  0.49195335  0.34737187  0.12639124  1.0
  Nb  Nb15  1  -0.00804665  0.15262813  0.62360876  1.0
  Nb  Nb16  1  0.32809542  0.67190458  0.25000000  1.0
  Nb  Nb17  1  0.82809542  0.82809542  0.50000000  1.0
  Nb  Nb18  1  0.67190458  0.32809542  0.75000000  1.0
  Nb  Nb19  1  0.17190458  0.17190458  0.00000000  1.0
  Si  Si20  1  0.20645277  0.54614285  0.06322397  1.0
  Si  Si21  1  0.70645277  0.95385715  0.68677603  1.0
  Si  Si22  1  0.45385715  0.79354723  0.43677603  1.0
  Si  Si23  1  0.95385715  0.70645277  0.31322397  1.0
  Si  Si24  1  0.79354723  0.45385715  0.56322397  1.0
  Si  Si25  1  0.29354723  0.04614285  0.18677603  1.0
  Si  Si26  1  0.54614285  0.20645277  0.93677603  1.0
  Si  Si27  1  0.04614285  0.29354723  0.81322397  1.0
  Si  Si28  1  0.13419436  0.79583406  0.93264691  1.0
  Si  Si29  1  0.63419436  0.70416594  0.81735309  1.0
  Si  Si30  1  0.20416594  0.86580564  0.56735309  1.0
  Si  Si31  1  0.70416594  0.63419436  0.18264691  1.0
  Si  Si32  1  0.86580564  0.20416594  0.43264691  1.0
  Si  Si33  1  0.36580564  0.29583406  0.31735309  1.0
  Si  Si34  1  0.79583406  0.13419436  0.06735309  1.0
  Si  Si35  1  0.29583406  0.36580564  0.68264691  1.0
