# generated using pymatgen
data_CaInBr3
_symmetry_space_group_name_H-M   'P 1'
_cell_length_a   7.53317187
_cell_length_b   7.53317187
_cell_length_c   10.96104608
_cell_angle_alpha   90.00000000
_cell_angle_beta   90.00000000
_cell_angle_gamma   146.85320123
_symmetry_Int_Tables_number   1
_chemical_formula_structural   CaInBr3
_chemical_formula_sum   'Ca2 In2 Br6'
_cell_volume   340.11450887
_cell_formula_units_Z   2
loop_
 _symmetry_equiv_pos_site_id
 _symmetry_equiv_pos_as_xyz
  1  'x, y, z'
loop_
 _atom_site_type_symbol
 _atom_site_label
 _atom_site_symmetry_multiplicity
 _atom_site_fract_x
 _atom_site_fract_y
 _atom_site_fract_z
 _atom_site_occupancy
  Ca  Ca0  1  0.00000000  0.00000000  0.00000000  1.0
  Ca  Ca1  1  0.00000000  0.00000000  0.50000000  1.0
  In  In2  1  -0.26579311  0.26579311  0.75000000  1.0
  In  In3  1  0.26579311  0.73420689  0.25000000  1.0
  Br  Br4  1  0.36758600  0.63241400  0.95256606  1.0
  Br  Br5  1  0.36758600  0.63241400  0.54743394  1.0
  Br  Br6  1  -0.36758600  0.36758600  0.45256606  1.0
  Br  Br7  1  -0.36758600  0.36758600  0.04743394  1.0
  Br  Br8  1  0.06882441  0.93117559  0.75000000  1.0
  Br  Br9  1  -0.06882441  0.06882441  0.25000000  1.0
