# generated using pymatgen
data_RbIn3F10
_symmetry_space_group_name_H-M   'P 1'
_cell_length_a   6.79401462
_cell_length_b   7.92333985
_cell_length_c   8.21625715
_cell_angle_alpha   90.00000000
_cell_angle_beta   90.00000000
_cell_angle_gamma   90.00000000
_symmetry_Int_Tables_number   1
_chemical_formula_structural   RbIn3F10
_chemical_formula_sum   'Rb2 In6 F20'
_cell_volume   442.29169516
_cell_formula_units_Z   2
loop_
 _symmetry_equiv_pos_site_id
 _symmetry_equiv_pos_as_xyz
  1  'x, y, z'
loop_
 _atom_site_type_symbol
 _atom_site_label
 _atom_site_symmetry_multiplicity
 _atom_site_fract_x
 _atom_site_fract_y
 _atom_site_fract_z
 _atom_site_occupancy
  Rb  Rb0  1  -0.01096194  0.50000000  0.50000000  1.0
  Rb  Rb1  1  0.01096194  0.50000000  0.00000000  1.0
  In  In2  1  0.00000000  -0.00002701  0.75000000  1.0
  In  In3  1  0.00000000  0.00002701  0.25000000  1.0
  In  In4  1  0.50000000  0.27018682  0.75000000  1.0
  In  In5  1  0.50000000  0.72981318  0.25000000  1.0
  In  In6  1  0.50000000  0.72982121  0.75000000  1.0
  In  In7  1  0.50000000  0.27017879  0.25000000  1.0
  F  F8  1  0.50000000  -0.00000157  0.75000000  1.0
  F  F9  1  0.50000000  0.00000157  0.25000000  1.0
  F  F10  1  0.57310785  0.71879948  0.50001573  1.0
  F  F11  1  0.57310785  0.28120052  0.49998427  1.0
  F  F12  1  0.42689215  0.71879948  0.99998427  1.0
  F  F13  1  0.42689215  0.28120052  0.00001573  1.0
  F  F14  1  0.68044091  0.50003659  0.77256286  1.0
  F  F15  1  0.68044091  0.49996341  0.22743714  1.0
  F  F16  1  0.31955909  0.50003659  0.72743714  1.0
  F  F17  1  0.31955909  0.49996341  0.27256286  1.0
  F  F18  1  0.80563155  0.80109021  0.80289669  1.0
  F  F19  1  0.80563155  0.19890979  0.19710331  1.0
  F  F20  1  0.19436845  0.80109021  0.69710331  1.0
  F  F21  1  0.19436845  0.19890979  0.30289669  1.0
  F  F22  1  0.80561963  0.80107548  0.19730003  1.0
  F  F23  1  0.80561963  0.19892452  0.80269997  1.0
  F  F24  1  0.19438037  0.80107548  0.30269997  1.0
  F  F25  1  0.19438037  0.19892452  0.69730003  1.0
  F  F26  1  0.91576443  0.00000000  0.50000000  1.0
  F  F27  1  0.08423557  0.00000000  0.00000000  1.0
