# generated using pymatgen
data_CoH8C4(S2N3)2
_symmetry_space_group_name_H-M   'P 1'
_cell_length_a   10.19218879
_cell_length_b   8.11894485
_cell_length_c   3.90636953
_cell_angle_alpha   67.36849695
_cell_angle_beta   81.88271999
_cell_angle_gamma   83.19658598
_symmetry_Int_Tables_number   1
_chemical_formula_structural   CoH8C4(S2N3)2
_chemical_formula_sum   'Co1 H8 C4 S4 N6'
_cell_volume   294.64305158
_cell_formula_units_Z   1
loop_
 _symmetry_equiv_pos_site_id
 _symmetry_equiv_pos_as_xyz
  1  'x, y, z'
loop_
 _atom_site_type_symbol
 _atom_site_label
 _atom_site_symmetry_multiplicity
 _atom_site_fract_x
 _atom_site_fract_y
 _atom_site_fract_z
 _atom_site_occupancy
  S  S0  1  -0.58516978  0.70547701  0.26540032  1.0
  S  S1  1  -0.41483022  0.29452299  -0.26540032  1.0
  S  S2  1  -0.96635952  0.21161646  0.40490748  1.0
  S  S3  1  -0.03364048  0.78838354  -0.40490748  1.0
  C  C4  1  -0.72469348  0.81781445  0.13818593  1.0
  C  C5  1  -0.27530652  0.18218555  -0.13818593  1.0
  C  C6  1  -0.80667922  0.28356744  0.23667682  1.0
  C  C7  1  -0.19332078  0.71643256  -0.23667682  1.0
  Co  Co8  1  0.00000000  0.00000000  0.00000000  1.0
  N  N9  1  -0.82604496  0.90123079  0.04432137  1.0
  N  N10  1  -0.17395504  0.09876921  -0.04432137  1.0
  N  N11  1  -0.30119376  0.81184502  -0.38021872  1.0
  N  N12  1  -0.69880624  0.18815498  0.38021872  1.0
  N  N13  1  -0.79633447  0.43814603  -0.05346647  1.0
  N  N14  1  -0.20366553  0.56185397  0.05346647  1.0
  H  H15  1  -0.39476553  0.77331026  -0.26845171  1.0
  H  H16  1  -0.60523447  0.22668974  0.26845171  1.0
  H  H17  1  -0.87908609  0.51789301  -0.14822981  1.0
  H  H18  1  -0.12091391  0.48210699  0.14822981  1.0
  H  H19  1  -0.28982647  0.93118401  -0.59628544  1.0
  H  H20  1  -0.71017353  0.06881599  0.59628544  1.0
  H  H21  1  -0.70703127  0.48878043  -0.18171415  1.0
  H  H22  1  -0.29296873  0.51121957  0.18171415  1.0
