# generated using pymatgen
data_Co(CN)6
_symmetry_space_group_name_H-M   'P 1'
_cell_length_a   9.12673384
_cell_length_b   9.12673384
_cell_length_c   7.35431111
_cell_angle_alpha   90.00000000
_cell_angle_beta   90.00000000
_cell_angle_gamma   35.37970210
_symmetry_Int_Tables_number   1
_chemical_formula_structural   Co(CN)6
_chemical_formula_sum   'Co2 C12 N12'
_cell_volume   354.68727292
_cell_formula_units_Z   2
loop_
 _symmetry_equiv_pos_site_id
 _symmetry_equiv_pos_as_xyz
  1  'x, y, z'
loop_
 _atom_site_type_symbol
 _atom_site_label
 _atom_site_symmetry_multiplicity
 _atom_site_fract_x
 _atom_site_fract_y
 _atom_site_fract_z
 _atom_site_occupancy
  Co  Co0  1  -0.17433550  1.44557762  0.25000000  1.0
  Co  Co1  1  0.55442238  1.17433550  0.75000000  1.0
  C  C2  1  -0.06535976  1.90252700  0.41285262  1.0
  C  C3  1  0.09747300  1.06535976  0.91285262  1.0
  C  C4  1  0.09747300  1.06535976  0.58714738  1.0
  C  C5  1  -0.06535976  1.90252700  0.08714738  1.0
  C  C6  1  0.24494438  1.32471707  0.40323462  1.0
  C  C7  1  0.67528293  0.75505562  0.90323462  1.0
  C  C8  1  0.67528293  0.75505562  0.59676538  1.0
  C  C9  1  0.24494438  1.32471707  0.09676538  1.0
  C  C10  1  0.06889772  1.81360517  0.25000000  1.0
  C  C11  1  0.18639483  0.93110228  0.75000000  1.0
  C  C12  1  0.31477509  1.67157071  0.25000000  1.0
  C  C13  1  0.32842929  0.68522491  0.75000000  1.0
  N  N14  1  0.68638209  0.68849027  0.45434414  1.0
  N  N15  1  0.31150973  1.31361791  0.95434414  1.0
  N  N16  1  0.31150973  1.31361791  0.54565586  1.0
  N  N17  1  0.68638209  0.68849027  0.04565586  1.0
  N  N18  1  0.01436861  1.18567425  0.45498365  1.0
  N  N19  1  0.81432575  0.98563139  0.95498365  1.0
  N  N20  1  0.81432575  0.98563139  0.54501635  1.0
  N  N21  1  0.01436861  1.18567425  0.04501635  1.0
  N  N22  1  0.15763360  1.34404928  0.25000000  1.0
  N  N23  1  0.65595072  0.84236640  0.75000000  1.0
  N  N24  1  0.51816692  0.55698851  0.25000000  1.0
  N  N25  1  0.44301149  1.48183308  0.75000000  1.0
