# generated using pymatgen
data_SrNb2O6
_symmetry_space_group_name_H-M   'P 1'
_cell_length_a   7.80001049
_cell_length_b   5.63149622
_cell_length_c   11.14435116
_cell_angle_alpha   90.00000000
_cell_angle_beta   90.30835766
_cell_angle_gamma   90.00000000
_symmetry_Int_Tables_number   1
_chemical_formula_structural   SrNb2O6
_chemical_formula_sum   'Sr4 Nb8 O24'
_cell_volume   489.51666616
_cell_formula_units_Z   4
loop_
 _symmetry_equiv_pos_site_id
 _symmetry_equiv_pos_as_xyz
  1  'x, y, z'
loop_
 _atom_site_type_symbol
 _atom_site_label
 _atom_site_symmetry_multiplicity
 _atom_site_fract_x
 _atom_site_fract_y
 _atom_site_fract_z
 _atom_site_occupancy
  Sr  Sr0  1  0.75007482  0.96487667  0.46017818  1.0
  Sr  Sr1  1  0.75007482  0.53512333  0.96017818  1.0
  Sr  Sr2  1  0.24992518  0.46487667  0.03982182  1.0
  Sr  Sr3  1  0.24992518  0.03512333  0.53982182  1.0
  Nb  Nb4  1  0.98589704  0.47608211  0.35632245  1.0
  Nb  Nb5  1  0.98589704  0.02391789  0.85632245  1.0
  Nb  Nb6  1  0.01410296  0.97608211  0.14367755  1.0
  Nb  Nb7  1  0.01410296  0.52391789  0.64367755  1.0
  Nb  Nb8  1  0.47445672  0.46702620  0.35779049  1.0
  Nb  Nb9  1  0.47445672  0.03297380  0.85779049  1.0
  Nb  Nb10  1  0.52554328  0.96702620  0.14220951  1.0
  Nb  Nb11  1  0.52554328  0.53297380  0.64220951  1.0
  O  O12  1  0.96682514  0.21984270  0.02521966  1.0
  O  O13  1  0.96682514  0.28015730  0.52521966  1.0
  O  O14  1  0.03317486  0.71984270  0.47478034  1.0
  O  O15  1  0.03317486  0.78015730  0.97478034  1.0
  O  O16  1  0.95246558  0.13983748  0.28671513  1.0
  O  O17  1  0.95246558  0.36016252  0.78671513  1.0
  O  O18  1  0.04753442  0.63983748  0.21328487  1.0
  O  O19  1  0.04753442  0.86016252  0.71328487  1.0
  O  O20  1  0.74969124  0.96613503  0.85419992  1.0
  O  O21  1  0.74969124  0.53386497  0.35419992  1.0
  O  O22  1  0.25030876  0.46613503  0.64580008  1.0
  O  O23  1  0.25030876  0.03386497  0.14580008  1.0
  O  O24  1  0.55067486  0.14492712  0.28559840  1.0
  O  O25  1  0.55067486  0.35507288  0.78559840  1.0
  O  O26  1  0.44932514  0.64492712  0.21440160  1.0
  O  O27  1  0.44932514  0.85507288  0.71440160  1.0
  O  O28  1  0.53289328  0.22053524  0.02517800  1.0
  O  O29  1  0.53289328  0.27946476  0.52517800  1.0
  O  O30  1  0.46710672  0.72053524  0.47482200  1.0
  O  O31  1  0.46710672  0.77946476  0.97482200  1.0
  O  O32  1  0.24879100  0.36078671  0.37137148  1.0
  O  O33  1  0.24879100  0.13921329  0.87137148  1.0
  O  O34  1  0.75120900  0.86078671  0.12862852  1.0
  O  O35  1  0.75120900  0.63921329  0.62862852  1.0
