# generated using pymatgen
data_Rb2(NbBr3)3
_symmetry_space_group_name_H-M   'P 1'
_cell_length_a   10.64418060
_cell_length_b   10.64418060
_cell_length_c   10.54351477
_cell_angle_alpha   77.04585283
_cell_angle_beta   102.95414717
_cell_angle_gamma   62.56734638
_symmetry_Int_Tables_number   1
_chemical_formula_structural   Rb2(NbBr3)3
_chemical_formula_sum   'Rb4 Nb6 Br18'
_cell_volume   956.35477762
_cell_formula_units_Z   2
loop_
 _symmetry_equiv_pos_site_id
 _symmetry_equiv_pos_as_xyz
  1  'x, y, z'
loop_
 _atom_site_type_symbol
 _atom_site_label
 _atom_site_symmetry_multiplicity
 _atom_site_fract_x
 _atom_site_fract_y
 _atom_site_fract_z
 _atom_site_occupancy
  Rb  Rb0  1  0.73227622  -0.05140602  0.67297058  1.0
  Rb  Rb1  1  1.05140602  0.26772378  0.67297058  1.0
  Rb  Rb2  1  0.94859398  -0.26772378  0.32702942  1.0
  Rb  Rb3  1  1.26772378  0.05140602  0.32702942  1.0
  Nb  Nb4  1  0.45667813  -0.29316593  0.86650504  1.0
  Nb  Nb5  1  1.29316593  0.54332187  0.86650504  1.0
  Nb  Nb6  1  0.70683407  -0.54332187  0.13349496  1.0
  Nb  Nb7  1  1.54332187  0.29316593  0.13349496  1.0
  Nb  Nb8  1  0.61491080  -0.61491080  0.88368038  1.0
  Nb  Nb9  1  0.38508920  -0.38508920  0.11631962  1.0
  Br  Br10  1  0.58598817  -0.38659790  0.69520376  1.0
  Br  Br11  1  1.38659790  0.41401183  0.69520376  1.0
  Br  Br12  1  0.61340210  -0.41401183  0.30479624  1.0
  Br  Br13  1  1.41401183  0.38659790  0.30479624  1.0
  Br  Br14  1  0.30856112  -0.10644302  0.97949178  1.0
  Br  Br15  1  1.10644302  0.69143888  0.97949178  1.0
  Br  Br16  1  0.89355698  -0.69143888  0.02050822  1.0
  Br  Br17  1  1.69143888  0.10644302  0.02050822  1.0
  Br  Br18  1  1.39603345  -0.01042861  0.68221621  1.0
  Br  Br19  1  1.01042861  -0.39603345  0.68221621  1.0
  Br  Br20  1  0.98957139  0.39603345  0.31778379  1.0
  Br  Br21  1  0.60396655  0.01042861  0.31778379  1.0
  Br  Br22  1  0.80812721  -0.80812721  0.32611922  1.0
  Br  Br23  1  0.19187279  -0.19187279  0.67388078  1.0
  Br  Br24  1  0.76897012  -0.76897012  0.72876763  1.0
  Br  Br25  1  0.23102988  -0.23102988  0.27123237  1.0
  Br  Br26  1  0.70056815  -0.29943185  0.00000000  1.0
  Br  Br27  1  1.29943185  0.29943185  0.00000000  1.0
