# generated using pymatgen
data_TeC2ClF3
_symmetry_space_group_name_H-M   'P 1'
_cell_length_a   8.73872214
_cell_length_b   6.79181705
_cell_length_c   10.70166101
_cell_angle_alpha   90.00000000
_cell_angle_beta   108.53593728
_cell_angle_gamma   90.00000000
_symmetry_Int_Tables_number   1
_chemical_formula_structural   TeC2ClF3
_chemical_formula_sum   'Te4 C8 Cl4 F12'
_cell_volume   602.21344189
_cell_formula_units_Z   4
loop_
 _symmetry_equiv_pos_site_id
 _symmetry_equiv_pos_as_xyz
  1  'x, y, z'
loop_
 _atom_site_type_symbol
 _atom_site_label
 _atom_site_symmetry_multiplicity
 _atom_site_fract_x
 _atom_site_fract_y
 _atom_site_fract_z
 _atom_site_occupancy
  Te  Te0  1  0.93344071  0.44362105  0.62510334  1.0
  Te  Te1  1  0.06655929  0.94362105  0.87489666  1.0
  Te  Te2  1  0.06655929  0.55637895  0.37489666  1.0
  Te  Te3  1  0.93344071  0.05637895  0.12510334  1.0
  C  C4  1  0.30243525  0.49626430  0.66098274  1.0
  C  C5  1  0.69756475  0.99626430  0.83901726  1.0
  C  C6  1  0.69756475  0.50373570  0.33901726  1.0
  C  C7  1  0.30243525  0.00373570  0.16098274  1.0
  C  C8  1  0.15225038  0.39776030  0.56623804  1.0
  C  C9  1  0.84774962  0.89776030  0.93376196  1.0
  C  C10  1  0.84774962  0.60223970  0.43376196  1.0
  C  C11  1  0.15225038  0.10223970  0.06623804  1.0
  Cl  Cl12  1  0.19956864  0.14614587  0.55154502  1.0
  Cl  Cl13  1  0.80043136  0.64614587  0.94845498  1.0
  Cl  Cl14  1  0.80043136  0.85385413  0.44845498  1.0
  Cl  Cl15  1  0.19956864  0.35385413  0.05154502  1.0
  F  F16  1  0.43064016  0.48428051  0.61469061  1.0
  F  F17  1  0.56935984  0.98428051  0.88530939  1.0
  F  F18  1  0.56935984  0.51571949  0.38530939  1.0
  F  F19  1  0.43064016  0.01571949  0.11469061  1.0
  F  F20  1  0.27774999  0.69083522  0.67853458  1.0
  F  F21  1  0.72225001  0.19083522  0.82146542  1.0
  F  F22  1  0.72225001  0.30916478  0.32146542  1.0
  F  F23  1  0.27774999  0.80916478  0.17853458  1.0
  F  F24  1  0.34717207  0.41039359  0.78236206  1.0
  F  F25  1  0.65282793  0.91039359  0.71763794  1.0
  F  F26  1  0.65282793  0.58960641  0.21763794  1.0
  F  F27  1  0.34717207  0.08960641  0.28236206  1.0
