# generated using pymatgen
data_Cs4PbO4
_symmetry_space_group_name_H-M   'P 1'
_cell_length_a   11.98738200
_cell_length_b   7.52007730
_cell_length_c   12.04235314
_cell_angle_alpha   90.00000000
_cell_angle_beta   110.66462860
_cell_angle_gamma   90.00000000
_symmetry_Int_Tables_number   1
_chemical_formula_structural   Cs4PbO4
_chemical_formula_sum   'Cs16 Pb4 O16'
_cell_volume   1015.72708445
_cell_formula_units_Z   4
loop_
 _symmetry_equiv_pos_site_id
 _symmetry_equiv_pos_as_xyz
  1  'x, y, z'
loop_
 _atom_site_type_symbol
 _atom_site_label
 _atom_site_symmetry_multiplicity
 _atom_site_fract_x
 _atom_site_fract_y
 _atom_site_fract_z
 _atom_site_occupancy
  Cs  Cs0  1  0.93160222  0.82248084  0.79800786  1.0
  Cs  Cs1  1  0.93160222  0.67751916  0.29800786  1.0
  Cs  Cs2  1  0.06839778  0.32248084  0.70199214  1.0
  Cs  Cs3  1  0.06839778  0.17751916  0.20199214  1.0
  Cs  Cs4  1  0.86181956  0.34755741  0.89180674  1.0
  Cs  Cs5  1  0.86181956  0.15244259  0.39180674  1.0
  Cs  Cs6  1  0.13818044  0.84755741  0.60819326  1.0
  Cs  Cs7  1  0.13818044  0.65244259  0.10819326  1.0
  Cs  Cs8  1  0.55393010  0.58995245  0.69074229  1.0
  Cs  Cs9  1  0.55393010  0.91004755  0.19074229  1.0
  Cs  Cs10  1  0.44606990  0.08995245  0.80925771  1.0
  Cs  Cs11  1  0.44606990  0.41004755  0.30925771  1.0
  Cs  Cs12  1  0.34273243  0.60857554  0.90682057  1.0
  Cs  Cs13  1  0.34273243  0.89142446  0.40682057  1.0
  Cs  Cs14  1  0.65726757  0.10857554  0.59317943  1.0
  Cs  Cs15  1  0.65726757  0.39142446  0.09317943  1.0
  Pb  Pb16  1  0.74408096  0.86988246  0.99551856  1.0
  Pb  Pb17  1  0.74408096  0.63011754  0.49551856  1.0
  Pb  Pb18  1  0.25591904  0.36988246  0.50448144  1.0
  Pb  Pb19  1  0.25591904  0.13011754  0.00448144  1.0
  O  O20  1  0.87755091  0.82892359  0.52716049  1.0
  O  O21  1  0.87755090  0.67107641  0.02716049  1.0
  O  O22  1  0.12244910  0.32892359  0.97283951  1.0
  O  O23  1  0.12244909  0.17107641  0.47283951  1.0
  O  O24  1  0.79798546  0.46979091  0.65136974  1.0
  O  O25  1  0.79798546  0.03020909  0.15136974  1.0
  O  O26  1  0.20201454  0.96979091  0.84863026  1.0
  O  O27  1  0.20201454  0.53020909  0.34863026  1.0
  O  O28  1  0.72384793  0.48679575  0.33776050  1.0
  O  O29  1  0.72384793  0.01320425  0.83776050  1.0
  O  O30  1  0.27615207  0.98679575  0.16223950  1.0
  O  O31  1  0.27615207  0.51320425  0.66223950  1.0
  O  O32  1  0.57486175  0.75239598  0.96653358  1.0
  O  O33  1  0.57486175  0.74760402  0.46653358  1.0
  O  O34  1  0.42513825  0.25239598  0.53346642  1.0
  O  O35  1  0.42513825  0.24760402  0.03346642  1.0
