# generated using pymatgen
data_Zn11Rh2
_symmetry_space_group_name_H-M   'P 1'
_cell_length_a   7.89108399
_cell_length_b   7.89108399
_cell_length_c   7.89108399
_cell_angle_alpha   109.47122063
_cell_angle_beta   109.47122063
_cell_angle_gamma   109.47122063
_symmetry_Int_Tables_number   1
_chemical_formula_structural   Zn11Rh2
_chemical_formula_sum   'Zn22 Rh4'
_cell_volume   378.25798686
_cell_formula_units_Z   2
loop_
 _symmetry_equiv_pos_site_id
 _symmetry_equiv_pos_as_xyz
  1  'x, y, z'
loop_
 _atom_site_type_symbol
 _atom_site_label
 _atom_site_symmetry_multiplicity
 _atom_site_fract_x
 _atom_site_fract_y
 _atom_site_fract_z
 _atom_site_occupancy
  Zn  Zn0  1  0.38308470  0.64906163  0.64906163  1.0
  Zn  Zn1  1  0.64906163  0.38308470  0.64906163  1.0
  Zn  Zn2  1  1.00000000  0.73402308  1.35093837  1.0
  Zn  Zn3  1  0.73402308  1.00000000  1.35093837  1.0
  Zn  Zn4  1  0.64906163  0.64906163  0.38308470  1.0
  Zn  Zn5  1  1.26597692  1.26597692  0.61691530  1.0
  Zn  Zn6  1  1.00000000  1.35093837  0.73402308  1.0
  Zn  Zn7  1  1.26597692  0.61691530  1.26597692  1.0
  Zn  Zn8  1  0.61691530  1.26597692  1.26597692  1.0
  Zn  Zn9  1  1.35093837  1.00000000  0.73402308  1.0
  Zn  Zn10  1  0.73402308  1.35093837  1.00000000  1.0
  Zn  Zn11  1  1.35093837  0.73402308  1.00000000  1.0
  Zn  Zn12  1  0.64385420  0.64385420  0.00000000  1.0
  Zn  Zn13  1  0.64385420  -0.00000000  0.64385420  1.0
  Zn  Zn14  1  -0.00000000  0.64385420  0.64385420  1.0
  Zn  Zn15  1  0.35614580  0.00000000  0.35614580  1.0
  Zn  Zn16  1  -0.00000000  0.35614580  0.35614580  1.0
  Zn  Zn17  1  0.35614580  0.35614580  0.00000000  1.0
  Zn  Zn18  1  0.78737958  0.78737958  0.78737958  1.0
  Zn  Zn19  1  1.00000000  1.00000000  0.21262042  1.0
  Zn  Zn20  1  1.00000000  0.21262042  1.00000000  1.0
  Zn  Zn21  1  0.21262042  1.00000000  1.00000000  1.0
  Rh  Rh22  1  0.34469023  0.34469023  0.34469023  1.0
  Rh  Rh23  1  1.00000000  1.00000000  0.65530977  1.0
  Rh  Rh24  1  1.00000000  0.65530977  1.00000000  1.0
  Rh  Rh25  1  0.65530977  1.00000000  1.00000000  1.0
