# generated using pymatgen
data_Ba4Li(BN2)3
_symmetry_space_group_name_H-M   'P 1'
_cell_length_a   6.83936088
_cell_length_b   6.83936088
_cell_length_c   6.83936088
_cell_angle_alpha   109.47122063
_cell_angle_beta   109.47122063
_cell_angle_gamma   109.47122063
_symmetry_Int_Tables_number   1
_chemical_formula_structural   Ba4Li(BN2)3
_chemical_formula_sum   'Ba4 Li1 B3 N6'
_cell_volume   246.27746153
_cell_formula_units_Z   1
loop_
 _symmetry_equiv_pos_site_id
 _symmetry_equiv_pos_as_xyz
  1  'x, y, z'
loop_
 _atom_site_type_symbol
 _atom_site_label
 _atom_site_symmetry_multiplicity
 _atom_site_fract_x
 _atom_site_fract_y
 _atom_site_fract_z
 _atom_site_occupancy
  Ba  Ba0  1  0.50000000  0.50000000  0.50000000  1.0
  Ba  Ba1  1  1.00000000  1.00000000  0.50000000  1.0
  Ba  Ba2  1  1.00000000  1.50000000  1.00000000  1.0
  Ba  Ba3  1  1.50000000  1.00000000  1.00000000  1.0
  Li  Li4  1  0.00000000  0.00000000  0.00000000  1.0
  B  B5  1  0.00000000  0.50000000  0.50000000  1.0
  B  B6  1  0.50000000  0.00000000  0.50000000  1.0
  B  B7  1  0.50000000  0.50000000  -0.00000000  1.0
  N  N8  1  0.00000000  0.67168053  0.67168053  1.0
  N  N9  1  0.67168053  0.00000000  0.67168053  1.0
  N  N10  1  0.67168053  0.67168053  -0.00000000  1.0
  N  N11  1  0.32831947  0.32831947  -0.00000000  1.0
  N  N12  1  0.32831947  0.00000000  0.32831947  1.0
  N  N13  1  0.00000000  0.32831947  0.32831947  1.0
