# generated using pymatgen
data_EuSe2
_symmetry_space_group_name_H-M   'P 1'
_cell_length_a   5.90664818
_cell_length_b   5.90664818
_cell_length_c   5.90664818
_cell_angle_alpha   114.89437992
_cell_angle_beta   114.89437992
_cell_angle_gamma   99.09699727
_symmetry_Int_Tables_number   1
_chemical_formula_structural   EuSe2
_chemical_formula_sum   'Eu2 Se4'
_cell_volume   154.84078636
_cell_formula_units_Z   2
loop_
 _symmetry_equiv_pos_site_id
 _symmetry_equiv_pos_as_xyz
  1  'x, y, z'
loop_
 _atom_site_type_symbol
 _atom_site_label
 _atom_site_symmetry_multiplicity
 _atom_site_fract_x
 _atom_site_fract_y
 _atom_site_fract_z
 _atom_site_occupancy
  Eu  Eu0  1  0.25000000  0.25000000  0.00000000  1.0
  Eu  Eu1  1  0.75000000  0.75000000  0.00000000  1.0
  Se  Se2  1  0.86011401  0.36011401  1.22022803  1.0
  Se  Se3  1  0.63988599  0.86011401  0.50000000  1.0
  Se  Se4  1  0.36011401  0.13988599  0.50000000  1.0
  Se  Se5  1  1.13988599  0.63988599  0.77977197  1.0
