# generated using pymatgen
data_Ca2Ta3CuClO10
_symmetry_space_group_name_H-M   'P 1'
_cell_length_a   3.93102940
_cell_length_b   3.93102940
_cell_length_c   15.73216396
_cell_angle_alpha   90.00000000
_cell_angle_beta   90.00000000
_cell_angle_gamma   90.00000000
_symmetry_Int_Tables_number   1
_chemical_formula_structural   Ca2Ta3CuClO10
_chemical_formula_sum   'Ca2 Ta3 Cu1 Cl1 O10'
_cell_volume   243.10900628
_cell_formula_units_Z   1
loop_
 _symmetry_equiv_pos_site_id
 _symmetry_equiv_pos_as_xyz
  1  'x, y, z'
loop_
 _atom_site_type_symbol
 _atom_site_label
 _atom_site_symmetry_multiplicity
 _atom_site_fract_x
 _atom_site_fract_y
 _atom_site_fract_z
 _atom_site_occupancy
  Ca  Ca0  1  0.50000000  0.50000000  0.85419694  1.0
  Ca  Ca1  1  0.50000000  0.50000000  0.14580306  1.0
  Ta  Ta2  1  0.00000000  0.00000000  0.00000000  1.0
  Ta  Ta3  1  0.00000000  0.00000000  0.73078186  1.0
  Ta  Ta4  1  0.00000000  0.00000000  0.26921814  1.0
  Cu  Cu5  1  0.00000000  0.00000000  0.50000000  1.0
  Cl  Cl6  1  0.50000000  0.50000000  0.50000000  1.0
  O  O7  1  0.00000000  0.50000000  0.75758939  1.0
  O  O8  1  0.00000000  0.50000000  0.24241061  1.0
  O  O9  1  0.50000000  0.00000000  0.75758939  1.0
  O  O10  1  0.50000000  0.00000000  0.24241061  1.0
  O  O11  1  0.00000000  0.00000000  0.87495588  1.0
  O  O12  1  0.00000000  0.00000000  0.12504412  1.0
  O  O13  1  0.00000000  0.00000000  0.61662458  1.0
  O  O14  1  0.00000000  0.00000000  0.38337542  1.0
  O  O15  1  0.00000000  0.50000000  0.00000000  1.0
  O  O16  1  0.50000000  0.00000000  0.00000000  1.0
