# generated using pymatgen
data_Ba2GdGaTe5
_symmetry_space_group_name_H-M   'P 1'
_cell_length_a   10.19495918
_cell_length_b   9.32978347
_cell_length_c   7.90268371
_cell_angle_alpha   107.33114905
_cell_angle_beta   103.08109773
_cell_angle_gamma   103.31788848
_symmetry_Int_Tables_number   1
_chemical_formula_structural   Ba2GdGaTe5
_chemical_formula_sum   'Ba4 Gd2 Ga2 Te10'
_cell_volume   662.12063909
_cell_formula_units_Z   2
loop_
 _symmetry_equiv_pos_site_id
 _symmetry_equiv_pos_as_xyz
  1  'x, y, z'
loop_
 _atom_site_type_symbol
 _atom_site_label
 _atom_site_symmetry_multiplicity
 _atom_site_fract_x
 _atom_site_fract_y
 _atom_site_fract_z
 _atom_site_occupancy
  Ba  Ba0  1  -0.29322172  -0.98181388  -0.63977384  1.0
  Ba  Ba1  1  -0.70677828  -0.01818612  -0.36022616  1.0
  Ba  Ba2  1  -0.71400551  -0.51639377  -0.35980313  1.0
  Ba  Ba3  1  -0.28599449  -0.48360623  -0.64019687  1.0
  Gd  Gd4  1  -0.99862710  -0.73408982  -0.99896826  1.0
  Gd  Gd5  1  -0.00137290  -0.26591018  -0.00103174  1.0
  Ga  Ga6  1  -0.68786968  -0.87411648  -0.81055153  1.0
  Ga  Ga7  1  -0.31213032  -0.12588352  -0.18944847  1.0
  Te  Te8  1  -0.68043305  -0.67387224  -0.98832391  1.0
  Te  Te9  1  -0.31956695  -0.32612776  -0.01167609  1.0
  Te  Te10  1  -0.68335611  -0.16159812  -0.98911423  1.0
  Te  Te11  1  -0.31664389  -0.83840188  -0.01088577  1.0
  Te  Te12  1  -0.92946539  -0.90962354  -0.70798478  1.0
  Te  Te13  1  -0.07053461  -0.09037646  -0.29201522  1.0
  Te  Te14  1  -0.94245335  -0.40775903  -0.69768593  1.0
  Te  Te15  1  -0.05754665  -0.59224097  -0.30231407  1.0
  Te  Te16  1  -0.49109568  -0.74132980  -0.48513627  1.0
  Te  Te17  1  -0.50890432  -0.25867020  -0.51486373  1.0
