# generated using pymatgen
data_AlH10C3N
_symmetry_space_group_name_H-M   'P 1'
_cell_length_a   7.96447662
_cell_length_b   7.96447662
_cell_length_c   10.52534453
_cell_angle_alpha   75.68259584
_cell_angle_beta   104.31740416
_cell_angle_gamma   82.27989004
_symmetry_Int_Tables_number   1
_chemical_formula_structural   AlH10C3N
_chemical_formula_sum   'Al4 H40 C12 N4'
_cell_volume   613.08443296
_cell_formula_units_Z   4
loop_
 _symmetry_equiv_pos_site_id
 _symmetry_equiv_pos_as_xyz
  1  'x, y, z'
loop_
 _atom_site_type_symbol
 _atom_site_label
 _atom_site_symmetry_multiplicity
 _atom_site_fract_x
 _atom_site_fract_y
 _atom_site_fract_z
 _atom_site_occupancy
  Al  Al0  1  0.97462789  -0.08259665  0.12832411  1.0
  Al  Al1  1  0.91740335  -0.02537211  0.37167589  1.0
  Al  Al2  1  1.02537211  0.08259665  0.87167589  1.0
  Al  Al3  1  1.08259665  0.02537211  0.62832411  1.0
  H  H4  1  0.14594975  -0.04974717  0.06858357  1.0
  H  H5  1  0.95025283  -0.85405025  0.43141643  1.0
  H  H6  1  1.85405025  0.04974717  0.93141643  1.0
  H  H7  1  1.04974717  0.85405025  0.56858357  1.0
  H  H8  1  0.87745927  -0.24188905  0.10807810  1.0
  H  H9  1  0.75811095  -0.12254073  0.39192190  1.0
  H  H10  1  1.12254073  0.24188905  0.89192190  1.0
  H  H11  1  1.24188905  0.12254073  0.60807810  1.0
  H  H12  1  0.34178664  -0.14667133  0.47672257  1.0
  H  H13  1  0.85332867  -0.65821336  0.02327743  1.0
  H  H14  1  1.65821336  0.14667133  0.52327743  1.0
  H  H15  1  1.14667133  0.65821336  0.97672257  1.0
  H  H16  1  0.37244202  -0.15362074  0.31567075  1.0
  H  H17  1  0.84637926  -0.62755798  0.18432925  1.0
  H  H18  1  1.62755798  0.15362074  0.68432925  1.0
  H  H19  1  1.15362074  0.62755798  0.81567075  1.0
  H  H20  1  1.25439104  0.04177304  0.33051622  1.0
  H  H21  1  1.04177304  0.25439104  0.16948378  1.0
  H  H22  1  0.74560896  -0.04177304  0.66948378  1.0
  H  H23  1  0.95822696  -0.25439104  0.83051622  1.0
  H  H24  1  1.00669056  0.60576651  0.37592658  1.0
  H  H25  1  1.60576651  0.00669056  0.12407342  1.0
  H  H26  1  0.99330944  -0.60576651  0.62407342  1.0
  H  H27  1  0.39423349  -0.00669056  0.87592658  1.0
  H  H28  1  1.19107483  0.61231273  0.50768972  1.0
  H  H29  1  1.61231273  0.19107483  -0.00768972  1.0
  H  H30  1  0.80892517  -0.61231273  0.49231028  1.0
  H  H31  1  0.38768727  -0.19107483  1.00768972  1.0
  H  H32  1  1.20538090  0.54684437  0.23311768  1.0
  H  H33  1  1.54684437  0.20538090  0.26688232  1.0
  H  H34  1  0.79461910  -0.54684437  0.76688232  1.0
  H  H35  1  0.45315563  -0.20538090  0.73311768  1.0
  H  H36  1  1.39332110  0.55126986  0.36459113  1.0
  H  H37  1  1.55126986  0.39332110  0.13540887  1.0
  H  H38  1  0.60667890  -0.55126986  0.63540887  1.0
  H  H39  1  0.44873014  -0.39332110  0.86459113  1.0
  H  H40  1  1.26837420  0.38567723  0.39655141  1.0
  H  H41  1  1.38567723  0.26837420  0.10344859  1.0
  H  H42  1  0.73162580  -0.38567723  0.60344859  1.0
  H  H43  1  0.61432277  -0.26837420  0.89655141  1.0
  C  C44  1  0.27809549  -0.10352321  0.36505253  1.0
  C  C45  1  0.89647679  -0.72190451  0.13494747  1.0
  C  C46  1  1.72190451  0.10352321  0.63494747  1.0
  C  C47  1  1.10352321  0.72190451  0.86505253  1.0
  C  C48  1  1.13753614  0.64113677  0.39546333  1.0
  C  C49  1  1.64113677  0.13753614  0.10453667  1.0
  C  C50  1  0.86246386  -0.64113677  0.60453667  1.0
  C  C51  1  0.35886323  -0.13753614  0.89546333  1.0
  C  C52  1  1.25852559  0.52583501  0.34395964  1.0
  C  C53  1  1.52583501  0.25852559  0.15604036  1.0
  C  C54  1  0.74147441  -0.52583501  0.65604036  1.0
  C  C55  1  0.47416499  -0.25852559  0.84395964  1.0
  N  N56  1  1.83534985  0.10940747  0.16881978  1.0
  N  N57  1  1.10940747  0.83534985  0.33118022  1.0
  N  N58  1  0.16465015  -0.10940747  0.83118022  1.0
  N  N59  1  0.89059253  -0.83534985  0.66881978  1.0
