# generated using pymatgen
data_La3RuI3
_symmetry_space_group_name_H-M   'P 1'
_cell_length_a   9.60953549
_cell_length_b   4.40309734
_cell_length_c   12.64907908
_cell_angle_alpha   90.00000000
_cell_angle_beta   93.02717208
_cell_angle_gamma   90.00000000
_symmetry_Int_Tables_number   1
_chemical_formula_structural   La3RuI3
_chemical_formula_sum   'La6 Ru2 I6'
_cell_volume   534.45747079
_cell_formula_units_Z   2
loop_
 _symmetry_equiv_pos_site_id
 _symmetry_equiv_pos_as_xyz
  1  'x, y, z'
loop_
 _atom_site_type_symbol
 _atom_site_label
 _atom_site_symmetry_multiplicity
 _atom_site_fract_x
 _atom_site_fract_y
 _atom_site_fract_z
 _atom_site_occupancy
  La  La0  1  0.90460103  0.25000000  0.60363368  1.0
  La  La1  1  0.09539897  0.75000000  0.39636632  1.0
  La  La2  1  0.88455797  0.25000000  0.17055034  1.0
  La  La3  1  0.11544203  0.75000000  0.82944966  1.0
  La  La4  1  0.31419344  0.25000000  0.61965027  1.0
  La  La5  1  0.68580656  0.75000000  0.38034973  1.0
  Ru  Ru6  1  0.88645873  0.25000000  0.37183411  1.0
  Ru  Ru7  1  0.11354127  0.75000000  0.62816589  1.0
  I  I8  1  0.86859662  0.25000000  0.88009209  1.0
  I  I9  1  0.13140338  0.75000000  0.11990791  1.0
  I  I10  1  0.39409580  0.25000000  0.36518598  1.0
  I  I11  1  0.60590420  0.75000000  0.63481402  1.0
  I  I12  1  0.36521093  0.25000000  0.87847726  1.0
  I  I13  1  0.63478907  0.75000000  0.12152274  1.0
