# generated using pymatgen
data_La3(B3Ru4)2
_symmetry_space_group_name_H-M   'P 1'
_cell_length_a   10.06629103
_cell_length_b   9.21499280
_cell_length_c   5.65417084
_cell_angle_alpha   81.41501268
_cell_angle_beta   64.84671161
_cell_angle_gamma   33.73827571
_symmetry_Int_Tables_number   1
_chemical_formula_structural   La3(B3Ru4)2
_chemical_formula_sum   'La3 B6 Ru8'
_cell_volume   240.95021031
_cell_formula_units_Z   1
loop_
 _symmetry_equiv_pos_site_id
 _symmetry_equiv_pos_as_xyz
  1  'x, y, z'
loop_
 _atom_site_type_symbol
 _atom_site_label
 _atom_site_symmetry_multiplicity
 _atom_site_fract_x
 _atom_site_fract_y
 _atom_site_fract_z
 _atom_site_occupancy
  B  B0  1  1.50709076  -0.16517217  0.16517217  1.0
  B  B1  1  1.16517217  0.49290924  0.50709076  1.0
  B  B2  1  0.83482783  0.50709076  0.49290924  1.0
  B  B3  1  1.49290924  0.16517217  -0.16517217  1.0
  B  B4  1  0.66956336  -0.66956336  0.66956336  1.0
  B  B5  1  0.33043664  -0.33043664  1.33043664  1.0
  La  La6  1  0.81782249  0.81782249  -0.81782249  1.0
  La  La7  1  0.18217751  1.18217751  -0.18217751  1.0
  La  La8  1  0.00000000  0.00000000  0.00000000  1.0
  Ru  Ru9  1  0.91412243  0.91412243  0.58587757  1.0
  Ru  Ru10  1  1.08587757  0.08587757  0.41412243  1.0
  Ru  Ru11  1  1.41412243  0.41412243  0.08587757  1.0
  Ru  Ru12  1  0.58587757  0.58587757  0.91412243  1.0
  Ru  Ru13  1  0.75000000  0.75000000  0.75000000  1.0
  Ru  Ru14  1  1.25000000  0.25000000  0.25000000  1.0
  Ru  Ru15  1  0.58650533  0.58650533  -0.58650533  1.0
  Ru  Ru16  1  0.41349467  1.41349467  -0.41349467  1.0
