# generated using pymatgen
data_HfCo7
_symmetry_space_group_name_H-M   'P 1'
_cell_length_a   3.56944055
_cell_length_b   7.31802213
_cell_length_c   7.33632727
_cell_angle_alpha   90.00000000
_cell_angle_beta   90.00000000
_cell_angle_gamma   90.00000000
_symmetry_Int_Tables_number   1
_chemical_formula_structural   HfCo7
_chemical_formula_sum   'Hf2 Co14'
_cell_volume   191.63400188
_cell_formula_units_Z   2
loop_
 _symmetry_equiv_pos_site_id
 _symmetry_equiv_pos_as_xyz
  1  'x, y, z'
loop_
 _atom_site_type_symbol
 _atom_site_label
 _atom_site_symmetry_multiplicity
 _atom_site_fract_x
 _atom_site_fract_y
 _atom_site_fract_z
 _atom_site_occupancy
  Hf  Hf0  1  0.50000000  0.50000000  0.00000000  1.0
  Hf  Hf1  1  0.50000000  0.00000000  0.50000000  1.0
  Co  Co2  1  0.50000000  0.00000000  0.00000000  1.0
  Co  Co3  1  0.00000000  0.23131185  -0.00000000  1.0
  Co  Co4  1  0.00000000  0.76868815  -0.00000000  1.0
  Co  Co5  1  0.00000000  0.00000000  0.23130183  1.0
  Co  Co6  1  0.00000000  0.00000000  0.76869817  1.0
  Co  Co7  1  0.00000000  0.50000000  0.26869810  1.0
  Co  Co8  1  0.00000000  0.50000000  0.73130190  1.0
  Co  Co9  1  0.50000000  0.24999981  0.24999983  1.0
  Co  Co10  1  0.50000000  0.75000019  0.24999983  1.0
  Co  Co11  1  0.50000000  0.24999981  0.75000017  1.0
  Co  Co12  1  0.50000000  0.75000019  0.75000017  1.0
  Co  Co13  1  0.50000000  0.50000000  0.50000000  1.0
  Co  Co14  1  0.00000000  0.26868754  0.50000000  1.0
  Co  Co15  1  0.00000000  0.73131246  0.50000000  1.0
