# generated using pymatgen
data_Hf2As
_symmetry_space_group_name_H-M   'P 1'
_cell_length_a   12.51543787
_cell_length_b   15.45493344
_cell_length_c   3.68149371
_cell_angle_alpha   90.00000000
_cell_angle_beta   90.00000000
_cell_angle_gamma   90.00000000
_symmetry_Int_Tables_number   1
_chemical_formula_structural   Hf2As
_chemical_formula_sum   'Hf24 As12'
_cell_volume   712.09387570
_cell_formula_units_Z   12
loop_
 _symmetry_equiv_pos_site_id
 _symmetry_equiv_pos_as_xyz
  1  'x, y, z'
loop_
 _atom_site_type_symbol
 _atom_site_label
 _atom_site_symmetry_multiplicity
 _atom_site_fract_x
 _atom_site_fract_y
 _atom_site_fract_z
 _atom_site_occupancy
  Hf  Hf0  1  0.47401671  0.60505020  0.50000000  1.0
  Hf  Hf1  1  0.97401671  0.89494980  -0.00000000  1.0
  Hf  Hf2  1  0.52598329  0.39494980  0.50000000  1.0
  Hf  Hf3  1  0.02598329  0.10505020  -0.00000000  1.0
  Hf  Hf4  1  0.41628746  0.07452569  0.50000000  1.0
  Hf  Hf5  1  0.91628746  0.42547431  0.00000000  1.0
  Hf  Hf6  1  0.58371254  0.92547431  0.50000000  1.0
  Hf  Hf7  1  0.08371254  0.57452569  0.00000000  1.0
  Hf  Hf8  1  0.15270555  0.97710850  0.50000000  1.0
  Hf  Hf9  1  0.65270555  0.52289150  0.00000000  1.0
  Hf  Hf10  1  0.84729445  0.02289150  0.50000000  1.0
  Hf  Hf11  1  0.34729445  0.47710850  0.00000000  1.0
  Hf  Hf12  1  0.09769482  0.74271736  0.50000000  1.0
  Hf  Hf13  1  0.59769482  0.75728264  -0.00000000  1.0
  Hf  Hf14  1  0.90230518  0.25728264  0.50000000  1.0
  Hf  Hf15  1  0.40230518  0.24271736  -0.00000000  1.0
  Hf  Hf16  1  0.88541784  0.58106841  0.50000000  1.0
  Hf  Hf17  1  0.38541784  0.91893159  0.00000000  1.0
  Hf  Hf18  1  0.11458216  0.41893159  0.50000000  1.0
  Hf  Hf19  1  0.61458216  0.08106841  0.00000000  1.0
  Hf  Hf20  1  0.81160490  0.79433026  0.50000000  1.0
  Hf  Hf21  1  0.31160490  0.70566974  0.00000000  1.0
  Hf  Hf22  1  0.18839510  0.20566974  0.50000000  1.0
  Hf  Hf23  1  0.68839510  0.29433026  0.00000000  1.0
  As  As24  1  0.43926399  0.78778475  0.50000000  1.0
  As  As25  1  0.93926399  0.71221525  0.00000000  1.0
  As  As26  1  0.56073601  0.21221525  0.50000000  1.0
  As  As27  1  0.06073601  0.28778475  0.00000000  1.0
  As  As28  1  0.24416278  0.58608276  0.50000000  1.0
  As  As29  1  0.74416278  0.91391724  0.00000000  1.0
  As  As30  1  0.75583722  0.41391724  0.50000000  1.0
  As  As31  1  0.25583722  0.08608276  0.00000000  1.0
  As  As32  1  0.68930107  0.65088148  0.50000000  1.0
  As  As33  1  0.18930107  0.84911852  0.00000000  1.0
  As  As34  1  0.31069893  0.34911852  0.50000000  1.0
  As  As35  1  0.81069893  0.15088148  0.00000000  1.0
