# generated using pymatgen
data_MnCrF5
_symmetry_space_group_name_H-M   'P 1'
_cell_length_a   5.38567245
_cell_length_b   5.38567245
_cell_length_c   7.46572600
_cell_angle_alpha   69.65784662
_cell_angle_beta   110.34215338
_cell_angle_gamma   107.18533468
_symmetry_Int_Tables_number   1
_chemical_formula_structural   MnCrF5
_chemical_formula_sum   'Mn2 Cr2 F10'
_cell_volume   186.58550541
_cell_formula_units_Z   2
loop_
 _symmetry_equiv_pos_site_id
 _symmetry_equiv_pos_as_xyz
  1  'x, y, z'
loop_
 _atom_site_type_symbol
 _atom_site_label
 _atom_site_symmetry_multiplicity
 _atom_site_fract_x
 _atom_site_fract_y
 _atom_site_fract_z
 _atom_site_occupancy
  Cr  Cr0  1  -0.00000000  0.00000000  0.50000000  1.0
  Cr  Cr1  1  0.00000000  0.00000000  0.00000000  1.0
  F  F2  1  0.90829517  0.90829517  0.25000000  1.0
  F  F3  1  0.09170483  0.09170483  0.75000000  1.0
  F  F4  1  0.72625841  0.21422004  0.87168985  1.0
  F  F5  1  0.78577996  0.27374159  0.37168985  1.0
  F  F6  1  1.21422004  -0.27374159  0.62831015  1.0
  F  F7  1  1.27374159  -0.21422004  0.12831015  1.0
  F  F8  1  0.31322558  0.28186682  0.46396283  1.0
  F  F9  1  0.71813318  0.68677442  0.96396283  1.0
  F  F10  1  1.28186682  -0.68677442  0.03603717  1.0
  F  F11  1  1.68677442  -0.28186682  0.53603717  1.0
  Mn  Mn12  1  0.52962952  0.52962952  0.25000000  1.0
  Mn  Mn13  1  0.47037048  0.47037048  0.75000000  1.0
