# generated using pymatgen
data_LuAl4Ni
_symmetry_space_group_name_H-M   'P 1'
_cell_length_a   7.84612032
_cell_length_b   7.84612032
_cell_length_c   6.62859456
_cell_angle_alpha   90.00000000
_cell_angle_beta   90.00000000
_cell_angle_gamma   150.25569549
_symmetry_Int_Tables_number   1
_chemical_formula_structural   LuAl4Ni
_chemical_formula_sum   'Lu2 Al8 Ni2'
_cell_volume   202.45431878
_cell_formula_units_Z   2
loop_
 _symmetry_equiv_pos_site_id
 _symmetry_equiv_pos_as_xyz
  1  'x, y, z'
loop_
 _atom_site_type_symbol
 _atom_site_label
 _atom_site_symmetry_multiplicity
 _atom_site_fract_x
 _atom_site_fract_y
 _atom_site_fract_z
 _atom_site_occupancy
  Lu  Lu0  1  -0.62035249  0.62035249  0.25000000  1.0
  Lu  Lu1  1  -0.37964751  1.37964751  0.75000000  1.0
  Al  Al2  1  -0.81308206  0.81308206  0.44739158  1.0
  Al  Al3  1  -0.81308206  0.81308206  0.05260842  1.0
  Al  Al4  1  -0.18691794  1.18691794  0.94739158  1.0
  Al  Al5  1  -0.18691794  1.18691794  0.55260842  1.0
  Al  Al6  1  -0.42608155  1.42608155  0.25000000  1.0
  Al  Al7  1  -0.57391845  0.57391845  0.75000000  1.0
  Al  Al8  1  0.00000000  0.00000000  0.50000000  1.0
  Al  Al9  1  0.00000000  0.00000000  0.00000000  1.0
  Ni  Ni10  1  -0.27252609  1.27252609  0.25000000  1.0
  Ni  Ni11  1  -0.72747391  0.72747391  0.75000000  1.0
