# generated using pymatgen
data_HC2N3
_symmetry_space_group_name_H-M   'P 1'
_cell_length_a   4.45017672
_cell_length_b   4.45017672
_cell_length_c   4.05075235
_cell_angle_alpha   90.00000000
_cell_angle_beta   90.00000000
_cell_angle_gamma   60.91556191
_symmetry_Int_Tables_number   1
_chemical_formula_structural   HC2N3
_chemical_formula_sum   'H2 C4 N6'
_cell_volume   70.10582027
_cell_formula_units_Z   2
loop_
 _symmetry_equiv_pos_site_id
 _symmetry_equiv_pos_as_xyz
  1  'x, y, z'
loop_
 _atom_site_type_symbol
 _atom_site_label
 _atom_site_symmetry_multiplicity
 _atom_site_fract_x
 _atom_site_fract_y
 _atom_site_fract_z
 _atom_site_occupancy
  H  H0  1  -0.39047667  1.39047667  0.27731308  1.0
  H  H1  1  0.39047667  0.60952333  0.77731308  1.0
  C  C2  1  -0.01144536  1.66918909  0.07468176  1.0
  C  C3  1  0.66918909  0.98855464  0.57468176  1.0
  C  C4  1  -0.66918909  1.01144536  0.07468176  1.0
  C  C5  1  0.01144536  0.33081091  0.57468176  1.0
  N  N6  1  -0.06461747  1.66634517  0.43211055  1.0
  N  N7  1  0.66634517  0.93538253  0.93211055  1.0
  N  N8  1  -0.66634517  1.06461747  0.43211055  1.0
  N  N9  1  0.06461747  0.33365483  0.93211055  1.0
  N  N10  1  0.28103018  0.71896982  0.00110231  1.0
  N  N11  1  -0.28103018  1.28103018  0.50110231  1.0
