# generated using pymatgen
data_CBrF2
_symmetry_space_group_name_H-M   'P 1'
_cell_length_a   6.90983840
_cell_length_b   6.69359776
_cell_length_c   9.62803492
_cell_angle_alpha   90.00000000
_cell_angle_beta   119.20698203
_cell_angle_gamma   90.00000000
_symmetry_Int_Tables_number   1
_chemical_formula_structural   CBrF2
_chemical_formula_sum   'C4 Br4 F8'
_cell_volume   388.69687901
_cell_formula_units_Z   4
loop_
 _symmetry_equiv_pos_site_id
 _symmetry_equiv_pos_as_xyz
  1  'x, y, z'
loop_
 _atom_site_type_symbol
 _atom_site_label
 _atom_site_symmetry_multiplicity
 _atom_site_fract_x
 _atom_site_fract_y
 _atom_site_fract_z
 _atom_site_occupancy
  C  C0  1  0.96959068  0.40880483  0.03621777  1.0
  C  C1  1  0.96959068  0.09119517  0.53621777  1.0
  C  C2  1  0.03040932  0.90880483  0.46378223  1.0
  C  C3  1  0.03040932  0.59119517  0.96378223  1.0
  Br  Br4  1  0.67597304  0.19472234  0.38552943  1.0
  Br  Br5  1  0.67597304  0.30527766  0.88552943  1.0
  Br  Br6  1  0.32402696  0.69472234  0.11447057  1.0
  Br  Br7  1  0.32402696  0.80527766  0.61447057  1.0
  F  F8  1  0.97138542  0.46521735  0.17193262  1.0
  F  F9  1  0.97138542  0.03478265  0.67193262  1.0
  F  F10  1  0.02861458  0.96521735  0.32806738  1.0
  F  F11  1  0.02861458  0.53478265  0.82806738  1.0
  F  F12  1  0.87765103  0.76219513  0.42804348  1.0
  F  F13  1  0.87765103  0.73780487  0.92804348  1.0
  F  F14  1  0.12234897  0.26219513  0.07195652  1.0
  F  F15  1  0.12234897  0.23780487  0.57195652  1.0
