# generated using pymatgen
data_Ca5Pt3
_symmetry_space_group_name_H-M   'P 1'
_cell_length_a   8.65361703
_cell_length_b   8.65361703
_cell_length_c   8.65361703
_cell_angle_alpha   96.89077367
_cell_angle_beta   96.89077367
_cell_angle_gamma   139.46825796
_symmetry_Int_Tables_number   1
_chemical_formula_structural   Ca5Pt3
_chemical_formula_sum   'Ca10 Pt6'
_cell_volume   395.06267178
_cell_formula_units_Z   2
loop_
 _symmetry_equiv_pos_site_id
 _symmetry_equiv_pos_as_xyz
  1  'x, y, z'
loop_
 _atom_site_type_symbol
 _atom_site_label
 _atom_site_symmetry_multiplicity
 _atom_site_fract_x
 _atom_site_fract_y
 _atom_site_fract_z
 _atom_site_occupancy
  Ca  Ca0  1  0.28907468  0.41731601  0.70639069  1.0
  Ca  Ca1  1  1.21092532  0.91731601  1.12824133  1.0
  Ca  Ca2  1  0.91731601  0.78907468  1.70639069  1.0
  Ca  Ca3  1  0.58268399  1.28907468  0.87175867  1.0
  Ca  Ca4  1  0.78907468  1.08268399  0.87175867  1.0
  Ca  Ca5  1  0.71092532  0.58268399  1.29360931  1.0
  Ca  Ca6  1  1.41731601  0.71092532  1.12824133  1.0
  Ca  Ca7  1  0.08268399  0.21092532  0.29360931  1.0
  Ca  Ca8  1  0.75000000  1.25000000  0.50000000  1.0
  Ca  Ca9  1  0.25000000  0.75000000  0.50000000  1.0
  Pt  Pt10  1  0.84443273  0.34443273  1.18886545  1.0
  Pt  Pt11  1  0.65556727  0.84443273  0.50000000  1.0
  Pt  Pt12  1  1.34443273  1.15556727  1.50000000  1.0
  Pt  Pt13  1  0.15556727  0.65556727  0.81113455  1.0
  Pt  Pt14  1  0.25000000  0.25000000  0.00000000  1.0
  Pt  Pt15  1  0.75000000  0.75000000  0.00000000  1.0
