# generated using pymatgen
data_BMo
_symmetry_space_group_name_H-M   'P 1'
_cell_length_a   8.78852657
_cell_length_b   8.78852657
_cell_length_c   8.78852657
_cell_angle_alpha   159.53175268
_cell_angle_beta   159.53175268
_cell_angle_gamma   29.10470860
_symmetry_Int_Tables_number   1
_chemical_formula_structural   BMo
_chemical_formula_sum   'B4 Mo4'
_cell_volume   82.96203781
_cell_formula_units_Z   4
loop_
 _symmetry_equiv_pos_site_id
 _symmetry_equiv_pos_as_xyz
  1  'x, y, z'
loop_
 _atom_site_type_symbol
 _atom_site_label
 _atom_site_symmetry_multiplicity
 _atom_site_fract_x
 _atom_site_fract_y
 _atom_site_fract_z
 _atom_site_occupancy
  B  B0  1  1.34480181  1.34480181  1.00000000  1.0
  B  B1  1  0.09480181  0.59480181  0.50000000  1.0
  B  B2  1  1.40519819  0.90519819  0.50000000  1.0
  B  B3  1  0.65519819  0.65519819  -0.00000000  1.0
  Mo  Mo4  1  1.19686007  1.19686007  1.00000000  1.0
  Mo  Mo5  1  0.94686007  1.44686007  0.50000000  1.0
  Mo  Mo6  1  0.55313993  0.05313993  0.50000000  1.0
  Mo  Mo7  1  0.80313993  0.80313993  -0.00000000  1.0
