# generated using pymatgen
data_Ca3NbAl3(SiO7)2
_symmetry_space_group_name_H-M   'P 1'
_cell_length_a   8.09568414
_cell_length_b   8.09568414
_cell_length_c   4.95531857
_cell_angle_alpha   90.00000000
_cell_angle_beta   90.00000000
_cell_angle_gamma   120.00000000
_symmetry_Int_Tables_number   1
_chemical_formula_structural   Ca3NbAl3(SiO7)2
_chemical_formula_sum   'Ca3 Nb1 Al3 Si2 O14'
_cell_volume   281.26087458
_cell_formula_units_Z   1
loop_
 _symmetry_equiv_pos_site_id
 _symmetry_equiv_pos_as_xyz
  1  'x, y, z'
loop_
 _atom_site_type_symbol
 _atom_site_label
 _atom_site_symmetry_multiplicity
 _atom_site_fract_x
 _atom_site_fract_y
 _atom_site_fract_z
 _atom_site_occupancy
  Ca  Ca0  1  0.42175326  0.42175326  0.00000000  1.0
  Ca  Ca1  1  -0.00000000  0.57824674  0.00000000  1.0
  Ca  Ca2  1  0.57824674  0.00000000  0.00000000  1.0
  Nb  Nb3  1  0.00000000  0.00000000  0.00000000  1.0
  Al  Al4  1  0.74298406  0.74298406  0.50000000  1.0
  Al  Al5  1  -0.00000000  0.25701594  0.50000000  1.0
  Al  Al6  1  0.25701594  0.00000000  0.50000000  1.0
  Si  Si7  1  0.33333333  0.66666667  0.54392300  1.0
  Si  Si8  1  0.66666667  0.33333333  0.45607700  1.0
  O  O9  1  0.09073347  0.86424467  0.24120280  1.0
  O  O10  1  0.86424467  0.09073347  0.75879720  1.0
  O  O11  1  0.77351120  0.90926653  0.24120280  1.0
  O  O12  1  0.13575533  0.22648880  0.24120280  1.0
  O  O13  1  0.90926653  0.77351120  0.75879720  1.0
  O  O14  1  0.22648880  0.13575533  0.75879720  1.0
  O  O15  1  0.68162054  0.52759013  0.31909295  1.0
  O  O16  1  0.52759013  0.68162054  0.68090705  1.0
  O  O17  1  0.84596959  0.31837946  0.31909295  1.0
  O  O18  1  0.47240987  0.15403041  0.31909295  1.0
  O  O19  1  0.31837946  0.84596959  0.68090705  1.0
  O  O20  1  0.15403041  0.47240987  0.68090705  1.0
  O  O21  1  0.33333333  0.66666667  0.21844747  1.0
  O  O22  1  0.66666667  0.33333333  0.78155253  1.0
