# generated using pymatgen
data_La2InSi2
_symmetry_space_group_name_H-M   'P 1'
_cell_length_a   7.71336645
_cell_length_b   15.02517823
_cell_length_c   4.42164403
_cell_angle_alpha   90.00000000
_cell_angle_beta   90.00000000
_cell_angle_gamma   90.00000000
_symmetry_Int_Tables_number   1
_chemical_formula_structural   La2InSi2
_chemical_formula_sum   'La8 In4 Si8'
_cell_volume   512.44513317
_cell_formula_units_Z   4
loop_
 _symmetry_equiv_pos_site_id
 _symmetry_equiv_pos_as_xyz
  1  'x, y, z'
loop_
 _atom_site_type_symbol
 _atom_site_label
 _atom_site_symmetry_multiplicity
 _atom_site_fract_x
 _atom_site_fract_y
 _atom_site_fract_z
 _atom_site_occupancy
  La  La0  1  0.38728901  0.71719617  0.50000000  1.0
  La  La1  1  0.88728901  0.78280383  0.50000000  1.0
  La  La2  1  0.61271099  0.28280383  0.50000000  1.0
  La  La3  1  0.11271099  0.21719617  0.50000000  1.0
  La  La4  1  0.24733956  0.96475007  0.50000000  1.0
  La  La5  1  0.74733956  0.53524993  0.50000000  1.0
  La  La6  1  0.75266044  0.03524993  0.50000000  1.0
  La  La7  1  0.25266044  0.46475007  0.50000000  1.0
  In  In8  1  0.06460126  0.62345697  0.00000000  1.0
  In  In9  1  0.56460126  0.87654303  0.00000000  1.0
  In  In10  1  0.93539874  0.37654303  0.00000000  1.0
  In  In11  1  0.43539874  0.12345697  0.00000000  1.0
  Si  Si12  1  0.44891468  0.57537369  0.00000000  1.0
  Si  Si13  1  0.94891468  0.92462631  0.00000000  1.0
  Si  Si14  1  0.55108532  0.42462631  0.00000000  1.0
  Si  Si15  1  0.05108532  0.07537369  0.00000000  1.0
  Si  Si16  1  0.17626461  0.81585571  0.00000000  1.0
  Si  Si17  1  0.67626461  0.68414429  0.00000000  1.0
  Si  Si18  1  0.82373539  0.18414429  0.00000000  1.0
  Si  Si19  1  0.32373539  0.31585571  0.00000000  1.0
