# generated using pymatgen
data_BaTi4(PO4)6
_symmetry_space_group_name_H-M   'P 1'
_cell_length_a   9.19226822
_cell_length_b   9.19226822
_cell_length_c   9.19226822
_cell_angle_alpha   54.75704934
_cell_angle_beta   54.75704934
_cell_angle_gamma   54.75704934
_symmetry_Int_Tables_number   1
_chemical_formula_structural   BaTi4(PO4)6
_chemical_formula_sum   'Ba1 Ti4 P6 O24'
_cell_volume   482.16356455
_cell_formula_units_Z   1
loop_
 _symmetry_equiv_pos_site_id
 _symmetry_equiv_pos_as_xyz
  1  'x, y, z'
loop_
 _atom_site_type_symbol
 _atom_site_label
 _atom_site_symmetry_multiplicity
 _atom_site_fract_x
 _atom_site_fract_y
 _atom_site_fract_z
 _atom_site_occupancy
  Ba  Ba0  1  0.00000000  0.00000000  0.00000000  1.0
  Ti  Ti1  1  0.15165875  0.15165875  0.15165875  1.0
  Ti  Ti2  1  0.84834125  -0.15165875  -0.15165875  1.0
  Ti  Ti3  1  0.35367015  0.35367015  -0.64632985  1.0
  Ti  Ti4  1  0.64632985  0.64632985  -0.35367015  1.0
  P  P5  1  0.53395044  0.25047242  -0.03086770  1.0
  P  P6  1  1.03086770  -0.53395044  -0.25047242  1.0
  P  P7  1  0.74952758  0.03086770  -0.53395044  1.0
  P  P8  1  0.46604956  -0.25047242  0.03086770  1.0
  P  P9  1  0.96913230  -0.46604956  0.25047242  1.0
  P  P10  1  1.25047242  -0.03086770  -0.46604956  1.0
  O  O11  1  0.23133295  0.99521737  -0.63743454  1.0
  O  O12  1  0.63743454  -0.23133295  0.00478263  1.0
  O  O13  1  1.00478263  -0.36256546  -0.23133295  1.0
  O  O14  1  0.76866705  0.00478263  -0.36256546  1.0
  O  O15  1  0.36256546  0.23133295  -0.00478263  1.0
  O  O16  1  0.99521737  0.36256546  -0.76866705  1.0
  O  O17  1  0.55293946  0.18863312  -0.54494149  1.0
  O  O18  1  0.54494149  0.44706054  -0.18863312  1.0
  O  O19  1  0.81136688  0.54494149  -0.55293946  1.0
  O  O20  1  0.44706054  0.81136688  -0.45505851  1.0
  O  O21  1  0.45505851  0.55293946  -0.81136688  1.0
  O  O22  1  0.18863312  0.45505851  -0.44706054  1.0
  O  O23  1  0.28051864  0.91371721  -0.90732492  1.0
  O  O24  1  0.90732492  -0.28051864  0.08628279  1.0
  O  O25  1  1.08628279  -0.09267508  -0.28051864  1.0
  O  O26  1  0.71948136  0.08628279  -0.09267508  1.0
  O  O27  1  0.09267508  0.28051864  -0.08628279  1.0
  O  O28  1  0.91371721  0.09267508  -0.71948136  1.0
  O  O29  1  0.51836918  0.23107591  0.15614850  1.0
  O  O30  1  0.84385150  -0.51836918  -0.23107591  1.0
  O  O31  1  0.76892409  -0.15614850  -0.51836918  1.0
  O  O32  1  0.48163082  -0.23107591  -0.15614850  1.0
  O  O33  1  1.15614850  -0.48163082  0.23107591  1.0
  O  O34  1  1.23107591  0.15614850  -0.48163082  1.0
