# generated using pymatgen
data_Gd11(RuCl5)3
_symmetry_space_group_name_H-M   'P 1'
_cell_length_a   12.45241294
_cell_length_b   12.45241294
_cell_length_c   12.55945532
_cell_angle_alpha   90.00000000
_cell_angle_beta   90.00000000
_cell_angle_gamma   120.00000000
_symmetry_Int_Tables_number   1
_chemical_formula_structural   Gd11(RuCl5)3
_chemical_formula_sum   'Gd22 Ru6 Cl30'
_cell_volume   1686.58590042
_cell_formula_units_Z   2
loop_
 _symmetry_equiv_pos_site_id
 _symmetry_equiv_pos_as_xyz
  1  'x, y, z'
loop_
 _atom_site_type_symbol
 _atom_site_label
 _atom_site_symmetry_multiplicity
 _atom_site_fract_x
 _atom_site_fract_y
 _atom_site_fract_z
 _atom_site_occupancy
  Gd  Gd0  1  0.32767766  0.93045873  0.25000000  1.0
  Gd  Gd1  1  0.60278107  0.67232234  0.25000000  1.0
  Gd  Gd2  1  0.06954127  0.39721893  0.25000000  1.0
  Gd  Gd3  1  0.67232234  0.06954127  0.75000000  1.0
  Gd  Gd4  1  0.39721893  0.32767766  0.75000000  1.0
  Gd  Gd5  1  0.93045873  0.60278107  0.75000000  1.0
  Gd  Gd6  1  0.62821633  0.96668445  0.39420911  1.0
  Gd  Gd7  1  0.33846812  0.37178367  0.39420911  1.0
  Gd  Gd8  1  0.03331555  0.66153188  0.39420911  1.0
  Gd  Gd9  1  0.37178367  0.03331555  0.89420911  1.0
  Gd  Gd10  1  0.66153188  0.62821633  0.89420911  1.0
  Gd  Gd11  1  0.96668445  0.33846812  0.89420911  1.0
  Gd  Gd12  1  0.37178367  0.03331555  0.60579089  1.0
  Gd  Gd13  1  0.66153188  0.62821633  0.60579089  1.0
  Gd  Gd14  1  0.96668445  0.33846812  0.60579089  1.0
  Gd  Gd15  1  0.62821633  0.96668445  0.10579089  1.0
  Gd  Gd16  1  0.33846812  0.37178367  0.10579089  1.0
  Gd  Gd17  1  0.03331555  0.66153188  0.10579089  1.0
  Gd  Gd18  1  0.33333333  0.66666667  0.42074303  1.0
  Gd  Gd19  1  0.66666667  0.33333333  0.92074303  1.0
  Gd  Gd20  1  0.66666667  0.33333333  0.57925697  1.0
  Gd  Gd21  1  0.33333333  0.66666667  0.07925697  1.0
  Ru  Ru22  1  0.19166889  0.66028140  0.25000000  1.0
  Ru  Ru23  1  0.46861250  0.80833111  0.25000000  1.0
  Ru  Ru24  1  0.33971860  0.53138750  0.25000000  1.0
  Ru  Ru25  1  0.80833111  0.33971860  0.75000000  1.0
  Ru  Ru26  1  0.53138750  0.19166889  0.75000000  1.0
  Ru  Ru27  1  0.66028140  0.46861250  0.75000000  1.0
  Cl  Cl28  1  0.19209650  0.91260341  0.43330617  1.0
  Cl  Cl29  1  0.72050691  0.80790350  0.43330617  1.0
  Cl  Cl30  1  0.08739659  0.27949309  0.43330617  1.0
  Cl  Cl31  1  0.80790350  0.08739659  0.93330617  1.0
  Cl  Cl32  1  0.27949309  0.19209650  0.93330617  1.0
  Cl  Cl33  1  0.91260341  0.72050691  0.93330617  1.0
  Cl  Cl34  1  0.80790350  0.08739659  0.56669383  1.0
  Cl  Cl35  1  0.27949309  0.19209650  0.56669383  1.0
  Cl  Cl36  1  0.91260341  0.72050691  0.56669383  1.0
  Cl  Cl37  1  0.19209650  0.91260341  0.06669383  1.0
  Cl  Cl38  1  0.72050691  0.80790350  0.06669383  1.0
  Cl  Cl39  1  0.08739659  0.27949309  0.06669383  1.0
  Cl  Cl40  1  0.32007201  0.19751363  0.25000000  1.0
  Cl  Cl41  1  0.87744163  0.67992799  0.25000000  1.0
  Cl  Cl42  1  0.80248637  0.12255837  0.25000000  1.0
  Cl  Cl43  1  0.67992799  0.80248637  0.75000000  1.0
  Cl  Cl44  1  0.12255837  0.32007201  0.75000000  1.0
  Cl  Cl45  1  0.19751363  0.87744163  0.75000000  1.0
  Cl  Cl46  1  0.52281394  0.12465911  0.41644575  1.0
  Cl  Cl47  1  0.60184518  0.47718606  0.41644575  1.0
  Cl  Cl48  1  0.87534089  0.39815482  0.41644575  1.0
  Cl  Cl49  1  0.47718606  0.87534089  0.91644575  1.0
  Cl  Cl50  1  0.39815482  0.52281394  0.91644575  1.0
  Cl  Cl51  1  0.12465911  0.60184518  0.91644575  1.0
  Cl  Cl52  1  0.47718606  0.87534089  0.58355425  1.0
  Cl  Cl53  1  0.39815482  0.52281394  0.58355425  1.0
  Cl  Cl54  1  0.12465911  0.60184518  0.58355425  1.0
  Cl  Cl55  1  0.52281394  0.12465911  0.08355425  1.0
  Cl  Cl56  1  0.60184518  0.47718606  0.08355425  1.0
  Cl  Cl57  1  0.87534089  0.39815482  0.08355425  1.0
