# generated using pymatgen
data_LuMnSi
_symmetry_space_group_name_H-M   'P 1'
_cell_length_a   6.77475273
_cell_length_b   3.98559420
_cell_length_c   7.57463920
_cell_angle_alpha   90.00000000
_cell_angle_beta   90.00000000
_cell_angle_gamma   90.00000000
_symmetry_Int_Tables_number   1
_chemical_formula_structural   LuMnSi
_chemical_formula_sum   'Lu4 Mn4 Si4'
_cell_volume   204.52597782
_cell_formula_units_Z   4
loop_
 _symmetry_equiv_pos_site_id
 _symmetry_equiv_pos_as_xyz
  1  'x, y, z'
loop_
 _atom_site_type_symbol
 _atom_site_label
 _atom_site_symmetry_multiplicity
 _atom_site_fract_x
 _atom_site_fract_y
 _atom_site_fract_z
 _atom_site_occupancy
  Lu  Lu0  1  0.98300356  0.75000000  0.68357226  1.0
  Lu  Lu1  1  0.48300356  0.75000000  0.81642774  1.0
  Lu  Lu2  1  0.01699644  0.25000000  0.31642774  1.0
  Lu  Lu3  1  0.51699644  0.25000000  0.18357226  1.0
  Mn  Mn4  1  0.85948928  0.75000000  0.05852535  1.0
  Mn  Mn5  1  0.35948928  0.75000000  0.44147465  1.0
  Mn  Mn6  1  0.14051072  0.25000000  0.94147465  1.0
  Mn  Mn7  1  0.64051072  0.25000000  0.55852535  1.0
  Si  Si8  1  0.71692458  0.75000000  0.38479521  1.0
  Si  Si9  1  0.21692458  0.75000000  0.11520479  1.0
  Si  Si10  1  0.28307542  0.25000000  0.61520479  1.0
  Si  Si11  1  0.78307542  0.25000000  0.88479521  1.0
