# generated using pymatgen
data_Ba4LiGa5Se12
_symmetry_space_group_name_H-M   'P 1'
_cell_length_a   13.85691728
_cell_length_b   13.85691728
_cell_length_c   6.58903090
_cell_angle_alpha   90.00000000
_cell_angle_beta   90.00000000
_cell_angle_gamma   90.00000000
_symmetry_Int_Tables_number   1
_chemical_formula_structural   Ba4LiGa5Se12
_chemical_formula_sum   'Ba8 Li2 Ga10 Se24'
_cell_volume   1265.18720986
_cell_formula_units_Z   2
loop_
 _symmetry_equiv_pos_site_id
 _symmetry_equiv_pos_as_xyz
  1  'x, y, z'
loop_
 _atom_site_type_symbol
 _atom_site_label
 _atom_site_symmetry_multiplicity
 _atom_site_fract_x
 _atom_site_fract_y
 _atom_site_fract_z
 _atom_site_occupancy
  Ba  Ba0  1  0.48021482  0.19258409  0.05237174  1.0
  Ba  Ba1  1  0.01978518  0.69258409  0.44762826  1.0
  Ba  Ba2  1  0.80741591  0.48021482  0.94762826  1.0
  Ba  Ba3  1  0.69258409  0.98021482  0.55237174  1.0
  Ba  Ba4  1  0.51978518  0.80741591  0.05237174  1.0
  Ba  Ba5  1  0.98021482  0.30741591  0.44762826  1.0
  Ba  Ba6  1  0.19258409  0.51978518  0.94762826  1.0
  Ba  Ba7  1  0.30741591  0.01978518  0.55237174  1.0
  Li  Li8  1  0.50000000  0.50000000  0.00000000  1.0
  Li  Li9  1  0.00000000  0.00000000  0.50000000  1.0
  Ga  Ga10  1  0.25606892  0.35747028  0.44820757  1.0
  Ga  Ga11  1  0.24393108  0.85747028  0.05179243  1.0
  Ga  Ga12  1  0.64252972  0.25606892  0.55179243  1.0
  Ga  Ga13  1  0.85747028  0.75606892  0.94820757  1.0
  Ga  Ga14  1  0.74393108  0.64252972  0.44820757  1.0
  Ga  Ga15  1  0.75606892  0.14252972  0.05179243  1.0
  Ga  Ga16  1  0.35747028  0.74393108  0.55179243  1.0
  Ga  Ga17  1  0.14252972  0.24393108  0.94820757  1.0
  Ga  Ga18  1  0.50000000  0.50000000  0.50000000  1.0
  Ga  Ga19  1  0.00000000  0.00000000  0.00000000  1.0
  Se  Se20  1  0.14144864  0.48578794  0.44820309  1.0
  Se  Se21  1  0.35855136  0.98578794  0.05179691  1.0
  Se  Se22  1  0.51421206  0.14144864  0.55179691  1.0
  Se  Se23  1  0.98578794  0.64144864  0.94820309  1.0
  Se  Se24  1  0.85855136  0.51421206  0.44820309  1.0
  Se  Se25  1  0.64144864  0.01421206  0.05179691  1.0
  Se  Se26  1  0.48578794  0.85855136  0.55179691  1.0
  Se  Se27  1  0.01421206  0.35855136  0.94820309  1.0
  Se  Se28  1  0.40410684  0.40369143  0.26471253  1.0
  Se  Se29  1  0.09589316  0.90369143  0.23528747  1.0
  Se  Se30  1  0.59630857  0.40410684  0.73528747  1.0
  Se  Se31  1  0.90369143  0.90410684  0.76471253  1.0
  Se  Se32  1  0.59589316  0.59630857  0.26471253  1.0
  Se  Se33  1  0.90410684  0.09630857  0.23528747  1.0
  Se  Se34  1  0.40369143  0.59589316  0.73528747  1.0
  Se  Se35  1  0.09630857  0.09589316  0.76471253  1.0
  Se  Se36  1  0.19530172  0.20745138  0.29462838  1.0
  Se  Se37  1  0.30469828  0.70745138  0.20537162  1.0
  Se  Se38  1  0.79254862  0.19530172  0.70537162  1.0
  Se  Se39  1  0.70745138  0.69530172  0.79462838  1.0
  Se  Se40  1  0.80469828  0.79254862  0.29462838  1.0
  Se  Se41  1  0.69530172  0.29254862  0.20537162  1.0
  Se  Se42  1  0.20745138  0.80469828  0.70537162  1.0
  Se  Se43  1  0.29254862  0.30469828  0.79462838  1.0
