# generated using pymatgen
data_BaMgSn
_symmetry_space_group_name_H-M   'P 1'
_cell_length_a   4.95035531
_cell_length_b   4.95035531
_cell_length_c   8.21064668
_cell_angle_alpha   90.00000000
_cell_angle_beta   90.00000000
_cell_angle_gamma   90.00000000
_symmetry_Int_Tables_number   1
_chemical_formula_structural   BaMgSn
_chemical_formula_sum   'Ba2 Mg2 Sn2'
_cell_volume   201.21025258
_cell_formula_units_Z   2
loop_
 _symmetry_equiv_pos_site_id
 _symmetry_equiv_pos_as_xyz
  1  'x, y, z'
loop_
 _atom_site_type_symbol
 _atom_site_label
 _atom_site_symmetry_multiplicity
 _atom_site_fract_x
 _atom_site_fract_y
 _atom_site_fract_z
 _atom_site_occupancy
  Ba  Ba0  1  0.00000000  0.50000000  0.17015070  1.0
  Ba  Ba1  1  0.50000000  0.00000000  0.82984930  1.0
  Mg  Mg2  1  0.50000000  0.50000000  0.50000000  1.0
  Mg  Mg3  1  0.00000000  0.00000000  0.50000000  1.0
  Sn  Sn4  1  0.00000000  0.50000000  0.71317402  1.0
  Sn  Sn5  1  0.50000000  0.00000000  0.28682598  1.0
