# generated using pymatgen
data_Ba3NbGa3(GeO7)2
_symmetry_space_group_name_H-M   'P 1'
_cell_length_a   8.74541853
_cell_length_b   8.74541853
_cell_length_c   5.27324835
_cell_angle_alpha   90.00000000
_cell_angle_beta   90.00000000
_cell_angle_gamma   120.00000000
_symmetry_Int_Tables_number   1
_chemical_formula_structural   Ba3NbGa3(GeO7)2
_chemical_formula_sum   'Ba3 Nb1 Ga3 Ge2 O14'
_cell_volume   349.27705306
_cell_formula_units_Z   1
loop_
 _symmetry_equiv_pos_site_id
 _symmetry_equiv_pos_as_xyz
  1  'x, y, z'
loop_
 _atom_site_type_symbol
 _atom_site_label
 _atom_site_symmetry_multiplicity
 _atom_site_fract_x
 _atom_site_fract_y
 _atom_site_fract_z
 _atom_site_occupancy
  Ba  Ba0  1  0.42324070  0.42324070  0.00000000  1.0
  Ba  Ba1  1  0.00000000  0.57675930  0.00000000  1.0
  Ba  Ba2  1  0.57675930  0.00000000  0.00000000  1.0
  Nb  Nb3  1  -0.00000000  0.00000000  0.00000000  1.0
  Ga  Ga4  1  0.74861176  0.74861176  0.50000000  1.0
  Ga  Ga5  1  0.00000000  0.25138824  0.50000000  1.0
  Ga  Ga6  1  0.25138824  -0.00000000  0.50000000  1.0
  Ge  Ge7  1  0.33333333  0.66666667  0.51798984  1.0
  Ge  Ge8  1  0.66666667  0.33333333  0.48201016  1.0
  O  O9  1  0.10317879  0.89011380  0.22692158  1.0
  O  O10  1  0.89011380  0.10317879  0.77307842  1.0
  O  O11  1  0.78693501  0.89682121  0.22692158  1.0
  O  O12  1  0.10988620  0.21306499  0.22692158  1.0
  O  O13  1  0.89682121  0.78693501  0.77307842  1.0
  O  O14  1  0.21306499  0.10988620  0.77307842  1.0
  O  O15  1  0.70182888  0.53478084  0.33957204  1.0
  O  O16  1  0.53478084  0.70182888  0.66042796  1.0
  O  O17  1  0.83295197  0.29817112  0.33957204  1.0
  O  O18  1  0.46521916  0.16704803  0.33957204  1.0
  O  O19  1  0.29817112  0.83295197  0.66042796  1.0
  O  O20  1  0.16704803  0.46521916  0.66042796  1.0
  O  O21  1  0.33333333  0.66666667  0.18983661  1.0
  O  O22  1  0.66666667  0.33333333  0.81016339  1.0
