# generated using pymatgen
data_H3CSClO
_symmetry_space_group_name_H-M   'P 1'
_cell_length_a   5.50908733
_cell_length_b   9.09689806
_cell_length_c   10.80845863
_cell_angle_alpha   90.00000000
_cell_angle_beta   120.51068643
_cell_angle_gamma   90.00000000
_symmetry_Int_Tables_number   1
_chemical_formula_structural   H3CSClO
_chemical_formula_sum   'H12 C4 S4 Cl4 O4'
_cell_volume   466.66949609
_cell_formula_units_Z   4
loop_
 _symmetry_equiv_pos_site_id
 _symmetry_equiv_pos_as_xyz
  1  'x, y, z'
loop_
 _atom_site_type_symbol
 _atom_site_label
 _atom_site_symmetry_multiplicity
 _atom_site_fract_x
 _atom_site_fract_y
 _atom_site_fract_z
 _atom_site_occupancy
  H  H0  1  1.00363801  0.78629413  0.57874820  1.0
  H  H1  1  1.00363801  0.71370587  0.07874820  1.0
  H  H2  1  -0.00363801  0.21370587  0.42125180  1.0
  H  H3  1  -0.00363801  0.28629413  0.92125180  1.0
  H  H4  1  0.84278571  0.96469441  0.56298720  1.0
  H  H5  1  0.84278571  0.53530559  0.06298720  1.0
  H  H6  1  0.15721429  0.03530559  0.43701280  1.0
  H  H7  1  0.15721429  0.46469441  0.93701280  1.0
  H  H8  1  0.69376665  0.80316914  0.59518776  1.0
  H  H9  1  0.69376665  0.69683086  0.09518776  1.0
  H  H10  1  0.30623335  0.19683086  0.40481224  1.0
  H  H11  1  0.30623335  0.30316914  0.90481224  1.0
  C  C12  1  0.88895552  0.85635539  0.61434700  1.0
  C  C13  1  0.88895552  0.64364461  0.11434700  1.0
  C  C14  1  0.11104448  0.14364461  0.38565300  1.0
  C  C15  1  0.11104448  0.35635539  0.88565300  1.0
  S  S16  1  0.09789411  0.88434663  0.80592258  1.0
  S  S17  1  0.09789411  0.61565337  0.30592258  1.0
  S  S18  1  0.90210589  0.11565337  0.19407742  1.0
  S  S19  1  0.90210589  0.38434663  0.69407742  1.0
  Cl  Cl20  1  0.45780396  0.97479503  0.80271553  1.0
  Cl  Cl21  1  0.45780396  0.52520497  0.30271553  1.0
  Cl  Cl22  1  0.54219604  0.02520497  0.19728447  1.0
  Cl  Cl23  1  0.54219604  0.47479503  0.69728447  1.0
  O  O24  1  0.17456586  0.73638426  0.87246361  1.0
  O  O25  1  0.17456586  0.76361574  0.37246361  1.0
  O  O26  1  0.82543414  0.26361574  0.12753639  1.0
  O  O27  1  0.82543414  0.23638426  0.62753639  1.0
