# generated using pymatgen
data_Ta3Mn3N
_symmetry_space_group_name_H-M   'P 1'
_cell_length_a   8.01736324
_cell_length_b   8.01736324
_cell_length_c   8.01736324
_cell_angle_alpha   60.00000000
_cell_angle_beta   60.00000000
_cell_angle_gamma   60.00000000
_symmetry_Int_Tables_number   1
_chemical_formula_structural   Ta3Mn3N
_chemical_formula_sum   'Ta12 Mn12 N4'
_cell_volume   364.40110381
_cell_formula_units_Z   4
loop_
 _symmetry_equiv_pos_site_id
 _symmetry_equiv_pos_as_xyz
  1  'x, y, z'
loop_
 _atom_site_type_symbol
 _atom_site_label
 _atom_site_symmetry_multiplicity
 _atom_site_fract_x
 _atom_site_fract_y
 _atom_site_fract_z
 _atom_site_occupancy
  Ta  Ta0  1  0.80430243  0.80430243  -0.80430243  1.0
  Ta  Ta1  1  0.19569757  1.19569757  -0.19569757  1.0
  Ta  Ta2  1  0.80430243  -0.80430243  0.80430243  1.0
  Ta  Ta3  1  0.19569757  -0.19569757  0.19569757  1.0
  Ta  Ta4  1  -0.80430243  0.80430243  0.80430243  1.0
  Ta  Ta5  1  -0.19569757  0.19569757  0.19569757  1.0
  Ta  Ta6  1  0.44569757  1.44569757  0.05430243  1.0
  Ta  Ta7  1  0.05430243  0.05430243  0.44569757  1.0
  Ta  Ta8  1  0.44569757  1.05430243  0.44569757  1.0
  Ta  Ta9  1  0.05430243  1.44569757  0.05430243  1.0
  Ta  Ta10  1  0.05430243  1.44569757  0.44569757  1.0
  Ta  Ta11  1  0.44569757  1.05430243  0.05430243  1.0
  Mn  Mn12  1  1.12500000  0.62500000  0.62500000  1.0
  Mn  Mn13  1  0.62500000  1.12500000  -0.37500000  1.0
  Mn  Mn14  1  -0.37500000  0.62500000  1.12500000  1.0
  Mn  Mn15  1  -0.37500000  0.62500000  0.62500000  1.0
  Mn  Mn16  1  -0.26831308  0.42277103  0.42277103  1.0
  Mn  Mn17  1  0.42277103  -0.26831308  0.42277103  1.0
  Mn  Mn18  1  0.42277103  1.42277103  -0.26831308  1.0
  Mn  Mn19  1  0.42277103  1.42277103  0.42277103  1.0
  Mn  Mn20  1  0.51831308  0.82722897  -0.17277103  1.0
  Mn  Mn21  1  0.82722897  0.51831308  0.82722897  1.0
  Mn  Mn22  1  0.82722897  0.82722897  -0.48168692  1.0
  Mn  Mn23  1  0.82722897  0.82722897  0.82722897  1.0
  N  N24  1  0.62500000  1.12500000  0.12500000  1.0
  N  N25  1  0.12500000  1.62500000  0.12500000  1.0
  N  N26  1  0.12500000  0.12500000  1.62500000  1.0
  N  N27  1  0.12500000  0.12500000  0.12500000  1.0
