# generated using pymatgen
data_Sb2Te3
_symmetry_space_group_name_H-M   'P 1'
_cell_length_a   4.31843146
_cell_length_b   4.31843146
_cell_length_c   10.84085919
_cell_angle_alpha   90.00000000
_cell_angle_beta   90.00000000
_cell_angle_gamma   120.00000000
_symmetry_Int_Tables_number   1
_chemical_formula_structural   Sb2Te3
_chemical_formula_sum   'Sb2 Te3'
_cell_volume   175.08397492
_cell_formula_units_Z   1
loop_
 _symmetry_equiv_pos_site_id
 _symmetry_equiv_pos_as_xyz
  1  'x, y, z'
loop_
 _atom_site_type_symbol
 _atom_site_label
 _atom_site_symmetry_multiplicity
 _atom_site_fract_x
 _atom_site_fract_y
 _atom_site_fract_z
 _atom_site_occupancy
  Sb  Sb0  1  0.33333333  0.66666667  0.18430075  1.0
  Sb  Sb1  1  0.66666667  0.33333333  0.81569925  1.0
  Te  Te2  1  0.33333333  0.66666667  0.65791504  1.0
  Te  Te3  1  0.66666667  0.33333333  0.34208496  1.0
  Te  Te4  1  0.00000000  0.00000000  0.00000000  1.0
