# generated using pymatgen
data_GdIn2Ni
_symmetry_space_group_name_H-M   'P 1'
_cell_length_a   5.69403520
_cell_length_b   5.69403520
_cell_length_c   7.45495254
_cell_angle_alpha   90.00000000
_cell_angle_beta   90.00000000
_cell_angle_gamma   134.81397558
_symmetry_Int_Tables_number   1
_chemical_formula_structural   GdIn2Ni
_chemical_formula_sum   'Gd2 In4 Ni2'
_cell_volume   171.46506690
_cell_formula_units_Z   2
loop_
 _symmetry_equiv_pos_site_id
 _symmetry_equiv_pos_as_xyz
  1  'x, y, z'
loop_
 _atom_site_type_symbol
 _atom_site_label
 _atom_site_symmetry_multiplicity
 _atom_site_fract_x
 _atom_site_fract_y
 _atom_site_fract_z
 _atom_site_occupancy
  Gd  Gd0  1  0.43306950  0.56693050  0.75000000  1.0
  Gd  Gd1  1  -0.43306950  0.43306950  0.25000000  1.0
  In  In2  1  0.14445779  0.85554221  0.95001575  1.0
  In  In3  1  0.14445779  0.85554221  0.54998425  1.0
  In  In4  1  -0.14445779  0.14445779  0.45001575  1.0
  In  In5  1  -0.14445779  0.14445779  0.04998425  1.0
  Ni  Ni6  1  -0.28642873  0.28642873  0.75000000  1.0
  Ni  Ni7  1  0.28642873  0.71357127  0.25000000  1.0
