# generated using pymatgen
data_Co2BiB(PO5)2
_symmetry_space_group_name_H-M   'P 1'
_cell_length_a   5.08899131
_cell_length_b   11.39379342
_cell_length_c   6.52766188
_cell_angle_alpha   90.00000000
_cell_angle_beta   108.00497975
_cell_angle_gamma   90.00000000
_symmetry_Int_Tables_number   1
_chemical_formula_structural   Co2BiB(PO5)2
_chemical_formula_sum   'Co4 Bi2 B2 P4 O20'
_cell_volume   359.95794226
_cell_formula_units_Z   2
loop_
 _symmetry_equiv_pos_site_id
 _symmetry_equiv_pos_as_xyz
  1  'x, y, z'
loop_
 _atom_site_type_symbol
 _atom_site_label
 _atom_site_symmetry_multiplicity
 _atom_site_fract_x
 _atom_site_fract_y
 _atom_site_fract_z
 _atom_site_occupancy
  O  O0  1  0.90315970  0.95506854  0.65093355  1.0
  O  O1  1  0.90315970  0.54493146  0.65093355  1.0
  O  O2  1  0.09684030  0.45506854  0.34906645  1.0
  O  O3  1  0.09684030  0.04493146  0.34906645  1.0
  O  O4  1  0.56217425  0.44782369  0.81947046  1.0
  O  O5  1  0.56217425  0.05217631  0.81947046  1.0
  O  O6  1  0.43782575  0.94782369  0.18052954  1.0
  O  O7  1  0.43782575  0.55217631  0.18052954  1.0
  O  O8  1  0.54368487  0.35506650  0.34372604  1.0
  O  O9  1  0.54368487  0.14493350  0.34372604  1.0
  O  O10  1  0.45631513  0.85506650  0.65627396  1.0
  O  O11  1  0.45631513  0.64493350  0.65627396  1.0
  O  O12  1  0.14280345  0.37637631  0.99656924  1.0
  O  O13  1  0.14280345  0.12362369  0.99656924  1.0
  O  O14  1  0.85719655  0.87637631  0.00343076  1.0
  O  O15  1  0.85719655  0.62362369  0.00343076  1.0
  O  O16  1  0.85873534  0.25000000  0.63706127  1.0
  O  O17  1  0.14126466  0.75000000  0.36293873  1.0
  O  O18  1  0.37918224  0.25000000  0.61250421  1.0
  O  O19  1  0.62081776  0.75000000  0.38749579  1.0
  Bi  Bi20  1  0.75007343  0.25000000  0.93476834  1.0
  Bi  Bi21  1  0.24992657  0.75000000  0.06523166  1.0
  Co  Co22  1  0.85396340  0.89508846  0.34240651  1.0
  Co  Co23  1  0.85396340  0.60491154  0.34240651  1.0
  Co  Co24  1  0.14603660  0.39508846  0.65759349  1.0
  Co  Co25  1  0.14603660  0.10491154  0.65759349  1.0
  P  P26  1  0.70063978  0.93631814  0.78522789  1.0
  P  P27  1  0.70063978  0.56368186  0.78522789  1.0
  P  P28  1  0.29936022  0.43631814  0.21477211  1.0
  P  P29  1  0.29936022  0.06368186  0.21477211  1.0
  B  B30  1  0.56745538  0.25000000  0.48290372  1.0
  B  B31  1  0.43254462  0.75000000  0.51709628  1.0
