# generated using pymatgen
data_PCl3
_symmetry_space_group_name_H-M   'P 1'
_cell_length_a   9.19617652
_cell_length_b   10.31151389
_cell_length_c   6.63102648
_cell_angle_alpha   90.00000000
_cell_angle_beta   90.00000000
_cell_angle_gamma   90.00000000
_symmetry_Int_Tables_number   1
_chemical_formula_structural   PCl3
_chemical_formula_sum   'P4 Cl12'
_cell_volume   628.79704514
_cell_formula_units_Z   4
loop_
 _symmetry_equiv_pos_site_id
 _symmetry_equiv_pos_as_xyz
  1  'x, y, z'
loop_
 _atom_site_type_symbol
 _atom_site_label
 _atom_site_symmetry_multiplicity
 _atom_site_fract_x
 _atom_site_fract_y
 _atom_site_fract_z
 _atom_site_occupancy
  P  P0  1  0.46669490  0.75000000  0.57639024  1.0
  P  P1  1  0.96669490  0.75000000  0.92360976  1.0
  P  P2  1  0.53330510  0.25000000  0.42360976  1.0
  P  P3  1  0.03330510  0.25000000  0.07639024  1.0
  Cl  Cl4  1  0.39701207  0.90471398  0.75175194  1.0
  Cl  Cl5  1  0.39701207  0.59528602  0.75175194  1.0
  Cl  Cl6  1  0.89701207  0.90471398  0.74824806  1.0
  Cl  Cl7  1  0.89701207  0.59528602  0.74824806  1.0
  Cl  Cl8  1  0.60298793  0.40471398  0.24824806  1.0
  Cl  Cl9  1  0.60298793  0.09528602  0.24824806  1.0
  Cl  Cl10  1  0.10298793  0.40471398  0.25175194  1.0
  Cl  Cl11  1  0.10298793  0.09528602  0.25175194  1.0
  Cl  Cl12  1  0.30924273  0.75000000  0.35202422  1.0
  Cl  Cl13  1  0.80924273  0.75000000  0.14797578  1.0
  Cl  Cl14  1  0.69075727  0.25000000  0.64797578  1.0
  Cl  Cl15  1  0.19075727  0.25000000  0.85202422  1.0
