# generated using pymatgen
data_In(SeO3)2
_symmetry_space_group_name_H-M   'P 1'
_cell_length_a   6.87588607
_cell_length_b   10.18326166
_cell_length_c   8.76193354
_cell_angle_alpha   90.00000000
_cell_angle_beta   88.33062590
_cell_angle_gamma   90.00000000
_symmetry_Int_Tables_number   1
_chemical_formula_structural   In(SeO3)2
_chemical_formula_sum   'In4 Se8 O24'
_cell_volume   613.24097443
_cell_formula_units_Z   4
loop_
 _symmetry_equiv_pos_site_id
 _symmetry_equiv_pos_as_xyz
  1  'x, y, z'
loop_
 _atom_site_type_symbol
 _atom_site_label
 _atom_site_symmetry_multiplicity
 _atom_site_fract_x
 _atom_site_fract_y
 _atom_site_fract_z
 _atom_site_occupancy
  O  O0  1  0.85578757  0.48844215  0.14426824  1.0
  O  O1  1  0.85578757  0.01155785  0.64426824  1.0
  O  O2  1  0.14421243  0.98844215  0.35573176  1.0
  O  O3  1  0.14421243  0.51155785  0.85573176  1.0
  O  O4  1  0.77697990  0.95671534  0.26341084  1.0
  O  O5  1  0.77697990  0.54328466  0.76341084  1.0
  O  O6  1  0.22302010  0.45671534  0.23658916  1.0
  O  O7  1  0.22302010  0.04328466  0.73658916  1.0
  O  O8  1  0.59677834  0.38044469  0.40095011  1.0
  O  O9  1  0.59677834  0.11955531  0.90095011  1.0
  O  O10  1  0.40322166  0.88044469  0.09904989  1.0
  O  O11  1  0.40322166  0.61955531  0.59904989  1.0
  O  O12  1  0.51995536  0.13130800  0.49237750  1.0
  O  O13  1  0.51995536  0.36869200  0.99237750  1.0
  O  O14  1  0.48004464  0.63130800  0.00762250  1.0
  O  O15  1  0.48004464  0.86869200  0.50762250  1.0
  O  O16  1  0.46062813  0.17623630  0.18019311  1.0
  O  O17  1  0.46062813  0.32376370  0.68019311  1.0
  O  O18  1  0.53937187  0.67623630  0.31980689  1.0
  O  O19  1  0.53937187  0.82376370  0.81980689  1.0
  O  O20  1  1.01472145  0.14038606  0.11435962  1.0
  O  O21  1  1.01472145  0.35961394  0.61435962  1.0
  O  O22  1  -0.01472145  0.64038606  0.38564038  1.0
  O  O23  1  -0.01472145  0.85961394  0.88564038  1.0
  In  In24  1  0.54051661  0.49050697  0.19948371  1.0
  In  In25  1  0.54051661  0.00949303  0.69948371  1.0
  In  In26  1  0.45948339  0.99050697  0.30051629  1.0
  In  In27  1  0.45948339  0.50949303  0.80051629  1.0
  Se  Se28  1  0.95475647  0.07252077  0.28072856  1.0
  Se  Se29  1  0.95475647  0.42747923  0.78072856  1.0
  Se  Se30  1  0.04524353  0.57252077  0.21927144  1.0
  Se  Se31  1  0.04524353  0.92747923  0.71927144  1.0
  Se  Se32  1  0.41597490  0.29278524  0.49294115  1.0
  Se  Se33  1  0.41597490  0.20721476  0.99294115  1.0
  Se  Se34  1  0.58402510  0.79278524  0.00705885  1.0
  Se  Se35  1  0.58402510  0.70721476  0.50705885  1.0
