# generated using pymatgen
data_KCuF3
_symmetry_space_group_name_H-M   'P 1'
_cell_length_a   8.07361448
_cell_length_b   8.26450239
_cell_length_c   8.26430014
_cell_angle_alpha   90.00000000
_cell_angle_beta   90.00000000
_cell_angle_gamma   90.00000000
_symmetry_Int_Tables_number   1
_chemical_formula_structural   KCuF3
_chemical_formula_sum   'K8 Cu8 F24'
_cell_volume   551.43051888
_cell_formula_units_Z   8
loop_
 _symmetry_equiv_pos_site_id
 _symmetry_equiv_pos_as_xyz
  1  'x, y, z'
loop_
 _atom_site_type_symbol
 _atom_site_label
 _atom_site_symmetry_multiplicity
 _atom_site_fract_x
 _atom_site_fract_y
 _atom_site_fract_z
 _atom_site_occupancy
  K  K0  1  0.25007449  0.24997985  0.74994259  1.0
  K  K1  1  0.75007449  0.25002015  0.25005741  1.0
  K  K2  1  0.24992551  0.75002015  0.24994259  1.0
  K  K3  1  0.74992551  0.74997985  0.75005741  1.0
  K  K4  1  0.24992551  0.74997985  0.74994259  1.0
  K  K5  1  0.74992551  0.75002015  0.25005741  1.0
  K  K6  1  0.25007449  0.25002015  0.24994259  1.0
  K  K7  1  0.75007449  0.24997985  0.75005741  1.0
  Cu  Cu8  1  0.00000000  0.00000000  0.50000000  1.0
  Cu  Cu9  1  0.50000000  0.50000000  0.50000000  1.0
  Cu  Cu10  1  0.50000000  0.00000000  0.00000000  1.0
  Cu  Cu11  1  -0.00000000  0.50000000  0.00000000  1.0
  Cu  Cu12  1  0.00000000  0.50000000  0.50000000  1.0
  Cu  Cu13  1  0.50000000  0.00000000  0.50000000  1.0
  Cu  Cu14  1  0.50000000  0.50000000  0.00000000  1.0
  Cu  Cu15  1  -0.00000000  0.00000000  0.00000000  1.0
  F  F16  1  0.25000471  0.00004643  0.50002618  1.0
  F  F17  1  0.75000471  0.49995357  0.49997382  1.0
  F  F18  1  0.24999529  0.99995357  0.00002618  1.0
  F  F19  1  0.74999529  0.50004643  0.99997382  1.0
  F  F20  1  0.00010818  0.50000477  0.73534465  1.0
  F  F21  1  0.50010818  -0.00000477  0.26465535  1.0
  F  F22  1  0.49989182  0.49999523  0.23534465  1.0
  F  F23  1  -0.00010818  0.00000477  0.76465535  1.0
  F  F24  1  0.00008973  0.23533960  0.50000565  1.0
  F  F25  1  0.50008973  0.26466040  0.49999435  1.0
  F  F26  1  0.49991027  0.76466040  0.00000565  1.0
  F  F27  1  -0.00008973  0.73533960  -0.00000565  1.0
  F  F28  1  -0.00008973  0.76466040  0.49999435  1.0
  F  F29  1  0.49991027  0.73533960  0.50000565  1.0
  F  F30  1  0.50008973  0.23533960  -0.00000565  1.0
  F  F31  1  0.00008973  0.26466040  0.00000565  1.0
  F  F32  1  0.00010818  -0.00000477  0.23534465  1.0
  F  F33  1  0.50010818  0.50000477  0.76465535  1.0
  F  F34  1  0.49989182  0.00000477  0.73534465  1.0
  F  F35  1  -0.00010818  0.49999523  0.26465535  1.0
  F  F36  1  0.74999529  0.99995357  0.49997382  1.0
  F  F37  1  0.24999529  0.50004643  0.50002618  1.0
  F  F38  1  0.75000471  0.00004643  0.99997382  1.0
  F  F39  1  0.25000471  0.49995357  0.00002618  1.0
