# generated using pymatgen
data_Mg13Al16
_symmetry_space_group_name_H-M   'P 1'
_cell_length_a   9.02960601
_cell_length_b   9.02960601
_cell_length_c   9.02960601
_cell_angle_alpha   109.47122063
_cell_angle_beta   109.47122063
_cell_angle_gamma   109.47122063
_symmetry_Int_Tables_number   1
_chemical_formula_structural   Mg13Al16
_chemical_formula_sum   'Mg13 Al16'
_cell_volume   566.74084483
_cell_formula_units_Z   1
loop_
 _symmetry_equiv_pos_site_id
 _symmetry_equiv_pos_as_xyz
  1  'x, y, z'
loop_
 _atom_site_type_symbol
 _atom_site_label
 _atom_site_symmetry_multiplicity
 _atom_site_fract_x
 _atom_site_fract_y
 _atom_site_fract_z
 _atom_site_occupancy
  Mg  Mg0  1  0.59062817  0.59062817  0.28313617  1.0
  Mg  Mg1  1  0.28313617  0.59062817  0.59062817  1.0
  Mg  Mg2  1  0.59062817  0.28313617  0.59062817  1.0
  Mg  Mg3  1  1.30749200  1.30749200  0.71686383  1.0
  Mg  Mg4  1  1.00000000  0.69250800  1.40937183  1.0
  Mg  Mg5  1  0.69250800  1.00000000  1.40937183  1.0
  Mg  Mg6  1  0.69250800  1.40937183  1.00000000  1.0
  Mg  Mg7  1  1.00000000  1.40937183  0.69250800  1.0
  Mg  Mg8  1  1.30749200  0.71686383  1.30749200  1.0
  Mg  Mg9  1  1.40937183  0.69250800  1.00000000  1.0
  Mg  Mg10  1  0.71686383  1.30749200  1.30749200  1.0
  Mg  Mg11  1  1.40937183  1.00000000  0.69250800  1.0
  Mg  Mg12  1  0.00000000  0.00000000  0.00000000  1.0
  Al  Al13  1  0.63356033  0.63356033  0.81885782  1.0
  Al  Al14  1  0.81885782  0.63356033  0.63356033  1.0
  Al  Al15  1  0.63356033  0.81885782  0.63356033  1.0
  Al  Al16  1  0.81470250  0.81470250  0.18114218  1.0
  Al  Al17  1  1.00000000  1.18529750  0.36643967  1.0
  Al  Al18  1  1.18529750  1.00000000  0.36643967  1.0
  Al  Al19  1  1.18529750  0.36643967  1.00000000  1.0
  Al  Al20  1  1.00000000  0.36643967  1.18529750  1.0
  Al  Al21  1  0.81470250  0.18114218  0.81470250  1.0
  Al  Al22  1  0.36643967  1.18529750  1.00000000  1.0
  Al  Al23  1  0.18114218  0.81470250  0.81470250  1.0
  Al  Al24  1  0.36643967  1.00000000  1.18529750  1.0
  Al  Al25  1  0.32459463  0.32459463  0.32459463  1.0
  Al  Al26  1  1.00000000  1.00000000  0.67540537  1.0
  Al  Al27  1  1.00000000  0.67540537  1.00000000  1.0
  Al  Al28  1  0.67540537  1.00000000  1.00000000  1.0
