# generated using pymatgen
data_CsCuPS3
_symmetry_space_group_name_H-M   'P 1'
_cell_length_a   9.73204296
_cell_length_b   13.22606323
_cell_length_c   10.71476439
_cell_angle_alpha   90.00000000
_cell_angle_beta   105.45025595
_cell_angle_gamma   90.00000000
_symmetry_Int_Tables_number   1
_chemical_formula_structural   CsCuPS3
_chemical_formula_sum   'Cs8 Cu8 P8 S24'
_cell_volume   1329.32797426
_cell_formula_units_Z   8
loop_
 _symmetry_equiv_pos_site_id
 _symmetry_equiv_pos_as_xyz
  1  'x, y, z'
loop_
 _atom_site_type_symbol
 _atom_site_label
 _atom_site_symmetry_multiplicity
 _atom_site_fract_x
 _atom_site_fract_y
 _atom_site_fract_z
 _atom_site_occupancy
  Cs  Cs0  1  0.86786569  0.14709330  0.32272055  1.0
  Cs  Cs1  1  0.86786569  0.35290670  0.82272055  1.0
  Cs  Cs2  1  0.13213431  0.64709330  0.17727945  1.0
  Cs  Cs3  1  0.13213431  0.85290670  0.67727945  1.0
  Cs  Cs4  1  0.38801336  0.31105667  0.38048405  1.0
  Cs  Cs5  1  0.38801336  0.18894333  0.88048405  1.0
  Cs  Cs6  1  0.61198664  0.81105667  0.11951595  1.0
  Cs  Cs7  1  0.61198664  0.68894333  0.61951595  1.0
  Cu  Cu8  1  0.97580586  0.40149461  0.45947864  1.0
  Cu  Cu9  1  0.97580586  0.09850539  0.95947864  1.0
  Cu  Cu10  1  0.02419414  0.90149461  0.04052136  1.0
  Cu  Cu11  1  0.02419414  0.59850539  0.54052136  1.0
  Cu  Cu12  1  0.45313096  0.45438570  0.09638503  1.0
  Cu  Cu13  1  0.45313096  0.04561430  0.59638503  1.0
  Cu  Cu14  1  0.54686904  0.95438570  0.40361497  1.0
  Cu  Cu15  1  0.54686904  0.54561430  0.90361497  1.0
  P  P16  1  0.78110845  0.45499081  0.16878136  1.0
  P  P17  1  0.78110845  0.04500919  0.66878136  1.0
  P  P18  1  0.21889155  0.95499081  0.33121864  1.0
  P  P19  1  0.21889155  0.54500919  0.83121864  1.0
  P  P20  1  0.71626761  0.96639435  0.83529644  1.0
  P  P21  1  0.71626761  0.53360565  0.33529644  1.0
  P  P22  1  0.28373239  0.46639435  0.66470356  1.0
  P  P23  1  0.28373239  0.03360565  0.16470356  1.0
  S  S24  1  0.98482977  0.40528271  0.24839847  1.0
  S  S25  1  0.98482977  0.09471729  0.74839847  1.0
  S  S26  1  0.01517023  0.90528271  0.25160153  1.0
  S  S27  1  0.01517023  0.59471729  0.75160153  1.0
  S  S28  1  0.83841609  0.66170040  0.38613889  1.0
  S  S29  1  0.83841609  0.83829960  0.88613889  1.0
  S  S30  1  0.16158391  0.16170040  0.11386111  1.0
  S  S31  1  0.16158391  0.33829960  0.61386111  1.0
  S  S32  1  0.75162955  0.42695423  0.47911318  1.0
  S  S33  1  0.75162955  0.07304577  0.97911318  1.0
  S  S34  1  0.24837045  0.92695423  0.02088682  1.0
  S  S35  1  0.24837045  0.57304577  0.52088682  1.0
  S  S36  1  0.63361797  0.34170184  0.11289067  1.0
  S  S37  1  0.63361797  0.15829816  0.61289067  1.0
  S  S38  1  0.36638203  0.84170184  0.38710933  1.0
  S  S39  1  0.36638203  0.65829816  0.88710933  1.0
  S  S40  1  0.49359635  0.07123354  0.24083505  1.0
  S  S41  1  0.49359635  0.42876646  0.74083505  1.0
  S  S42  1  0.50640365  0.57123354  0.25916495  1.0
  S  S43  1  0.50640365  0.92876646  0.75916495  1.0
  S  S44  1  0.22600196  0.06045366  0.47431705  1.0
  S  S45  1  0.22600196  0.43954634  0.97431705  1.0
  S  S46  1  0.77399804  0.56045366  0.02568295  1.0
  S  S47  1  0.77399804  0.93954634  0.52568295  1.0
