# generated using pymatgen
data_Lu5BiPd2
_symmetry_space_group_name_H-M   'P 1'
_cell_length_a   8.66500033
_cell_length_b   8.66500033
_cell_length_c   8.66500033
_cell_angle_alpha   127.58497045
_cell_angle_beta   127.58497045
_cell_angle_gamma   77.29833067
_symmetry_Int_Tables_number   1
_chemical_formula_structural   Lu5BiPd2
_chemical_formula_sum   'Lu10 Bi2 Pd4'
_cell_volume   396.38093319
_cell_formula_units_Z   2
loop_
 _symmetry_equiv_pos_site_id
 _symmetry_equiv_pos_as_xyz
  1  'x, y, z'
loop_
 _atom_site_type_symbol
 _atom_site_label
 _atom_site_symmetry_multiplicity
 _atom_site_fract_x
 _atom_site_fract_y
 _atom_site_fract_z
 _atom_site_occupancy
  Lu  Lu0  1  0.00000000  0.00000000  0.00000000  1.0
  Lu  Lu1  1  0.50000000  0.50000000  1.00000000  1.0
  Lu  Lu2  1  1.20479783  0.70479783  1.19190351  1.0
  Lu  Lu3  1  0.48710568  0.98710568  1.19190351  1.0
  Lu  Lu4  1  1.01289432  1.20479783  1.50000000  1.0
  Lu  Lu5  1  0.29520217  0.48710568  0.50000000  1.0
  Lu  Lu6  1  0.70479783  0.51289432  0.50000000  1.0
  Lu  Lu7  1  0.98710568  0.79520217  1.50000000  1.0
  Lu  Lu8  1  0.51289432  1.01289432  0.80809649  1.0
  Lu  Lu9  1  0.79520217  0.29520217  0.80809649  1.0
  Bi  Bi10  1  0.75000000  0.75000000  1.00000000  1.0
  Bi  Bi11  1  0.25000000  0.25000000  0.00000000  1.0
  Pd  Pd12  1  0.86190358  0.36190358  1.22380715  1.0
  Pd  Pd13  1  0.63809642  0.86190358  1.50000000  1.0
  Pd  Pd14  1  0.36190358  0.13809642  0.50000000  1.0
  Pd  Pd15  1  0.13809642  0.63809642  0.77619285  1.0
