# generated using pymatgen
data_Cs2AgF4
_symmetry_space_group_name_H-M   'P 1'
_cell_length_a   8.01823810
_cell_length_b   8.01823810
_cell_length_c   8.01823810
_cell_angle_alpha   146.88751460
_cell_angle_beta   146.88751460
_cell_angle_gamma   47.53036411
_symmetry_Int_Tables_number   1
_chemical_formula_structural   Cs2AgF4
_chemical_formula_sum   'Cs2 Ag1 F4'
_cell_volume   153.23992736
_cell_formula_units_Z   1
loop_
 _symmetry_equiv_pos_site_id
 _symmetry_equiv_pos_as_xyz
  1  'x, y, z'
loop_
 _atom_site_type_symbol
 _atom_site_label
 _atom_site_symmetry_multiplicity
 _atom_site_fract_x
 _atom_site_fract_y
 _atom_site_fract_z
 _atom_site_occupancy
  Cs  Cs0  1  0.64354473  0.64354473  1.00000000  1.0
  Cs  Cs1  1  0.35645527  0.35645527  -0.00000000  1.0
  Ag  Ag2  1  0.00000000  0.00000000  0.00000000  1.0
  F  F3  1  0.85051341  0.85051341  1.00000000  1.0
  F  F4  1  0.14948659  0.14948659  -0.00000000  1.0
  F  F5  1  0.50000000  -0.00000000  0.50000000  1.0
  F  F6  1  0.00000000  0.50000000  0.50000000  1.0
