# generated using pymatgen
data_Sr2TlBr5
_symmetry_space_group_name_H-M   'P 1'
_cell_length_a   9.43875343
_cell_length_b   8.42976568
_cell_length_c   13.58944936
_cell_angle_alpha   90.00000000
_cell_angle_beta   89.98179430
_cell_angle_gamma   90.00000000
_symmetry_Int_Tables_number   1
_chemical_formula_structural   Sr2TlBr5
_chemical_formula_sum   'Sr8 Tl4 Br20'
_cell_volume   1081.26459196
_cell_formula_units_Z   4
loop_
 _symmetry_equiv_pos_site_id
 _symmetry_equiv_pos_as_xyz
  1  'x, y, z'
loop_
 _atom_site_type_symbol
 _atom_site_label
 _atom_site_symmetry_multiplicity
 _atom_site_fract_x
 _atom_site_fract_y
 _atom_site_fract_z
 _atom_site_occupancy
  Sr  Sr0  1  0.99752761  0.47952651  0.17863857  1.0
  Sr  Sr1  1  0.99752761  0.02047349  0.67863857  1.0
  Sr  Sr2  1  0.00247239  0.97952651  0.32136143  1.0
  Sr  Sr3  1  0.00247239  0.52047349  0.82136143  1.0
  Sr  Sr4  1  0.75153996  0.43090726  0.49470486  1.0
  Sr  Sr5  1  0.75153996  0.06909274  0.99470486  1.0
  Sr  Sr6  1  0.24846004  0.93090726  0.00529514  1.0
  Sr  Sr7  1  0.24846004  0.56909274  0.50529514  1.0
  Tl  Tl8  1  0.49074871  0.47175130  0.17284834  1.0
  Tl  Tl9  1  0.49074871  0.02824870  0.67284834  1.0
  Tl  Tl10  1  0.50925129  0.97175130  0.32715166  1.0
  Tl  Tl11  1  0.50925129  0.52824870  0.82715166  1.0
  Br  Br12  1  0.96086215  0.84087862  0.10148160  1.0
  Br  Br13  1  0.96086215  0.65912138  0.60148160  1.0
  Br  Br14  1  0.03913785  0.34087862  0.39851840  1.0
  Br  Br15  1  0.03913785  0.15912138  0.89851840  1.0
  Br  Br16  1  0.78403973  0.04778223  0.49706401  1.0
  Br  Br17  1  0.78403973  0.45221777  0.99706401  1.0
  Br  Br18  1  0.21596027  0.54778223  0.00293599  1.0
  Br  Br19  1  0.21596027  0.95221777  0.50293599  1.0
  Br  Br20  1  0.78429691  0.67024619  0.31865958  1.0
  Br  Br21  1  0.78429691  0.82975381  0.81865958  1.0
  Br  Br22  1  0.21570309  0.17024619  0.18134042  1.0
  Br  Br23  1  0.21570309  0.32975381  0.68134042  1.0
  Br  Br24  1  0.77204030  0.19350390  0.21520008  1.0
  Br  Br25  1  0.77204030  0.30649610  0.71520008  1.0
  Br  Br26  1  0.22795970  0.69350390  0.28479992  1.0
  Br  Br27  1  0.22795970  0.80649610  0.78479992  1.0
  Br  Br28  1  0.46653754  0.33906083  0.40585597  1.0
  Br  Br29  1  0.46653754  0.16093917  0.90585597  1.0
  Br  Br30  1  0.53346246  0.83906083  0.09414403  1.0
  Br  Br31  1  0.53346246  0.66093917  0.59414403  1.0
