# generated using pymatgen
data_AlP2
_symmetry_space_group_name_H-M   'P 1'
_cell_length_a   8.98166885
_cell_length_b   8.98166885
_cell_length_c   8.98166885
_cell_angle_alpha   130.79000776
_cell_angle_beta   77.54779387
_cell_angle_gamma   124.21754201
_symmetry_Int_Tables_number   1
_chemical_formula_structural   AlP2
_chemical_formula_sum   'Al8 P16'
_cell_volume   440.08863717
_cell_formula_units_Z   8
loop_
 _symmetry_equiv_pos_site_id
 _symmetry_equiv_pos_as_xyz
  1  'x, y, z'
loop_
 _atom_site_type_symbol
 _atom_site_label
 _atom_site_symmetry_multiplicity
 _atom_site_fract_x
 _atom_site_fract_y
 _atom_site_fract_z
 _atom_site_occupancy
  Al  Al0  1  0.74036235  0.82175854  0.82122512  1.0
  Al  Al1  1  0.75963765  0.58086277  1.08139619  1.0
  Al  Al2  1  1.50053342  0.91913723  0.67877488  1.0
  Al  Al3  1  0.99946658  0.67824146  1.41860381  1.0
  Al  Al4  1  1.25963765  1.17824146  1.17877488  1.0
  Al  Al5  1  1.24036235  1.41913723  0.91860381  1.0
  Al  Al6  1  1.49946658  1.08086277  1.32122512  1.0
  Al  Al7  1  1.00053342  1.32175854  0.58139619  1.0
  P  P8  1  0.50000000  0.50000000  0.50000000  1.0
  P  P9  1  1.00000000  1.50000000  1.00000000  1.0
  P  P10  1  1.50000000  1.00000000  1.00000000  1.0
  P  P11  1  1.00000000  1.00000000  0.50000000  1.0
  P  P12  1  0.75000000  0.86429838  1.11429838  1.0
  P  P13  1  0.25000000  0.63570162  0.38570162  1.0
  P  P14  1  1.25000000  1.13570162  0.88570162  1.0
  P  P15  1  0.75000000  1.36429838  0.61429838  1.0
  P  P16  1  0.81685880  1.06685880  0.75000000  1.0
  P  P17  1  0.68314120  0.43314120  1.25000000  1.0
  P  P18  1  1.18314120  0.93314120  1.25000000  1.0
  P  P19  1  1.31685880  1.56685880  0.75000000  1.0
  P  P20  1  0.97845032  0.75000000  0.72845032  1.0
  P  P21  1  0.52154968  0.25000000  0.77154968  1.0
  P  P22  1  1.02154968  1.25000000  1.27154968  1.0
  P  P23  1  0.47845032  0.75000000  1.22845032  1.0
