# generated using pymatgen
data_TlFeC3NO4
_symmetry_space_group_name_H-M   'P 1'
_cell_length_a   9.18082336
_cell_length_b   9.18082336
_cell_length_c   9.18082336
_cell_angle_alpha   90.00000000
_cell_angle_beta   90.00000000
_cell_angle_gamma   90.00000000
_symmetry_Int_Tables_number   1
_chemical_formula_structural   TlFeC3NO4
_chemical_formula_sum   'Tl4 Fe4 C12 N4 O16'
_cell_volume   773.82881146
_cell_formula_units_Z   4
loop_
 _symmetry_equiv_pos_site_id
 _symmetry_equiv_pos_as_xyz
  1  'x, y, z'
loop_
 _atom_site_type_symbol
 _atom_site_label
 _atom_site_symmetry_multiplicity
 _atom_site_fract_x
 _atom_site_fract_y
 _atom_site_fract_z
 _atom_site_occupancy
  Tl  Tl0  1  0.80935717  0.30935717  0.19064283  1.0
  Tl  Tl1  1  0.30935717  0.19064283  0.80935717  1.0
  Tl  Tl2  1  0.19064283  0.80935717  0.30935717  1.0
  Tl  Tl3  1  0.69064283  0.69064283  0.69064283  1.0
  Fe  Fe4  1  0.31152740  0.81152740  0.68847260  1.0
  Fe  Fe5  1  0.81152740  0.68847260  0.31152740  1.0
  Fe  Fe6  1  0.68847260  0.31152740  0.81152740  1.0
  Fe  Fe7  1  0.18847260  0.18847260  0.18847260  1.0
  C  C8  1  0.33828769  0.81410711  0.88007787  1.0
  C  C9  1  0.83828769  0.68589289  0.11992213  1.0
  C  C10  1  0.31410711  0.61992213  0.66171231  1.0
  C  C11  1  0.81410711  0.88007787  0.33828769  1.0
  C  C12  1  0.11992213  0.83828769  0.68589289  1.0
  C  C13  1  0.61992213  0.66171231  0.31410711  1.0
  C  C14  1  0.66171231  0.31410711  0.61992213  1.0
  C  C15  1  0.16171231  0.18589289  0.38007787  1.0
  C  C16  1  0.68589289  0.11992213  0.83828769  1.0
  C  C17  1  0.18589289  0.38007787  0.16171231  1.0
  C  C18  1  0.88007787  0.33828769  0.81410711  1.0
  C  C19  1  0.38007787  0.16171231  0.18589289  1.0
  N  N20  1  0.41630022  0.91630022  0.58369978  1.0
  N  N21  1  0.91630022  0.58369978  0.41630022  1.0
  N  N22  1  0.58369978  0.41630022  0.91630022  1.0
  N  N23  1  0.08369978  0.08369978  0.08369978  1.0
  O  O24  1  0.35411339  0.81679162  0.00620979  1.0
  O  O25  1  0.85411339  0.68320838  0.99379021  1.0
  O  O26  1  0.31679162  0.49379021  0.64588661  1.0
  O  O27  1  0.81679162  0.00620979  0.35411339  1.0
  O  O28  1  0.99379021  0.85411339  0.68320838  1.0
  O  O29  1  0.49379021  0.64588661  0.31679162  1.0
  O  O30  1  0.64588661  0.31679162  0.49379021  1.0
  O  O31  1  0.14588661  0.18320838  0.50620979  1.0
  O  O32  1  0.68320838  0.99379021  0.85411339  1.0
  O  O33  1  0.18320838  0.50620979  0.14588661  1.0
  O  O34  1  0.00620979  0.35411339  0.81679162  1.0
  O  O35  1  0.50620979  0.14588661  0.18320838  1.0
  O  O36  1  0.49101670  0.99101670  0.50898330  1.0
  O  O37  1  0.99101670  0.50898330  0.49101670  1.0
  O  O38  1  0.50898330  0.49101670  0.99101670  1.0
  O  O39  1  0.00898330  0.00898330  0.00898330  1.0
