# generated using pymatgen
data_SiO2
_symmetry_space_group_name_H-M   'P 1'
_cell_length_a   11.22710685
_cell_length_b   11.22710685
_cell_length_c   4.95771660
_cell_angle_alpha   90.00000000
_cell_angle_beta   90.00000000
_cell_angle_gamma   90.00000000
_symmetry_Int_Tables_number   1
_chemical_formula_structural   SiO2
_chemical_formula_sum   'Si16 O32'
_cell_volume   624.90990608
_cell_formula_units_Z   16
loop_
 _symmetry_equiv_pos_site_id
 _symmetry_equiv_pos_as_xyz
  1  'x, y, z'
loop_
 _atom_site_type_symbol
 _atom_site_label
 _atom_site_symmetry_multiplicity
 _atom_site_fract_x
 _atom_site_fract_y
 _atom_site_fract_z
 _atom_site_occupancy
  Si  Si0  1  0.70460054  0.39031367  0.71797120  1.0
  Si  Si1  1  0.29539946  0.60968633  0.71797120  1.0
  Si  Si2  1  0.20460054  0.89031367  0.78202880  1.0
  Si  Si3  1  0.79539946  0.10968633  0.78202880  1.0
  Si  Si4  1  0.70460054  0.60968633  0.28202880  1.0
  Si  Si5  1  0.29539946  0.39031367  0.28202880  1.0
  Si  Si6  1  0.20460054  0.10968633  0.21797120  1.0
  Si  Si7  1  0.79539946  0.89031367  0.21797120  1.0
  Si  Si8  1  0.39031367  0.29539946  0.71797120  1.0
  Si  Si9  1  0.60968633  0.70460054  0.71797120  1.0
  Si  Si10  1  0.89031367  0.79539946  0.78202880  1.0
  Si  Si11  1  0.10968633  0.20460054  0.78202880  1.0
  Si  Si12  1  0.60968633  0.29539946  0.28202880  1.0
  Si  Si13  1  0.39031367  0.70460054  0.28202880  1.0
  Si  Si14  1  0.10968633  0.79539946  0.21797120  1.0
  Si  Si15  1  0.89031367  0.20460054  0.21797120  1.0
  O  O16  1  0.60227084  0.39772916  0.50000000  1.0
  O  O17  1  0.39772916  0.60227084  0.50000000  1.0
  O  O18  1  0.10227084  0.89772916  -0.00000000  1.0
  O  O19  1  0.89772916  0.10227084  -0.00000000  1.0
  O  O20  1  0.60227084  0.60227084  0.50000000  1.0
  O  O21  1  0.39772916  0.39772916  0.50000000  1.0
  O  O22  1  0.10227084  0.10227084  -0.00000000  1.0
  O  O23  1  0.89772916  0.89772916  0.00000000  1.0
  O  O24  1  0.61686556  0.38313444  0.00000000  1.0
  O  O25  1  0.38313444  0.61686556  0.00000000  1.0
  O  O26  1  0.11686556  0.88313444  0.50000000  1.0
  O  O27  1  0.88313444  0.11686556  0.50000000  1.0
  O  O28  1  0.61686556  0.61686556  -0.00000000  1.0
  O  O29  1  0.38313444  0.38313444  -0.00000000  1.0
  O  O30  1  0.11686556  0.11686556  0.50000000  1.0
  O  O31  1  0.88313444  0.88313444  0.50000000  1.0
  O  O32  1  0.75000000  0.25000000  0.75000000  1.0
  O  O33  1  0.25000000  0.75000000  0.75000000  1.0
  O  O34  1  0.75000000  0.75000000  0.25000000  1.0
  O  O35  1  0.25000000  0.25000000  0.25000000  1.0
  O  O36  1  0.25000000  0.25000000  0.75000000  1.0
  O  O37  1  0.75000000  0.75000000  0.75000000  1.0
  O  O38  1  0.75000000  0.25000000  0.25000000  1.0
  O  O39  1  0.25000000  0.75000000  0.25000000  1.0
  O  O40  1  0.79438792  0.50000000  0.50000000  1.0
  O  O41  1  0.20561208  0.50000000  0.50000000  1.0
  O  O42  1  0.29438792  0.00000000  -0.00000000  1.0
  O  O43  1  0.70561208  0.00000000  -0.00000000  1.0
  O  O44  1  0.50000000  0.20561208  0.50000000  1.0
  O  O45  1  0.50000000  0.79438792  0.50000000  1.0
  O  O46  1  0.00000000  0.70561208  -0.00000000  1.0
  O  O47  1  0.00000000  0.29438792  -0.00000000  1.0
