# generated using pymatgen
data_H10IrC2(ClO)3
_symmetry_space_group_name_H-M   'P 1'
_cell_length_a   7.56669686
_cell_length_b   7.38627673
_cell_length_c   9.13607588
_cell_angle_alpha   106.36445472
_cell_angle_beta   107.53911080
_cell_angle_gamma   88.46531183
_symmetry_Int_Tables_number   1
_chemical_formula_structural   H10IrC2(ClO)3
_chemical_formula_sum   'H20 Ir2 C4 Cl6 O6'
_cell_volume   466.20751340
_cell_formula_units_Z   2
loop_
 _symmetry_equiv_pos_site_id
 _symmetry_equiv_pos_as_xyz
  1  'x, y, z'
loop_
 _atom_site_type_symbol
 _atom_site_label
 _atom_site_symmetry_multiplicity
 _atom_site_fract_x
 _atom_site_fract_y
 _atom_site_fract_z
 _atom_site_occupancy
  H  H0  1  0.37322559  1.00670372  -0.27021830  1.0
  H  H1  1  0.62677441  -0.00670372  -0.72978170  1.0
  H  H2  1  0.26677299  0.66767953  -0.29702361  1.0
  H  H3  1  0.73322701  0.33232047  -0.70297639  1.0
  H  H4  1  0.37952304  0.74622738  -0.47527894  1.0
  H  H5  1  0.62047696  0.25377262  -0.52472106  1.0
  H  H6  1  0.17225789  0.80470838  -0.49912407  1.0
  H  H7  1  0.82774211  0.19529162  -0.50087593  1.0
  H  H8  1  0.67344827  0.08009341  -0.27633935  1.0
  H  H9  1  0.32655173  0.91990659  -0.72366065  1.0
  H  H10  1  0.73291598  0.17085865  -0.06229187  1.0
  H  H11  1  0.26708402  0.82914135  -0.93770813  1.0
  H  H12  1  0.66466043  0.92490903  -0.15716191  1.0
  H  H13  1  0.33533957  0.07509097  -0.84283809  1.0
  H  H14  1  0.95345605  0.56499070  -0.33735013  1.0
  H  H15  1  0.04654395  0.43500930  -0.66264987  1.0
  H  H16  1  0.01684557  0.62150503  -0.12358359  1.0
  H  H17  1  0.98315443  0.37849497  -0.87641641  1.0
  H  H18  1  0.02496453  0.80446201  -0.21725129  1.0
  H  H19  1  0.97503547  0.19553799  -0.78274871  1.0
  Ir  Ir20  1  0.35012249  0.36781955  -0.19292677  1.0
  Ir  Ir21  1  0.64987751  0.63218045  -0.80707323  1.0
  C  C22  1  0.64449810  0.06853596  -0.16867562  1.0
  C  C23  1  0.35550190  0.93146404  -0.83132438  1.0
  C  C24  1  0.04496011  0.65490057  -0.22396413  1.0
  C  C25  1  0.95503989  0.34509943  -0.77603587  1.0
  Cl  Cl26  1  0.06054166  0.19751443  -0.28097211  1.0
  Cl  Cl27  1  0.93945834  0.80248557  -0.71902789  1.0
  Cl  Cl28  1  0.36186160  0.29604028  -0.45613345  1.0
  Cl  Cl29  1  0.63813840  0.70395972  -0.54386655  1.0
  Cl  Cl30  1  0.64323310  0.54533659  -0.08143983  1.0
  Cl  Cl31  1  0.35676690  0.45466341  -0.91856017  1.0
  O  O32  1  0.45320135  0.10739193  -0.17612325  1.0
  O  O33  1  0.54679865  0.89260807  -0.82387675  1.0
  O  O34  1  0.23930071  0.62508475  -0.21005318  1.0
  O  O35  1  0.76069929  0.37491525  -0.78994682  1.0
  O  O36  1  0.28893303  0.79400691  -0.41677433  1.0
  O  O37  1  0.71106697  0.20599309  -0.58322567  1.0
