# generated using pymatgen
data_Cu6As4S9
_symmetry_space_group_name_H-M   'P 1'
_cell_length_a   9.91940316
_cell_length_b   9.15508257
_cell_length_c   9.16129457
_cell_angle_alpha   109.40663513
_cell_angle_beta   107.73859084
_cell_angle_gamma   90.11610386
_symmetry_Int_Tables_number   1
_chemical_formula_structural   Cu6As4S9
_chemical_formula_sum   'Cu12 As8 S18'
_cell_volume   742.43444879
_cell_formula_units_Z   2
loop_
 _symmetry_equiv_pos_site_id
 _symmetry_equiv_pos_as_xyz
  1  'x, y, z'
loop_
 _atom_site_type_symbol
 _atom_site_label
 _atom_site_symmetry_multiplicity
 _atom_site_fract_x
 _atom_site_fract_y
 _atom_site_fract_z
 _atom_site_occupancy
  Cu  Cu0  1  -0.63235564  -0.97927472  -0.57641696  1.0
  Cu  Cu1  1  -0.61965405  -0.45383236  -0.09217601  1.0
  Cu  Cu2  1  -0.21018195  -0.15506357  -0.18167797  1.0
  Cu  Cu3  1  -0.01667183  -0.50428796  -0.22432863  1.0
  Cu  Cu4  1  -0.40712647  -0.56842292  -0.37232016  1.0
  Cu  Cu5  1  -0.21016508  -0.90930042  -0.42050372  1.0
  Cu  Cu6  1  -0.82511487  -0.59953930  -0.53453078  1.0
  Cu  Cu7  1  -0.41461080  -0.33617506  -0.64892200  1.0
  Cu  Cu8  1  -0.02012604  -0.00659724  -0.72642902  1.0
  Cu  Cu9  1  -0.82573322  -0.36238064  -0.77737050  1.0
  Cu  Cu10  1  -0.61211010  -0.72966931  -0.84684974  1.0
  Cu  Cu11  1  -0.41805798  -0.05387862  -0.88757899  1.0
  As  As12  1  -0.79954575  -0.11560769  -0.04850834  1.0
  As  As13  1  -0.40271052  -0.80536217  -0.13258247  1.0
  As  As14  1  -0.81179895  -0.89468270  -0.29636341  1.0
  As  As15  1  -0.64258608  -0.21847060  -0.35225208  1.0
  As  As16  1  -0.01481650  -0.24932926  -0.46864366  1.0
  As  As17  1  -0.23271525  -0.67251831  -0.71529487  1.0
  As  As18  1  -0.23515028  -0.43953102  -0.94394813  1.0
  As  As19  1  -0.01838569  -0.75103761  -0.96891380  1.0
  S  S20  1  -0.00830189  -0.01429032  0.02447161  1.0
  S  S21  1  -0.81490351  -0.35524583  -0.02328707  1.0
  S  S22  1  -0.62252867  -0.70782027  -0.09246731  1.0
  S  S23  1  -0.41757717  -0.06665405  -0.14213197  1.0
  S  S24  1  -0.21670936  -0.40307959  -0.17239115  1.0
  S  S25  1  -0.00685921  -0.75741487  -0.22939151  1.0
  S  S26  1  -0.61466867  -0.46295704  -0.34496128  1.0
  S  S27  1  -0.22276520  -0.16923603  -0.44168284  1.0
  S  S28  1  -0.42179967  -0.82339710  -0.38878558  1.0
  S  S29  1  -0.02939922  -0.51586558  -0.48342157  1.0
  S  S30  1  -0.81985802  -0.85079677  -0.52627446  1.0
  S  S31  1  -0.61179402  -0.23127497  -0.59112531  1.0
  S  S32  1  -0.41849058  -0.57864327  -0.63118239  1.0
  S  S33  1  -0.22160821  -0.90715291  -0.67621695  1.0
  S  S34  1  -0.02733499  -0.26131599  -0.73668759  1.0
  S  S35  1  -0.81018739  -0.61894288  -0.78792782  1.0
  S  S36  1  -0.41762332  -0.30714521  -0.88866457  1.0
  S  S37  1  -0.61997385  0.02819417  -0.82226099  1.0
