# generated using pymatgen
data_CS3N4
_symmetry_space_group_name_H-M   'P 1'
_cell_length_a   5.72434734
_cell_length_b   9.45064346
_cell_length_c   13.08604641
_cell_angle_alpha   90.00000000
_cell_angle_beta   105.71997766
_cell_angle_gamma   90.00000000
_symmetry_Int_Tables_number   1
_chemical_formula_structural   CS3N4
_chemical_formula_sum   'C4 S12 N16'
_cell_volume   681.46015637
_cell_formula_units_Z   4
loop_
 _symmetry_equiv_pos_site_id
 _symmetry_equiv_pos_as_xyz
  1  'x, y, z'
loop_
 _atom_site_type_symbol
 _atom_site_label
 _atom_site_symmetry_multiplicity
 _atom_site_fract_x
 _atom_site_fract_y
 _atom_site_fract_z
 _atom_site_occupancy
  C  C0  1  0.35557992  0.19984438  0.73606238  1.0
  C  C1  1  0.35557992  0.30015562  0.23606238  1.0
  C  C2  1  0.64442008  0.80015562  0.26393762  1.0
  C  C3  1  0.64442008  0.69984438  0.76393762  1.0
  S  S4  1  0.78265171  0.11109634  0.82844922  1.0
  S  S5  1  0.78265171  0.38890366  0.32844922  1.0
  S  S6  1  0.21734829  0.88890366  0.17155078  1.0
  S  S7  1  0.21734829  0.61109634  0.67155078  1.0
  S  S8  1  0.92308076  0.33294432  0.88658325  1.0
  S  S9  1  0.92308076  0.16705568  0.38658325  1.0
  S  S10  1  0.07691924  0.66705568  0.11341675  1.0
  S  S11  1  0.07691924  0.83294432  0.61341675  1.0
  S  S12  1  0.65335416  0.21004656  0.00877061  1.0
  S  S13  1  0.65335416  0.28995344  0.50877061  1.0
  S  S14  1  0.34664584  0.78995344  0.99122939  1.0
  S  S15  1  0.34664584  0.71004656  0.49122939  1.0
  N  N16  1  0.17228365  0.25667106  0.73625944  1.0
  N  N17  1  0.17228365  0.24332894  0.23625944  1.0
  N  N18  1  0.82771635  0.74332894  0.26374056  1.0
  N  N19  1  0.82771635  0.75667106  0.76374056  1.0
  N  N20  1  0.77839533  0.34555548  0.97708927  1.0
  N  N21  1  0.77839533  0.15444452  0.47708927  1.0
  N  N22  1  0.22160467  0.65444452  0.02291073  1.0
  N  N23  1  0.22160467  0.84555548  0.52291073  1.0
  N  N24  1  0.69960076  0.08015677  0.93720080  1.0
  N  N25  1  0.69960076  0.41984323  0.43720080  1.0
  N  N26  1  0.30039924  0.91984323  0.06279920  1.0
  N  N27  1  0.30039924  0.58015677  0.56279920  1.0
  N  N28  1  0.55105495  0.13345439  0.72850749  1.0
  N  N29  1  0.55105495  0.36654561  0.22850749  1.0
  N  N30  1  0.44894505  0.86654561  0.27149251  1.0
  N  N31  1  0.44894505  0.63345439  0.77149251  1.0
