# generated using pymatgen
data_KNO3
_symmetry_space_group_name_H-M   'P 1'
_cell_length_a   8.79498216
_cell_length_b   5.41848123
_cell_length_c   6.98733786
_cell_angle_alpha   90.00000000
_cell_angle_beta   90.00000000
_cell_angle_gamma   90.00000000
_symmetry_Int_Tables_number   1
_chemical_formula_structural   KNO3
_chemical_formula_sum   'K4 N4 O12'
_cell_volume   332.98470031
_cell_formula_units_Z   4
loop_
 _symmetry_equiv_pos_site_id
 _symmetry_equiv_pos_as_xyz
  1  'x, y, z'
loop_
 _atom_site_type_symbol
 _atom_site_label
 _atom_site_symmetry_multiplicity
 _atom_site_fract_x
 _atom_site_fract_y
 _atom_site_fract_z
 _atom_site_occupancy
  K  K0  1  0.40458337  0.75000000  0.21955736  1.0
  K  K1  1  0.90458337  0.75000000  0.28044264  1.0
  K  K2  1  0.59541663  0.25000000  0.78044264  1.0
  K  K3  1  0.09541663  0.25000000  0.71955736  1.0
  N  N4  1  0.38693554  0.75000000  0.68335427  1.0
  N  N5  1  0.88693554  0.75000000  0.81664573  1.0
  N  N6  1  0.61306446  0.25000000  0.31664573  1.0
  N  N7  1  0.11306446  0.25000000  0.18335427  1.0
  O  O8  1  0.34630161  0.95217918  0.60918980  1.0
  O  O9  1  0.34630161  0.54782082  0.60918980  1.0
  O  O10  1  0.84630161  0.95217918  0.89081020  1.0
  O  O11  1  0.84630161  0.54782082  0.89081020  1.0
  O  O12  1  0.65369839  0.45217918  0.39081020  1.0
  O  O13  1  0.65369839  0.04782082  0.39081020  1.0
  O  O14  1  0.15369839  0.45217918  0.10918980  1.0
  O  O15  1  0.15369839  0.04782082  0.10918980  1.0
  O  O16  1  0.47189221  0.75000000  0.82976996  1.0
  O  O17  1  0.97189221  0.75000000  0.67023004  1.0
  O  O18  1  0.52810779  0.25000000  0.17023004  1.0
  O  O19  1  0.02810779  0.25000000  0.32976996  1.0
