# generated using pymatgen
data_ZnBi6P2O15
_symmetry_space_group_name_H-M   'P 1'
_cell_length_a   8.25757143
_cell_length_b   8.25757143
_cell_length_c   17.29061107
_cell_angle_alpha   76.53491293
_cell_angle_beta   103.46508707
_cell_angle_gamma   140.73444641
_symmetry_Int_Tables_number   1
_chemical_formula_structural   ZnBi6P2O15
_chemical_formula_sum   'Zn2 Bi12 P4 O30'
_cell_volume   723.04570052
_cell_formula_units_Z   2
loop_
 _symmetry_equiv_pos_site_id
 _symmetry_equiv_pos_as_xyz
  1  'x, y, z'
loop_
 _atom_site_type_symbol
 _atom_site_label
 _atom_site_symmetry_multiplicity
 _atom_site_fract_x
 _atom_site_fract_y
 _atom_site_fract_z
 _atom_site_occupancy
  Zn  Zn0  1  1.10848370  0.48078129  0.23147171  1.0
  Zn  Zn1  1  0.48078129  0.10848370  0.76852829  1.0
  Bi  Bi2  1  1.22852079  0.27462340  0.59666574  1.0
  Bi  Bi3  1  0.27462340  0.22852079  0.40333426  1.0
  Bi  Bi4  1  1.09134094  0.37906061  0.75591866  1.0
  Bi  Bi5  1  0.37906061  0.09134094  0.24408134  1.0
  Bi  Bi6  1  0.97970712  0.55993622  0.38977913  1.0
  Bi  Bi7  1  0.55993622  -0.02029288  0.61022087  1.0
  Bi  Bi8  1  0.30438515  0.17021933  0.92098532  1.0
  Bi  Bi9  1  1.17021933  0.30438515  0.07901468  1.0
  Bi  Bi10  1  0.73604584  0.69094343  0.74258260  1.0
  Bi  Bi11  1  0.69094343  -0.26395416  0.25741740  1.0
  Bi  Bi12  1  0.64745286  -0.16062065  0.91334138  1.0
  Bi  Bi13  1  0.83937935  0.64745286  0.08665862  1.0
  P  P14  1  1.01689516  0.59742001  0.89389150  1.0
  P  P15  1  0.59742001  0.01689516  0.10610850  1.0
  P  P16  1  0.96316440  0.68153984  0.57674845  1.0
  P  P17  1  0.68153984  -0.03683560  0.42325155  1.0
  O  O18  1  0.98192280  0.05379090  0.84011115  1.0
  O  O19  1  0.05379090  -0.01807720  0.15988885  1.0
  O  O20  1  1.28648316  0.41968348  0.29161728  1.0
  O  O21  1  0.41968348  0.28648316  0.70838272  1.0
  O  O22  1  0.43745771  -0.37246035  0.66032293  1.0
  O  O23  1  0.62753965  0.43745771  0.33967707  1.0
  O  O24  1  0.94581453  0.13308340  0.66457469  1.0
  O  O25  1  0.13308340  -0.05418547  0.33542531  1.0
  O  O26  1  0.84109451  0.12628351  0.49706241  1.0
  O  O27  1  0.12628351  -0.15890549  0.50293759  1.0
  O  O28  1  1.12233365  0.49735380  0.90878317  1.0
  O  O29  1  0.49735380  0.12233365  0.09121683  1.0
  O  O30  1  1.12653451  0.67948384  0.64545697  1.0
  O  O31  1  0.67948384  0.12653451  0.35454303  1.0
  O  O32  1  0.19197598  -0.14394751  0.83660054  1.0
  O  O33  1  0.85605249  0.19197598  0.16339946  1.0
  O  O34  1  1.01051878  0.66463612  0.96859289  1.0
  O  O35  1  0.66463612  0.01051878  0.03140711  1.0
  O  O36  1  0.74097726  0.40019161  0.84778124  1.0
  O  O37  1  0.40019161  -0.25902274  0.15221876  1.0
  O  O38  1  0.69712447  0.40518848  0.55829458  1.0
  O  O39  1  0.40518848  -0.30287553  0.44170542  1.0
  O  O40  1  0.93233258  0.82335675  0.60644735  1.0
  O  O41  1  0.82335675  -0.06766742  0.39355265  1.0
  O  O42  1  0.48420484  -0.45971847  0.83714395  1.0
  O  O43  1  0.54028153  0.48420484  0.16285605  1.0
  O  O44  1  0.64628260  0.06260054  0.73635855  1.0
  O  O45  1  1.06260054  0.64628260  0.26364145  1.0
  O  O46  1  -0.00550329  -0.00550329  -0.00000000  1.0
  O  O47  1  0.50422035  0.50422035  0.00000000  1.0
