# generated using pymatgen
data_CdNF3
_symmetry_space_group_name_H-M   'P 1'
_cell_length_a   6.52203105
_cell_length_b   8.44144324
_cell_length_c   6.15255608
_cell_angle_alpha   90.00000000
_cell_angle_beta   90.00000000
_cell_angle_gamma   90.00000000
_symmetry_Int_Tables_number   1
_chemical_formula_structural   CdNF3
_chemical_formula_sum   'Cd4 N4 F12'
_cell_volume   338.73115900
_cell_formula_units_Z   4
loop_
 _symmetry_equiv_pos_site_id
 _symmetry_equiv_pos_as_xyz
  1  'x, y, z'
loop_
 _atom_site_type_symbol
 _atom_site_label
 _atom_site_symmetry_multiplicity
 _atom_site_fract_x
 _atom_site_fract_y
 _atom_site_fract_z
 _atom_site_occupancy
  Cd  Cd0  1  0.50000000  0.00000000  0.50000000  1.0
  Cd  Cd1  1  0.50000000  0.50000000  0.50000000  1.0
  Cd  Cd2  1  0.00000000  0.00000000  0.00000000  1.0
  Cd  Cd3  1  0.00000000  0.50000000  0.00000000  1.0
  N  N4  1  -0.14276803  0.75000000  0.63313089  1.0
  N  N5  1  0.35723197  0.75000000  -0.13313089  1.0
  N  N6  1  0.14276803  0.25000000  0.36686911  1.0
  N  N7  1  0.64276803  0.25000000  0.13313089  1.0
  F  F8  1  0.31905166  0.95504244  0.82840804  1.0
  F  F9  1  0.31905166  0.54495756  0.82840804  1.0
  F  F10  1  0.81905166  0.95504244  0.67159196  1.0
  F  F11  1  0.81905166  0.54495756  0.67159196  1.0
  F  F12  1  0.68094834  0.45504244  0.17159196  1.0
  F  F13  1  0.68094834  0.04495756  0.17159196  1.0
  F  F14  1  0.18094834  0.45504244  0.32840804  1.0
  F  F15  1  0.18094834  0.04495756  0.32840804  1.0
  F  F16  1  0.97758305  0.75000000  0.06846640  1.0
  F  F17  1  0.47758305  0.75000000  0.43153360  1.0
  F  F18  1  0.02241695  0.25000000  0.93153360  1.0
  F  F19  1  0.52241695  0.25000000  0.56846640  1.0
