# generated using pymatgen
data_K2Co(CO2)4
_symmetry_space_group_name_H-M   'P 1'
_cell_length_a   8.68709189
_cell_length_b   7.02845681
_cell_length_c   14.95422947
_cell_angle_alpha   90.00000000
_cell_angle_beta   92.41560372
_cell_angle_gamma   90.00000000
_symmetry_Int_Tables_number   1
_chemical_formula_structural   K2Co(CO2)4
_chemical_formula_sum   'K8 Co4 C16 O32'
_cell_volume   912.24679402
_cell_formula_units_Z   4
loop_
 _symmetry_equiv_pos_site_id
 _symmetry_equiv_pos_as_xyz
  1  'x, y, z'
loop_
 _atom_site_type_symbol
 _atom_site_label
 _atom_site_symmetry_multiplicity
 _atom_site_fract_x
 _atom_site_fract_y
 _atom_site_fract_z
 _atom_site_occupancy
  K  K0  1  0.74913201  0.44593545  0.50659219  1.0
  K  K1  1  0.74913201  0.55406455  1.00659219  1.0
  K  K2  1  0.25086799  0.44593545  -0.00659219  1.0
  K  K3  1  0.25086799  0.55406455  0.49340781  1.0
  K  K4  1  -0.00000000  0.24574393  0.25000000  1.0
  K  K5  1  -0.00000000  0.75425607  0.75000000  1.0
  K  K6  1  0.50000000  0.26715489  0.25000000  1.0
  K  K7  1  0.50000000  0.73284511  0.75000000  1.0
  Co  Co8  1  0.74199203  0.90020322  0.39168007  1.0
  Co  Co9  1  0.74199203  0.09979678  0.89168007  1.0
  Co  Co10  1  0.25800797  0.90020322  0.10831993  1.0
  Co  Co11  1  0.25800797  0.09979678  0.60831993  1.0
  C  C12  1  0.75266284  0.84222319  0.20320498  1.0
  C  C13  1  0.75266284  0.15777681  0.70320498  1.0
  C  C14  1  0.24733716  0.84222319  0.29679502  1.0
  C  C15  1  0.24733716  0.15777681  0.79679502  1.0
  C  C16  1  0.74212215  0.63894718  0.24582665  1.0
  C  C17  1  0.74212215  0.36105282  0.74582665  1.0
  C  C18  1  0.25787785  0.63894718  0.25417335  1.0
  C  C19  1  0.25787785  0.36105282  0.75417335  1.0
  C  C20  1  0.99852620  0.89860341  0.98170593  1.0
  C  C21  1  0.99852620  0.10139659  0.48170593  1.0
  C  C22  1  0.00147380  0.89860341  0.51829407  1.0
  C  C23  1  0.00147380  0.10139659  0.01829407  1.0
  C  C24  1  0.49780955  0.90155197  0.97866954  1.0
  C  C25  1  0.49780955  0.09844803  0.47866954  1.0
  C  C26  1  0.50219045  0.90155197  0.52133046  1.0
  C  C27  1  0.50219045  0.09844803  0.02133046  1.0
  O  O28  1  0.75344378  0.49536506  0.19679249  1.0
  O  O29  1  0.75344378  0.50463494  0.69679249  1.0
  O  O30  1  0.24655622  0.49536506  0.30320751  1.0
  O  O31  1  0.24655622  0.50463494  0.80320751  1.0
  O  O32  1  0.75036985  0.98175617  0.25973860  1.0
  O  O33  1  0.75036985  0.01824383  0.75973860  1.0
  O  O34  1  0.24963015  0.98175617  0.24026140  1.0
  O  O35  1  0.24963015  0.01824383  0.74026140  1.0
  O  O36  1  0.59168221  0.78044482  0.48928902  1.0
  O  O37  1  0.59168221  0.21955518  0.98928902  1.0
  O  O38  1  0.40831779  0.78044482  0.01071098  1.0
  O  O39  1  0.40831779  0.21955518  0.51071098  1.0
  O  O40  1  0.90724377  0.78090247  0.48253063  1.0
  O  O41  1  0.90724377  0.21909753  0.98253063  1.0
  O  O42  1  0.09275623  0.78090247  0.01746937  1.0
  O  O43  1  0.09275623  0.21909753  0.51746937  1.0
  O  O44  1  0.90057319  0.86237706  0.91885824  1.0
  O  O45  1  0.90057319  0.13762294  0.41885824  1.0
  O  O46  1  0.09942681  0.86237706  0.58114176  1.0
  O  O47  1  0.09942681  0.13762294  0.08114176  1.0
  O  O48  1  0.76230072  0.85839102  0.12114187  1.0
  O  O49  1  0.76230072  0.14160898  0.62114187  1.0
  O  O50  1  0.23769928  0.85839102  0.37885813  1.0
  O  O51  1  0.23769928  0.14160898  0.87885813  1.0
  O  O52  1  0.72099936  0.63474996  0.33019940  1.0
  O  O53  1  0.72099936  0.36525004  0.83019940  1.0
  O  O54  1  0.27900064  0.63474996  0.16980060  1.0
  O  O55  1  0.27900064  0.36525004  0.66980060  1.0
  O  O56  1  0.58706978  0.87367053  0.91469106  1.0
  O  O57  1  0.58706978  0.12632947  0.41469106  1.0
  O  O58  1  0.41293022  0.87367053  0.58530894  1.0
  O  O59  1  0.41293022  0.12632947  0.08530894  1.0
