# generated using pymatgen
data_La(IO3)3
_symmetry_space_group_name_H-M   'P 1'
_cell_length_a   7.63452539
_cell_length_b   8.81685625
_cell_length_c   13.99116490
_cell_angle_alpha   90.00000000
_cell_angle_beta   100.49808922
_cell_angle_gamma   90.00000000
_symmetry_Int_Tables_number   1
_chemical_formula_structural   La(IO3)3
_chemical_formula_sum   'La4 I12 O36'
_cell_volume   926.01599031
_cell_formula_units_Z   4
loop_
 _symmetry_equiv_pos_site_id
 _symmetry_equiv_pos_as_xyz
  1  'x, y, z'
loop_
 _atom_site_type_symbol
 _atom_site_label
 _atom_site_symmetry_multiplicity
 _atom_site_fract_x
 _atom_site_fract_y
 _atom_site_fract_z
 _atom_site_occupancy
  La  La0  1  0.82284581  0.76636921  0.85648593  1.0
  La  La1  1  0.82284581  0.73363079  0.35648593  1.0
  La  La2  1  0.17715419  0.26636921  0.64351407  1.0
  La  La3  1  0.17715419  0.23363079  0.14351407  1.0
  I  I4  1  0.81818942  0.30196615  0.88834069  1.0
  I  I5  1  0.81818942  0.19803385  0.38834069  1.0
  I  I6  1  0.18181058  0.80196615  0.61165931  1.0
  I  I7  1  0.18181058  0.69803385  0.11165931  1.0
  I  I8  1  0.74411905  0.52496412  0.61409034  1.0
  I  I9  1  0.74411905  0.97503588  0.11409034  1.0
  I  I10  1  0.25588095  0.02496412  0.88590966  1.0
  I  I11  1  0.25588095  0.47503588  0.38590966  1.0
  I  I12  1  0.33379069  0.55611391  0.85915178  1.0
  I  I13  1  0.33379069  0.94388609  0.35915178  1.0
  I  I14  1  0.66620931  0.05611391  0.64084822  1.0
  I  I15  1  0.66620931  0.44388609  0.14084822  1.0
  O  O16  1  0.99084145  0.49316952  0.62577161  1.0
  O  O17  1  0.99084145  0.00683048  0.12577161  1.0
  O  O18  1  0.00915855  0.99316952  0.87422839  1.0
  O  O19  1  0.00915855  0.50683048  0.37422839  1.0
  O  O20  1  0.97639004  0.82184567  0.51619368  1.0
  O  O21  1  0.97639004  0.67815433  0.01619368  1.0
  O  O22  1  0.02360996  0.32184567  0.98380632  1.0
  O  O23  1  0.02360996  0.17815433  0.48380632  1.0
  O  O24  1  0.84936504  0.20197358  0.67116375  1.0
  O  O25  1  0.84936504  0.29802642  0.17116375  1.0
  O  O26  1  0.15063496  0.70197358  0.82883625  1.0
  O  O27  1  0.15063496  0.79802642  0.32883625  1.0
  O  O28  1  0.83423925  0.47961558  0.81541121  1.0
  O  O29  1  0.83423925  0.02038442  0.31541121  1.0
  O  O30  1  0.16576075  0.97961558  0.68458879  1.0
  O  O31  1  0.16576075  0.52038442  0.18458879  1.0
  O  O32  1  0.75128434  0.71733080  0.67400841  1.0
  O  O33  1  0.75128434  0.78266920  0.17400841  1.0
  O  O34  1  0.24871566  0.21733080  0.82599159  1.0
  O  O35  1  0.24871566  0.28266920  0.32599159  1.0
  O  O36  1  0.68957643  0.93761116  0.98040723  1.0
  O  O37  1  0.68957643  0.56238884  0.48040723  1.0
  O  O38  1  0.31042357  0.43761116  0.51959277  1.0
  O  O39  1  0.31042357  0.06238884  0.01959277  1.0
  O  O40  1  0.65526314  0.98270162  0.76600029  1.0
  O  O41  1  0.65526314  0.51729838  0.26600029  1.0
  O  O42  1  0.34473686  0.48270162  0.73399971  1.0
  O  O43  1  0.34473686  0.01729838  0.23399971  1.0
  O  O44  1  0.63526522  0.35194285  0.95577274  1.0
  O  O45  1  0.63526522  0.14805715  0.45577274  1.0
  O  O46  1  0.36473478  0.85194285  0.54422726  1.0
  O  O47  1  0.36473478  0.64805715  0.04422726  1.0
  O  O48  1  0.52746371  0.68842756  0.87137633  1.0
  O  O49  1  0.52746371  0.81157244  0.37137633  1.0
  O  O50  1  0.47253629  0.18842756  0.62862367  1.0
  O  O51  1  0.47253629  0.31157244  0.12862367  1.0
