# generated using pymatgen
data_CrSbF10
_symmetry_space_group_name_H-M   'P 1'
_cell_length_a   6.11293157
_cell_length_b   11.00847359
_cell_length_c   12.48826026
_cell_angle_alpha   90.00000000
_cell_angle_beta   98.81860503
_cell_angle_gamma   90.00000000
_symmetry_Int_Tables_number   1
_chemical_formula_structural   CrSbF10
_chemical_formula_sum   'Cr4 Sb4 F40'
_cell_volume   830.45106813
_cell_formula_units_Z   4
loop_
 _symmetry_equiv_pos_site_id
 _symmetry_equiv_pos_as_xyz
  1  'x, y, z'
loop_
 _atom_site_type_symbol
 _atom_site_label
 _atom_site_symmetry_multiplicity
 _atom_site_fract_x
 _atom_site_fract_y
 _atom_site_fract_z
 _atom_site_occupancy
  Cr  Cr0  1  0.68119376  0.75486234  0.81496392  1.0
  Cr  Cr1  1  0.68119376  0.74513766  0.31496392  1.0
  Cr  Cr2  1  0.31880624  0.25486234  0.68503608  1.0
  Cr  Cr3  1  0.31880624  0.24513766  0.18503608  1.0
  Sb  Sb4  1  0.00000000  0.00000000  0.50000000  1.0
  Sb  Sb5  1  0.00000000  0.50000000  0.00000000  1.0
  Sb  Sb6  1  0.00000000  0.00000000  0.00000000  1.0
  Sb  Sb7  1  0.00000000  0.50000000  0.50000000  1.0
  F  F8  1  0.92976624  0.78851520  0.77708569  1.0
  F  F9  1  0.92976624  0.71148480  0.27708569  1.0
  F  F10  1  0.07023376  0.28851520  0.72291431  1.0
  F  F11  1  0.07023376  0.21148480  0.22291431  1.0
  F  F12  1  0.94016788  0.43616801  0.35704676  1.0
  F  F13  1  0.94016788  0.06383199  0.85704676  1.0
  F  F14  1  0.05983212  0.93616801  0.14295324  1.0
  F  F15  1  0.05983212  0.56383199  0.64295324  1.0
  F  F16  1  0.85800082  0.60075938  0.87378500  1.0
  F  F17  1  0.85800082  0.89924062  0.37378500  1.0
  F  F18  1  0.14199918  0.10075938  0.62621500  1.0
  F  F19  1  0.14199918  0.39924062  0.12621500  1.0
  F  F20  1  0.83944389  0.36208332  0.93999695  1.0
  F  F21  1  0.83944389  0.13791668  0.43999695  1.0
  F  F22  1  0.16055611  0.86208332  0.56000305  1.0
  F  F23  1  0.16055611  0.63791668  0.06000305  1.0
  F  F24  1  0.81854772  0.85100231  0.95279962  1.0
  F  F25  1  0.81854772  0.64899769  0.45279962  1.0
  F  F26  1  0.18145228  0.35100231  0.54720038  1.0
  F  F27  1  0.18145228  0.14899769  0.04720038  1.0
  F  F28  1  0.76712524  0.96053021  0.57883923  1.0
  F  F29  1  0.76712524  0.53946979  0.07883923  1.0
  F  F30  1  0.23287476  0.46053021  0.92116077  1.0
  F  F31  1  0.23287476  0.03946979  0.42116077  1.0
  F  F32  1  0.57357560  0.66893492  0.70569526  1.0
  F  F33  1  0.57357560  0.83106508  0.20569526  1.0
  F  F34  1  0.42642440  0.16893492  0.79430474  1.0
  F  F35  1  0.42642440  0.33106508  0.29430474  1.0
  F  F36  1  0.54010054  0.88291861  0.76880618  1.0
  F  F37  1  0.54010054  0.61708139  0.26880618  1.0
  F  F38  1  0.45989946  0.38291861  0.73119382  1.0
  F  F39  1  0.45989946  0.11708139  0.23119382  1.0
  F  F40  1  0.51395238  0.70797633  0.90344301  1.0
  F  F41  1  0.51395238  0.79202367  0.40344301  1.0
  F  F42  1  0.48604762  0.20797633  0.59655699  1.0
  F  F43  1  0.48604762  0.29202367  0.09655699  1.0
  F  F44  1  0.25729350  0.92268603  0.96474774  1.0
  F  F45  1  0.25729350  0.57731397  0.46474774  1.0
  F  F46  1  0.74270650  0.42268603  0.53525226  1.0
  F  F47  1  0.74270650  0.07731397  0.03525226  1.0
