# generated using pymatgen
data_Lu8In3Co
_symmetry_space_group_name_H-M   'P 1'
_cell_length_a   10.13864210
_cell_length_b   10.13864210
_cell_length_c   6.85346084
_cell_angle_alpha   90.00000000
_cell_angle_beta   90.00000000
_cell_angle_gamma   120.00000000
_symmetry_Int_Tables_number   1
_chemical_formula_structural   Lu8In3Co
_chemical_formula_sum   'Lu16 In6 Co2'
_cell_volume   610.09877430
_cell_formula_units_Z   2
loop_
 _symmetry_equiv_pos_site_id
 _symmetry_equiv_pos_as_xyz
  1  'x, y, z'
loop_
 _atom_site_type_symbol
 _atom_site_label
 _atom_site_symmetry_multiplicity
 _atom_site_fract_x
 _atom_site_fract_y
 _atom_site_fract_z
 _atom_site_occupancy
  Lu  Lu0  1  0.06785429  0.53392715  0.02266785  1.0
  Lu  Lu1  1  0.53392715  0.06785429  0.52266785  1.0
  Lu  Lu2  1  0.53392715  0.46607285  0.52266785  1.0
  Lu  Lu3  1  0.46607285  0.53392715  0.02266785  1.0
  Lu  Lu4  1  0.46607285  0.93214571  0.02266785  1.0
  Lu  Lu5  1  0.93214571  0.46607285  0.52266785  1.0
  Lu  Lu6  1  0.35869454  0.17934727  0.22915907  1.0
  Lu  Lu7  1  0.17934727  0.35869454  0.72915907  1.0
  Lu  Lu8  1  0.17934727  0.82065273  0.72915907  1.0
  Lu  Lu9  1  0.82065273  0.17934727  0.22915907  1.0
  Lu  Lu10  1  0.82065273  0.64130546  0.22915907  1.0
  Lu  Lu11  1  0.64130546  0.82065273  0.72915907  1.0
  Lu  Lu12  1  0.33333333  0.66666667  0.41122144  1.0
  Lu  Lu13  1  0.66666667  0.33333333  0.91122144  1.0
  Lu  Lu14  1  0.00000000  0.00000000  0.00883426  1.0
  Lu  Lu15  1  0.00000000  0.00000000  0.50883426  1.0
  In  In16  1  0.67510104  0.83755052  0.26787977  1.0
  In  In17  1  0.83755052  0.67510104  0.76787977  1.0
  In  In18  1  0.83755052  0.16244948  0.76787977  1.0
  In  In19  1  0.16244948  0.83755052  0.26787977  1.0
  In  In20  1  0.16244948  0.32489896  0.26787977  1.0
  In  In21  1  0.32489896  0.16244948  0.76787977  1.0
  Co  Co22  1  0.33333333  0.66666667  0.79882423  1.0
  Co  Co23  1  0.66666667  0.33333333  0.29882423  1.0
