# generated using pymatgen
data_H8C6N3Cl2F3
_symmetry_space_group_name_H-M   'P 1'
_cell_length_a   9.45594105
_cell_length_b   9.45594105
_cell_length_c   6.15875080
_cell_angle_alpha   90.00000000
_cell_angle_beta   90.00000000
_cell_angle_gamma   64.42943626
_symmetry_Int_Tables_number   1
_chemical_formula_structural   H8C6N3Cl2F3
_chemical_formula_sum   'H16 C12 N6 Cl4 F6'
_cell_volume   496.74656287
_cell_formula_units_Z   2
loop_
 _symmetry_equiv_pos_site_id
 _symmetry_equiv_pos_as_xyz
  1  'x, y, z'
loop_
 _atom_site_type_symbol
 _atom_site_label
 _atom_site_symmetry_multiplicity
 _atom_site_fract_x
 _atom_site_fract_y
 _atom_site_fract_z
 _atom_site_occupancy
  H  H0  1  -0.00785373  1.68167595  0.39124382  1.0
  H  H1  1  -0.00785373  1.68167595  0.10875618  1.0
  H  H2  1  0.68167595  0.99214627  0.89124382  1.0
  H  H3  1  0.68167595  0.99214627  0.60875618  1.0
  H  H4  1  -0.68167595  1.00785373  0.39124382  1.0
  H  H5  1  -0.68167595  1.00785373  0.10875618  1.0
  H  H6  1  0.00785373  0.31832405  0.89124382  1.0
  H  H7  1  0.00785373  0.31832405  0.60875618  1.0
  H  H8  1  -0.03652104  1.92876926  0.25000000  1.0
  H  H9  1  0.92876926  0.96347896  0.75000000  1.0
  H  H10  1  -0.92876926  1.03652104  0.25000000  1.0
  H  H11  1  0.03652104  0.07123074  0.75000000  1.0
  H  H12  1  0.07373322  0.51342373  0.25000000  1.0
  H  H13  1  -0.48657627  1.07373322  0.75000000  1.0
  H  H14  1  0.48657627  0.92626678  0.25000000  1.0
  H  H15  1  -0.07373322  1.48657627  0.75000000  1.0
  C  C16  1  0.34380718  0.50760857  0.25000000  1.0
  C  C17  1  -0.49239143  1.34380718  0.75000000  1.0
  C  C18  1  0.49239143  0.65619282  0.25000000  1.0
  C  C19  1  -0.34380718  1.49239143  0.75000000  1.0
  C  C20  1  0.20496914  0.64418624  0.25000000  1.0
  C  C21  1  -0.35581376  1.20496914  0.75000000  1.0
  C  C22  1  0.35581376  0.79503086  0.25000000  1.0
  C  C23  1  -0.20496914  1.35581376  0.75000000  1.0
  C  C24  1  0.20616107  0.79383893  0.25000000  1.0
  C  C25  1  -0.20616107  1.20616107  0.75000000  1.0
  C  C26  1  -0.51063323  1.51063323  0.25000000  1.0
  C  C27  1  0.51063323  0.48936677  0.75000000  1.0
  N  N28  1  0.05706742  0.63127198  0.25000000  1.0
  N  N29  1  -0.36872802  1.05706742  0.75000000  1.0
  N  N30  1  0.36872802  0.94293258  0.25000000  1.0
  N  N31  1  -0.05706742  1.36872802  0.75000000  1.0
  N  N32  1  0.07187951  0.92812049  0.25000000  1.0
  N  N33  1  -0.07187951  1.07187951  0.75000000  1.0
  Cl  Cl34  1  0.04015111  0.29819155  0.25000000  1.0
  Cl  Cl35  1  -0.70180845  1.04015111  0.75000000  1.0
  Cl  Cl36  1  0.70180845  0.95984889  0.25000000  1.0
  Cl  Cl37  1  -0.04015111  1.70180845  0.75000000  1.0
  F  F38  1  -0.36695329  1.66076311  0.25000000  1.0
  F  F39  1  0.66076311  0.63304671  0.75000000  1.0
  F  F40  1  -0.66076310  1.36695329  0.25000000  1.0
  F  F41  1  0.36695329  0.33923690  0.75000000  1.0
  F  F42  1  -0.37685230  1.37685230  0.25000000  1.0
  F  F43  1  0.37685230  0.62314770  0.75000000  1.0
