# generated using pymatgen
data_NaZnSiO4
_symmetry_space_group_name_H-M   'P 1'
_cell_length_a   5.20187661
_cell_length_b   7.48272635
_cell_length_c   9.52407353
_cell_angle_alpha   90.00000000
_cell_angle_beta   90.00000000
_cell_angle_gamma   90.00000000
_symmetry_Int_Tables_number   1
_chemical_formula_structural   NaZnSiO4
_chemical_formula_sum   'Na4 Zn4 Si4 O16'
_cell_volume   370.71712498
_cell_formula_units_Z   4
loop_
 _symmetry_equiv_pos_site_id
 _symmetry_equiv_pos_as_xyz
  1  'x, y, z'
loop_
 _atom_site_type_symbol
 _atom_site_label
 _atom_site_symmetry_multiplicity
 _atom_site_fract_x
 _atom_site_fract_y
 _atom_site_fract_z
 _atom_site_occupancy
  Zn  Zn0  1  0.47217899  0.60247530  0.50302967  1.0
  Zn  Zn1  1  0.97217899  0.89752470  0.49697033  1.0
  Zn  Zn2  1  0.52782101  0.10247530  0.99697033  1.0
  Zn  Zn3  1  0.02782101  0.39752470  0.00302967  1.0
  Na  Na4  1  0.98054529  0.79438512  0.85069744  1.0
  Na  Na5  1  0.48054529  0.70561488  0.14930256  1.0
  Na  Na6  1  0.01945471  0.29438512  0.64930256  1.0
  Na  Na7  1  0.51945471  0.20561488  0.35069744  1.0
  Si  Si8  1  0.48172746  0.98562003  0.66657124  1.0
  Si  Si9  1  0.98172746  0.51437997  0.33342876  1.0
  Si  Si10  1  0.51827254  0.48562003  0.83342876  1.0
  Si  Si11  1  0.01827254  0.01437997  0.16657124  1.0
  O  O12  1  0.16889328  0.97966358  0.65818162  1.0
  O  O13  1  0.66889328  0.52033642  0.34181838  1.0
  O  O14  1  0.83110672  0.47966358  0.84181838  1.0
  O  O15  1  0.33110672  0.02033642  0.15818162  1.0
  O  O16  1  0.37664483  0.33069513  0.93062862  1.0
  O  O17  1  0.87664483  0.16930487  0.06937138  1.0
  O  O18  1  0.62335517  0.83069513  0.56937138  1.0
  O  O19  1  0.12335517  0.66930487  0.43062862  1.0
  O  O20  1  0.39246482  0.67084619  0.89893378  1.0
  O  O21  1  0.89246482  0.82915381  0.10106622  1.0
  O  O22  1  0.60753518  0.17084619  0.60106622  1.0
  O  O23  1  0.10753518  0.32915381  0.39893378  1.0
  O  O24  1  0.41501242  0.45983184  0.67028145  1.0
  O  O25  1  0.91501242  0.04016816  0.32971855  1.0
  O  O26  1  0.58498758  0.95983184  0.82971855  1.0
  O  O27  1  0.08498758  0.54016816  0.17028145  1.0
