# generated using pymatgen
data_Sr2ZrTiO6
_symmetry_space_group_name_H-M   'P 1'
_cell_length_a   4.03616009
_cell_length_b   4.03616009
_cell_length_c   8.29183223
_cell_angle_alpha   90.00000000
_cell_angle_beta   90.00000000
_cell_angle_gamma   90.00000000
_symmetry_Int_Tables_number   1
_chemical_formula_structural   Sr2ZrTiO6
_chemical_formula_sum   'Sr2 Zr1 Ti1 O6'
_cell_volume   135.07882472
_cell_formula_units_Z   1
loop_
 _symmetry_equiv_pos_site_id
 _symmetry_equiv_pos_as_xyz
  1  'x, y, z'
loop_
 _atom_site_type_symbol
 _atom_site_label
 _atom_site_symmetry_multiplicity
 _atom_site_fract_x
 _atom_site_fract_y
 _atom_site_fract_z
 _atom_site_occupancy
  Sr  Sr0  1  0.50000000  0.50000000  0.03532846  1.0
  Sr  Sr1  1  0.50000000  0.50000000  0.49904901  1.0
  Zr  Zr2  1  0.00000000  0.00000000  0.75266012  1.0
  Ti  Ti3  1  0.00000000  0.00000000  0.25454022  1.0
  O  O4  1  0.50000000  0.00000000  0.23646374  1.0
  O  O5  1  0.00000000  0.50000000  0.23646374  1.0
  O  O6  1  0.50000000  0.00000000  0.71445778  1.0
  O  O7  1  0.00000000  0.50000000  0.71445778  1.0
  O  O8  1  0.00000000  0.00000000  -0.00401239  1.0
  O  O9  1  0.00000000  0.00000000  0.47269152  1.0
