# generated using pymatgen
data_BiSb
_symmetry_space_group_name_H-M   'P 1'
_cell_length_a   4.56820103
_cell_length_b   4.56820103
_cell_length_c   4.56820103
_cell_angle_alpha   91.35450564
_cell_angle_beta   121.60513051
_cell_angle_gamma   116.89131011
_symmetry_Int_Tables_number   1
_chemical_formula_structural   BiSb
_chemical_formula_sum   'Bi1 Sb1'
_cell_volume   68.01468188
_cell_formula_units_Z   1
loop_
 _symmetry_equiv_pos_site_id
 _symmetry_equiv_pos_as_xyz
  1  'x, y, z'
loop_
 _atom_site_type_symbol
 _atom_site_label
 _atom_site_symmetry_multiplicity
 _atom_site_fract_x
 _atom_site_fract_y
 _atom_site_fract_z
 _atom_site_occupancy
  Bi  Bi0  1  0.63647811  0.13647811  0.50000000  1.0
  Sb  Sb1  1  0.71552189  0.71552189  1.00000000  1.0
