# generated using pymatgen
data_BaCuN
_symmetry_space_group_name_H-M   'P 1'
_cell_length_a   7.81625255
_cell_length_b   7.81625255
_cell_length_c   9.54385814
_cell_angle_alpha   77.93077013
_cell_angle_beta   102.06922987
_cell_angle_gamma   137.93017944
_symmetry_Int_Tables_number   1
_chemical_formula_structural   BaCuN
_chemical_formula_sum   'Ba6 Cu6 N6'
_cell_volume   380.74869495
_cell_formula_units_Z   6
loop_
 _symmetry_equiv_pos_site_id
 _symmetry_equiv_pos_as_xyz
  1  'x, y, z'
loop_
 _atom_site_type_symbol
 _atom_site_label
 _atom_site_symmetry_multiplicity
 _atom_site_fract_x
 _atom_site_fract_y
 _atom_site_fract_z
 _atom_site_occupancy
  Ba  Ba0  1  0.40614716  0.07068444  0.62847342  1.0
  Ba  Ba1  1  0.92931556  0.59385284  0.12847342  1.0
  Ba  Ba2  1  1.07068444  0.40614716  0.87152658  1.0
  Ba  Ba3  1  0.59385284  -0.07068444  0.37152658  1.0
  Ba  Ba4  1  0.71728717  0.71728717  0.75000000  1.0
  Ba  Ba5  1  0.28271283  0.28271283  0.25000000  1.0
  Cu  Cu6  1  0.50000000  0.00000000  -0.00000000  1.0
  Cu  Cu7  1  1.00000000  0.50000000  0.50000000  1.0
  Cu  Cu8  1  0.30564337  0.15814573  0.94061254  1.0
  Cu  Cu9  1  0.84185427  0.69435663  0.44061254  1.0
  Cu  Cu10  1  1.15814573  0.30564337  0.55938746  1.0
  Cu  Cu11  1  0.69435663  -0.15814573  0.05938746  1.0
  N  N12  1  0.61555073  0.29861006  0.89375742  1.0
  N  N13  1  0.70138994  0.38444927  0.39375742  1.0
  N  N14  1  1.29861006  0.61555073  0.60624258  1.0
  N  N15  1  0.38444927  -0.29861006  0.10624258  1.0
  N  N16  1  0.00000000  0.00000000  0.00000000  1.0
  N  N17  1  0.00000000  -0.00000000  0.50000000  1.0
