# generated using pymatgen
data_Na2Si2O5
_symmetry_space_group_name_H-M   'P 1'
_cell_length_a   6.49680218
_cell_length_b   4.96940237
_cell_length_c   15.64762299
_cell_angle_alpha   90.00000000
_cell_angle_beta   90.00000000
_cell_angle_gamma   90.00000000
_symmetry_Int_Tables_number   1
_chemical_formula_structural   Na2Si2O5
_chemical_formula_sum   'Na8 Si8 O20'
_cell_volume   505.18701521
_cell_formula_units_Z   4
loop_
 _symmetry_equiv_pos_site_id
 _symmetry_equiv_pos_as_xyz
  1  'x, y, z'
loop_
 _atom_site_type_symbol
 _atom_site_label
 _atom_site_symmetry_multiplicity
 _atom_site_fract_x
 _atom_site_fract_y
 _atom_site_fract_z
 _atom_site_occupancy
  Na  Na0  1  0.59787208  0.73683357  0.06024361  1.0
  Na  Na1  1  0.59787208  0.26316643  0.56024361  1.0
  Na  Na2  1  0.09787208  0.23683357  0.43975639  1.0
  Na  Na3  1  0.09787208  0.76316643  0.93975639  1.0
  Na  Na4  1  0.40212792  0.73683357  0.43975639  1.0
  Na  Na5  1  0.40212792  0.26316643  0.93975639  1.0
  Na  Na6  1  0.90212792  0.23683357  0.06024361  1.0
  Na  Na7  1  0.90212792  0.76316643  0.56024361  1.0
  Si  Si8  1  0.89520549  0.70543489  0.34317494  1.0
  Si  Si9  1  0.89520549  0.29456511  0.84317494  1.0
  Si  Si10  1  0.39520549  0.20543489  0.15682506  1.0
  Si  Si11  1  0.39520549  0.79456511  0.65682506  1.0
  Si  Si12  1  0.10479451  0.70543489  0.15682506  1.0
  Si  Si13  1  0.10479451  0.29456511  0.65682506  1.0
  Si  Si14  1  0.60479451  0.20543489  0.34317494  1.0
  Si  Si15  1  0.60479451  0.79456511  0.84317494  1.0
  O  O16  1  0.95248006  0.76153798  0.07829487  1.0
  O  O17  1  0.95248006  0.23846202  0.57829487  1.0
  O  O18  1  0.45248006  0.26153798  0.42170513  1.0
  O  O19  1  0.45248006  0.73846202  0.92170513  1.0
  O  O20  1  0.04751994  0.76153798  0.42170513  1.0
  O  O21  1  0.04751994  0.23846202  0.92170513  1.0
  O  O22  1  0.54751994  0.26153798  0.07829487  1.0
  O  O23  1  0.54751994  0.73846202  0.57829487  1.0
  O  O24  1  0.67988224  0.88533028  0.34803416  1.0
  O  O25  1  0.67988224  0.11466972  0.84803416  1.0
  O  O26  1  0.17988224  0.38533028  0.15196584  1.0
  O  O27  1  0.17988224  0.61466972  0.65196584  1.0
  O  O28  1  0.32011776  0.88533028  0.15196584  1.0
  O  O29  1  0.32011776  0.11466972  0.65196584  1.0
  O  O30  1  0.82011776  0.38533028  0.34803416  1.0
  O  O31  1  0.82011776  0.61466972  0.84803416  1.0
  O  O32  1  0.00000000  0.76165733  0.25000000  1.0
  O  O33  1  0.00000000  0.23834267  0.75000000  1.0
  O  O34  1  0.50000000  0.26165733  0.25000000  1.0
  O  O35  1  0.50000000  0.73834267  0.75000000  1.0
