# generated using pymatgen
data_Sb7Pd20
_symmetry_space_group_name_H-M   'P 1'
_cell_length_a   7.81807970
_cell_length_b   7.81807970
_cell_length_c   7.81807970
_cell_angle_alpha   99.12162630
_cell_angle_beta   99.12162630
_cell_angle_gamma   99.12162630
_symmetry_Int_Tables_number   1
_chemical_formula_structural   Sb7Pd20
_chemical_formula_sum   'Sb7 Pd20'
_cell_volume   457.50794652
_cell_formula_units_Z   1
loop_
 _symmetry_equiv_pos_site_id
 _symmetry_equiv_pos_as_xyz
  1  'x, y, z'
loop_
 _atom_site_type_symbol
 _atom_site_label
 _atom_site_symmetry_multiplicity
 _atom_site_fract_x
 _atom_site_fract_y
 _atom_site_fract_z
 _atom_site_occupancy
  Sb  Sb0  1  1.45544601  0.87822143  -0.27415193  1.0
  Sb  Sb1  1  1.12177857  0.27415193  -0.45544601  1.0
  Sb  Sb2  1  1.27415193  -0.45544601  0.12177857  1.0
  Sb  Sb3  1  0.54455399  0.12177857  0.27415193  1.0
  Sb  Sb4  1  0.87822143  0.72584807  0.45544601  1.0
  Sb  Sb5  1  0.72584807  1.45544601  -0.12177857  1.0
  Sb  Sb6  1  -0.00000000  -0.00000000  -0.00000000  1.0
  Pd  Pd7  1  0.62272762  0.62272762  0.62272762  1.0
  Pd  Pd8  1  0.37727238  0.37727238  0.37727238  1.0
  Pd  Pd9  1  0.66615854  0.47542583  0.20917724  1.0
  Pd  Pd10  1  1.52457417  -0.20917724  0.33384146  1.0
  Pd  Pd11  1  0.79082276  0.33384146  0.52457417  1.0
  Pd  Pd12  1  1.33384146  0.52457417  -0.20917724  1.0
  Pd  Pd13  1  0.47542583  1.20917724  -0.33384146  1.0
  Pd  Pd14  1  1.20917724  0.66615854  -0.52457417  1.0
  Pd  Pd15  1  1.65722774  0.77356073  -0.00028405  1.0
  Pd  Pd16  1  0.22643927  1.00028405  -0.65722774  1.0
  Pd  Pd17  1  1.00028405  0.34277226  -0.77356073  1.0
  Pd  Pd18  1  0.34277226  0.22643927  0.00028405  1.0
  Pd  Pd19  1  1.77356073  -0.00028405  0.65722774  1.0
  Pd  Pd20  1  0.99971595  0.65722774  0.77356073  1.0
  Pd  Pd21  1  0.69103899  1.14404006  -0.01238295  1.0
  Pd  Pd22  1  0.85595994  0.01238295  0.30896101  1.0
  Pd  Pd23  1  1.01238295  0.30896101  -0.14404006  1.0
  Pd  Pd24  1  1.30896101  -0.14404006  0.01238295  1.0
  Pd  Pd25  1  1.14404006  0.98761705  -0.30896101  1.0
  Pd  Pd26  1  0.98761705  0.69103899  0.14404006  1.0
