# generated using pymatgen
data_Sn3BrF5
_symmetry_space_group_name_H-M   'P 1'
_cell_length_a   4.53118809
_cell_length_b   12.80995006
_cell_length_c   13.72077683
_cell_angle_alpha   90.00000000
_cell_angle_beta   107.80888683
_cell_angle_gamma   90.00000000
_symmetry_Int_Tables_number   1
_chemical_formula_structural   Sn3BrF5
_chemical_formula_sum   'Sn12 Br4 F20'
_cell_volume   758.25025780
_cell_formula_units_Z   4
loop_
 _symmetry_equiv_pos_site_id
 _symmetry_equiv_pos_as_xyz
  1  'x, y, z'
loop_
 _atom_site_type_symbol
 _atom_site_label
 _atom_site_symmetry_multiplicity
 _atom_site_fract_x
 _atom_site_fract_y
 _atom_site_fract_z
 _atom_site_occupancy
  Sn  Sn0  1  0.76466192  0.10278648  0.89867822  1.0
  Sn  Sn1  1  0.76466192  0.39721352  0.39867822  1.0
  Sn  Sn2  1  0.23533808  0.60278648  0.60132178  1.0
  Sn  Sn3  1  0.23533808  0.89721352  0.10132178  1.0
  Sn  Sn4  1  0.79142940  0.66024626  0.86788910  1.0
  Sn  Sn5  1  0.79142940  0.83975374  0.36788910  1.0
  Sn  Sn6  1  0.20857060  0.16024626  0.63211090  1.0
  Sn  Sn7  1  0.20857060  0.33975374  0.13211090  1.0
  Sn  Sn8  1  0.17785311  0.36918943  0.84395162  1.0
  Sn  Sn9  1  0.17785311  0.13081057  0.34395162  1.0
  Sn  Sn10  1  0.82214689  0.86918943  0.65604838  1.0
  Sn  Sn11  1  0.82214689  0.63081057  0.15604838  1.0
  Br  Br12  1  0.60139032  0.38150539  0.61924295  1.0
  Br  Br13  1  0.60139032  0.11849461  0.11924295  1.0
  Br  Br14  1  0.39860968  0.88150539  0.88075705  1.0
  Br  Br15  1  0.39860968  0.61849461  0.38075705  1.0
  F  F16  1  0.84783138  0.27687959  0.89474047  1.0
  F  F17  1  0.84783138  0.22312041  0.39474047  1.0
  F  F18  1  0.15216862  0.77687959  0.60525953  1.0
  F  F19  1  0.15216862  0.72312041  0.10525953  1.0
  F  F20  1  0.88727099  0.49398612  0.87482179  1.0
  F  F21  1  0.88727099  0.00601388  0.37482179  1.0
  F  F22  1  0.11272901  0.99398612  0.62517821  1.0
  F  F23  1  0.11272901  0.50601388  0.12517821  1.0
  F  F24  1  0.66207808  0.10606699  0.72738904  1.0
  F  F25  1  0.66207808  0.39393301  0.22738904  1.0
  F  F26  1  0.33792192  0.60606699  0.77261096  1.0
  F  F27  1  0.33792192  0.89393301  0.27261096  1.0
  F  F28  1  0.40565090  0.12483854  0.50925945  1.0
  F  F29  1  0.40565090  0.37516146  0.00925945  1.0
  F  F30  1  0.59434910  0.62483854  0.99074055  1.0
  F  F31  1  0.59434910  0.87516146  0.49074055  1.0
  F  F32  1  0.30252773  0.16181425  0.84436057  1.0
  F  F33  1  0.30252773  0.33818575  0.34436057  1.0
  F  F34  1  0.69747227  0.66181425  0.65563943  1.0
  F  F35  1  0.69747227  0.83818575  0.15563943  1.0
