# generated using pymatgen
data_NdBiS2O
_symmetry_space_group_name_H-M   'P 1'
_cell_length_a   3.99840159
_cell_length_b   3.99840159
_cell_length_c   14.04997335
_cell_angle_alpha   90.00000000
_cell_angle_beta   90.00000000
_cell_angle_gamma   90.00000000
_symmetry_Int_Tables_number   1
_chemical_formula_structural   NdBiS2O
_chemical_formula_sum   'Nd2 Bi2 S4 O2'
_cell_volume   224.61994882
_cell_formula_units_Z   2
loop_
 _symmetry_equiv_pos_site_id
 _symmetry_equiv_pos_as_xyz
  1  'x, y, z'
loop_
 _atom_site_type_symbol
 _atom_site_label
 _atom_site_symmetry_multiplicity
 _atom_site_fract_x
 _atom_site_fract_y
 _atom_site_fract_z
 _atom_site_occupancy
  Nd  Nd0  1  0.50000000  0.00000000  0.08542915  1.0
  Nd  Nd1  1  0.00000000  0.50000000  0.91457085  1.0
  Bi  Bi2  1  0.50000000  0.00000000  0.63344359  1.0
  Bi  Bi3  1  0.00000000  0.50000000  0.36655641  1.0
  S  S4  1  0.50000000  0.00000000  0.39253651  1.0
  S  S5  1  0.00000000  0.50000000  0.60746349  1.0
  S  S6  1  0.50000000  0.00000000  0.81442975  1.0
  S  S7  1  0.00000000  0.50000000  0.18557025  1.0
  O  O8  1  0.00000000  0.00000000  0.00000000  1.0
  O  O9  1  0.50000000  0.50000000  0.00000000  1.0
