# generated using pymatgen
data_CaAl2SiO6
_symmetry_space_group_name_H-M   'P 1'
_cell_length_a   5.33548235
_cell_length_b   8.75485667
_cell_length_c   9.69831644
_cell_angle_alpha   90.00000000
_cell_angle_beta   105.27269287
_cell_angle_gamma   90.00000000
_symmetry_Int_Tables_number   1
_chemical_formula_structural   CaAl2SiO6
_chemical_formula_sum   'Ca4 Al8 Si4 O24'
_cell_volume   437.02243800
_cell_formula_units_Z   4
loop_
 _symmetry_equiv_pos_site_id
 _symmetry_equiv_pos_as_xyz
  1  'x, y, z'
loop_
 _atom_site_type_symbol
 _atom_site_label
 _atom_site_symmetry_multiplicity
 _atom_site_fract_x
 _atom_site_fract_y
 _atom_site_fract_z
 _atom_site_occupancy
  Ca  Ca0  1  0.00000000  0.06312211  0.75000000  1.0
  Ca  Ca1  1  0.50000000  0.55756556  0.25000000  1.0
  Ca  Ca2  1  0.50000000  0.44243444  0.75000000  1.0
  Ca  Ca3  1  -0.00000000  0.93687789  0.25000000  1.0
  Al  Al4  1  0.17586457  0.34625570  0.96637978  1.0
  Al  Al5  1  0.82413543  0.34625570  0.53362022  1.0
  Al  Al6  1  0.82413543  0.65374430  0.03362022  1.0
  Al  Al7  1  0.17586457  0.65374430  0.46637978  1.0
  Al  Al8  1  0.00000000  0.65273002  0.75000000  1.0
  Al  Al9  1  0.50000000  0.16044211  0.25000000  1.0
  Al  Al10  1  0.50000000  0.83955789  0.75000000  1.0
  Al  Al11  1  -0.00000000  0.34726998  0.25000000  1.0
  Si  Si12  1  0.67343747  0.84784632  0.45753439  1.0
  Si  Si13  1  0.32656253  0.84784632  0.04246561  1.0
  Si  Si14  1  0.32656253  0.15215368  0.54246561  1.0
  Si  Si15  1  0.67343747  0.15215368  0.95753439  1.0
  O  O16  1  0.76205633  0.84292492  0.63533600  1.0
  O  O17  1  0.69485699  0.01244929  0.38173436  1.0
  O  O18  1  0.38215707  0.77542099  0.39550776  1.0
  O  O19  1  0.26758183  0.32280193  0.15430781  1.0
  O  O20  1  0.19642719  0.51982413  0.88308209  1.0
  O  O21  1  0.86691153  0.26341413  0.89395161  1.0
  O  O22  1  0.23794367  0.84292492  0.86466400  1.0
  O  O23  1  0.30514301  0.01244929  0.11826564  1.0
  O  O24  1  0.61784293  0.77542099  0.10449224  1.0
  O  O25  1  0.73241817  0.32280193  0.34569219  1.0
  O  O26  1  0.80357281  0.51982413  0.61691791  1.0
  O  O27  1  0.13308847  0.26341413  0.60604839  1.0
  O  O28  1  0.73241817  0.67719807  0.84569219  1.0
  O  O29  1  0.80357281  0.48017587  0.11691791  1.0
  O  O30  1  0.13308847  0.73658587  0.10604839  1.0
  O  O31  1  0.23794367  0.15707508  0.36466400  1.0
  O  O32  1  0.30514301  0.98755071  0.61826564  1.0
  O  O33  1  0.61784293  0.22457901  0.60449224  1.0
  O  O34  1  0.26758183  0.67719807  0.65430781  1.0
  O  O35  1  0.19642719  0.48017587  0.38308209  1.0
  O  O36  1  0.86691153  0.73658587  0.39395161  1.0
  O  O37  1  0.76205633  0.15707508  0.13533600  1.0
  O  O38  1  0.69485699  0.98755071  0.88173436  1.0
  O  O39  1  0.38215707  0.22457901  0.89550776  1.0
