# generated using pymatgen
data_H4N2O3
_symmetry_space_group_name_H-M   'P 1'
_cell_length_a   5.58513303
_cell_length_b   5.58513303
_cell_length_c   5.15981658
_cell_angle_alpha   90.00000000
_cell_angle_beta   90.00000000
_cell_angle_gamma   90.00000000
_symmetry_Int_Tables_number   1
_chemical_formula_structural   H4N2O3
_chemical_formula_sum   'H8 N4 O6'
_cell_volume   160.95382703
_cell_formula_units_Z   2
loop_
 _symmetry_equiv_pos_site_id
 _symmetry_equiv_pos_as_xyz
  1  'x, y, z'
loop_
 _atom_site_type_symbol
 _atom_site_label
 _atom_site_symmetry_multiplicity
 _atom_site_fract_x
 _atom_site_fract_y
 _atom_site_fract_z
 _atom_site_occupancy
  H  H0  1  -0.00550958  0.84751486  0.88584453  1.0
  H  H1  1  0.50550958  0.34751486  0.11415547  1.0
  H  H2  1  0.15248514  -0.00550958  0.11415547  1.0
  H  H3  1  0.34751486  0.49449042  0.88584453  1.0
  H  H4  1  0.00550958  0.15248514  0.88584453  1.0
  H  H5  1  0.49449042  0.65248514  0.11415547  1.0
  H  H6  1  0.84751486  0.00550958  0.11415547  1.0
  H  H7  1  0.65248514  0.50550958  0.88584453  1.0
  N  N8  1  0.00000000  0.50000000  0.52213636  1.0
  N  N9  1  0.50000000  0.00000000  0.47786364  1.0
  N  N10  1  0.50000000  0.50000000  0.00000000  1.0
  N  N11  1  0.00000000  0.00000000  0.00000000  1.0
  O  O12  1  0.00000000  0.50000000  0.77559048  1.0
  O  O13  1  0.50000000  0.00000000  0.22440952  1.0
  O  O14  1  0.36174461  0.86174461  0.59287232  1.0
  O  O15  1  0.13825539  0.36174461  0.40712768  1.0
  O  O16  1  0.63825539  0.13825539  0.59287232  1.0
  O  O17  1  0.86174461  0.63825539  0.40712768  1.0
