# generated using pymatgen
data_FeSiNi
_symmetry_space_group_name_H-M   'P 1'
_cell_length_a   5.47713880
_cell_length_b   3.62781828
_cell_length_c   6.86659897
_cell_angle_alpha   90.00000000
_cell_angle_beta   90.00000000
_cell_angle_gamma   90.00000000
_symmetry_Int_Tables_number   1
_chemical_formula_structural   FeSiNi
_chemical_formula_sum   'Fe4 Si4 Ni4'
_cell_volume   136.43976283
_cell_formula_units_Z   4
loop_
 _symmetry_equiv_pos_site_id
 _symmetry_equiv_pos_as_xyz
  1  'x, y, z'
loop_
 _atom_site_type_symbol
 _atom_site_label
 _atom_site_symmetry_multiplicity
 _atom_site_fract_x
 _atom_site_fract_y
 _atom_site_fract_z
 _atom_site_occupancy
  Fe  Fe0  1  0.96482912  0.75000000  0.68166217  1.0
  Fe  Fe1  1  0.46482912  0.75000000  0.81833783  1.0
  Fe  Fe2  1  0.03517088  0.25000000  0.31833783  1.0
  Fe  Fe3  1  0.53517088  0.25000000  0.18166217  1.0
  Si  Si4  1  0.76038769  0.75000000  0.37601568  1.0
  Si  Si5  1  0.26038769  0.75000000  0.12398432  1.0
  Si  Si6  1  0.23961231  0.25000000  0.62398432  1.0
  Si  Si7  1  0.73961231  0.25000000  0.87601568  1.0
  Ni  Ni8  1  0.85153465  0.75000000  0.05736581  1.0
  Ni  Ni9  1  0.35153465  0.75000000  0.44263419  1.0
  Ni  Ni10  1  0.14846535  0.25000000  0.94263419  1.0
  Ni  Ni11  1  0.64846535  0.25000000  0.55736581  1.0
