# generated using pymatgen
data_BaCr(Si2O5)2
_symmetry_space_group_name_H-M   'P 1'
_cell_length_a   7.58819931
_cell_length_b   7.58819931
_cell_length_c   16.49180767
_cell_angle_alpha   90.00000000
_cell_angle_beta   90.00000000
_cell_angle_gamma   90.00000000
_symmetry_Int_Tables_number   1
_chemical_formula_structural   BaCr(Si2O5)2
_chemical_formula_sum   'Ba4 Cr4 Si16 O40'
_cell_volume   949.61096508
_cell_formula_units_Z   4
loop_
 _symmetry_equiv_pos_site_id
 _symmetry_equiv_pos_as_xyz
  1  'x, y, z'
loop_
 _atom_site_type_symbol
 _atom_site_label
 _atom_site_symmetry_multiplicity
 _atom_site_fract_x
 _atom_site_fract_y
 _atom_site_fract_z
 _atom_site_occupancy
  Ba  Ba0  1  0.50000000  0.50000000  0.50000000  1.0
  Ba  Ba1  1  0.50000000  0.50000000  0.00000000  1.0
  Ba  Ba2  1  0.00000000  0.00000000  0.00000000  1.0
  Ba  Ba3  1  0.00000000  0.00000000  0.50000000  1.0
  Cr  Cr4  1  0.00000000  0.50000000  0.40573034  1.0
  Cr  Cr5  1  0.00000000  0.50000000  0.90573034  1.0
  Cr  Cr6  1  0.50000000  0.00000000  0.59426966  1.0
  Cr  Cr7  1  0.50000000  0.00000000  0.09426966  1.0
  Si  Si8  1  0.68292695  0.76569215  0.34479556  1.0
  Si  Si9  1  0.31707305  0.76569215  0.84479556  1.0
  Si  Si10  1  0.68292695  0.23430785  0.84479556  1.0
  Si  Si11  1  0.31707305  0.23430785  0.34479556  1.0
  Si  Si12  1  0.26569215  0.18292695  0.84479556  1.0
  Si  Si13  1  0.73430785  0.18292695  0.34479556  1.0
  Si  Si14  1  0.26569215  0.81707305  0.34479556  1.0
  Si  Si15  1  0.73430785  0.81707305  0.84479556  1.0
  Si  Si16  1  0.81707305  0.73430785  0.65520444  1.0
  Si  Si17  1  0.18292695  0.73430785  0.15520444  1.0
  Si  Si18  1  0.81707305  0.26569215  0.15520444  1.0
  Si  Si19  1  0.18292695  0.26569215  0.65520444  1.0
  Si  Si20  1  0.23430785  0.31707305  0.15520444  1.0
  Si  Si21  1  0.76569215  0.31707305  0.65520444  1.0
  Si  Si22  1  0.23430785  0.68292695  0.65520444  1.0
  Si  Si23  1  0.76569215  0.68292695  0.15520444  1.0
  O  O24  1  0.72021367  0.72021367  0.25000000  1.0
  O  O25  1  0.27978633  0.72021367  0.75000000  1.0
  O  O26  1  0.72021367  0.27978633  0.75000000  1.0
  O  O27  1  0.27978633  0.27978633  0.25000000  1.0
  O  O28  1  0.22021367  0.22021367  0.75000000  1.0
  O  O29  1  0.77978633  0.22021367  0.25000000  1.0
  O  O30  1  0.22021367  0.77978633  0.25000000  1.0
  O  O31  1  0.77978633  0.77978633  0.75000000  1.0
  O  O32  1  0.74768957  0.96915563  0.36286967  1.0
  O  O33  1  0.25231043  0.96915563  0.86286967  1.0
  O  O34  1  0.74768957  0.03084437  0.86286967  1.0
  O  O35  1  0.25231043  0.03084437  0.36286967  1.0
  O  O36  1  0.46915563  0.24768957  0.86286967  1.0
  O  O37  1  0.53084437  0.24768957  0.36286967  1.0
  O  O38  1  0.46915563  0.75231043  0.36286967  1.0
  O  O39  1  0.53084437  0.75231043  0.86286967  1.0
  O  O40  1  0.75231043  0.53084437  0.63713033  1.0
  O  O41  1  0.24768957  0.53084437  0.13713033  1.0
  O  O42  1  0.75231043  0.46915563  0.13713033  1.0
  O  O43  1  0.24768957  0.46915563  0.63713033  1.0
  O  O44  1  0.03084437  0.25231043  0.13713033  1.0
  O  O45  1  0.96915563  0.25231043  0.63713033  1.0
  O  O46  1  0.03084437  0.74768957  0.63713033  1.0
  O  O47  1  0.96915563  0.74768957  0.13713033  1.0
  O  O48  1  0.77229685  0.63255722  0.40826658  1.0
  O  O49  1  0.22770315  0.63255722  0.90826658  1.0
  O  O50  1  0.77229685  0.36744278  0.90826658  1.0
  O  O51  1  0.22770315  0.36744278  0.40826658  1.0
  O  O52  1  0.13255722  0.27229685  0.90826658  1.0
  O  O53  1  0.86744278  0.27229685  0.40826658  1.0
  O  O54  1  0.13255722  0.72770315  0.40826658  1.0
  O  O55  1  0.86744278  0.72770315  0.90826658  1.0
  O  O56  1  0.72770315  0.86744278  0.59173342  1.0
  O  O57  1  0.27229685  0.86744278  0.09173342  1.0
  O  O58  1  0.72770315  0.13255722  0.09173342  1.0
  O  O59  1  0.27229685  0.13255722  0.59173342  1.0
  O  O60  1  0.36744278  0.22770315  0.09173342  1.0
  O  O61  1  0.63255722  0.22770315  0.59173342  1.0
  O  O62  1  0.36744278  0.77229685  0.59173342  1.0
  O  O63  1  0.63255722  0.77229685  0.09173342  1.0
