# generated using pymatgen
data_Cs6GaSb3
_symmetry_space_group_name_H-M   'P 1'
_cell_length_a   11.18226587
_cell_length_b   6.57212552
_cell_length_c   12.96193721
_cell_angle_alpha   90.00000000
_cell_angle_beta   101.45159003
_cell_angle_gamma   90.00000000
_symmetry_Int_Tables_number   1
_chemical_formula_structural   Cs6GaSb3
_chemical_formula_sum   'Cs12 Ga2 Sb6'
_cell_volume   933.62565534
_cell_formula_units_Z   2
loop_
 _symmetry_equiv_pos_site_id
 _symmetry_equiv_pos_as_xyz
  1  'x, y, z'
loop_
 _atom_site_type_symbol
 _atom_site_label
 _atom_site_symmetry_multiplicity
 _atom_site_fract_x
 _atom_site_fract_y
 _atom_site_fract_z
 _atom_site_occupancy
  Cs  Cs0  1  0.87454035  0.25000000  0.32123342  1.0
  Cs  Cs1  1  0.12545965  0.75000000  0.67876658  1.0
  Cs  Cs2  1  0.86346961  0.25000000  0.97754218  1.0
  Cs  Cs3  1  0.13653039  0.75000000  0.02245782  1.0
  Cs  Cs4  1  0.25570691  0.25000000  0.22434991  1.0
  Cs  Cs5  1  0.74429309  0.75000000  0.77565009  1.0
  Cs  Cs6  1  0.55999739  0.25000000  0.45193733  1.0
  Cs  Cs7  1  0.44000261  0.75000000  0.54806267  1.0
  Cs  Cs8  1  0.54248315  0.25000000  0.07842183  1.0
  Cs  Cs9  1  0.45751685  0.75000000  0.92157817  1.0
  Cs  Cs10  1  0.91294747  0.25000000  0.63268365  1.0
  Cs  Cs11  1  0.08705253  0.75000000  0.36731635  1.0
  Ga  Ga12  1  0.32166390  0.25000000  0.72161267  1.0
  Ga  Ga13  1  0.67833610  0.75000000  0.27838733  1.0
  Sb  Sb14  1  0.56382170  0.25000000  0.76750859  1.0
  Sb  Sb15  1  0.43617830  0.75000000  0.23249141  1.0
  Sb  Sb16  1  0.21354645  0.25000000  0.51791518  1.0
  Sb  Sb17  1  0.78645355  0.75000000  0.48208482  1.0
  Sb  Sb18  1  0.18943373  0.25000000  0.87603036  1.0
  Sb  Sb19  1  0.81056627  0.75000000  0.12396964  1.0
