# generated using pymatgen
data_Mn3N2
_symmetry_space_group_name_H-M   'P 1'
_cell_length_a   6.32282846
_cell_length_b   6.32282846
_cell_length_c   6.32282846
_cell_angle_alpha   153.88451821
_cell_angle_beta   153.88451821
_cell_angle_gamma   37.26747666
_symmetry_Int_Tables_number   1
_chemical_formula_structural   Mn3N2
_chemical_formula_sum   'Mn3 N2'
_cell_volume   48.90678876
_cell_formula_units_Z   1
loop_
 _symmetry_equiv_pos_site_id
 _symmetry_equiv_pos_as_xyz
  1  'x, y, z'
loop_
 _atom_site_type_symbol
 _atom_site_label
 _atom_site_symmetry_multiplicity
 _atom_site_fract_x
 _atom_site_fract_y
 _atom_site_fract_z
 _atom_site_occupancy
  Mn  Mn0  1  0.66872620  0.66872620  1.00000000  1.0
  Mn  Mn1  1  0.33127380  0.33127380  0.00000000  1.0
  Mn  Mn2  1  0.00000000  0.00000000  0.00000000  1.0
  N  N3  1  0.84005925  0.84005925  1.00000000  1.0
  N  N4  1  0.15994075  0.15994075  0.00000000  1.0
