# generated using pymatgen
data_CdI2
_symmetry_space_group_name_H-M   'P 1'
_cell_length_a   4.32828933
_cell_length_b   4.32828933
_cell_length_c   53.12927771
_cell_angle_alpha   90.00000000
_cell_angle_beta   90.00000000
_cell_angle_gamma   120.00000000
_symmetry_Int_Tables_number   1
_chemical_formula_structural   CdI2
_chemical_formula_sum   'Cd7 I14'
_cell_volume   861.97984720
_cell_formula_units_Z   7
loop_
 _symmetry_equiv_pos_site_id
 _symmetry_equiv_pos_as_xyz
  1  'x, y, z'
loop_
 _atom_site_type_symbol
 _atom_site_label
 _atom_site_symmetry_multiplicity
 _atom_site_fract_x
 _atom_site_fract_y
 _atom_site_fract_z
 _atom_site_occupancy
  Cd  Cd0  1  0.00000000  0.00000000  0.03571091  1.0
  Cd  Cd1  1  0.00000000  0.00000000  0.32142016  1.0
  Cd  Cd2  1  0.00000000  0.00000000  0.60716241  1.0
  Cd  Cd3  1  0.00000000  0.00000000  0.74997860  1.0
  Cd  Cd4  1  0.66666667  0.33333333  0.17858338  1.0
  Cd  Cd5  1  0.66666667  0.33333333  0.46428891  1.0
  Cd  Cd6  1  0.33333333  0.66666667  0.89285425  1.0
  I  I7  1  0.00000000  0.00000000  0.21093507  1.0
  I  I8  1  0.00000000  0.00000000  0.49664045  1.0
  I  I9  1  0.00000000  0.00000000  0.86049219  1.0
  I  I10  1  0.66666667  0.33333333  0.06806399  1.0
  I  I11  1  0.66666667  0.33333333  0.35377186  1.0
  I  I12  1  0.66666667  0.33333333  0.63952358  1.0
  I  I13  1  0.66666667  0.33333333  0.78232973  1.0
  I  I14  1  0.66666667  0.33333333  0.92521412  1.0
  I  I15  1  0.33333333  0.66666667  0.00335688  1.0
  I  I16  1  0.33333333  0.66666667  0.14623297  1.0
  I  I17  1  0.33333333  0.66666667  0.28907029  1.0
  I  I18  1  0.33333333  0.66666667  0.43193857  1.0
  I  I19  1  0.33333333  0.66666667  0.57480310  1.0
  I  I20  1  0.33333333  0.66666667  0.71762859  1.0
