# generated using pymatgen
data_Tl2Pd3Se2
_symmetry_space_group_name_H-M   'P 1'
_cell_length_a   6.12733514
_cell_length_b   6.12733514
_cell_length_c   6.12733514
_cell_angle_alpha   57.57183672
_cell_angle_beta   57.57183672
_cell_angle_gamma   57.57183673
_symmetry_Int_Tables_number   1
_chemical_formula_structural   Tl2Pd3Se2
_chemical_formula_sum   'Tl2 Pd3 Se2'
_cell_volume   153.58616350
_cell_formula_units_Z   1
loop_
 _symmetry_equiv_pos_site_id
 _symmetry_equiv_pos_as_xyz
  1  'x, y, z'
loop_
 _atom_site_type_symbol
 _atom_site_label
 _atom_site_symmetry_multiplicity
 _atom_site_fract_x
 _atom_site_fract_y
 _atom_site_fract_z
 _atom_site_occupancy
  Tl  Tl0  1  1.50000000  0.50000000  0.50000000  1.0
  Tl  Tl1  1  0.00000000  0.00000000  0.00000000  1.0
  Pd  Pd2  1  0.50000000  0.00000000  -0.50000000  1.0
  Pd  Pd3  1  0.50000000  -0.50000000  0.00000000  1.0
  Pd  Pd4  1  0.00000000  0.50000000  -0.50000000  1.0
  Se  Se5  1  0.78445966  0.78445966  0.78445966  1.0
  Se  Se6  1  1.21554034  1.21554034  0.21554034  1.0
