# generated using pymatgen
data_Ba2Si3O8
_symmetry_space_group_name_H-M   'P 1'
_cell_length_a   12.64026377
_cell_length_b   4.75491275
_cell_length_c   14.11811081
_cell_angle_alpha   90.00000000
_cell_angle_beta   93.43586717
_cell_angle_gamma   90.00000000
_symmetry_Int_Tables_number   1
_chemical_formula_structural   Ba2Si3O8
_chemical_formula_sum   'Ba8 Si12 O32'
_cell_volume   847.02051824
_cell_formula_units_Z   4
loop_
 _symmetry_equiv_pos_site_id
 _symmetry_equiv_pos_as_xyz
  1  'x, y, z'
loop_
 _atom_site_type_symbol
 _atom_site_label
 _atom_site_symmetry_multiplicity
 _atom_site_fract_x
 _atom_site_fract_y
 _atom_site_fract_z
 _atom_site_occupancy
  Ba  Ba0  1  0.85609435  0.25812874  0.03279973  1.0
  Ba  Ba1  1  0.85609435  0.24187126  0.53279973  1.0
  Ba  Ba2  1  0.14390565  0.75812874  0.46720027  1.0
  Ba  Ba3  1  0.14390565  0.74187126  0.96720027  1.0
  Ba  Ba4  1  0.41737732  0.27425369  0.38980931  1.0
  Ba  Ba5  1  0.41737732  0.22574631  0.88980931  1.0
  Ba  Ba6  1  0.58262268  0.77425369  0.11019069  1.0
  Ba  Ba7  1  0.58262268  0.72574631  0.61019069  1.0
  Si  Si8  1  0.97328427  0.31857466  0.31257997  1.0
  Si  Si9  1  0.97328427  0.18142534  0.81257997  1.0
  Si  Si10  1  0.02671573  0.81857466  0.18742003  1.0
  Si  Si11  1  0.02671573  0.68142534  0.68742003  1.0
  Si  Si12  1  0.72361571  0.31953849  0.27691699  1.0
  Si  Si13  1  0.72361571  0.18046151  0.77691699  1.0
  Si  Si14  1  0.27638429  0.81953849  0.22308301  1.0
  Si  Si15  1  0.27638429  0.68046151  0.72308301  1.0
  Si  Si16  1  0.64861117  0.81347623  0.38928455  1.0
  Si  Si17  1  0.64861117  0.68652377  0.88928455  1.0
  Si  Si18  1  0.35138883  0.31347623  0.11071545  1.0
  Si  Si19  1  0.35138883  0.18652377  0.61071545  1.0
  O  O20  1  0.99807000  0.14813344  0.21423671  1.0
  O  O21  1  0.99807000  0.35186656  0.71423671  1.0
  O  O22  1  0.00193000  0.64813344  0.28576329  1.0
  O  O23  1  0.00193000  0.85186656  0.78576329  1.0
  O  O24  1  0.96559463  0.73520264  0.08910467  1.0
  O  O25  1  0.96559463  0.76479736  0.58910467  1.0
  O  O26  1  0.03440537  0.23520264  0.41089533  1.0
  O  O27  1  0.03440537  0.26479736  0.91089533  1.0
  O  O28  1  0.84469151  0.29617323  0.32809220  1.0
  O  O29  1  0.84469151  0.20382677  0.82809220  1.0
  O  O30  1  0.15530849  0.79617323  0.17190780  1.0
  O  O31  1  0.15530849  0.70382677  0.67190780  1.0
  O  O32  1  0.73307639  0.77033396  0.47868216  1.0
  O  O33  1  0.73307639  0.72966604  0.97868216  1.0
  O  O34  1  0.26692361  0.27033396  0.02131784  1.0
  O  O35  1  0.26692361  0.22966604  0.52131784  1.0
  O  O36  1  0.71417207  0.23743742  0.16709157  1.0
  O  O37  1  0.71417207  0.26256258  0.66709157  1.0
  O  O38  1  0.28582793  0.73743742  0.33290843  1.0
  O  O39  1  0.28582793  0.76256258  0.83290843  1.0
  O  O40  1  0.64714907  0.14609841  0.34856893  1.0
  O  O41  1  0.64714907  0.35390159  0.84856893  1.0
  O  O42  1  0.35285093  0.64609841  0.15143107  1.0
  O  O43  1  0.35285093  0.85390159  0.65143107  1.0
  O  O44  1  0.47179158  0.25017730  0.08365509  1.0
  O  O45  1  0.47179158  0.24982270  0.58365509  1.0
  O  O46  1  0.52820842  0.75017730  0.41634491  1.0
  O  O47  1  0.52820842  0.74982270  0.91634491  1.0
  O  O48  1  0.31910417  0.14589988  0.20988526  1.0
  O  O49  1  0.31910417  0.35410012  0.70988526  1.0
  O  O50  1  0.68089583  0.64589988  0.29011474  1.0
  O  O51  1  0.68089583  0.85410012  0.79011474  1.0
