# generated using pymatgen
data_LiYF4
_symmetry_space_group_name_H-M   'P 1'
_cell_length_a   6.55317219
_cell_length_b   6.55317219
_cell_length_c   6.55317219
_cell_angle_alpha   132.99304751
_cell_angle_beta   132.99304751
_cell_angle_gamma   68.66506649
_symmetry_Int_Tables_number   1
_chemical_formula_structural   LiYF4
_chemical_formula_sum   'Li2 Y2 F8'
_cell_volume   147.84229251
_cell_formula_units_Z   2
loop_
 _symmetry_equiv_pos_site_id
 _symmetry_equiv_pos_as_xyz
  1  'x, y, z'
loop_
 _atom_site_type_symbol
 _atom_site_label
 _atom_site_symmetry_multiplicity
 _atom_site_fract_x
 _atom_site_fract_y
 _atom_site_fract_z
 _atom_site_occupancy
  Li  Li0  1  0.75000000  0.25000000  0.50000000  1.0
  Li  Li1  1  1.00000000  1.00000000  1.00000000  1.0
  Y  Y2  1  0.25000000  0.75000000  0.50000000  1.0
  Y  Y3  1  0.50000000  0.50000000  -0.00000000  1.0
  F  F4  1  0.54820572  0.49622376  0.38317649  1.0
  F  F5  1  1.11304727  1.16502923  1.61682351  1.0
  F  F6  1  0.91502923  0.79820572  0.55198196  1.0
  F  F7  1  1.24622376  1.36304727  1.44801804  1.0
  F  F8  1  1.20179428  0.75377624  1.11682351  1.0
  F  F9  1  0.63695273  1.08497077  0.88317649  1.0
  F  F10  1  0.83497077  0.45179428  0.94801804  1.0
  F  F11  1  0.50377624  0.88695273  1.05198196  1.0
