# generated using pymatgen
data_La(Al4Co)2
_symmetry_space_group_name_H-M   'P 1'
_cell_length_a   12.52050537
_cell_length_b   14.40627133
_cell_length_c   4.03120689
_cell_angle_alpha   90.00000000
_cell_angle_beta   90.00000000
_cell_angle_gamma   90.00000000
_symmetry_Int_Tables_number   1
_chemical_formula_structural   La(Al4Co)2
_chemical_formula_sum   'La4 Al32 Co8'
_cell_volume   727.12409509
_cell_formula_units_Z   4
loop_
 _symmetry_equiv_pos_site_id
 _symmetry_equiv_pos_as_xyz
  1  'x, y, z'
loop_
 _atom_site_type_symbol
 _atom_site_label
 _atom_site_symmetry_multiplicity
 _atom_site_fract_x
 _atom_site_fract_y
 _atom_site_fract_z
 _atom_site_occupancy
  La  La0  1  0.15960667  0.81808765  0.00000000  1.0
  La  La1  1  0.65960667  0.68191235  0.00000000  1.0
  La  La2  1  0.84039333  0.18191235  0.00000000  1.0
  La  La3  1  0.34039333  0.31808765  0.00000000  1.0
  Al  Al4  1  0.47345535  0.63163251  0.50000000  1.0
  Al  Al5  1  0.97345535  0.86836749  0.50000000  1.0
  Al  Al6  1  0.52654465  0.36836749  0.50000000  1.0
  Al  Al7  1  0.02654465  0.13163251  0.50000000  1.0
  Al  Al8  1  0.33141088  0.49190432  0.50000000  1.0
  Al  Al9  1  0.83141088  0.00809568  0.50000000  1.0
  Al  Al10  1  0.66858912  0.50809568  0.50000000  1.0
  Al  Al11  1  0.16858912  0.99190432  0.50000000  1.0
  Al  Al12  1  0.34125690  0.88013807  0.50000000  1.0
  Al  Al13  1  0.84125690  0.61986193  0.50000000  1.0
  Al  Al14  1  0.65874310  0.11986193  0.50000000  1.0
  Al  Al15  1  0.15874310  0.38013807  0.50000000  1.0
  Al  Al16  1  0.26391128  0.67135469  0.50000000  1.0
  Al  Al17  1  0.76391128  0.82864531  0.50000000  1.0
  Al  Al18  1  0.73608872  0.32864531  0.50000000  1.0
  Al  Al19  1  0.23608872  0.17135469  0.50000000  1.0
  Al  Al20  1  0.04681137  0.67856557  0.50000000  1.0
  Al  Al21  1  0.54681137  0.82143443  0.50000000  1.0
  Al  Al22  1  0.95318863  0.32143443  0.50000000  1.0
  Al  Al23  1  0.45318863  0.17856557  0.50000000  1.0
  Al  Al24  1  0.40428690  0.75279467  0.00000000  1.0
  Al  Al25  1  0.90428690  0.74720533  0.00000000  1.0
  Al  Al26  1  0.59571310  0.24720533  0.00000000  1.0
  Al  Al27  1  0.09571310  0.25279467  0.00000000  1.0
  Al  Al28  1  0.15952925  0.54431079  0.00000000  1.0
  Al  Al29  1  0.65952925  0.95568921  0.00000000  1.0
  Al  Al30  1  0.84047075  0.45568921  0.00000000  1.0
  Al  Al31  1  0.34047075  0.04431079  0.00000000  1.0
  Al  Al32  1  0.50000000  0.00000000  0.50000000  1.0
  Al  Al33  1  0.00000000  0.50000000  0.50000000  1.0
  Al  Al34  1  0.50000000  0.50000000  0.00000000  1.0
  Al  Al35  1  0.00000000  0.00000000  0.00000000  1.0
  Co  Co36  1  0.46529045  0.90567348  0.00000000  1.0
  Co  Co37  1  0.96529045  0.59432652  0.00000000  1.0
  Co  Co38  1  0.53470955  0.09432652  0.00000000  1.0
  Co  Co39  1  0.03470955  0.40567348  0.00000000  1.0
  Co  Co40  1  0.34841689  0.59644614  0.00000000  1.0
  Co  Co41  1  0.84841689  0.90355386  0.00000000  1.0
  Co  Co42  1  0.65158311  0.40355386  0.00000000  1.0
  Co  Co43  1  0.15158311  0.09644614  0.00000000  1.0
