# generated using pymatgen
data_AlCuTe2
_symmetry_space_group_name_H-M   'P 1'
_cell_length_a   7.43203736
_cell_length_b   7.43203736
_cell_length_c   7.43203736
_cell_angle_alpha   131.51537847
_cell_angle_beta   131.51537847
_cell_angle_gamma   70.99551932
_symmetry_Int_Tables_number   1
_chemical_formula_structural   AlCuTe2
_chemical_formula_sum   'Al2 Cu2 Te4'
_cell_volume   225.37837897
_cell_formula_units_Z   2
loop_
 _symmetry_equiv_pos_site_id
 _symmetry_equiv_pos_as_xyz
  1  'x, y, z'
loop_
 _atom_site_type_symbol
 _atom_site_label
 _atom_site_symmetry_multiplicity
 _atom_site_fract_x
 _atom_site_fract_y
 _atom_site_fract_z
 _atom_site_occupancy
  Al  Al0  1  0.75000000  0.25000000  0.50000000  1.0
  Al  Al1  1  1.00000000  1.00000000  1.00000000  1.0
  Cu  Cu2  1  0.25000000  0.75000000  0.50000000  1.0
  Cu  Cu3  1  0.50000000  0.50000000  0.00000000  1.0
  Te  Te4  1  1.13285747  1.12500000  1.50785747  1.0
  Te  Te5  1  1.37500000  0.86714253  0.99214253  1.0
  Te  Te6  1  0.87500000  1.38285747  1.00785747  1.0
  Te  Te7  1  0.61714253  0.62500000  0.49214253  1.0
