# generated using pymatgen
data_As2Pb3O8
_symmetry_space_group_name_H-M   'P 1'
_cell_length_a   7.66206772
_cell_length_b   7.66206772
_cell_length_c   7.66206772
_cell_angle_alpha   44.20457018
_cell_angle_beta   44.20457018
_cell_angle_gamma   44.20457018
_symmetry_Int_Tables_number   1
_chemical_formula_structural   As2Pb3O8
_chemical_formula_sum   'As2 Pb3 O8'
_cell_volume   198.69240804
_cell_formula_units_Z   1
loop_
 _symmetry_equiv_pos_site_id
 _symmetry_equiv_pos_as_xyz
  1  'x, y, z'
loop_
 _atom_site_type_symbol
 _atom_site_label
 _atom_site_symmetry_multiplicity
 _atom_site_fract_x
 _atom_site_fract_y
 _atom_site_fract_z
 _atom_site_occupancy
  As  As0  1  1.59563766  0.59563766  0.59563766  1.0
  As  As1  1  1.40436234  0.40436234  0.40436234  1.0
  Pb  Pb2  1  0.00000000  0.00000000  0.00000000  1.0
  Pb  Pb3  1  0.79263097  0.79263097  0.79263097  1.0
  Pb  Pb4  1  1.20736903  1.20736903  0.20736903  1.0
  O  O5  1  1.67910593  0.67910593  0.67910593  1.0
  O  O6  1  1.32089407  0.32089407  0.32089407  1.0
  O  O7  1  1.26736001  0.26736001  0.76196636  1.0
  O  O8  1  1.26736001  0.76196636  0.26736001  1.0
  O  O9  1  1.23803364  0.73263999  0.73263999  1.0
  O  O10  1  1.73263999  0.23803364  0.73263999  1.0
  O  O11  1  1.73263999  0.73263999  0.23803364  1.0
  O  O12  1  1.76196636  0.26736001  0.26736001  1.0
