# generated using pymatgen
data_Rb4CO4
_symmetry_space_group_name_H-M   'P 1'
_cell_length_a   6.23702932
_cell_length_b   6.23702932
_cell_length_c   5.88665834
_cell_angle_alpha   82.41283024
_cell_angle_beta   97.58716976
_cell_angle_gamma   69.02889267
_symmetry_Int_Tables_number   1
_chemical_formula_structural   Rb4CO4
_chemical_formula_sum   'Rb4 C1 O4'
_cell_volume   207.93942564
_cell_formula_units_Z   1
loop_
 _symmetry_equiv_pos_site_id
 _symmetry_equiv_pos_as_xyz
  1  'x, y, z'
loop_
 _atom_site_type_symbol
 _atom_site_label
 _atom_site_symmetry_multiplicity
 _atom_site_fract_x
 _atom_site_fract_y
 _atom_site_fract_z
 _atom_site_occupancy
  Rb  Rb0  1  1.16466272  0.35516204  0.74390798  1.0
  Rb  Rb1  1  0.64483796  -0.16466272  0.74390798  1.0
  Rb  Rb2  1  0.85291815  -0.85291815  0.12259735  1.0
  Rb  Rb3  1  0.36637231  -0.36637231  0.29053713  1.0
  C  C4  1  0.05359353  -0.05359353  0.60936378  1.0
  O  O5  1  0.17151522  -0.17151522  0.84271382  1.0
  O  O6  1  0.85067417  -0.85067417  0.61833325  1.0
  O  O7  1  1.20844415  0.01957822  0.48767436  1.0
  O  O8  1  0.98042178  -0.20844415  0.48767436  1.0
