# generated using pymatgen
data_Y2Zr2O7
_symmetry_space_group_name_H-M   'P 1'
_cell_length_a   7.45455703
_cell_length_b   7.45455703
_cell_length_c   7.45455703
_cell_angle_alpha   60.00000000
_cell_angle_beta   60.00000000
_cell_angle_gamma   60.00000000
_symmetry_Int_Tables_number   1
_chemical_formula_structural   Y2Zr2O7
_chemical_formula_sum   'Y4 Zr4 O14'
_cell_volume   292.92101227
_cell_formula_units_Z   2
loop_
 _symmetry_equiv_pos_site_id
 _symmetry_equiv_pos_as_xyz
  1  'x, y, z'
loop_
 _atom_site_type_symbol
 _atom_site_label
 _atom_site_symmetry_multiplicity
 _atom_site_fract_x
 _atom_site_fract_y
 _atom_site_fract_z
 _atom_site_occupancy
  Y  Y0  1  0.62500000  1.12500000  0.12500000  1.0
  Y  Y1  1  0.12500000  1.62500000  0.12500000  1.0
  Y  Y2  1  0.12500000  0.12500000  1.62500000  1.0
  Y  Y3  1  0.12500000  0.12500000  0.12500000  1.0
  Zr  Zr4  1  1.12500000  0.62500000  0.62500000  1.0
  Zr  Zr5  1  0.62500000  1.12500000  -0.37500000  1.0
  Zr  Zr6  1  -0.37500000  0.62500000  1.12500000  1.0
  Zr  Zr7  1  -0.37500000  0.62500000  0.62500000  1.0
  O  O8  1  0.71486431  0.71486431  -0.71486431  1.0
  O  O9  1  0.28513569  1.28513569  -0.28513569  1.0
  O  O10  1  0.71486431  -0.71486431  0.71486431  1.0
  O  O11  1  0.28513569  -0.28513569  0.28513569  1.0
  O  O12  1  -0.71486431  0.71486431  0.71486431  1.0
  O  O13  1  -0.28513569  0.28513569  0.28513569  1.0
  O  O14  1  -0.46486431  0.53513569  0.96486431  1.0
  O  O15  1  0.96486431  0.96486431  -0.46486431  1.0
  O  O16  1  0.53513569  0.96486431  0.53513569  1.0
  O  O17  1  0.96486431  0.53513569  0.96486431  1.0
  O  O18  1  0.96486431  0.53513569  -0.46486431  1.0
  O  O19  1  0.53513569  0.96486431  -0.03513569  1.0
  O  O20  1  0.25000000  1.25000000  0.25000000  1.0
  O  O21  1  0.00000000  0.00000000  -0.00000000  1.0
