# generated using pymatgen
data_TaSb2
_symmetry_space_group_name_H-M   'P 1'
_cell_length_a   5.48722723
_cell_length_b   5.48722723
_cell_length_c   8.37445244
_cell_angle_alpha   61.46055787
_cell_angle_beta   118.53944213
_cell_angle_gamma   140.72570767
_symmetry_Int_Tables_number   1
_chemical_formula_structural   TaSb2
_chemical_formula_sum   'Ta2 Sb4'
_cell_volume   137.55937287
_cell_formula_units_Z   2
loop_
 _symmetry_equiv_pos_site_id
 _symmetry_equiv_pos_as_xyz
  1  'x, y, z'
loop_
 _atom_site_type_symbol
 _atom_site_label
 _atom_site_symmetry_multiplicity
 _atom_site_fract_x
 _atom_site_fract_y
 _atom_site_fract_z
 _atom_site_occupancy
  Ta  Ta0  1  0.84942355  0.15057645  0.81168636  1.0
  Ta  Ta1  1  1.15057645  -0.15057645  0.18831364  1.0
  Sb  Sb2  1  0.85179357  -0.85179357  0.46530216  1.0
  Sb  Sb3  1  0.14820643  -0.14820643  0.53469784  1.0
  Sb  Sb4  1  0.59477433  0.40522567  0.88726489  1.0
  Sb  Sb5  1  1.40522567  -0.40522567  0.11273511  1.0
