# generated using pymatgen
data_Ba4Ga4SnSe12
_symmetry_space_group_name_H-M   'P 1'
_cell_length_a   13.93414859
_cell_length_b   13.93414859
_cell_length_c   6.55064693
_cell_angle_alpha   90.00000000
_cell_angle_beta   90.00000000
_cell_angle_gamma   90.00000000
_symmetry_Int_Tables_number   1
_chemical_formula_structural   Ba4Ga4SnSe12
_chemical_formula_sum   'Ba8 Ga8 Sn2 Se24'
_cell_volume   1271.87686158
_cell_formula_units_Z   2
loop_
 _symmetry_equiv_pos_site_id
 _symmetry_equiv_pos_as_xyz
  1  'x, y, z'
loop_
 _atom_site_type_symbol
 _atom_site_label
 _atom_site_symmetry_multiplicity
 _atom_site_fract_x
 _atom_site_fract_y
 _atom_site_fract_z
 _atom_site_occupancy
  Ba  Ba0  1  0.48080515  0.19273022  0.04412441  1.0
  Ba  Ba1  1  0.01919485  0.69273022  0.45587559  1.0
  Ba  Ba2  1  0.80726978  0.48080515  0.95587559  1.0
  Ba  Ba3  1  0.69273022  0.98080515  0.54412441  1.0
  Ba  Ba4  1  0.51919485  0.80726978  0.04412441  1.0
  Ba  Ba5  1  0.98080515  0.30726978  0.45587559  1.0
  Ba  Ba6  1  0.19273022  0.51919485  0.95587559  1.0
  Ba  Ba7  1  0.30726978  0.01919485  0.54412441  1.0
  Ga  Ga8  1  0.25542520  0.35783835  0.45440651  1.0
  Ga  Ga9  1  0.24457480  0.85783835  0.04559349  1.0
  Ga  Ga10  1  0.64216165  0.25542520  0.54559349  1.0
  Ga  Ga11  1  0.85783835  0.75542520  0.95440651  1.0
  Ga  Ga12  1  0.74457480  0.64216165  0.45440651  1.0
  Ga  Ga13  1  0.75542520  0.14216165  0.04559349  1.0
  Ga  Ga14  1  0.35783835  0.74457480  0.54559349  1.0
  Ga  Ga15  1  0.14216165  0.24457480  0.95440651  1.0
  Sn  Sn16  1  0.50000000  0.50000000  0.50000000  1.0
  Sn  Sn17  1  0.00000000  0.00000000  0.00000000  1.0
  Se  Se18  1  0.14087718  0.48570065  0.45775078  1.0
  Se  Se19  1  0.35912282  0.98570065  0.04224922  1.0
  Se  Se20  1  0.51429935  0.14087718  0.54224922  1.0
  Se  Se21  1  0.98570065  0.64087718  0.95775078  1.0
  Se  Se22  1  0.85912282  0.51429935  0.45775078  1.0
  Se  Se23  1  0.64087718  0.01429935  0.04224922  1.0
  Se  Se24  1  0.48570065  0.85912282  0.54224922  1.0
  Se  Se25  1  0.01429935  0.35912282  0.95775078  1.0
  Se  Se26  1  0.39389134  0.40634866  0.24563294  1.0
  Se  Se27  1  0.10610866  0.90634866  0.25436706  1.0
  Se  Se28  1  0.59365134  0.39389134  0.75436706  1.0
  Se  Se29  1  0.90634866  0.89389134  0.74563294  1.0
  Se  Se30  1  0.60610866  0.59365134  0.24563294  1.0
  Se  Se31  1  0.89389134  0.09365134  0.25436706  1.0
  Se  Se32  1  0.40634866  0.60610866  0.75436706  1.0
  Se  Se33  1  0.09365134  0.10610866  0.74563294  1.0
  Se  Se34  1  0.19379181  0.20784183  0.30289305  1.0
  Se  Se35  1  0.30620819  0.70784183  0.19710695  1.0
  Se  Se36  1  0.79215817  0.19379181  0.69710695  1.0
  Se  Se37  1  0.70784183  0.69379181  0.80289305  1.0
  Se  Se38  1  0.80620819  0.79215817  0.30289305  1.0
  Se  Se39  1  0.69379181  0.29215817  0.19710695  1.0
  Se  Se40  1  0.20784183  0.80620819  0.69710695  1.0
  Se  Se41  1  0.29215817  0.30620819  0.80289305  1.0
