# generated using pymatgen
data_RbBaPS4
_symmetry_space_group_name_H-M   'P 1'
_cell_length_a   12.15590764
_cell_length_b   6.84652605
_cell_length_c   9.99053869
_cell_angle_alpha   90.00000000
_cell_angle_beta   90.00000000
_cell_angle_gamma   90.00000000
_symmetry_Int_Tables_number   1
_chemical_formula_structural   RbBaPS4
_chemical_formula_sum   'Rb4 Ba4 P4 S16'
_cell_volume   831.46995847
_cell_formula_units_Z   4
loop_
 _symmetry_equiv_pos_site_id
 _symmetry_equiv_pos_as_xyz
  1  'x, y, z'
loop_
 _atom_site_type_symbol
 _atom_site_label
 _atom_site_symmetry_multiplicity
 _atom_site_fract_x
 _atom_site_fract_y
 _atom_site_fract_z
 _atom_site_occupancy
  Rb  Rb0  1  0.09987404  0.75000000  0.15364016  1.0
  Rb  Rb1  1  0.59987404  0.75000000  0.34635984  1.0
  Rb  Rb2  1  0.90012596  0.25000000  0.84635984  1.0
  Rb  Rb3  1  0.40012596  0.25000000  0.65364016  1.0
  Ba  Ba4  1  0.14579929  0.75000000  0.61038148  1.0
  Ba  Ba5  1  0.64579929  0.75000000  0.88961852  1.0
  Ba  Ba6  1  0.85420071  0.25000000  0.38961852  1.0
  Ba  Ba7  1  0.35420071  0.25000000  0.11038148  1.0
  P  P8  1  0.32753275  0.75000000  0.88992895  1.0
  P  P9  1  0.82753275  0.75000000  0.61007105  1.0
  P  P10  1  0.67246725  0.25000000  0.11007105  1.0
  P  P11  1  0.17246725  0.25000000  0.38992895  1.0
  S  S12  1  0.22885163  0.99398344  0.88342041  1.0
  S  S13  1  0.22885163  0.50601656  0.88342041  1.0
  S  S14  1  0.72885163  0.99398344  0.61657959  1.0
  S  S15  1  0.72885163  0.50601656  0.61657959  1.0
  S  S16  1  0.77114837  0.49398344  0.11657959  1.0
  S  S17  1  0.77114837  0.00601656  0.11657959  1.0
  S  S18  1  0.27114837  0.49398344  0.38342041  1.0
  S  S19  1  0.27114837  0.00601656  0.38342041  1.0
  S  S20  1  0.42412748  0.75000000  0.72004704  1.0
  S  S21  1  0.92412748  0.75000000  0.77995296  1.0
  S  S22  1  0.57587252  0.25000000  0.27995296  1.0
  S  S23  1  0.07587252  0.25000000  0.22004704  1.0
  S  S24  1  0.41881510  0.75000000  0.06414379  1.0
  S  S25  1  0.91881510  0.75000000  0.43585621  1.0
  S  S26  1  0.58118490  0.25000000  0.93585621  1.0
  S  S27  1  0.08118490  0.25000000  0.56414379  1.0
