# generated using pymatgen
data_Sm(BO2)6
_symmetry_space_group_name_H-M   'P 1'
_cell_length_a   8.38597138
_cell_length_b   8.38597138
_cell_length_c   8.38597138
_cell_angle_alpha   64.47866003
_cell_angle_beta   64.47866003
_cell_angle_gamma   64.47866003
_symmetry_Int_Tables_number   1
_chemical_formula_structural   Sm(BO2)6
_chemical_formula_sum   'Sm2 B12 O24'
_cell_volume   457.97648568
_cell_formula_units_Z   2
loop_
 _symmetry_equiv_pos_site_id
 _symmetry_equiv_pos_as_xyz
  1  'x, y, z'
loop_
 _atom_site_type_symbol
 _atom_site_label
 _atom_site_symmetry_multiplicity
 _atom_site_fract_x
 _atom_site_fract_y
 _atom_site_fract_z
 _atom_site_occupancy
  B  B0  1  0.88453306  -0.37925613  0.09760276  1.0
  B  B1  1  0.38453306  0.59760276  -0.87925613  1.0
  B  B2  1  0.59760276  0.12074387  -0.61546694  1.0
  B  B3  1  1.09760276  -0.11546694  -0.37925613  1.0
  B  B4  1  0.12074387  0.38453306  -0.40239724  1.0
  B  B5  1  0.62074387  0.09760276  -0.11546694  1.0
  B  B6  1  1.20115944  -0.35851536  -0.09650140  1.0
  B  B7  1  0.70115944  0.40349860  -0.85851536  1.0
  B  B8  1  0.40349860  0.14148464  -0.29884056  1.0
  B  B9  1  0.90349860  0.20115944  -0.35851536  1.0
  B  B10  1  0.14148464  0.70115944  -0.59650140  1.0
  B  B11  1  0.64148464  -0.09650140  0.20115944  1.0
  O  O12  1  0.83632009  -0.20983432  0.12369138  1.0
  O  O13  1  0.33632009  0.62369138  -0.70983432  1.0
  O  O14  1  0.62369138  0.29016568  -0.66367991  1.0
  O  O15  1  1.12369138  -0.16367991  -0.20983432  1.0
  O  O16  1  0.29016568  0.33632009  -0.37630862  1.0
  O  O17  1  0.79016568  0.12369138  -0.16367991  1.0
  O  O18  1  1.24460418  -0.32351770  0.03909586  1.0
  O  O19  1  0.74460418  0.53909586  -0.82351770  1.0
  O  O20  1  0.53909586  0.17648230  -0.25539582  1.0
  O  O21  1  1.03909586  0.24460418  -0.32351770  1.0
  O  O22  1  0.17648230  0.74460418  -0.46090414  1.0
  O  O23  1  0.67648230  0.03909586  0.24460418  1.0
  O  O24  1  1.06043824  -0.45487404  -0.00009782  1.0
  O  O25  1  0.56043824  0.49990218  -0.95487404  1.0
  O  O26  1  0.49990218  0.04512596  -0.43956176  1.0
  O  O27  1  0.99990218  0.06043824  -0.45487404  1.0
  O  O28  1  0.04512596  0.56043824  -0.50009782  1.0
  O  O29  1  0.54512596  -0.00009782  0.06043824  1.0
  O  O30  1  0.36695805  0.54921895  -0.20964674  1.0
  O  O31  1  0.86695805  -0.70964674  0.04921895  1.0
  O  O32  1  0.29035326  0.04921895  -0.13304195  1.0
  O  O33  1  0.79035326  0.36695805  -0.45078105  1.0
  O  O34  1  1.04921895  -0.13304195  -0.70964674  1.0
  O  O35  1  0.54921895  0.79035326  -0.63304195  1.0
  Sm  Sm36  1  0.00992150  0.00992150  0.00992150  1.0
  Sm  Sm37  1  0.50992150  0.50992150  -0.49007850  1.0
