# generated using pymatgen
data_Cr3B7ClO13
_symmetry_space_group_name_H-M   'P 1'
_cell_length_a   8.61958958
_cell_length_b   8.61958958
_cell_length_c   8.61958958
_cell_angle_alpha   60.00000000
_cell_angle_beta   60.00000000
_cell_angle_gamma   60.00000000
_symmetry_Int_Tables_number   1
_chemical_formula_structural   Cr3B7ClO13
_chemical_formula_sum   'Cr6 B14 Cl2 O26'
_cell_volume   452.83998160
_cell_formula_units_Z   2
loop_
 _symmetry_equiv_pos_site_id
 _symmetry_equiv_pos_as_xyz
  1  'x, y, z'
loop_
 _atom_site_type_symbol
 _atom_site_label
 _atom_site_symmetry_multiplicity
 _atom_site_fract_x
 _atom_site_fract_y
 _atom_site_fract_z
 _atom_site_occupancy
  Cr  Cr0  1  0.50000000  0.00000000  -0.00000000  1.0
  Cr  Cr1  1  1.00000000  0.50000000  -0.50000000  1.0
  Cr  Cr2  1  -0.50000000  0.50000000  1.00000000  1.0
  Cr  Cr3  1  0.00000000  0.50000000  -0.00000000  1.0
  Cr  Cr4  1  0.00000000  0.00000000  0.50000000  1.0
  Cr  Cr5  1  0.50000000  1.00000000  -0.50000000  1.0
  B  B6  1  0.91959251  0.91959251  -0.08040749  1.0
  B  B7  1  0.41959251  1.41959251  0.41959251  1.0
  B  B8  1  0.24122247  0.91959251  -0.08040749  1.0
  B  B9  1  -0.25877753  0.41959251  0.41959251  1.0
  B  B10  1  0.91959251  0.91959251  -0.75877753  1.0
  B  B11  1  0.41959251  1.41959251  -0.25877753  1.0
  B  B12  1  0.91959251  0.24122247  -0.08040749  1.0
  B  B13  1  0.41959251  -0.25877753  0.41959251  1.0
  B  B14  1  -0.75000000  0.75000000  0.75000000  1.0
  B  B15  1  -0.25000000  0.25000000  0.25000000  1.0
  B  B16  1  0.25000000  1.25000000  -0.25000000  1.0
  B  B17  1  -0.25000000  0.25000000  0.75000000  1.0
  B  B18  1  -0.25000000  0.75000000  0.25000000  1.0
  B  B19  1  0.25000000  -0.25000000  0.25000000  1.0
  Cl  Cl20  1  0.75000000  0.75000000  -0.25000000  1.0
  Cl  Cl21  1  0.25000000  0.25000000  0.25000000  1.0
  O  O22  1  0.74241540  1.06399550  -0.10267652  1.0
  O  O23  1  0.24241540  1.39732348  0.56399550  1.0
  O  O24  1  -0.70373438  0.89732348  1.06399550  1.0
  O  O25  1  -0.20373438  0.56399550  0.39732348  1.0
  O  O26  1  0.39732348  1.56399550  0.24241540  1.0
  O  O27  1  -0.10267652  0.74241540  1.06399550  1.0
  O  O28  1  -0.20373438  0.24241540  0.56399550  1.0
  O  O29  1  0.29626562  1.06399550  -0.25758460  1.0
  O  O30  1  1.06399550  0.89732348  -0.25758460  1.0
  O  O31  1  0.56399550  1.24241540  0.39732348  1.0
  O  O32  1  -0.70373438  0.74241540  0.89732348  1.0
  O  O33  1  -0.20373438  0.39732348  0.24241540  1.0
  O  O34  1  1.06399550  0.74241540  -0.70373438  1.0
  O  O35  1  0.39732348  1.24241540  -0.20373438  1.0
  O  O36  1  -0.10267652  0.29626562  0.74241540  1.0
  O  O37  1  0.56399550  -0.20373438  0.24241540  1.0
  O  O38  1  0.56399550  1.39732348  -0.20373438  1.0
  O  O39  1  -0.25758460  0.89732348  0.29626562  1.0
  O  O40  1  0.24241540  -0.20373438  0.39732348  1.0
  O  O41  1  1.06399550  0.29626562  -0.10267652  1.0
  O  O42  1  0.89732348  1.06399550  -0.70373438  1.0
  O  O43  1  0.24241540  1.56399550  -0.20373438  1.0
  O  O44  1  -0.25758460  0.29626562  1.06399550  1.0
  O  O45  1  0.39732348  -0.20373438  0.56399550  1.0
  O  O46  1  0.00000000  0.00000000  0.00000000  1.0
  O  O47  1  -0.50000000  0.50000000  0.50000000  1.0
