# generated using pymatgen
data_Rb2Mo2O7
_symmetry_space_group_name_H-M   'P 1'
_cell_length_a   8.38859332
_cell_length_b   8.38859332
_cell_length_c   12.22244242
_cell_angle_alpha   90.00000000
_cell_angle_beta   90.00000000
_cell_angle_gamma   77.79008270
_symmetry_Int_Tables_number   1
_chemical_formula_structural   Rb2Mo2O7
_chemical_formula_sum   'Rb8 Mo8 O28'
_cell_volume   840.61941947
_cell_formula_units_Z   4
loop_
 _symmetry_equiv_pos_site_id
 _symmetry_equiv_pos_as_xyz
  1  'x, y, z'
loop_
 _atom_site_type_symbol
 _atom_site_label
 _atom_site_symmetry_multiplicity
 _atom_site_fract_x
 _atom_site_fract_y
 _atom_site_fract_z
 _atom_site_occupancy
  Rb  Rb0  1  -0.72571141  1.23429582  0.25000000  1.0
  Rb  Rb1  1  -0.23429582  1.72571141  0.75000000  1.0
  Rb  Rb2  1  -0.28277524  1.71498163  0.25000000  1.0
  Rb  Rb3  1  -0.71498163  1.28277524  0.75000000  1.0
  Rb  Rb4  1  -0.25017864  1.22655360  0.25000000  1.0
  Rb  Rb5  1  -0.22655360  1.25017864  0.75000000  1.0
  Rb  Rb6  1  0.01195043  -0.01195043  0.50000000  1.0
  Rb  Rb7  1  0.01195043  -0.01195043  0.00000000  1.0
  Mo  Mo8  1  0.02333991  0.47588463  0.48875182  1.0
  Mo  Mo9  1  0.52411537  0.97666009  0.98875182  1.0
  Mo  Mo10  1  0.52411537  0.97666009  0.51124818  1.0
  Mo  Mo11  1  0.02333991  0.47588463  0.01124818  1.0
  Mo  Mo12  1  0.17684763  0.75338980  0.25000000  1.0
  Mo  Mo13  1  0.24661020  0.82315237  0.75000000  1.0
  Mo  Mo14  1  0.43342253  0.56657747  0.50000000  1.0
  Mo  Mo15  1  0.43342253  0.56657747  0.00000000  1.0
  O  O16  1  0.24792716  0.46956305  0.47329503  1.0
  O  O17  1  0.53043695  0.75207284  0.97329503  1.0
  O  O18  1  0.53043695  0.75207284  0.52670497  1.0
  O  O19  1  0.24792716  0.46956305  0.02670497  1.0
  O  O20  1  -0.09482568  1.67016919  0.46013252  1.0
  O  O21  1  -0.67016919  1.09482568  0.96013252  1.0
  O  O22  1  -0.67016919  1.09482568  0.53986748  1.0
  O  O23  1  -0.09482568  1.67016919  0.03986748  1.0
  O  O24  1  -0.02639931  1.32515966  0.40338570  1.0
  O  O25  1  -0.32515966  1.02639931  0.90338570  1.0
  O  O26  1  -0.32515966  1.02639931  0.59661430  1.0
  O  O27  1  -0.02639931  1.32515966  0.09661430  1.0
  O  O28  1  -0.44799355  1.48071785  0.39053485  1.0
  O  O29  1  -0.48071785  1.44799355  0.89053485  1.0
  O  O30  1  -0.48071785  1.44799355  0.60946515  1.0
  O  O31  1  -0.44799355  1.48071785  0.10946515  1.0
  O  O32  1  0.24504879  0.70660863  0.87420986  1.0
  O  O33  1  0.29339137  0.75495121  0.37420986  1.0
  O  O34  1  0.29339137  0.75495121  0.12579014  1.0
  O  O35  1  0.24504879  0.70660863  0.62579014  1.0
  O  O36  1  -0.01884495  1.42816217  0.87596269  1.0
  O  O37  1  -0.42816217  1.01884495  0.37596269  1.0
  O  O38  1  -0.42816217  1.01884495  0.12403731  1.0
  O  O39  1  -0.01884495  1.42816217  0.62403731  1.0
  O  O40  1  0.01860373  0.93061440  0.25000000  1.0
  O  O41  1  0.06938560  0.98139627  0.75000000  1.0
  O  O42  1  0.09393182  0.57840294  0.25000000  1.0
  O  O43  1  0.42159706  0.90606818  0.75000000  1.0
