# generated using pymatgen
data_MnSiN2
_symmetry_space_group_name_H-M   'P 1'
_cell_length_a   5.26310330
_cell_length_b   5.26310330
_cell_length_c   5.26310330
_cell_angle_alpha   127.84493995
_cell_angle_beta   127.84493995
_cell_angle_gamma   76.87635413
_symmetry_Int_Tables_number   1
_chemical_formula_structural   MnSiN2
_chemical_formula_sum   'Mn2 Si2 N4'
_cell_volume   88.26569951
_cell_formula_units_Z   2
loop_
 _symmetry_equiv_pos_site_id
 _symmetry_equiv_pos_as_xyz
  1  'x, y, z'
loop_
 _atom_site_type_symbol
 _atom_site_label
 _atom_site_symmetry_multiplicity
 _atom_site_fract_x
 _atom_site_fract_y
 _atom_site_fract_z
 _atom_site_occupancy
  Mn  Mn0  1  0.25000000  0.75000000  0.50000000  1.0
  Mn  Mn1  1  0.50000000  0.50000000  0.00000000  1.0
  Si  Si2  1  0.75000000  0.25000000  0.50000000  1.0
  Si  Si3  1  1.00000000  1.00000000  1.00000000  1.0
  N  N4  1  1.05761567  1.12500000  1.43261567  1.0
  N  N5  1  1.37500000  0.94238433  1.06738433  1.0
  N  N6  1  0.87500000  1.30761567  0.93261567  1.0
  N  N7  1  0.69238433  0.62500000  0.56738433  1.0
