# generated using pymatgen
data_ZnS
_symmetry_space_group_name_H-M   'P 1'
_cell_length_a   3.84946898
_cell_length_b   3.84946898
_cell_length_c   56.63105312
_cell_angle_alpha   90.00000000
_cell_angle_beta   90.00000000
_cell_angle_gamma   120.00000000
_symmetry_Int_Tables_number   1
_chemical_formula_structural   ZnS
_chemical_formula_sum   'Zn18 S18'
_cell_volume   726.75314281
_cell_formula_units_Z   18
loop_
 _symmetry_equiv_pos_site_id
 _symmetry_equiv_pos_as_xyz
  1  'x, y, z'
loop_
 _atom_site_type_symbol
 _atom_site_label
 _atom_site_symmetry_multiplicity
 _atom_site_fract_x
 _atom_site_fract_y
 _atom_site_fract_z
 _atom_site_occupancy
  Zn  Zn0  1  0.00000000  0.00000000  0.05554933  1.0
  Zn  Zn1  1  0.00000000  0.00000000  0.22221918  1.0
  Zn  Zn2  1  0.00000000  0.00000000  0.44439829  1.0
  Zn  Zn3  1  0.00000000  0.00000000  0.55558672  1.0
  Zn  Zn4  1  0.00000000  0.00000000  0.72222368  1.0
  Zn  Zn5  1  0.00000000  0.00000000  0.88887718  1.0
  Zn  Zn6  1  0.66666667  0.33333333  0.16667356  1.0
  Zn  Zn7  1  0.66666667  0.33333333  0.33332590  1.0
  Zn  Zn8  1  0.66666667  0.33333333  0.49999151  1.0
  Zn  Zn9  1  0.66666667  0.33333333  0.66666727  1.0
  Zn  Zn10  1  0.66666667  0.33333333  0.83328407  1.0
  Zn  Zn11  1  0.66666667  0.33333333  0.94446479  1.0
  Zn  Zn12  1  0.33333333  0.66666667  -0.00004384  1.0
  Zn  Zn13  1  0.33333333  0.66666667  0.11115002  1.0
  Zn  Zn14  1  0.33333333  0.66666667  0.27773332  1.0
  Zn  Zn15  1  0.33333333  0.66666667  0.38891023  1.0
  Zn  Zn16  1  0.33333333  0.66666667  0.61112001  1.0
  Zn  Zn17  1  0.33333333  0.66666667  0.77776991  1.0
  S  S18  1  0.00000000  0.00000000  0.01383956  1.0
  S  S19  1  0.00000000  0.00000000  0.18056908  1.0
  S  S20  1  0.00000000  0.00000000  0.40277579  1.0
  S  S21  1  0.00000000  0.00000000  0.51394613  1.0
  S  S22  1  0.00000000  0.00000000  0.68056779  1.0
  S  S23  1  0.00000000  0.00000000  0.84716836  1.0
  S  S24  1  0.66666667  0.33333333  0.12502718  1.0
  S  S25  1  0.66666667  0.33333333  0.29161912  1.0
  S  S26  1  0.66666667  0.33333333  0.45828235  1.0
  S  S27  1  0.66666667  0.33333333  0.62501280  1.0
  S  S28  1  0.66666667  0.33333333  0.79165425  1.0
  S  S29  1  0.66666667  0.33333333  0.90283039  1.0
  S  S30  1  0.33333333  0.66666667  0.06950796  1.0
  S  S31  1  0.33333333  0.66666667  0.23610143  1.0
  S  S32  1  0.33333333  0.66666667  0.34727633  1.0
  S  S33  1  0.33333333  0.66666667  0.56947013  1.0
  S  S34  1  0.33333333  0.66666667  0.73611830  1.0
  S  S35  1  0.33333333  0.66666667  0.95833195  1.0
