# generated using pymatgen
data_Y6OsI10
_symmetry_space_group_name_H-M   'P 1'
_cell_length_a   7.76617375
_cell_length_b   9.84904149
_cell_length_c   9.68943366
_cell_angle_alpha   107.12542895
_cell_angle_beta   104.15117097
_cell_angle_gamma   96.63429850
_symmetry_Int_Tables_number   1
_chemical_formula_structural   Y6OsI10
_chemical_formula_sum   'Y6 Os1 I10'
_cell_volume   672.57569310
_cell_formula_units_Z   1
loop_
 _symmetry_equiv_pos_site_id
 _symmetry_equiv_pos_as_xyz
  1  'x, y, z'
loop_
 _atom_site_type_symbol
 _atom_site_label
 _atom_site_symmetry_multiplicity
 _atom_site_fract_x
 _atom_site_fract_y
 _atom_site_fract_z
 _atom_site_occupancy
  Y  Y0  1  -0.85295617  -0.66740242  -0.62616920  1.0
  Y  Y1  1  -0.14704383  -0.33259758  -0.37383080  1.0
  Y  Y2  1  -0.46574314  -0.57689644  -0.76822474  1.0
  Y  Y3  1  -0.53425686  -0.42310356  -0.23177526  1.0
  Y  Y4  1  -0.38230001  -0.74413126  -0.45556371  1.0
  Y  Y5  1  -0.61769999  -0.25586874  -0.54443629  1.0
  Os  Os6  1  -0.50000000  -0.50000000  -0.50000000  1.0
  I  I7  1  -0.95065144  -0.58982991  -0.31470256  1.0
  I  I8  1  -0.04934856  -0.41017009  -0.68529744  1.0
  I  I9  1  -0.83862513  -0.77192934  -0.94594341  1.0
  I  I10  1  -0.16137487  -0.22807066  -0.05405659  1.0
  I  I11  1  -0.75578822  -0.95994220  -0.58549347  1.0
  I  I12  1  -0.24421178  -0.04005780  -0.41450653  1.0
  I  I13  1  -0.58749493  -0.32319693  -0.86988093  1.0
  I  I14  1  -0.41250507  -0.67680307  -0.13011908  1.0
  I  I15  1  -0.27866392  -0.84135720  -0.75494239  1.0
  I  I16  1  -0.72133608  -0.15864280  -0.24505761  1.0
