# generated using pymatgen
data_YbBO3
_symmetry_space_group_name_H-M   'P 1'
_cell_length_a   6.27151072
_cell_length_b   6.27151072
_cell_length_c   6.27151072
_cell_angle_alpha   46.72981026
_cell_angle_beta   46.72981026
_cell_angle_gamma   46.72981026
_symmetry_Int_Tables_number   1
_chemical_formula_structural   YbBO3
_chemical_formula_sum   'Yb2 B2 O6'
_cell_volume   119.47450998
_cell_formula_units_Z   2
loop_
 _symmetry_equiv_pos_site_id
 _symmetry_equiv_pos_as_xyz
  1  'x, y, z'
loop_
 _atom_site_type_symbol
 _atom_site_label
 _atom_site_symmetry_multiplicity
 _atom_site_fract_x
 _atom_site_fract_y
 _atom_site_fract_z
 _atom_site_occupancy
  Yb  Yb0  1  1.00000000  0.00000000  -0.00000000  1.0
  Yb  Yb1  1  0.50000000  0.50000000  0.50000000  1.0
  B  B2  1  0.75000000  0.75000000  -0.25000000  1.0
  B  B3  1  0.25000000  0.25000000  0.25000000  1.0
  O  O4  1  0.47180358  0.75000000  0.02819642  1.0
  O  O5  1  0.97180358  -0.47180358  0.25000000  1.0
  O  O6  1  0.25000000  0.97180358  -0.47180358  1.0
  O  O7  1  0.75000000  1.02819642  -0.52819642  1.0
  O  O8  1  0.52819642  0.25000000  -0.02819642  1.0
  O  O9  1  1.02819642  0.47180358  -0.25000000  1.0
