# generated using pymatgen
data_Ba2TeO
_symmetry_space_group_name_H-M   'P 1'
_cell_length_a   5.10372591
_cell_length_b   5.10372591
_cell_length_c   10.12371813
_cell_angle_alpha   90.00000000
_cell_angle_beta   90.00000000
_cell_angle_gamma   90.00000000
_symmetry_Int_Tables_number   1
_chemical_formula_structural   Ba2TeO
_chemical_formula_sum   'Ba4 Te2 O2'
_cell_volume   263.70279360
_cell_formula_units_Z   2
loop_
 _symmetry_equiv_pos_site_id
 _symmetry_equiv_pos_as_xyz
  1  'x, y, z'
loop_
 _atom_site_type_symbol
 _atom_site_label
 _atom_site_symmetry_multiplicity
 _atom_site_fract_x
 _atom_site_fract_y
 _atom_site_fract_z
 _atom_site_occupancy
  Ba  Ba0  1  0.50000000  0.00000000  0.33219853  1.0
  Ba  Ba1  1  0.00000000  0.50000000  0.66780147  1.0
  Ba  Ba2  1  0.00000000  0.00000000  0.00000000  1.0
  Ba  Ba3  1  0.50000000  0.50000000  0.00000000  1.0
  Te  Te4  1  0.50000000  0.00000000  0.69955175  1.0
  Te  Te5  1  0.00000000  0.50000000  0.30044825  1.0
  O  O6  1  0.50000000  0.00000000  0.08790453  1.0
  O  O7  1  0.00000000  0.50000000  0.91209547  1.0
