# generated using pymatgen
data_SrSiO3
_symmetry_space_group_name_H-M   'P 1'
_cell_length_a   9.83970777
_cell_length_b   7.02281587
_cell_length_c   7.03682060
_cell_angle_alpha   75.33048946
_cell_angle_beta   69.01860403
_cell_angle_gamma   86.14296517
_symmetry_Int_Tables_number   1
_chemical_formula_structural   SrSiO3
_chemical_formula_sum   'Sr6 Si6 O18'
_cell_volume   439.07343864
_cell_formula_units_Z   6
loop_
 _symmetry_equiv_pos_site_id
 _symmetry_equiv_pos_as_xyz
  1  'x, y, z'
loop_
 _atom_site_type_symbol
 _atom_site_label
 _atom_site_symmetry_multiplicity
 _atom_site_fract_x
 _atom_site_fract_y
 _atom_site_fract_z
 _atom_site_occupancy
  Sr  Sr0  1  -0.99660606  -0.76175157  -0.25099849  1.0
  Sr  Sr1  1  -0.00339394  -0.23824843  -0.74900151  1.0
  Sr  Sr2  1  -0.66031092  -0.08304328  -0.24547588  1.0
  Sr  Sr3  1  -0.33968908  -0.91695672  -0.75452412  1.0
  Sr  Sr4  1  -0.34547733  -0.58574483  -0.39055387  1.0
  Sr  Sr5  1  -0.65452267  -0.41425517  -0.60944613  1.0
  Si  Si6  1  -0.29417651  -0.03982287  -0.22665499  1.0
  Si  Si7  1  -0.70582349  -0.96017713  -0.77334501  1.0
  Si  Si8  1  -0.02166642  -0.26898486  -0.24706628  1.0
  Si  Si9  1  -0.97833358  -0.73101514  -0.75293372  1.0
  Si  Si10  1  -0.70607585  -0.62067323  -0.12564590  1.0
  Si  Si11  1  -0.29392415  -0.37932677  -0.87435410  1.0
  O  O12  1  -0.26008307  -0.85912674  -0.14205163  1.0
  O  O13  1  -0.73991693  -0.14087326  -0.85794837  1.0
  O  O14  1  -0.60733856  -0.03704750  -0.62908275  1.0
  O  O15  1  -0.39266144  -0.96295250  -0.37091725  1.0
  O  O16  1  -0.94322350  -0.13470036  -0.15824101  1.0
  O  O17  1  -0.05677650  -0.86529964  -0.84175899  1.0
  O  O18  1  -0.13706346  -0.13439990  -0.35757046  1.0
  O  O19  1  -0.86293654  -0.86560010  -0.64242954  1.0
  O  O20  1  -0.37819261  -0.22749689  -0.02141149  1.0
  O  O21  1  -0.62180739  -0.77250311  -0.97858851  1.0
  O  O22  1  -0.26284642  -0.26856224  -0.71654321  1.0
  O  O23  1  -0.73715358  -0.73143776  -0.28345679  1.0
  O  O24  1  -0.59885971  -0.43132947  -0.26767422  1.0
  O  O25  1  -0.40114029  -0.56867053  -0.73232578  1.0
  O  O26  1  -0.13979410  -0.43756549  -0.04775240  1.0
  O  O27  1  -0.86020590  -0.56243451  -0.95224760  1.0
  O  O28  1  -0.08033113  -0.61552893  -0.58378586  1.0
  O  O29  1  -0.91966887  -0.38447107  -0.41621414  1.0
