# generated using pymatgen
data_Zr3Fe
_symmetry_space_group_name_H-M   'P 1'
_cell_length_a   5.68647874
_cell_length_b   5.68647874
_cell_length_c   8.92349276
_cell_angle_alpha   90.00000000
_cell_angle_beta   90.00000000
_cell_angle_gamma   146.40166782
_symmetry_Int_Tables_number   1
_chemical_formula_structural   Zr3Fe
_chemical_formula_sum   'Zr6 Fe2'
_cell_volume   159.67436942
_cell_formula_units_Z   2
loop_
 _symmetry_equiv_pos_site_id
 _symmetry_equiv_pos_as_xyz
  1  'x, y, z'
loop_
 _atom_site_type_symbol
 _atom_site_label
 _atom_site_symmetry_multiplicity
 _atom_site_fract_x
 _atom_site_fract_y
 _atom_site_fract_z
 _atom_site_occupancy
  Zr  Zr0  1  0.13807209  0.86192791  0.93988032  1.0
  Zr  Zr1  1  0.13807209  0.86192791  0.56011968  1.0
  Zr  Zr2  1  -0.13807209  0.13807209  0.43988032  1.0
  Zr  Zr3  1  -0.13807209  0.13807209  0.06011968  1.0
  Zr  Zr4  1  0.42025679  0.57974321  0.75000000  1.0
  Zr  Zr5  1  -0.42025679  0.42025679  0.25000000  1.0
  Fe  Fe6  1  -0.26806995  0.26806995  0.75000000  1.0
  Fe  Fe7  1  0.26806995  0.73193005  0.25000000  1.0
