# generated using pymatgen
data_RbCr(SO4)2
_symmetry_space_group_name_H-M   'P 1'
_cell_length_a   5.10172051
_cell_length_b   5.10172051
_cell_length_c   8.34658025
_cell_angle_alpha   90.00000000
_cell_angle_beta   90.00000000
_cell_angle_gamma   120.00000000
_symmetry_Int_Tables_number   1
_chemical_formula_structural   RbCr(SO4)2
_chemical_formula_sum   'Rb1 Cr1 S2 O8'
_cell_volume   188.13627056
_cell_formula_units_Z   1
loop_
 _symmetry_equiv_pos_site_id
 _symmetry_equiv_pos_as_xyz
  1  'x, y, z'
loop_
 _atom_site_type_symbol
 _atom_site_label
 _atom_site_symmetry_multiplicity
 _atom_site_fract_x
 _atom_site_fract_y
 _atom_site_fract_z
 _atom_site_occupancy
  Rb  Rb0  1  0.00000000  0.00000000  0.50000000  1.0
  Cr  Cr1  1  0.00000000  0.00000000  0.00000000  1.0
  S  S2  1  0.33333333  0.66666667  0.20520992  1.0
  S  S3  1  0.66666667  0.33333333  0.79479008  1.0
  O  O4  1  0.20762183  0.85916817  0.14730893  1.0
  O  O5  1  0.85916817  0.20762183  0.85269107  1.0
  O  O6  1  0.65154635  0.79237817  0.14730893  1.0
  O  O7  1  0.14083183  0.34845365  0.14730893  1.0
  O  O8  1  0.79237817  0.65154635  0.85269107  1.0
  O  O9  1  0.34845365  0.14083183  0.85269107  1.0
  O  O10  1  0.33333333  0.66666667  0.38082877  1.0
  O  O11  1  0.66666667  0.33333333  0.61917123  1.0
