# generated using pymatgen
data_MnB4
_symmetry_space_group_name_H-M   'P 1'
_cell_length_a   5.43143532
_cell_length_b   5.34882026
_cell_length_c   5.46467010
_cell_angle_alpha   90.00000000
_cell_angle_beta   114.77046788
_cell_angle_gamma   90.00000000
_symmetry_Int_Tables_number   1
_chemical_formula_structural   MnB4
_chemical_formula_sum   'Mn4 B16'
_cell_volume   144.15155539
_cell_formula_units_Z   4
loop_
 _symmetry_equiv_pos_site_id
 _symmetry_equiv_pos_as_xyz
  1  'x, y, z'
loop_
 _atom_site_type_symbol
 _atom_site_label
 _atom_site_symmetry_multiplicity
 _atom_site_fract_x
 _atom_site_fract_y
 _atom_site_fract_z
 _atom_site_occupancy
  Mn  Mn0  1  0.77070860  0.49953083  0.27713157  1.0
  Mn  Mn1  1  0.77070860  1.00046917  0.77713157  1.0
  Mn  Mn2  1  0.22929140  -0.00046917  0.22286843  1.0
  Mn  Mn3  1  0.22929140  0.50046917  0.72286843  1.0
  B  B4  1  0.86436309  0.81374751  0.13837518  1.0
  B  B5  1  0.86436309  0.68625249  0.63837518  1.0
  B  B6  1  0.13563691  0.31374751  0.36162482  1.0
  B  B7  1  0.13563691  0.18625249  0.86162482  1.0
  B  B8  1  0.82922183  0.13041546  0.17557850  1.0
  B  B9  1  0.82922183  0.36958454  0.67557850  1.0
  B  B10  1  0.17077817  0.63041546  0.32442150  1.0
  B  B11  1  0.17077817  0.86958454  0.82442150  1.0
  B  B12  1  0.66281910  0.86956844  0.34225145  1.0
  B  B13  1  0.66281910  0.63043156  0.84225145  1.0
  B  B14  1  0.33718090  0.36956844  0.15774855  1.0
  B  B15  1  0.33718090  0.13043156  0.65774855  1.0
  B  B16  1  0.62946428  0.18064120  0.37480633  1.0
  B  B17  1  0.62946428  0.31935880  0.87480633  1.0
  B  B18  1  0.37053572  0.68064120  0.12519367  1.0
  B  B19  1  0.37053572  0.81935880  0.62519367  1.0
