# generated using pymatgen
data_Sr2N
_symmetry_space_group_name_H-M   'P 1'
_cell_length_a   7.88120484
_cell_length_b   7.88120484
_cell_length_c   7.88120484
_cell_angle_alpha   120.00960980
_cell_angle_beta   120.00960980
_cell_angle_gamma   89.98335615
_symmetry_Int_Tables_number   1
_chemical_formula_structural   Sr2N
_chemical_formula_sum   'Sr8 N4'
_cell_volume   346.09851989
_cell_formula_units_Z   4
loop_
 _symmetry_equiv_pos_site_id
 _symmetry_equiv_pos_as_xyz
  1  'x, y, z'
loop_
 _atom_site_type_symbol
 _atom_site_label
 _atom_site_symmetry_multiplicity
 _atom_site_fract_x
 _atom_site_fract_y
 _atom_site_fract_z
 _atom_site_occupancy
  Sr  Sr0  1  1.08219067  0.36068623  0.72150444  1.0
  Sr  Sr1  1  1.11081820  0.88931377  1.22150444  1.0
  Sr  Sr2  1  0.63918180  0.36068623  0.27849556  1.0
  Sr  Sr3  1  0.66780933  0.88931377  0.77849556  1.0
  Sr  Sr4  1  0.63931377  0.36081820  0.72150444  1.0
  Sr  Sr5  1  0.11068623  0.33219067  0.22150444  1.0
  Sr  Sr6  1  0.63931377  0.91780933  1.27849556  1.0
  Sr  Sr7  1  0.11068623  0.88918180  0.77849556  1.0
  N  N8  1  0.87500000  0.12500000  0.75000000  1.0
  N  N9  1  0.37500000  0.12500000  0.25000000  1.0
  N  N10  1  0.87500000  0.62500000  0.75000000  1.0
  N  N11  1  0.87500000  1.12500000  1.25000000  1.0
