# generated using pymatgen
data_K2HgS2
_symmetry_space_group_name_H-M   'P 1'
_cell_length_a   10.82219435
_cell_length_b   8.10686895
_cell_length_c   7.41722194
_cell_angle_alpha   90.00000000
_cell_angle_beta   90.00000000
_cell_angle_gamma   90.00000000
_symmetry_Int_Tables_number   1
_chemical_formula_structural   K2HgS2
_chemical_formula_sum   'K8 Hg4 S8'
_cell_volume   650.74337498
_cell_formula_units_Z   4
loop_
 _symmetry_equiv_pos_site_id
 _symmetry_equiv_pos_as_xyz
  1  'x, y, z'
loop_
 _atom_site_type_symbol
 _atom_site_label
 _atom_site_symmetry_multiplicity
 _atom_site_fract_x
 _atom_site_fract_y
 _atom_site_fract_z
 _atom_site_occupancy
  K  K0  1  0.88832815  0.05018459  0.75000000  1.0
  K  K1  1  0.88832815  0.44981541  0.25000000  1.0
  K  K2  1  0.11167185  0.55018459  0.75000000  1.0
  K  K3  1  0.11167185  0.94981541  0.25000000  1.0
  K  K4  1  0.60260553  0.25000000  0.00000000  1.0
  K  K5  1  0.60260553  0.25000000  0.50000000  1.0
  K  K6  1  0.39739447  0.75000000  0.00000000  1.0
  K  K7  1  0.39739447  0.75000000  0.50000000  1.0
  Hg  Hg8  1  0.28292069  0.16396284  0.75000000  1.0
  Hg  Hg9  1  0.28292069  0.33603716  0.25000000  1.0
  Hg  Hg10  1  0.71707931  0.66396284  0.75000000  1.0
  Hg  Hg11  1  0.71707931  0.83603716  0.25000000  1.0
  S  S12  1  0.83534677  0.42274159  0.75000000  1.0
  S  S13  1  0.83534677  0.07725841  0.25000000  1.0
  S  S14  1  0.16465323  0.92274159  0.75000000  1.0
  S  S15  1  0.16465323  0.57725841  0.25000000  1.0
  S  S16  1  0.39159587  0.41347161  0.75000000  1.0
  S  S17  1  0.39159587  0.08652839  0.25000000  1.0
  S  S18  1  0.60840413  0.91347161  0.75000000  1.0
  S  S19  1  0.60840413  0.58652839  0.25000000  1.0
