# generated using pymatgen
data_Cs2CaCl4
_symmetry_space_group_name_H-M   'P 1'
_cell_length_a   9.53832970
_cell_length_b   9.53832970
_cell_length_c   9.53832970
_cell_angle_alpha   146.88388071
_cell_angle_beta   146.88388071
_cell_angle_gamma   47.53574659
_symmetry_Int_Tables_number   1
_chemical_formula_structural   Cs2CaCl4
_chemical_formula_sum   'Cs2 Ca1 Cl4'
_cell_volume   258.00953018
_cell_formula_units_Z   1
loop_
 _symmetry_equiv_pos_site_id
 _symmetry_equiv_pos_as_xyz
  1  'x, y, z'
loop_
 _atom_site_type_symbol
 _atom_site_label
 _atom_site_symmetry_multiplicity
 _atom_site_fract_x
 _atom_site_fract_y
 _atom_site_fract_z
 _atom_site_occupancy
  Cs  Cs0  1  0.64402045  0.64402045  1.00000000  1.0
  Cs  Cs1  1  0.35597955  0.35597955  0.00000000  1.0
  Ca  Ca2  1  0.00000000  0.00000000  0.00000000  1.0
  Cl  Cl3  1  0.84289448  0.84289448  1.00000000  1.0
  Cl  Cl4  1  0.15710552  0.15710552  -0.00000000  1.0
  Cl  Cl5  1  0.50000000  0.00000000  0.50000000  1.0
  Cl  Cl6  1  0.00000000  0.50000000  0.50000000  1.0
