# generated using pymatgen
data_K2Pb3C3O9F2
_symmetry_space_group_name_H-M   'P 1'
_cell_length_a   5.36726629
_cell_length_b   5.36726629
_cell_length_c   23.88529658
_cell_angle_alpha   90.00000000
_cell_angle_beta   90.00000000
_cell_angle_gamma   120.00000000
_symmetry_Int_Tables_number   1
_chemical_formula_structural   K2Pb3C3O9F2
_chemical_formula_sum   'K4 Pb6 C6 O18 F4'
_cell_volume   595.89199996
_cell_formula_units_Z   2
loop_
 _symmetry_equiv_pos_site_id
 _symmetry_equiv_pos_as_xyz
  1  'x, y, z'
loop_
 _atom_site_type_symbol
 _atom_site_label
 _atom_site_symmetry_multiplicity
 _atom_site_fract_x
 _atom_site_fract_y
 _atom_site_fract_z
 _atom_site_occupancy
  K  K0  1  0.33333333  0.66666667  0.34713758  1.0
  K  K1  1  0.33333333  0.66666667  0.15286242  1.0
  K  K2  1  0.66666667  0.33333333  0.84713758  1.0
  K  K3  1  0.66666667  0.33333333  0.65286242  1.0
  Pb  Pb4  1  0.33333333  0.66666667  0.94973781  1.0
  Pb  Pb5  1  0.33333333  0.66666667  0.55026219  1.0
  Pb  Pb6  1  0.66666667  0.33333333  0.44973781  1.0
  Pb  Pb7  1  0.66666667  0.33333333  0.05026219  1.0
  Pb  Pb8  1  0.33333333  0.66666667  0.75000000  1.0
  Pb  Pb9  1  0.66666667  0.33333333  0.25000000  1.0
  C  C10  1  -0.00000000  -0.00000000  0.43447012  1.0
  C  C11  1  0.00000000  -0.00000000  0.06552988  1.0
  C  C12  1  -0.00000000  -0.00000000  0.93447012  1.0
  C  C13  1  0.00000000  0.00000000  0.56552988  1.0
  C  C14  1  -0.00000000  -0.00000000  0.25000000  1.0
  C  C15  1  -0.00000000  -0.00000000  0.75000000  1.0
  O  O16  1  0.13974716  0.86025284  0.43466121  1.0
  O  O17  1  0.13974716  0.86025284  0.06533879  1.0
  O  O18  1  0.13974716  0.27949432  0.43466121  1.0
  O  O19  1  0.13974716  0.27949432  0.06533879  1.0
  O  O20  1  0.86025284  0.13974716  0.93466121  1.0
  O  O21  1  0.86025284  0.13974716  0.56533879  1.0
  O  O22  1  0.86025284  0.72050568  0.93466121  1.0
  O  O23  1  0.86025284  0.72050568  0.56533879  1.0
  O  O24  1  0.72050568  0.86025284  0.43466121  1.0
  O  O25  1  0.72050568  0.86025284  0.06533879  1.0
  O  O26  1  0.27949432  0.13974716  0.93466121  1.0
  O  O27  1  0.27949432  0.13974716  0.56533879  1.0
  O  O28  1  0.13977279  0.86022721  0.25000000  1.0
  O  O29  1  0.13977279  0.27954559  0.25000000  1.0
  O  O30  1  0.86022721  0.13977279  0.75000000  1.0
  O  O31  1  0.86022721  0.72045441  0.75000000  1.0
  O  O32  1  0.72045441  0.86022721  0.25000000  1.0
  O  O33  1  0.27954559  0.13977279  0.75000000  1.0
  F  F34  1  0.33333333  0.66666667  0.85283182  1.0
  F  F35  1  0.33333333  0.66666667  0.64716818  1.0
  F  F36  1  0.66666667  0.33333333  0.35283182  1.0
  F  F37  1  0.66666667  0.33333333  0.14716818  1.0
