# generated using pymatgen
data_Ti13Cr4O
_symmetry_space_group_name_H-M   'P 1'
_cell_length_a   9.68009419
_cell_length_b   9.68009419
_cell_length_c   9.68009419
_cell_angle_alpha   60.00000000
_cell_angle_beta   60.00000000
_cell_angle_gamma   60.00000000
_symmetry_Int_Tables_number   1
_chemical_formula_structural   Ti13Cr4O
_chemical_formula_sum   'Ti26 Cr8 O2'
_cell_volume   641.39231367
_cell_formula_units_Z   2
loop_
 _symmetry_equiv_pos_site_id
 _symmetry_equiv_pos_as_xyz
  1  'x, y, z'
loop_
 _atom_site_type_symbol
 _atom_site_label
 _atom_site_symmetry_multiplicity
 _atom_site_fract_x
 _atom_site_fract_y
 _atom_site_fract_z
 _atom_site_occupancy
  Ti  Ti0  1  0.96823283  -0.64342543  0.70695978  1.0
  Ti  Ti1  1  -0.03176717  0.70695978  0.35657457  1.0
  Ti  Ti2  1  -0.10657457  0.28176717  0.28176717  1.0
  Ti  Ti3  1  0.54304022  0.28176717  0.28176717  1.0
  Ti  Ti4  1  -0.64342543  0.96823283  0.70695978  1.0
  Ti  Ti5  1  0.96823283  -0.03176717  0.70695978  1.0
  Ti  Ti6  1  0.96823283  -0.29304022  0.96823283  1.0
  Ti  Ti7  1  -0.64342543  0.70695978  0.96823283  1.0
  Ti  Ti8  1  0.28176717  -0.10657457  0.28176717  1.0
  Ti  Ti9  1  0.28176717  0.28176717  -0.10657457  1.0
  Ti  Ti10  1  0.54304022  0.28176717  -0.10657457  1.0
  Ti  Ti11  1  0.54304022  -0.10657457  0.28176717  1.0
  Ti  Ti12  1  0.70695978  -0.03176717  0.96823283  1.0
  Ti  Ti13  1  -0.64342543  0.96823283  0.96823283  1.0
  Ti  Ti14  1  0.28176717  0.54304022  -0.10657457  1.0
  Ti  Ti15  1  0.28176717  -0.10657457  0.54304022  1.0
  Ti  Ti16  1  -0.29304022  0.96823283  0.35657457  1.0
  Ti  Ti17  1  0.70695978  -0.64342543  0.96823283  1.0
  Ti  Ti18  1  0.96823283  -0.64342543  0.96823283  1.0
  Ti  Ti19  1  -0.03176717  0.96823283  0.35657457  1.0
  Ti  Ti20  1  0.28176717  0.54304022  0.28176717  1.0
  Ti  Ti21  1  -0.10657457  0.54304022  0.28176717  1.0
  Ti  Ti22  1  -0.10657457  0.28176717  0.54304022  1.0
  Ti  Ti23  1  0.28176717  0.28176717  0.54304022  1.0
  Ti  Ti24  1  0.50000000  0.50000000  -0.50000000  1.0
  Ti  Ti25  1  0.75000000  -0.25000000  0.75000000  1.0
  Cr  Cr26  1  0.66111009  -0.33888991  1.01666973  1.0
  Cr  Cr27  1  0.66111009  0.01666973  0.66111009  1.0
  Cr  Cr28  1  0.58888991  -0.41111009  0.58888991  1.0
  Cr  Cr29  1  1.23333027  -0.41111009  0.58888991  1.0
  Cr  Cr30  1  1.01666973  -0.33888991  0.66111009  1.0
  Cr  Cr31  1  0.66111009  -0.33888991  0.66111009  1.0
  Cr  Cr32  1  0.58888991  0.23333027  0.58888991  1.0
  Cr  Cr33  1  0.58888991  -0.41111009  1.23333027  1.0
  O  O34  1  0.00000000  1.00000000  -0.00000000  1.0
  O  O35  1  0.25000000  0.25000000  0.25000000  1.0
