# generated using pymatgen
data_K2CuF4
_symmetry_space_group_name_H-M   'P 1'
_cell_length_a   13.57604932
_cell_length_b   13.57604932
_cell_length_c   13.57604932
_cell_angle_alpha   154.61635153
_cell_angle_beta   154.61635153
_cell_angle_gamma   36.20436280
_symmetry_Int_Tables_number   1
_chemical_formula_structural   K2CuF4
_chemical_formula_sum   'K8 Cu4 F16'
_cell_volume   459.22117124
_cell_formula_units_Z   4
loop_
 _symmetry_equiv_pos_site_id
 _symmetry_equiv_pos_as_xyz
  1  'x, y, z'
loop_
 _atom_site_type_symbol
 _atom_site_label
 _atom_site_symmetry_multiplicity
 _atom_site_fract_x
 _atom_site_fract_y
 _atom_site_fract_z
 _atom_site_occupancy
  K  K0  1  0.17912516  0.67912516  0.50000000  1.0
  K  K1  1  0.67912516  0.17912516  0.50000000  1.0
  K  K2  1  0.82087484  0.32087484  0.50000000  1.0
  K  K3  1  0.32087484  0.82087484  0.50000000  1.0
  K  K4  1  0.07086123  0.07086123  -0.00000000  1.0
  K  K5  1  0.57086123  0.57086123  1.00000000  1.0
  K  K6  1  0.42913877  0.42913877  0.00000000  1.0
  K  K7  1  0.92913877  0.92913877  1.00000000  1.0
  Cu  Cu8  1  -0.00000000  0.50000000  0.50000000  1.0
  Cu  Cu9  1  0.50000000  -0.00000000  0.50000000  1.0
  Cu  Cu10  1  0.25000000  0.25000000  -0.00000000  1.0
  Cu  Cu11  1  0.75000000  0.75000000  1.00000000  1.0
  F  F12  1  0.23021831  0.26978169  0.50000000  1.0
  F  F13  1  0.73021831  0.23021831  0.96043662  1.0
  F  F14  1  0.26978169  0.76978169  1.03956338  1.0
  F  F15  1  0.76978169  0.73021831  1.50000000  1.0
  F  F16  1  0.07672317  0.57672317  0.50000000  1.0
  F  F17  1  0.57672317  0.07672317  0.50000000  1.0
  F  F18  1  0.92327683  0.42327683  0.50000000  1.0
  F  F19  1  0.42327683  0.92327683  0.50000000  1.0
  F  F20  1  0.17326347  0.17326347  -0.00000000  1.0
  F  F21  1  0.67326347  0.67326347  1.00000000  1.0
  F  F22  1  0.32673653  0.32673653  -0.00000000  1.0
  F  F23  1  0.82673653  0.82673653  1.00000000  1.0
  F  F24  1  0.48019984  1.01980016  1.00000000  1.0
  F  F25  1  0.98019984  0.98019984  1.46039967  1.0
  F  F26  1  0.51980016  0.51980016  0.53960033  1.0
  F  F27  1  1.01980016  0.48019984  1.00000000  1.0
