# generated using pymatgen
data_Ba3Cr2O8
_symmetry_space_group_name_H-M   'P 1'
_cell_length_a   5.81202619
_cell_length_b   5.81202619
_cell_length_c   14.75092333
_cell_angle_alpha   78.62114604
_cell_angle_beta   101.37885396
_cell_angle_gamma   120.00053891
_symmetry_Int_Tables_number   1
_chemical_formula_structural   Ba3Cr2O8
_chemical_formula_sum   'Ba6 Cr4 O16'
_cell_volume   420.17439256
_cell_formula_units_Z   2
loop_
 _symmetry_equiv_pos_site_id
 _symmetry_equiv_pos_as_xyz
  1  'x, y, z'
loop_
 _atom_site_type_symbol
 _atom_site_label
 _atom_site_symmetry_multiplicity
 _atom_site_fract_x
 _atom_site_fract_y
 _atom_site_fract_z
 _atom_site_occupancy
  Ba  Ba0  1  1.64680211  -0.14667950  0.94017541  1.0
  Ba  Ba1  1  1.14667950  0.35319789  0.44017541  1.0
  Ba  Ba2  1  0.85332050  0.64680211  0.55982459  1.0
  Ba  Ba3  1  1.35319789  0.14667950  0.05982459  1.0
  Ba  Ba4  1  0.74149623  -0.25850377  0.25000000  1.0
  Ba  Ba5  1  0.25850377  0.25850377  0.75000000  1.0
  Cr  Cr6  1  1.45562174  0.04854083  0.36060467  1.0
  Cr  Cr7  1  0.95145917  0.54437826  0.86060467  1.0
  Cr  Cr8  1  1.04854083  0.45562174  0.13939533  1.0
  Cr  Cr9  1  1.54437826  -0.04854083  0.63939533  1.0
  O  O10  1  0.62829481  -0.12657385  0.40136849  1.0
  O  O11  1  1.12657385  0.37170519  0.90136849  1.0
  O  O12  1  0.87342615  0.62829481  0.09863151  1.0
  O  O13  1  0.37170519  0.12657385  0.59863151  1.0
  O  O14  1  1.42758123  0.09933680  0.24285630  1.0
  O  O15  1  0.90066320  0.57241877  0.74285630  1.0
  O  O16  1  1.09933680  0.42758123  0.25714370  1.0
  O  O17  1  1.57241877  -0.09933680  0.75714370  1.0
  O  O18  1  1.62884934  0.35313102  0.40327668  1.0
  O  O19  1  0.64686898  0.37115066  0.90327668  1.0
  O  O20  1  1.35313102  0.62884934  0.09672332  1.0
  O  O21  1  1.37115066  -0.35313102  0.59672332  1.0
  O  O22  1  0.14646177  -0.12593042  0.39950167  1.0
  O  O23  1  1.12593042  0.85353823  0.89950167  1.0
  O  O24  1  0.87406958  0.14646177  0.10049833  1.0
  O  O25  1  0.85353823  0.12593042  0.60049833  1.0
