# generated using pymatgen
data_Gd3Al
_symmetry_space_group_name_H-M   'P 1'
_cell_length_a   6.86765742
_cell_length_b   6.86765742
_cell_length_c   5.43958208
_cell_angle_alpha   90.00000000
_cell_angle_beta   90.00000000
_cell_angle_gamma   120.00000000
_symmetry_Int_Tables_number   1
_chemical_formula_structural   Gd3Al
_chemical_formula_sum   'Gd6 Al2'
_cell_volume   222.18432316
_cell_formula_units_Z   2
loop_
 _symmetry_equiv_pos_site_id
 _symmetry_equiv_pos_as_xyz
  1  'x, y, z'
loop_
 _atom_site_type_symbol
 _atom_site_label
 _atom_site_symmetry_multiplicity
 _atom_site_fract_x
 _atom_site_fract_y
 _atom_site_fract_z
 _atom_site_occupancy
  Gd  Gd0  1  0.17418410  0.82581590  0.25000000  1.0
  Gd  Gd1  1  0.17418410  0.34836819  0.25000000  1.0
  Gd  Gd2  1  0.82581590  0.17418410  0.75000000  1.0
  Gd  Gd3  1  0.82581590  0.65163181  0.75000000  1.0
  Gd  Gd4  1  0.65163181  0.82581590  0.25000000  1.0
  Gd  Gd5  1  0.34836819  0.17418410  0.75000000  1.0
  Al  Al6  1  0.33333333  0.66666667  0.75000000  1.0
  Al  Al7  1  0.66666667  0.33333333  0.25000000  1.0
