# generated using pymatgen
data_Sr2Mn2Se2OF2
_symmetry_space_group_name_H-M   'P 1'
_cell_length_a   9.94133209
_cell_length_b   9.94133209
_cell_length_c   9.94133209
_cell_angle_alpha   155.69630940
_cell_angle_beta   155.69630940
_cell_angle_gamma   34.63860922
_symmetry_Int_Tables_number   1
_chemical_formula_structural   Sr2Mn2Se2OF2
_chemical_formula_sum   'Sr2 Mn2 Se2 O1 F2'
_cell_volume   166.24948289
_cell_formula_units_Z   1
loop_
 _symmetry_equiv_pos_site_id
 _symmetry_equiv_pos_as_xyz
  1  'x, y, z'
loop_
 _atom_site_type_symbol
 _atom_site_label
 _atom_site_symmetry_multiplicity
 _atom_site_fract_x
 _atom_site_fract_y
 _atom_site_fract_z
 _atom_site_occupancy
  Sr  Sr0  1  0.82357356  0.82357356  1.00000000  1.0
  Sr  Sr1  1  0.17642644  0.17642644  0.00000000  1.0
  Mn  Mn2  1  0.50000000  0.00000000  0.50000000  1.0
  Mn  Mn3  1  0.00000000  0.50000000  0.50000000  1.0
  Se  Se4  1  0.59868102  0.59868102  1.00000000  1.0
  Se  Se5  1  0.40131898  0.40131898  0.00000000  1.0
  O  O6  1  0.00000000  0.00000000  0.00000000  1.0
  F  F7  1  0.25000000  0.75000000  0.50000000  1.0
  F  F8  1  0.75000000  0.25000000  0.50000000  1.0
