# generated using pymatgen
data_HfNbP
_symmetry_space_group_name_H-M   'P 1'
_cell_length_a   6.88429586
_cell_length_b   3.53372872
_cell_length_c   8.31115850
_cell_angle_alpha   90.00000000
_cell_angle_beta   90.00000000
_cell_angle_gamma   90.00000000
_symmetry_Int_Tables_number   1
_chemical_formula_structural   HfNbP
_chemical_formula_sum   'Hf4 Nb4 P4'
_cell_volume   202.18749747
_cell_formula_units_Z   4
loop_
 _symmetry_equiv_pos_site_id
 _symmetry_equiv_pos_as_xyz
  1  'x, y, z'
loop_
 _atom_site_type_symbol
 _atom_site_label
 _atom_site_symmetry_multiplicity
 _atom_site_fract_x
 _atom_site_fract_y
 _atom_site_fract_z
 _atom_site_occupancy
  Hf  Hf0  1  0.03197825  0.25000000  0.66740862  1.0
  Hf  Hf1  1  0.53197825  0.25000000  0.83259138  1.0
  Hf  Hf2  1  0.96802175  0.75000000  0.33259138  1.0
  Hf  Hf3  1  0.46802175  0.75000000  0.16740862  1.0
  Nb  Nb4  1  0.14126270  0.25000000  0.05992907  1.0
  Nb  Nb5  1  0.64126270  0.25000000  0.44007093  1.0
  Nb  Nb6  1  0.85873730  0.75000000  0.94007093  1.0
  Nb  Nb7  1  0.35873730  0.75000000  0.55992907  1.0
  P  P8  1  0.26386206  0.25000000  0.35541560  1.0
  P  P9  1  0.76386206  0.25000000  0.14458440  1.0
  P  P10  1  0.73613794  0.75000000  0.64458440  1.0
  P  P11  1  0.23613794  0.75000000  0.85541560  1.0
