# generated using pymatgen
data_CsY(BH4)4
_symmetry_space_group_name_H-M   'P 1'
_cell_length_a   10.97617626
_cell_length_b   10.97617626
_cell_length_c   10.97617626
_cell_angle_alpha   138.78028762
_cell_angle_beta   138.78028762
_cell_angle_gamma   59.71002888
_symmetry_Int_Tables_number   1
_chemical_formula_structural   CsY(BH4)4
_chemical_formula_sum   'Cs2 Y2 B8 H32'
_cell_volume   568.41873980
_cell_formula_units_Z   2
loop_
 _symmetry_equiv_pos_site_id
 _symmetry_equiv_pos_as_xyz
  1  'x, y, z'
loop_
 _atom_site_type_symbol
 _atom_site_label
 _atom_site_symmetry_multiplicity
 _atom_site_fract_x
 _atom_site_fract_y
 _atom_site_fract_z
 _atom_site_occupancy
  Cs  Cs0  1  0.75000000  0.25000000  0.50000000  1.0
  Cs  Cs1  1  0.00000000  0.00000000  0.00000000  1.0
  Y  Y2  1  0.25000000  0.75000000  0.50000000  1.0
  Y  Y3  1  0.50000000  0.50000000  1.00000000  1.0
  B  B4  1  1.06553006  0.92411790  1.63021461  1.0
  B  B5  1  0.29390329  0.43531545  0.36978539  1.0
  B  B6  1  0.45609671  0.81468455  1.13021461  1.0
  B  B7  1  0.68446994  0.32588210  0.86978539  1.0
  B  B8  1  1.07588210  0.70609671  1.14141216  1.0
  B  B9  1  0.56468455  0.93446994  0.85858784  1.0
  B  B10  1  1.18531545  1.31553006  1.64141216  1.0
  B  B11  1  0.67411790  0.54390329  0.35858784  1.0
  H  H12  1  0.97548674  0.77587475  1.41480343  1.0
  H  H13  1  0.36107132  0.56068331  0.58519657  1.0
  H  H14  1  0.38892868  0.68931669  0.91480343  1.0
  H  H15  1  0.77451326  0.47412525  1.08519657  1.0
  H  H16  1  1.22412525  0.63892868  1.19961199  1.0
  H  H17  1  0.43931669  1.02451326  0.80038801  1.0
  H  H18  1  1.31068331  1.22548674  1.69961199  1.0
  H  H19  1  0.52587475  0.61107132  0.30038801  1.0
  H  H20  1  1.20789195  0.88545961  1.75895241  1.0
  H  H21  1  0.12650721  0.44893954  0.24104759  1.0
  H  H22  1  0.62349279  0.80106046  1.25895241  1.0
  H  H23  1  0.54210805  0.36454039  0.74104759  1.0
  H  H24  1  1.11454039  0.87349279  1.32243233  1.0
  H  H25  1  0.55106046  0.79210805  0.67756767  1.0
  H  H26  1  1.19893954  1.45789195  1.82243233  1.0
  H  H27  1  0.63545961  0.37650721  0.17756767  1.0
  H  H28  1  1.11805922  1.01733003  1.64813519  1.0
  H  H29  1  0.36919484  0.46992403  0.35186481  1.0
  H  H30  1  0.38080516  0.78007597  1.14813519  1.0
  H  H31  1  0.63194078  0.23266997  0.85186481  1.0
  H  H32  1  0.98266997  0.63080516  1.10072919  1.0
  H  H33  1  0.53007597  0.88194078  0.89927081  1.0
  H  H34  1  1.21992403  1.36805922  1.60072919  1.0
  H  H35  1  0.76733003  0.61919484  0.39927081  1.0
  H  H36  1  0.97339091  1.00743067  1.69002813  1.0
  H  H37  1  0.31740254  0.28336277  0.30997187  1.0
  H  H38  1  0.43259746  0.96663723  1.19002813  1.0
  H  H39  1  0.77660909  0.24256933  0.80997187  1.0
  H  H40  1  0.99256933  0.68259746  0.96596023  1.0
  H  H41  1  0.71663723  1.02660909  1.03403977  1.0
  H  H42  1  1.03336277  1.22339091  1.46596023  1.0
  H  H43  1  0.75743067  0.56740254  0.53403977  1.0
