# generated using pymatgen
data_NaPO3
_symmetry_space_group_name_H-M   'P 1'
_cell_length_a   7.11083231
_cell_length_b   6.28519477
_cell_length_c   14.08273060
_cell_angle_alpha   90.00000000
_cell_angle_beta   118.73675511
_cell_angle_gamma   90.00000000
_symmetry_Int_Tables_number   1
_chemical_formula_structural   NaPO3
_chemical_formula_sum   'Na8 P8 O24'
_cell_volume   551.88091110
_cell_formula_units_Z   8
loop_
 _symmetry_equiv_pos_site_id
 _symmetry_equiv_pos_as_xyz
  1  'x, y, z'
loop_
 _atom_site_type_symbol
 _atom_site_label
 _atom_site_symmetry_multiplicity
 _atom_site_fract_x
 _atom_site_fract_y
 _atom_site_fract_z
 _atom_site_occupancy
  Na  Na0  1  0.75826796  0.87728248  0.49482532  1.0
  Na  Na1  1  0.75826796  0.62271752  0.99482532  1.0
  Na  Na2  1  0.24173204  0.37728248  0.00517468  1.0
  Na  Na3  1  0.24173204  0.12271752  0.50517468  1.0
  Na  Na4  1  0.49545614  0.37675389  0.36767727  1.0
  Na  Na5  1  0.49545614  0.12324611  0.86767727  1.0
  Na  Na6  1  0.50454386  0.87675389  0.13232273  1.0
  Na  Na7  1  0.50454386  0.62324611  0.63232273  1.0
  P  P8  1  0.92696849  0.13099205  0.11008075  1.0
  P  P9  1  0.92696849  0.36900795  0.61008075  1.0
  P  P10  1  0.07303151  0.63099205  0.38991925  1.0
  P  P11  1  0.07303151  0.86900795  0.88991925  1.0
  P  P12  1  0.72383278  0.37068629  0.21404614  1.0
  P  P13  1  0.72383278  0.12931371  0.71404614  1.0
  P  P14  1  0.27616722  0.87068629  0.28595386  1.0
  P  P15  1  0.27616722  0.62931371  0.78595386  1.0
  O  O16  1  0.95682112  0.29759749  0.04202269  1.0
  O  O17  1  0.95682112  0.20240251  0.54202269  1.0
  O  O18  1  0.04317888  0.79759749  0.45797731  1.0
  O  O19  1  0.04317888  0.70240251  0.95797731  1.0
  O  O20  1  0.92440393  0.24196794  0.21467768  1.0
  O  O21  1  0.92440393  0.25803206  0.71467768  1.0
  O  O22  1  0.07559607  0.74196794  0.28532232  1.0
  O  O23  1  0.07559607  0.75803206  0.78532232  1.0
  O  O24  1  0.85049173  0.49738561  0.32839024  1.0
  O  O25  1  0.85049173  0.00261439  0.82839024  1.0
  O  O26  1  0.14950827  0.99738561  0.17160976  1.0
  O  O27  1  0.14950827  0.50261439  0.67160976  1.0
  O  O28  1  0.73880564  0.98085334  0.05515598  1.0
  O  O29  1  0.73880564  0.51914666  0.55515598  1.0
  O  O30  1  0.26119436  0.48085334  0.44484402  1.0
  O  O31  1  0.26119436  0.01914666  0.94484402  1.0
  O  O32  1  0.62772219  0.52437879  0.12017433  1.0
  O  O33  1  0.62772219  -0.02437879  0.62017433  1.0
  O  O34  1  0.37227781  1.02437879  0.37982567  1.0
  O  O35  1  0.37227781  0.47562121  0.87982567  1.0
  O  O36  1  0.57473878  0.21721441  0.22671217  1.0
  O  O37  1  0.57473878  0.28278559  0.72671217  1.0
  O  O38  1  0.42526122  0.71721441  0.27328783  1.0
  O  O39  1  0.42526122  0.78278559  0.77328783  1.0
