# generated using pymatgen
data_GeH4
_symmetry_space_group_name_H-M   'P 1'
_cell_length_a   5.08907060
_cell_length_b   8.30425725
_cell_length_c   9.15863006
_cell_angle_alpha   90.00000000
_cell_angle_beta   90.00000000
_cell_angle_gamma   90.00000000
_symmetry_Int_Tables_number   1
_chemical_formula_structural   GeH4
_chemical_formula_sum   'Ge4 H16'
_cell_volume   387.05242021
_cell_formula_units_Z   4
loop_
 _symmetry_equiv_pos_site_id
 _symmetry_equiv_pos_as_xyz
  1  'x, y, z'
loop_
 _atom_site_type_symbol
 _atom_site_label
 _atom_site_symmetry_multiplicity
 _atom_site_fract_x
 _atom_site_fract_y
 _atom_site_fract_z
 _atom_site_occupancy
  Ge  Ge0  1  0.35083228  0.99104538  0.64340413  1.0
  Ge  Ge1  1  0.85083228  0.50895462  0.35659587  1.0
  Ge  Ge2  1  0.64916772  0.49104538  0.85659587  1.0
  Ge  Ge3  1  0.14916772  0.00895462  0.14340413  1.0
  H  H4  1  0.48421067  0.46329686  0.71850841  1.0
  H  H5  1  0.98421067  0.03670314  0.28149159  1.0
  H  H6  1  0.51578933  0.96329686  0.78149159  1.0
  H  H7  1  0.01578933  0.53670314  0.21850841  1.0
  H  H8  1  0.46904272  0.54604547  0.98136467  1.0
  H  H9  1  0.96904272  0.95395453  0.01863533  1.0
  H  H10  1  0.53095728  0.04604547  0.51863533  1.0
  H  H11  1  0.03095728  0.45395453  0.48136467  1.0
  H  H12  1  0.35631063  0.87895792  0.17366285  1.0
  H  H13  1  0.85631063  0.62104208  0.82633715  1.0
  H  H14  1  0.64368937  0.37895792  0.32633715  1.0
  H  H15  1  0.14368937  0.12104208  0.67366285  1.0
  H  H16  1  0.21385835  0.83341787  0.60036572  1.0
  H  H17  1  0.71385835  0.66658213  0.39963428  1.0
  H  H18  1  0.78614165  0.33341787  0.89963428  1.0
  H  H19  1  0.28614165  0.16658213  0.10036572  1.0
