# generated using pymatgen
data_GdNF4
_symmetry_space_group_name_H-M   'P 1'
_cell_length_a   10.35941071
_cell_length_b   7.18142236
_cell_length_c   6.24600483
_cell_angle_alpha   90.00000000
_cell_angle_beta   110.74570857
_cell_angle_gamma   90.00000000
_symmetry_Int_Tables_number   1
_chemical_formula_structural   GdNF4
_chemical_formula_sum   'Gd4 N4 F16'
_cell_volume   434.54481126
_cell_formula_units_Z   4
loop_
 _symmetry_equiv_pos_site_id
 _symmetry_equiv_pos_as_xyz
  1  'x, y, z'
loop_
 _atom_site_type_symbol
 _atom_site_label
 _atom_site_symmetry_multiplicity
 _atom_site_fract_x
 _atom_site_fract_y
 _atom_site_fract_z
 _atom_site_occupancy
  F  F0  1  0.77289732  0.18384377  0.39847052  1.0
  F  F1  1  0.77289732  0.31615623  0.89847052  1.0
  F  F2  1  0.22710268  0.68384377  0.10152948  1.0
  F  F3  1  0.22710268  0.81615623  0.60152948  1.0
  F  F4  1  0.93895560  0.83859878  0.40437716  1.0
  F  F5  1  0.93895560  0.66140122  0.90437716  1.0
  F  F6  1  0.06104440  0.33859878  0.09562284  1.0
  F  F7  1  0.06104440  0.16140122  0.59562284  1.0
  F  F8  1  0.90954030  0.44759577  0.32420342  1.0
  F  F9  1  0.90954030  0.05240423  0.82420342  1.0
  F  F10  1  0.09045970  0.94759577  0.17579658  1.0
  F  F11  1  0.09045970  0.55240423  0.67579658  1.0
  F  F12  1  0.33077678  0.40805822  0.51741336  1.0
  F  F13  1  0.33077678  0.09194178  1.01741336  1.0
  F  F14  1  0.66922322  0.90805822  -0.01741336  1.0
  F  F15  1  0.66922322  0.59194178  0.48258664  1.0
  Gd  Gd16  1  0.91134958  0.13851105  0.19684151  1.0
  Gd  Gd17  1  0.91134958  0.36148895  0.69684151  1.0
  Gd  Gd18  1  0.08865042  0.63851105  0.30315849  1.0
  Gd  Gd19  1  0.08865042  0.86148895  0.80315849  1.0
  N  N20  1  0.42328192  0.07492111  0.23239222  1.0
  N  N21  1  0.42328192  0.42507889  0.73239222  1.0
  N  N22  1  0.57671808  0.57492111  0.26760778  1.0
  N  N23  1  0.57671808  0.92507889  0.76760778  1.0
