# generated using pymatgen
data_P4Ru
_symmetry_space_group_name_H-M   'P 1'
_cell_length_a   4.74396635
_cell_length_b   7.57936541
_cell_length_c   7.20142496
_cell_angle_alpha   111.18168409
_cell_angle_beta   100.41878113
_cell_angle_gamma   90.39109681
_symmetry_Int_Tables_number   1
_chemical_formula_structural   P4Ru
_chemical_formula_sum   'P12 Ru3'
_cell_volume   236.72508955
_cell_formula_units_Z   3
loop_
 _symmetry_equiv_pos_site_id
 _symmetry_equiv_pos_as_xyz
  1  'x, y, z'
loop_
 _atom_site_type_symbol
 _atom_site_label
 _atom_site_symmetry_multiplicity
 _atom_site_fract_x
 _atom_site_fract_y
 _atom_site_fract_z
 _atom_site_occupancy
  P  P0  1  -0.82313448  -0.21448115  -0.83821904  1.0
  P  P1  1  -0.17686552  -0.78551885  -0.16178096  1.0
  P  P2  1  -0.72822496  -0.54834532  -0.57234354  1.0
  P  P3  1  -0.27177504  -0.45165468  -0.42765646  1.0
  P  P4  1  -0.60906321  -0.76892548  -0.83125792  1.0
  P  P5  1  -0.39093679  -0.23107452  -0.16874208  1.0
  P  P6  1  -0.59901667  -0.90025987  -0.36808643  1.0
  P  P7  1  -0.40098333  -0.09974013  -0.63191357  1.0
  P  P8  1  -0.34036471  -0.56222282  -0.91349180  1.0
  P  P9  1  -0.65963529  -0.43777718  -0.08650820  1.0
  P  P10  1  -0.20440575  -0.87531269  -0.70394736  1.0
  P  P11  1  -0.79559425  -0.12468731  -0.29605264  1.0
  Ru  Ru12  1  -0.94154546  -0.67149171  -0.37336606  1.0
  Ru  Ru13  1  -0.05845454  -0.32850829  -0.62663394  1.0
  Ru  Ru14  1  0.00000000  0.00000000  0.00000000  1.0
