# generated using pymatgen
data_Rb3Na(RuO4)2
_symmetry_space_group_name_H-M   'P 1'
_cell_length_a   6.20416553
_cell_length_b   6.20416553
_cell_length_c   8.05857461
_cell_angle_alpha   90.00000000
_cell_angle_beta   90.00000000
_cell_angle_gamma   120.00000000
_symmetry_Int_Tables_number   1
_chemical_formula_structural   Rb3Na(RuO4)2
_chemical_formula_sum   'Rb3 Na1 Ru2 O8'
_cell_volume   268.63068265
_cell_formula_units_Z   1
loop_
 _symmetry_equiv_pos_site_id
 _symmetry_equiv_pos_as_xyz
  1  'x, y, z'
loop_
 _atom_site_type_symbol
 _atom_site_label
 _atom_site_symmetry_multiplicity
 _atom_site_fract_x
 _atom_site_fract_y
 _atom_site_fract_z
 _atom_site_occupancy
  Rb  Rb0  1  0.33333333  0.66666667  0.66033510  1.0
  Rb  Rb1  1  0.66666667  0.33333333  0.33966490  1.0
  Rb  Rb2  1  0.00000000  0.00000000  0.00000000  1.0
  Na  Na3  1  0.00000000  0.00000000  0.50000000  1.0
  Ru  Ru4  1  0.33333333  0.66666667  0.22191080  1.0
  Ru  Ru5  1  0.66666667  0.33333333  0.77808920  1.0
  O  O6  1  0.64227294  0.82113647  0.30780958  1.0
  O  O7  1  0.82113647  0.64227294  0.69219042  1.0
  O  O8  1  0.82113647  0.17886353  0.69219042  1.0
  O  O9  1  0.17886353  0.82113647  0.30780958  1.0
  O  O10  1  0.17886353  0.35772706  0.30780958  1.0
  O  O11  1  0.35772706  0.17886353  0.69219042  1.0
  O  O12  1  0.33333333  0.66666667  0.00368588  1.0
  O  O13  1  0.66666667  0.33333333  0.99631412  1.0
