# generated using pymatgen
data_NaVPO5
_symmetry_space_group_name_H-M   'P 1'
_cell_length_a   7.63289147
_cell_length_b   6.44113456
_cell_length_c   7.75683809
_cell_angle_alpha   90.00000000
_cell_angle_beta   90.00000000
_cell_angle_gamma   90.00000000
_symmetry_Int_Tables_number   1
_chemical_formula_structural   NaVPO5
_chemical_formula_sum   'Na4 V4 P4 O20'
_cell_volume   381.36091905
_cell_formula_units_Z   4
loop_
 _symmetry_equiv_pos_site_id
 _symmetry_equiv_pos_as_xyz
  1  'x, y, z'
loop_
 _atom_site_type_symbol
 _atom_site_label
 _atom_site_symmetry_multiplicity
 _atom_site_fract_x
 _atom_site_fract_y
 _atom_site_fract_z
 _atom_site_occupancy
  Na  Na0  1  0.00000000  0.00000000  0.00000000  1.0
  Na  Na1  1  0.50000000  0.50000000  0.50000000  1.0
  Na  Na2  1  0.00000000  0.50000000  0.00000000  1.0
  Na  Na3  1  0.50000000  0.00000000  0.50000000  1.0
  V  V4  1  0.17398176  0.25000000  0.71037022  1.0
  V  V5  1  0.67398176  0.25000000  0.78962978  1.0
  V  V6  1  0.82601824  0.75000000  0.28962978  1.0
  V  V7  1  0.32601824  0.75000000  0.21037022  1.0
  P  P8  1  0.37508964  0.25000000  0.10315985  1.0
  P  P9  1  0.87508964  0.25000000  0.39684015  1.0
  P  P10  1  0.62491036  0.75000000  0.89684015  1.0
  P  P11  1  0.12491036  0.75000000  0.60315985  1.0
  O  O12  1  0.05138837  0.25000000  0.49579418  1.0
  O  O13  1  0.55138837  0.25000000  0.00420582  1.0
  O  O14  1  0.94861163  0.75000000  0.50420582  1.0
  O  O15  1  0.44861163  0.75000000  0.99579418  1.0
  O  O16  1  0.13563170  0.55723721  0.72492959  1.0
  O  O17  1  0.63563170  0.94276279  0.77507041  1.0
  O  O18  1  0.86436830  0.05723721  0.27507041  1.0
  O  O19  1  0.36436830  0.44276279  0.22492959  1.0
  O  O20  1  0.86436830  0.44276279  0.27507041  1.0
  O  O21  1  0.36436830  0.05723721  0.22492959  1.0
  O  O22  1  0.13563170  0.94276279  0.72492959  1.0
  O  O23  1  0.63563170  0.55723721  0.77507041  1.0
  O  O24  1  0.21644230  0.25000000  0.97481139  1.0
  O  O25  1  0.71644230  0.25000000  0.52518861  1.0
  O  O26  1  0.78355770  0.75000000  0.02518861  1.0
  O  O27  1  0.28355770  0.75000000  0.47481139  1.0
  O  O28  1  0.38638920  0.25000000  0.67154502  1.0
  O  O29  1  0.88638920  0.25000000  0.82845498  1.0
  O  O30  1  0.61361080  0.75000000  0.32845498  1.0
  O  O31  1  0.11361080  0.75000000  0.17154502  1.0
