# generated using pymatgen
data_TiN2F5
_symmetry_space_group_name_H-M   'P 1'
_cell_length_a   6.81373238
_cell_length_b   7.74719154
_cell_length_c   12.16762436
_cell_angle_alpha   90.00000000
_cell_angle_beta   90.00000000
_cell_angle_gamma   90.00000000
_symmetry_Int_Tables_number   1
_chemical_formula_structural   TiN2F5
_chemical_formula_sum   'Ti4 N8 F20'
_cell_volume   642.29591418
_cell_formula_units_Z   4
loop_
 _symmetry_equiv_pos_site_id
 _symmetry_equiv_pos_as_xyz
  1  'x, y, z'
loop_
 _atom_site_type_symbol
 _atom_site_label
 _atom_site_symmetry_multiplicity
 _atom_site_fract_x
 _atom_site_fract_y
 _atom_site_fract_z
 _atom_site_occupancy
  Ti  Ti0  1  0.50000000  0.00000000  0.50000000  1.0
  Ti  Ti1  1  0.50000000  0.50000000  0.50000000  1.0
  Ti  Ti2  1  0.00000000  0.00000000  0.00000000  1.0
  Ti  Ti3  1  0.00000000  0.50000000  0.00000000  1.0
  N  N4  1  0.74491800  0.75000000  0.13854705  1.0
  N  N5  1  0.24491800  0.75000000  0.36145295  1.0
  N  N6  1  0.25508200  0.25000000  0.86145295  1.0
  N  N7  1  0.75508200  0.25000000  0.63854705  1.0
  N  N8  1  0.52239210  0.75000000  0.80200999  1.0
  N  N9  1  1.02239210  0.75000000  0.69799001  1.0
  N  N10  1  0.47760790  0.25000000  0.19799001  1.0
  N  N11  1  -0.02239210  0.25000000  0.30200999  1.0
  F  F12  1  0.32214308  1.03974257  0.60567384  1.0
  F  F13  1  0.32214308  0.46025743  0.60567384  1.0
  F  F14  1  0.82214308  1.03974257  0.89432616  1.0
  F  F15  1  0.82214308  0.46025743  0.89432616  1.0
  F  F16  1  0.67785692  0.53974257  0.39432616  1.0
  F  F17  1  0.67785692  -0.03974257  0.39432616  1.0
  F  F18  1  0.17785692  0.53974257  0.10567384  1.0
  F  F19  1  0.17785692  -0.03974257  0.10567384  1.0
  F  F20  1  0.21227785  0.46932080  0.89254492  1.0
  F  F21  1  0.21227785  0.03067920  0.89254492  1.0
  F  F22  1  0.71227785  0.46932080  0.60745508  1.0
  F  F23  1  0.71227785  0.03067920  0.60745508  1.0
  F  F24  1  0.78772215  0.96932080  0.10745508  1.0
  F  F25  1  0.78772215  0.53067920  0.10745508  1.0
  F  F26  1  0.28772215  0.96932080  0.39254492  1.0
  F  F27  1  0.28772215  0.53067920  0.39254492  1.0
  F  F28  1  -0.00775022  0.75000000  0.96758194  1.0
  F  F29  1  0.49224978  0.75000000  0.53241806  1.0
  F  F30  1  1.00775022  0.25000000  0.03241806  1.0
  F  F31  1  0.50775022  0.25000000  0.46758194  1.0
