# generated using pymatgen
data_Y2CuGe6
_symmetry_space_group_name_H-M   'P 1'
_cell_length_a   10.90086424
_cell_length_b   10.90086424
_cell_length_c   4.11103412
_cell_angle_alpha   90.00000000
_cell_angle_beta   90.00000000
_cell_angle_gamma   158.60502801
_symmetry_Int_Tables_number   1
_chemical_formula_structural   Y2CuGe6
_chemical_formula_sum   'Y2 Cu1 Ge6'
_cell_volume   178.20583220
_cell_formula_units_Z   1
loop_
 _symmetry_equiv_pos_site_id
 _symmetry_equiv_pos_as_xyz
  1  'x, y, z'
loop_
 _atom_site_type_symbol
 _atom_site_label
 _atom_site_symmetry_multiplicity
 _atom_site_fract_x
 _atom_site_fract_y
 _atom_site_fract_z
 _atom_site_occupancy
  Y  Y0  1  -0.22274249  0.22274249  0.50000000  1.0
  Y  Y1  1  0.11360512  0.88639488  0.50000000  1.0
  Cu  Cu2  1  -0.44265478  0.44265478  0.00000000  1.0
  Ge  Ge3  1  -0.50293013  0.50293013  0.50000000  1.0
  Ge  Ge4  1  0.38057301  0.61942699  0.50000000  1.0
  Ge  Ge5  1  -0.00357166  0.00357166  0.00000000  1.0
  Ge  Ge6  1  -0.12035905  0.12035905  0.00000000  1.0
  Ge  Ge7  1  -0.33388189  0.33388189  0.00000000  1.0
  Ge  Ge8  1  0.23896187  0.76103813  0.00000000  1.0
