# generated using pymatgen
data_Na2S5
_symmetry_space_group_name_H-M   'P 1'
_cell_length_a   7.84301825
_cell_length_b   14.80616355
_cell_length_c   5.90270491
_cell_angle_alpha   90.00000000
_cell_angle_beta   90.00000000
_cell_angle_gamma   90.00000000
_symmetry_Int_Tables_number   1
_chemical_formula_structural   Na2S5
_chemical_formula_sum   'Na8 S20'
_cell_volume   685.45167224
_cell_formula_units_Z   4
loop_
 _symmetry_equiv_pos_site_id
 _symmetry_equiv_pos_as_xyz
  1  'x, y, z'
loop_
 _atom_site_type_symbol
 _atom_site_label
 _atom_site_symmetry_multiplicity
 _atom_site_fract_x
 _atom_site_fract_y
 _atom_site_fract_z
 _atom_site_occupancy
  Na  Na0  1  0.44861739  0.75000000  0.70078529  1.0
  Na  Na1  1  0.94861739  0.75000000  0.79921471  1.0
  Na  Na2  1  0.55138261  0.25000000  0.29921471  1.0
  Na  Na3  1  0.05138261  0.25000000  0.20078529  1.0
  Na  Na4  1  0.50000000  0.00000000  0.50000000  1.0
  Na  Na5  1  0.50000000  0.50000000  0.50000000  1.0
  Na  Na6  1  0.00000000  0.00000000  0.00000000  1.0
  Na  Na7  1  0.00000000  0.50000000  0.00000000  1.0
  S  S8  1  0.45093240  0.36469879  0.89271145  1.0
  S  S9  1  0.45093240  0.13530121  0.89271145  1.0
  S  S10  1  0.95093240  0.36469879  0.60728855  1.0
  S  S11  1  0.95093240  0.13530121  0.60728855  1.0
  S  S12  1  0.54906760  0.86469879  0.10728855  1.0
  S  S13  1  0.54906760  0.63530121  0.10728855  1.0
  S  S14  1  0.04906760  0.86469879  0.39271145  1.0
  S  S15  1  0.04906760  0.63530121  0.39271145  1.0
  S  S16  1  0.20646443  0.89677887  0.66432181  1.0
  S  S17  1  0.20646443  0.60322113  0.66432181  1.0
  S  S18  1  0.70646443  0.89677887  0.83567819  1.0
  S  S19  1  0.70646443  0.60322113  0.83567819  1.0
  S  S20  1  0.79353557  0.39677887  0.33567819  1.0
  S  S21  1  0.79353557  0.10322113  0.33567819  1.0
  S  S22  1  0.29353557  0.39677887  0.16432181  1.0
  S  S23  1  0.29353557  0.10322113  0.16432181  1.0
  S  S24  1  0.14667958  0.75000000  0.23220529  1.0
  S  S25  1  0.64667958  0.75000000  0.26779471  1.0
  S  S26  1  0.85332042  0.25000000  0.76779471  1.0
  S  S27  1  0.35332042  0.25000000  0.73220529  1.0
