# generated using pymatgen
data_LiCuBiO4
_symmetry_space_group_name_H-M   'P 1'
_cell_length_a   11.11371997
_cell_length_b   5.86720115
_cell_length_c   5.08020898
_cell_angle_alpha   90.00000000
_cell_angle_beta   90.00000000
_cell_angle_gamma   90.00000000
_symmetry_Int_Tables_number   1
_chemical_formula_structural   LiCuBiO4
_chemical_formula_sum   'Li4 Cu4 Bi4 O16'
_cell_volume   331.26229423
_cell_formula_units_Z   4
loop_
 _symmetry_equiv_pos_site_id
 _symmetry_equiv_pos_as_xyz
  1  'x, y, z'
loop_
 _atom_site_type_symbol
 _atom_site_label
 _atom_site_symmetry_multiplicity
 _atom_site_fract_x
 _atom_site_fract_y
 _atom_site_fract_z
 _atom_site_occupancy
  Li  Li0  1  0.00000000  0.00000000  0.50000000  1.0
  Li  Li1  1  0.50000000  0.50000000  0.00000000  1.0
  Li  Li2  1  0.00000000  0.50000000  0.50000000  1.0
  Li  Li3  1  0.50000000  0.00000000  0.00000000  1.0
  Bi  Bi4  1  0.75437338  0.75000000  0.42549177  1.0
  Bi  Bi5  1  0.25437338  0.75000000  0.07450823  1.0
  Bi  Bi6  1  0.24562662  0.25000000  0.57450823  1.0
  Bi  Bi7  1  0.74562662  0.25000000  0.92549177  1.0
  O  O8  1  0.93245188  0.75000000  0.24012207  1.0
  O  O9  1  0.43245188  0.75000000  0.25987793  1.0
  O  O10  1  0.06754812  0.25000000  0.75987793  1.0
  O  O11  1  0.56754812  0.25000000  0.74012207  1.0
  O  O12  1  0.16319389  1.00552182  0.30939543  1.0
  O  O13  1  0.66319389  0.49447818  0.19060457  1.0
  O  O14  1  0.83680611  0.50552182  0.69060457  1.0
  O  O15  1  0.33680611  -0.00552182  0.80939543  1.0
  O  O16  1  0.83680611  -0.00552182  0.69060457  1.0
  O  O17  1  0.33680611  0.50552182  0.80939543  1.0
  O  O18  1  0.16319389  0.49447818  0.30939543  1.0
  O  O19  1  0.66319389  1.00552182  0.19060457  1.0
  O  O20  1  0.58303344  0.75000000  0.65815721  1.0
  O  O21  1  0.08303344  0.75000000  0.84184279  1.0
  O  O22  1  0.41696656  0.25000000  0.34184279  1.0
  O  O23  1  0.91696656  0.25000000  0.15815721  1.0
  Cu  Cu24  1  0.50000000  0.50000000  0.50000000  1.0
  Cu  Cu25  1  0.00000000  0.00000000  0.00000000  1.0
  Cu  Cu26  1  0.50000000  0.00000000  0.50000000  1.0
  Cu  Cu27  1  0.00000000  0.50000000  0.00000000  1.0
