# generated using pymatgen
data_CsCrF6
_symmetry_space_group_name_H-M   'P 1'
_cell_length_a   5.37609804
_cell_length_b   5.37609804
_cell_length_c   5.37609804
_cell_angle_alpha   96.94020380
_cell_angle_beta   96.94020380
_cell_angle_gamma   96.94020380
_symmetry_Int_Tables_number   1
_chemical_formula_structural   CsCrF6
_chemical_formula_sum   'Cs1 Cr1 F6'
_cell_volume   151.66055318
_cell_formula_units_Z   1
loop_
 _symmetry_equiv_pos_site_id
 _symmetry_equiv_pos_as_xyz
  1  'x, y, z'
loop_
 _atom_site_type_symbol
 _atom_site_label
 _atom_site_symmetry_multiplicity
 _atom_site_fract_x
 _atom_site_fract_y
 _atom_site_fract_z
 _atom_site_occupancy
  Cs  Cs0  1  0.50000000  0.50000000  0.50000000  1.0
  Cr  Cr1  1  0.00000000  0.00000000  0.00000000  1.0
  F  F2  1  0.76710576  0.76773162  0.08094504  1.0
  F  F3  1  1.23226838  -0.08094504  0.23289424  1.0
  F  F4  1  0.91905496  0.23289424  0.23226838  1.0
  F  F5  1  1.23289424  0.23226838  -0.08094504  1.0
  F  F6  1  0.76773162  1.08094504  -0.23289424  1.0
  F  F7  1  1.08094504  0.76710576  -0.23226838  1.0
