# generated using pymatgen
data_Sr6YbGa(BO3)6
_symmetry_space_group_name_H-M   'P 1'
_cell_length_a   7.74395911
_cell_length_b   7.74395911
_cell_length_c   7.74395911
_cell_angle_alpha   105.39845685
_cell_angle_beta   105.39845685
_cell_angle_gamma   105.39845685
_symmetry_Int_Tables_number   1
_chemical_formula_structural   Sr6YbGa(BO3)6
_chemical_formula_sum   'Sr6 Yb1 Ga1 B6 O18'
_cell_volume   402.45761497
_cell_formula_units_Z   1
loop_
 _symmetry_equiv_pos_site_id
 _symmetry_equiv_pos_as_xyz
  1  'x, y, z'
loop_
 _atom_site_type_symbol
 _atom_site_label
 _atom_site_symmetry_multiplicity
 _atom_site_fract_x
 _atom_site_fract_y
 _atom_site_fract_z
 _atom_site_occupancy
  Sr  Sr0  1  0.76700296  0.66383412  0.15201112  1.0
  Sr  Sr1  1  1.33616588  -0.15201112  0.23299704  1.0
  Sr  Sr2  1  0.84798888  0.23299704  0.33616588  1.0
  Sr  Sr3  1  1.23299704  0.33616588  -0.15201112  1.0
  Sr  Sr4  1  0.66383412  1.15201112  -0.23299704  1.0
  Sr  Sr5  1  1.15201112  0.76700296  -0.33616588  1.0
  Yb  Yb6  1  0.50000000  0.50000000  0.50000000  1.0
  Ga  Ga7  1  -0.00000000  -0.00000000  -0.00000000  1.0
  B  B8  1  1.54966263  0.79531232  -0.12110900  1.0
  B  B9  1  1.20468768  0.12110900  -0.54966263  1.0
  B  B10  1  1.12110900  -0.54966263  0.20468768  1.0
  B  B11  1  0.45033737  0.20468768  0.12110900  1.0
  B  B12  1  0.79531232  0.87889100  0.54966263  1.0
  B  B13  1  0.87889100  1.54966263  -0.20468768  1.0
  O  O14  1  0.73092387  0.92989337  0.00276519  1.0
  O  O15  1  1.07010663  -0.00276519  -0.73092387  1.0
  O  O16  1  0.99723481  -0.73092387  0.07010663  1.0
  O  O17  1  0.26907613  0.07010663  -0.00276519  1.0
  O  O18  1  0.92989337  1.00276519  -0.26907613  1.0
  O  O19  1  1.00276519  0.73092387  -0.07010663  1.0
  O  O20  1  1.48760341  0.77504097  -0.31389675  1.0
  O  O21  1  1.22495903  0.31389675  -0.48760341  1.0
  O  O22  1  1.31389675  -0.48760341  0.22495903  1.0
  O  O23  1  0.51239659  0.22495903  0.31389675  1.0
  O  O24  1  0.77504097  0.68610325  0.48760341  1.0
  O  O25  1  0.68610325  1.48760341  -0.22495903  1.0
  O  O26  1  0.56829460  0.30454410  0.04834025  1.0
  O  O27  1  0.69545590  0.95165975  0.43170540  1.0
  O  O28  1  0.95165975  1.43170540  -0.30454410  1.0
  O  O29  1  1.43170540  0.69545590  -0.04834025  1.0
  O  O30  1  1.30454410  0.04834025  -0.43170540  1.0
  O  O31  1  1.04834025  -0.43170540  0.30454410  1.0
