# generated using pymatgen
data_Mo6PbSe8
_symmetry_space_group_name_H-M   'P 1'
_cell_length_a   6.88390489
_cell_length_b   6.88390489
_cell_length_c   6.88390489
_cell_angle_alpha   89.16472297
_cell_angle_beta   89.16472297
_cell_angle_gamma   89.16472297
_symmetry_Int_Tables_number   1
_chemical_formula_structural   Mo6PbSe8
_chemical_formula_sum   'Mo6 Pb1 Se8'
_cell_volume   326.11250041
_cell_formula_units_Z   1
loop_
 _symmetry_equiv_pos_site_id
 _symmetry_equiv_pos_as_xyz
  1  'x, y, z'
loop_
 _atom_site_type_symbol
 _atom_site_label
 _atom_site_symmetry_multiplicity
 _atom_site_fract_x
 _atom_site_fract_y
 _atom_site_fract_z
 _atom_site_occupancy
  Mo  Mo0  1  0.43949998  0.57771028  -0.24045721  1.0
  Mo  Mo1  1  0.42228972  0.24045721  -0.43949998  1.0
  Mo  Mo2  1  0.24045721  0.56050002  -0.57771028  1.0
  Mo  Mo3  1  0.56050002  0.42228972  -0.75954279  1.0
  Mo  Mo4  1  0.57771028  0.75954279  -0.56050002  1.0
  Mo  Mo5  1  0.75954279  0.43949998  -0.42228972  1.0
  Pb  Pb6  1  0.00000000  0.00000000  0.00000000  1.0
  Se  Se7  1  0.75636903  0.75636903  -0.24363097  1.0
  Se  Se8  1  1.24363097  1.24363097  0.24363097  1.0
  Se  Se9  1  0.87824262  0.61823768  -0.74483964  1.0
  Se  Se10  1  0.38176232  0.74483964  -0.87824262  1.0
  Se  Se11  1  0.74483964  0.12175738  -0.61823768  1.0
  Se  Se12  1  0.12175738  0.38176232  -0.25516036  1.0
  Se  Se13  1  0.61823768  0.25516036  -0.12175738  1.0
  Se  Se14  1  0.25516036  0.87824262  -0.38176232  1.0
