# generated using pymatgen
data_K3SiF7
_symmetry_space_group_name_H-M   'P 1'
_cell_length_a   7.85005325
_cell_length_b   7.85005325
_cell_length_c   5.62197610
_cell_angle_alpha   90.00000000
_cell_angle_beta   90.00000000
_cell_angle_gamma   90.00000000
_symmetry_Int_Tables_number   1
_chemical_formula_structural   K3SiF7
_chemical_formula_sum   'K6 Si2 F14'
_cell_volume   346.44492249
_cell_formula_units_Z   2
loop_
 _symmetry_equiv_pos_site_id
 _symmetry_equiv_pos_as_xyz
  1  'x, y, z'
loop_
 _atom_site_type_symbol
 _atom_site_label
 _atom_site_symmetry_multiplicity
 _atom_site_fract_x
 _atom_site_fract_y
 _atom_site_fract_z
 _atom_site_occupancy
  K  K0  1  0.30405286  0.19594714  0.50000000  1.0
  K  K1  1  0.80405286  0.30405286  0.50000000  1.0
  K  K2  1  0.69594714  0.80405286  0.50000000  1.0
  K  K3  1  0.19594714  0.69594714  0.50000000  1.0
  K  K4  1  0.50000000  0.50000000  0.00000000  1.0
  K  K5  1  0.00000000  0.00000000  0.00000000  1.0
  Si  Si6  1  0.50000000  0.00000000  0.00000000  1.0
  Si  Si7  1  0.00000000  0.50000000  0.00000000  1.0
  F  F8  1  0.89161575  0.60838425  0.78183921  1.0
  F  F9  1  0.89161575  0.60838425  0.21816079  1.0
  F  F10  1  0.39161575  0.89161575  0.78183921  1.0
  F  F11  1  0.39161575  0.89161575  0.21816079  1.0
  F  F12  1  0.10838425  0.39161575  0.78183921  1.0
  F  F13  1  0.10838425  0.39161575  0.21816079  1.0
  F  F14  1  0.60838425  0.10838425  0.78183921  1.0
  F  F15  1  0.60838425  0.10838425  0.21816079  1.0
  F  F16  1  0.34541235  0.15458765  0.00000000  1.0
  F  F17  1  0.84541235  0.34541235  0.00000000  1.0
  F  F18  1  0.65458765  0.84541235  0.00000000  1.0
  F  F19  1  0.15458765  0.65458765  0.00000000  1.0
  F  F20  1  0.50000000  0.50000000  0.50000000  1.0
  F  F21  1  0.00000000  0.00000000  0.50000000  1.0
