# generated using pymatgen
data_Sr(AlSe2)2
_symmetry_space_group_name_H-M   'P 1'
_cell_length_a   6.36893209
_cell_length_b   6.36893209
_cell_length_c   11.13072772
_cell_angle_alpha   90.00000000
_cell_angle_beta   90.00000000
_cell_angle_gamma   121.15035081
_symmetry_Int_Tables_number   1
_chemical_formula_structural   Sr(AlSe2)2
_chemical_formula_sum   'Sr2 Al4 Se8'
_cell_volume   386.39863926
_cell_formula_units_Z   2
loop_
 _symmetry_equiv_pos_site_id
 _symmetry_equiv_pos_as_xyz
  1  'x, y, z'
loop_
 _atom_site_type_symbol
 _atom_site_label
 _atom_site_symmetry_multiplicity
 _atom_site_fract_x
 _atom_site_fract_y
 _atom_site_fract_z
 _atom_site_occupancy
  Sr  Sr0  1  0.00000000  0.00000000  0.75000000  1.0
  Sr  Sr1  1  0.00000000  0.00000000  0.25000000  1.0
  Al  Al2  1  -0.26050954  1.25831012  0.00000000  1.0
  Al  Al3  1  0.25831012  0.73949046  0.50000000  1.0
  Al  Al4  1  -0.25831012  1.26050954  0.50000000  1.0
  Al  Al5  1  0.26050954  0.74168988  0.00000000  1.0
  Se  Se6  1  -0.15031939  1.68142569  0.00000000  1.0
  Se  Se7  1  0.68142569  0.84968061  0.50000000  1.0
  Se  Se8  1  -0.68142569  1.15031939  0.50000000  1.0
  Se  Se9  1  0.15031939  0.31857431  0.00000000  1.0
  Se  Se10  1  0.00000000  1.50000000  0.66633103  1.0
  Se  Se11  1  0.00000000  1.50000000  0.33366897  1.0
  Se  Se12  1  0.50000000  1.00000000  0.16633103  1.0
  Se  Se13  1  0.50000000  1.00000000  0.83366897  1.0
