# generated using pymatgen
data_Y4InIr
_symmetry_space_group_name_H-M   'P 1'
_cell_length_a   9.68901723
_cell_length_b   9.68901723
_cell_length_c   9.68901723
_cell_angle_alpha   60.00000000
_cell_angle_beta   60.00000000
_cell_angle_gamma   60.00000000
_symmetry_Int_Tables_number   1
_chemical_formula_structural   Y4InIr
_chemical_formula_sum   'Y16 In4 Ir4'
_cell_volume   643.16764164
_cell_formula_units_Z   4
loop_
 _symmetry_equiv_pos_site_id
 _symmetry_equiv_pos_as_xyz
  1  'x, y, z'
loop_
 _atom_site_type_symbol
 _atom_site_label
 _atom_site_symmetry_multiplicity
 _atom_site_fract_x
 _atom_site_fract_y
 _atom_site_fract_z
 _atom_site_occupancy
  Y  Y0  1  0.05994538  0.44005462  0.44005462  1.0
  Y  Y1  1  0.44005462  0.44005462  0.05994538  1.0
  Y  Y2  1  0.44005462  0.05994538  0.44005462  1.0
  Y  Y3  1  0.05994538  0.05994538  0.44005462  1.0
  Y  Y4  1  0.05994538  0.44005462  0.05994538  1.0
  Y  Y5  1  0.44005462  0.05994538  0.05994538  1.0
  Y  Y6  1  -0.80830197  0.80830197  0.80830197  1.0
  Y  Y7  1  -0.19169803  0.80830197  0.19169803  1.0
  Y  Y8  1  -0.19169803  0.19169803  0.80830197  1.0
  Y  Y9  1  0.19169803  1.19169803  -0.19169803  1.0
  Y  Y10  1  0.19169803  -0.19169803  0.19169803  1.0
  Y  Y11  1  -0.19169803  0.19169803  0.19169803  1.0
  Y  Y12  1  -0.34896642  0.65103358  0.65103358  1.0
  Y  Y13  1  1.04689926  0.65103358  -0.34896642  1.0
  Y  Y14  1  -0.34896642  0.65103358  1.04689926  1.0
  Y  Y15  1  0.65103358  1.04689926  -0.34896642  1.0
  In  In16  1  0.41678834  1.41678834  0.41678834  1.0
  In  In17  1  -0.25036501  0.41678834  0.41678834  1.0
  In  In18  1  0.41678834  1.41678834  -0.25036501  1.0
  In  In19  1  0.41678834  -0.25036501  0.41678834  1.0
  Ir  Ir20  1  0.85906791  0.85906791  -0.14093209  1.0
  Ir  Ir21  1  0.42279626  0.85906791  -0.14093209  1.0
  Ir  Ir22  1  0.85906791  0.85906791  -0.57720374  1.0
  Ir  Ir23  1  0.85906791  0.42279626  -0.14093209  1.0
