# generated using pymatgen
data_Na2CN2
_symmetry_space_group_name_H-M   'P 1'
_cell_length_a   3.56553168
_cell_length_b   3.56553168
_cell_length_c   5.66040447
_cell_angle_alpha   75.31800658
_cell_angle_beta   104.68199342
_cell_angle_gamma   90.33972639
_symmetry_Int_Tables_number   1
_chemical_formula_structural   Na2CN2
_chemical_formula_sum   'Na2 C1 N2'
_cell_volume   67.20727086
_cell_formula_units_Z   1
loop_
 _symmetry_equiv_pos_site_id
 _symmetry_equiv_pos_as_xyz
  1  'x, y, z'
loop_
 _atom_site_type_symbol
 _atom_site_label
 _atom_site_symmetry_multiplicity
 _atom_site_fract_x
 _atom_site_fract_y
 _atom_site_fract_z
 _atom_site_occupancy
  Na  Na0  1  1.32751866  -0.32751866  0.68804505  1.0
  Na  Na1  1  0.67248134  0.32751866  0.31195495  1.0
  C  C2  1  0.00000000  0.00000000  0.00000000  1.0
  N  N3  1  0.85198606  0.14801394  0.77123067  1.0
  N  N4  1  1.14801394  -0.14801394  0.22876933  1.0
