# generated using pymatgen
data_TeC16(I2N)2
_symmetry_space_group_name_H-M   'P 1'
_cell_length_a   9.24500190
_cell_length_b   9.24500190
_cell_length_c   9.24500190
_cell_angle_alpha   116.77652507
_cell_angle_beta   116.77652507
_cell_angle_gamma   95.68023042
_symmetry_Int_Tables_number   1
_chemical_formula_structural   TeC16(I2N)2
_chemical_formula_sum   'Te1 C16 I4 N2'
_cell_volume   582.85760375
_cell_formula_units_Z   1
loop_
 _symmetry_equiv_pos_site_id
 _symmetry_equiv_pos_as_xyz
  1  'x, y, z'
loop_
 _atom_site_type_symbol
 _atom_site_label
 _atom_site_symmetry_multiplicity
 _atom_site_fract_x
 _atom_site_fract_y
 _atom_site_fract_z
 _atom_site_occupancy
  Te  Te0  1  0.00000000  0.00000000  0.00000000  1.0
  C  C1  1  0.93762879  1.31869750  0.61893129  1.0
  C  C2  1  1.69976621  1.31869750  1.38106871  1.0
  C  C3  1  1.31869750  1.69976621  1.38106871  1.0
  C  C4  1  1.31869750  0.93762879  0.61893129  1.0
  C  C5  1  1.06237121  0.68130250  0.38106871  1.0
  C  C6  1  1.30023379  0.68130250  0.61893129  1.0
  C  C7  1  0.68130250  1.30023379  0.61893129  1.0
  C  C8  1  0.68130250  1.06237121  0.38106871  1.0
  C  C9  1  1.09810287  1.38918590  0.70891697  1.0
  C  C10  1  0.68026893  0.38918590  0.29108303  1.0
  C  C11  1  0.38918590  0.68026893  0.29108303  1.0
  C  C12  1  1.38918590  1.09810287  0.70891697  1.0
  C  C13  1  0.90189713  0.61081410  0.29108303  1.0
  C  C14  1  0.31973107  0.61081410  0.70891697  1.0
  C  C15  1  0.61081410  0.31973107  0.70891697  1.0
  C  C16  1  0.61081410  0.90189713  0.29108303  1.0
  I  I17  1  0.32268813  0.32268813  0.64537626  1.0
  I  I18  1  0.67731187  0.67731187  0.35462374  1.0
  I  I19  1  1.32268813  0.67731187  1.00000000  1.0
  I  I20  1  0.67731187  1.32268813  1.00000000  1.0
  N  N21  1  0.75000000  1.25000000  0.50000000  1.0
  N  N22  1  1.25000000  0.75000000  0.50000000  1.0
