# generated using pymatgen
data_La3GaS5O
_symmetry_space_group_name_H-M   'P 1'
_cell_length_a   10.87726083
_cell_length_b   4.05244530
_cell_length_c   20.09611259
_cell_angle_alpha   90.00000000
_cell_angle_beta   90.00000000
_cell_angle_gamma   90.00000000
_symmetry_Int_Tables_number   1
_chemical_formula_structural   La3GaS5O
_chemical_formula_sum   'La12 Ga4 S20 O4'
_cell_volume   885.82668483
_cell_formula_units_Z   4
loop_
 _symmetry_equiv_pos_site_id
 _symmetry_equiv_pos_as_xyz
  1  'x, y, z'
loop_
 _atom_site_type_symbol
 _atom_site_label
 _atom_site_symmetry_multiplicity
 _atom_site_fract_x
 _atom_site_fract_y
 _atom_site_fract_z
 _atom_site_occupancy
  La  La0  1  0.97906523  0.75000000  0.60256796  1.0
  La  La1  1  0.47906523  0.75000000  0.89743204  1.0
  La  La2  1  0.02093477  0.25000000  0.39743204  1.0
  La  La3  1  0.52093477  0.25000000  0.10256796  1.0
  La  La4  1  0.59966685  0.75000000  0.66307063  1.0
  La  La5  1  0.09966685  0.75000000  0.83692937  1.0
  La  La6  1  0.40033315  0.25000000  0.33692937  1.0
  La  La7  1  0.90033315  0.25000000  0.16307063  1.0
  La  La8  1  0.35286541  0.75000000  0.51013852  1.0
  La  La9  1  0.85286541  0.75000000  0.98986148  1.0
  La  La10  1  0.64713459  0.25000000  0.48986148  1.0
  La  La11  1  0.14713459  0.25000000  0.01013852  1.0
  Ga  Ga12  1  0.70706711  0.75000000  0.28903825  1.0
  Ga  Ga13  1  0.20706711  0.75000000  0.21096175  1.0
  Ga  Ga14  1  0.29293289  0.25000000  0.71096175  1.0
  Ga  Ga15  1  0.79293289  0.25000000  0.78903825  1.0
  S  S16  1  0.91251699  0.75000000  0.28803385  1.0
  S  S17  1  0.41251699  0.75000000  0.21196615  1.0
  S  S18  1  0.08748301  0.25000000  0.71196615  1.0
  S  S19  1  0.58748301  0.25000000  0.78803385  1.0
  S  S20  1  0.87294919  0.75000000  0.46529896  1.0
  S  S21  1  0.37294919  0.75000000  0.03470104  1.0
  S  S22  1  0.12705081  0.25000000  0.53470104  1.0
  S  S23  1  0.62705081  0.25000000  0.96529896  1.0
  S  S24  1  0.85045116  0.75000000  0.73731130  1.0
  S  S25  1  0.35045116  0.75000000  0.76268870  1.0
  S  S26  1  0.14954884  0.25000000  0.26268870  1.0
  S  S27  1  0.64954884  0.25000000  0.23731130  1.0
  S  S28  1  0.72210403  0.75000000  0.11474754  1.0
  S  S29  1  0.22210403  0.75000000  0.38525246  1.0
  S  S30  1  0.27789597  0.25000000  0.88525246  1.0
  S  S31  1  0.77789597  0.25000000  0.61474754  1.0
  S  S32  1  0.58488127  0.75000000  0.37934283  1.0
  S  S33  1  0.08488127  0.75000000  0.12065717  1.0
  S  S34  1  0.41511873  0.25000000  0.62065717  1.0
  S  S35  1  0.91511873  0.25000000  0.87934283  1.0
  O  O36  1  0.57449270  0.75000000  0.54180648  1.0
  O  O37  1  0.07449270  0.75000000  0.95819352  1.0
  O  O38  1  0.42550730  0.25000000  0.45819352  1.0
  O  O39  1  0.92550730  0.25000000  0.04180648  1.0
