# generated using pymatgen
data_Nb4FeTe4
_symmetry_space_group_name_H-M   'P 1'
_cell_length_a   11.01918639
_cell_length_b   19.22635693
_cell_length_c   4.89105524
_cell_angle_alpha   90.00000000
_cell_angle_beta   90.00000000
_cell_angle_gamma   90.00000000
_symmetry_Int_Tables_number   1
_chemical_formula_structural   Nb4FeTe4
_chemical_formula_sum   'Nb16 Fe4 Te16'
_cell_volume   1036.21314619
_cell_formula_units_Z   4
loop_
 _symmetry_equiv_pos_site_id
 _symmetry_equiv_pos_as_xyz
  1  'x, y, z'
loop_
 _atom_site_type_symbol
 _atom_site_label
 _atom_site_symmetry_multiplicity
 _atom_site_fract_x
 _atom_site_fract_y
 _atom_site_fract_z
 _atom_site_occupancy
  Nb  Nb0  1  0.43683442  0.61430557  0.50000000  1.0
  Nb  Nb1  1  0.93683442  0.88569443  0.50000000  1.0
  Nb  Nb2  1  0.56316558  0.38569443  0.50000000  1.0
  Nb  Nb3  1  0.06316558  0.11430557  0.50000000  1.0
  Nb  Nb4  1  0.20035335  0.96390251  0.50000000  1.0
  Nb  Nb5  1  0.70035335  0.53609749  0.50000000  1.0
  Nb  Nb6  1  0.79964665  0.03609749  0.50000000  1.0
  Nb  Nb7  1  0.29964665  0.46390251  0.50000000  1.0
  Nb  Nb8  1  0.31366331  0.55548461  0.00000000  1.0
  Nb  Nb9  1  0.81366331  0.94451539  0.00000000  1.0
  Nb  Nb10  1  0.68633669  0.44451539  0.00000000  1.0
  Nb  Nb11  1  0.18633669  0.05548461  0.00000000  1.0
  Nb  Nb12  1  0.09677072  0.89371758  0.00000000  1.0
  Nb  Nb13  1  0.59677072  0.60628242  0.00000000  1.0
  Nb  Nb14  1  0.90322928  0.10628242  0.00000000  1.0
  Nb  Nb15  1  0.40322928  0.39371758  0.00000000  1.0
  Fe  Fe16  1  0.50000000  0.50000000  0.74997760  1.0
  Fe  Fe17  1  0.50000000  0.50000000  0.25002240  1.0
  Fe  Fe18  1  0.00000000  0.00000000  0.74997760  1.0
  Fe  Fe19  1  0.00000000  0.00000000  0.25002240  1.0
  Te  Te20  1  0.16587148  0.81720048  0.50000000  1.0
  Te  Te21  1  0.66587148  0.68279952  0.50000000  1.0
  Te  Te22  1  0.83412852  0.18279952  0.50000000  1.0
  Te  Te23  1  0.33412852  0.31720048  0.50000000  1.0
  Te  Te24  1  0.18015956  0.59538193  0.50000000  1.0
  Te  Te25  1  0.68015956  0.90461807  0.50000000  1.0
  Te  Te26  1  0.81984044  0.40461807  0.50000000  1.0
  Te  Te27  1  0.31984044  0.09538193  0.50000000  1.0
  Te  Te28  1  0.39181943  0.69657773  0.00000000  1.0
  Te  Te29  1  0.89181943  0.80342227  0.00000000  1.0
  Te  Te30  1  0.60818057  0.30342227  0.00000000  1.0
  Te  Te31  1  0.10818057  0.19657773  0.00000000  1.0
  Te  Te32  1  0.34377522  0.93781433  0.00000000  1.0
  Te  Te33  1  0.84377522  0.56218567  0.00000000  1.0
  Te  Te34  1  0.65622478  0.06218567  0.00000000  1.0
  Te  Te35  1  0.15622478  0.43781433  0.00000000  1.0
