# generated using pymatgen
data_K8Tl10Zn
_symmetry_space_group_name_H-M   'P 1'
_cell_length_a   10.46117199
_cell_length_b   10.46117199
_cell_length_c   13.97944350
_cell_angle_alpha   90.00000000
_cell_angle_beta   90.00000000
_cell_angle_gamma   90.00000000
_symmetry_Int_Tables_number   1
_chemical_formula_structural   K8Tl10Zn
_chemical_formula_sum   'K16 Tl20 Zn2'
_cell_volume   1529.85604660
_cell_formula_units_Z   2
loop_
 _symmetry_equiv_pos_site_id
 _symmetry_equiv_pos_as_xyz
  1  'x, y, z'
loop_
 _atom_site_type_symbol
 _atom_site_label
 _atom_site_symmetry_multiplicity
 _atom_site_fract_x
 _atom_site_fract_y
 _atom_site_fract_z
 _atom_site_occupancy
  K  K0  1  0.70442139  0.07403541  0.14533596  1.0
  K  K1  1  0.29557861  0.92596459  0.14533596  1.0
  K  K2  1  0.29557861  0.07403541  0.85466404  1.0
  K  K3  1  0.70442139  0.92596459  0.85466404  1.0
  K  K4  1  0.79557861  0.42596459  0.35466404  1.0
  K  K5  1  0.20442139  0.57403541  0.35466404  1.0
  K  K6  1  0.20442139  0.42596459  0.64533596  1.0
  K  K7  1  0.79557861  0.57403541  0.64533596  1.0
  K  K8  1  0.07403541  0.70442139  0.85466404  1.0
  K  K9  1  0.92596459  0.29557861  0.85466404  1.0
  K  K10  1  0.07403541  0.29557861  0.14533596  1.0
  K  K11  1  0.92596459  0.70442139  0.14533596  1.0
  K  K12  1  0.42596459  0.79557861  0.64533596  1.0
  K  K13  1  0.57403541  0.20442139  0.64533596  1.0
  K  K14  1  0.42596459  0.20442139  0.35466404  1.0
  K  K15  1  0.57403541  0.79557861  0.35466404  1.0
  Tl  Tl16  1  0.75928759  0.09508736  0.41026963  1.0
  Tl  Tl17  1  0.24071241  0.90491264  0.41026963  1.0
  Tl  Tl18  1  0.24071241  0.09508736  0.58973037  1.0
  Tl  Tl19  1  0.75928759  0.90491264  0.58973037  1.0
  Tl  Tl20  1  0.74071241  0.40491264  0.08973037  1.0
  Tl  Tl21  1  0.25928759  0.59508736  0.08973037  1.0
  Tl  Tl22  1  0.25928759  0.40491264  0.91026963  1.0
  Tl  Tl23  1  0.74071241  0.59508736  0.91026963  1.0
  Tl  Tl24  1  0.09508736  0.75928759  0.58973037  1.0
  Tl  Tl25  1  0.90491264  0.24071241  0.58973037  1.0
  Tl  Tl26  1  0.09508736  0.24071241  0.41026963  1.0
  Tl  Tl27  1  0.90491264  0.75928759  0.41026963  1.0
  Tl  Tl28  1  0.40491264  0.74071241  0.91026963  1.0
  Tl  Tl29  1  0.59508736  0.25928759  0.91026963  1.0
  Tl  Tl30  1  0.40491264  0.25928759  0.08973037  1.0
  Tl  Tl31  1  0.59508736  0.74071241  0.08973037  1.0
  Tl  Tl32  1  0.50000000  0.50000000  0.21110353  1.0
  Tl  Tl33  1  0.50000000  0.50000000  0.78889647  1.0
  Tl  Tl34  1  0.00000000  0.00000000  0.28889647  1.0
  Tl  Tl35  1  0.00000000  0.00000000  0.71110353  1.0
  Zn  Zn36  1  0.50000000  0.50000000  0.00000000  1.0
  Zn  Zn37  1  0.00000000  0.00000000  0.50000000  1.0
