# generated using pymatgen
data_SNClO4
_symmetry_space_group_name_H-M   'P 1'
_cell_length_a   9.61526662
_cell_length_b   7.28304026
_cell_length_c   7.61228834
_cell_angle_alpha   90.00000000
_cell_angle_beta   105.02665881
_cell_angle_gamma   90.00000000
_symmetry_Int_Tables_number   1
_chemical_formula_structural   SNClO4
_chemical_formula_sum   'S4 N4 Cl4 O16'
_cell_volume   514.84779307
_cell_formula_units_Z   4
loop_
 _symmetry_equiv_pos_site_id
 _symmetry_equiv_pos_as_xyz
  1  'x, y, z'
loop_
 _atom_site_type_symbol
 _atom_site_label
 _atom_site_symmetry_multiplicity
 _atom_site_fract_x
 _atom_site_fract_y
 _atom_site_fract_z
 _atom_site_occupancy
  S  S0  1  0.78403162  0.45481106  0.82414249  1.0
  S  S1  1  0.78403162  0.04518894  0.32414249  1.0
  S  S2  1  0.21596838  0.95481106  0.67585751  1.0
  S  S3  1  0.21596838  0.54518894  0.17585751  1.0
  N  N4  1  0.74642978  0.96195733  0.73281606  1.0
  N  N5  1  0.74642978  0.53804267  0.23281606  1.0
  N  N6  1  0.25357022  0.46195733  0.76718394  1.0
  N  N7  1  0.25357022  0.03804267  0.26718394  1.0
  Cl  Cl8  1  0.39120548  0.76710269  0.79457071  1.0
  Cl  Cl9  1  0.39120548  0.73289731  0.29457071  1.0
  Cl  Cl10  1  0.60879452  0.26710269  0.70542929  1.0
  Cl  Cl11  1  0.60879452  0.23289731  0.20542929  1.0
  O  O12  1  0.89325106  0.33035362  0.92720710  1.0
  O  O13  1  0.89325106  0.16964638  0.42720710  1.0
  O  O14  1  0.10674894  0.83035362  0.57279290  1.0
  O  O15  1  0.10674894  0.66964638  0.07279290  1.0
  O  O16  1  0.86152430  0.98051517  0.80230970  1.0
  O  O17  1  0.86152430  0.51948483  0.30230970  1.0
  O  O18  1  0.13847570  0.48051517  0.69769030  1.0
  O  O19  1  0.13847570  0.01948483  0.19769030  1.0
  O  O20  1  0.81036266  0.54540898  0.66625911  1.0
  O  O21  1  0.81036266  0.95459102  0.16625911  1.0
  O  O22  1  0.18963734  0.04540898  0.83374089  1.0
  O  O23  1  0.18963734  0.45459102  0.33374089  1.0
  O  O24  1  0.71577833  0.57546465  0.93400957  1.0
  O  O25  1  0.71577833  0.92453535  0.43400957  1.0
  O  O26  1  0.28422167  0.07546465  0.56599043  1.0
  O  O27  1  0.28422167  0.42453535  0.06599043  1.0
