# generated using pymatgen
data_Ru(CO)4
_symmetry_space_group_name_H-M   'P 1'
_cell_length_a   8.86341693
_cell_length_b   8.86341693
_cell_length_c   8.86341693
_cell_angle_alpha   129.33467194
_cell_angle_beta   65.54357030
_cell_angle_gamma   141.27450449
_symmetry_Int_Tables_number   1
_chemical_formula_structural   Ru(CO)4
_chemical_formula_sum   'Ru2 C8 O8'
_cell_volume   332.22679485
_cell_formula_units_Z   2
loop_
 _symmetry_equiv_pos_site_id
 _symmetry_equiv_pos_as_xyz
  1  'x, y, z'
loop_
 _atom_site_type_symbol
 _atom_site_label
 _atom_site_symmetry_multiplicity
 _atom_site_fract_x
 _atom_site_fract_y
 _atom_site_fract_z
 _atom_site_occupancy
  Ru  Ru0  1  0.50000000  0.50000000  0.00000000  1.0
  Ru  Ru1  1  0.00000000  0.00000000  0.00000000  1.0
  C  C2  1  0.38112917  0.39517487  0.77630404  1.0
  C  C3  1  0.11887083  0.89517487  1.01404571  1.0
  C  C4  1  0.88112917  1.10482513  0.98595429  1.0
  C  C5  1  0.61887083  0.60482513  0.22369596  1.0
  C  C6  1  0.05356349  0.23323593  0.28679941  1.0
  C  C7  1  0.44643651  0.73323593  1.17967244  1.0
  C  C8  1  0.55356349  1.26676407  0.82032756  1.0
  C  C9  1  0.94643651  0.76676407  0.71320059  1.0
  O  O10  1  0.08556766  0.37174693  0.45731459  1.0
  O  O11  1  0.41443234  0.87174693  1.28617927  1.0
  O  O12  1  0.58556766  1.12825307  0.71382073  1.0
  O  O13  1  0.91443234  0.62825307  0.54268541  1.0
  O  O14  1  0.31054689  0.33275140  0.64329829  1.0
  O  O15  1  0.18945311  0.83275140  1.02220451  1.0
  O  O16  1  0.81054689  1.16724860  0.97779549  1.0
  O  O17  1  0.68945311  0.66724860  0.35670171  1.0
