# generated using pymatgen
data_La3Mn2Sb3O14
_symmetry_space_group_name_H-M   'P 1'
_cell_length_a   7.41474413
_cell_length_b   7.41474413
_cell_length_c   7.41474413
_cell_angle_alpha   62.13649224
_cell_angle_beta   62.13649224
_cell_angle_gamma   62.13649224
_symmetry_Int_Tables_number   1
_chemical_formula_structural   La3Mn2Sb3O14
_chemical_formula_sum   'La3 Mn2 Sb3 O14'
_cell_volume   302.01415866
_cell_formula_units_Z   1
loop_
 _symmetry_equiv_pos_site_id
 _symmetry_equiv_pos_as_xyz
  1  'x, y, z'
loop_
 _atom_site_type_symbol
 _atom_site_label
 _atom_site_symmetry_multiplicity
 _atom_site_fract_x
 _atom_site_fract_y
 _atom_site_fract_z
 _atom_site_occupancy
  La  La0  1  1.00000000  1.50000000  -0.00000000  1.0
  La  La1  1  1.00000000  0.00000000  -0.50000000  1.0
  La  La2  1  0.50000000  -0.00000000  -0.00000000  1.0
  Mn  Mn3  1  0.50000000  0.50000000  -0.50000000  1.0
  Mn  Mn4  1  0.00000000  0.00000000  0.00000000  1.0
  Sb  Sb5  1  0.50000000  1.00000000  -0.50000000  1.0
  Sb  Sb6  1  0.50000000  -0.50000000  0.00000000  1.0
  Sb  Sb7  1  -0.00000000  0.50000000  -0.50000000  1.0
  O  O8  1  1.18071341  1.18071341  0.57656550  1.0
  O  O9  1  1.18071341  1.57656550  0.18071341  1.0
  O  O10  1  0.42343450  0.81928659  -0.18071341  1.0
  O  O11  1  0.81928659  0.42343450  -0.18071341  1.0
  O  O12  1  0.81928659  0.81928659  -0.57656550  1.0
  O  O13  1  1.57656550  1.18071341  0.18071341  1.0
  O  O14  1  0.41161155  0.41161155  -0.15194507  1.0
  O  O15  1  0.41161155  0.84805493  -0.58838845  1.0
  O  O16  1  0.15194507  0.58838845  -0.41161155  1.0
  O  O17  1  0.58838845  0.15194507  -0.41161155  1.0
  O  O18  1  0.58838845  0.58838845  -0.84805493  1.0
  O  O19  1  0.84805493  0.41161155  -0.58838845  1.0
  O  O20  1  0.88770902  0.88770902  -0.11229098  1.0
  O  O21  1  1.11229098  1.11229098  0.11229098  1.0
