# generated using pymatgen
data_Fe2SiO4
_symmetry_space_group_name_H-M   'P 1'
_cell_length_a   10.51812465
_cell_length_b   6.05148653
_cell_length_c   4.89584051
_cell_angle_alpha   90.00000000
_cell_angle_beta   90.00000000
_cell_angle_gamma   90.00000000
_symmetry_Int_Tables_number   1
_chemical_formula_structural   Fe2SiO4
_chemical_formula_sum   'Fe8 Si4 O16'
_cell_volume   311.62166641
_cell_formula_units_Z   4
loop_
 _symmetry_equiv_pos_site_id
 _symmetry_equiv_pos_as_xyz
  1  'x, y, z'
loop_
 _atom_site_type_symbol
 _atom_site_label
 _atom_site_symmetry_multiplicity
 _atom_site_fract_x
 _atom_site_fract_y
 _atom_site_fract_z
 _atom_site_occupancy
  Fe  Fe0  1  0.77901966  0.25000000  0.52046800  1.0
  Fe  Fe1  1  0.27901966  0.25000000  0.97953200  1.0
  Fe  Fe2  1  0.22098034  0.75000000  0.47953200  1.0
  Fe  Fe3  1  0.72098034  0.75000000  0.02046800  1.0
  Fe  Fe4  1  -0.00000000  0.50000000  0.00000000  1.0
  Fe  Fe5  1  0.00000000  -0.00000000  0.00000000  1.0
  Fe  Fe6  1  0.50000000  0.50000000  0.50000000  1.0
  Fe  Fe7  1  0.50000000  0.00000000  0.50000000  1.0
  Si  Si8  1  0.59657587  0.25000000  0.07154896  1.0
  Si  Si9  1  0.09657587  0.25000000  0.42845104  1.0
  Si  Si10  1  0.40342413  0.75000000  0.92845104  1.0
  Si  Si11  1  0.90342413  0.75000000  0.57154896  1.0
  O  O12  1  0.66555859  0.46590604  0.21737338  1.0
  O  O13  1  0.66555859  0.03409396  0.21737338  1.0
  O  O14  1  0.16555859  0.46590604  0.28262662  1.0
  O  O15  1  0.16555859  0.03409396  0.28262662  1.0
  O  O16  1  0.33444141  0.96590604  0.78262662  1.0
  O  O17  1  0.33444141  0.53409396  0.78262662  1.0
  O  O18  1  0.83444141  0.96590604  0.71737338  1.0
  O  O19  1  0.83444141  0.53409396  0.71737338  1.0
  O  O20  1  0.95007466  0.25000000  0.29831801  1.0
  O  O21  1  0.45007466  0.25000000  0.20168199  1.0
  O  O22  1  0.04992534  0.75000000  0.70168199  1.0
  O  O23  1  0.54992534  0.75000000  0.79831801  1.0
  O  O24  1  0.59597466  0.25000000  0.73695130  1.0
  O  O25  1  0.09597466  0.25000000  0.76304870  1.0
  O  O26  1  0.40402534  0.75000000  0.26304870  1.0
  O  O27  1  0.90402534  0.75000000  0.23695130  1.0
