# generated using pymatgen
data_NbNiTe2
_symmetry_space_group_name_H-M   'P 1'
_cell_length_a   8.01787748
_cell_length_b   6.30406247
_cell_length_c   7.64613134
_cell_angle_alpha   90.00000000
_cell_angle_beta   90.00000000
_cell_angle_gamma   90.00000000
_symmetry_Int_Tables_number   1
_chemical_formula_structural   NbNiTe2
_chemical_formula_sum   'Nb4 Ni4 Te8'
_cell_volume   386.47524158
_cell_formula_units_Z   4
loop_
 _symmetry_equiv_pos_site_id
 _symmetry_equiv_pos_as_xyz
  1  'x, y, z'
loop_
 _atom_site_type_symbol
 _atom_site_label
 _atom_site_symmetry_multiplicity
 _atom_site_fract_x
 _atom_site_fract_y
 _atom_site_fract_z
 _atom_site_occupancy
  Nb  Nb0  1  0.95763934  0.25005425  0.32144516  1.0
  Nb  Nb1  1  0.45763934  0.74994575  0.32144516  1.0
  Nb  Nb2  1  0.04236066  0.74994575  0.32144516  1.0
  Nb  Nb3  1  0.54236066  0.25005425  0.32144516  1.0
  Ni  Ni4  1  0.25000000  0.10625776  0.20767363  1.0
  Ni  Ni5  1  0.75000000  0.89374224  0.20767363  1.0
  Ni  Ni6  1  0.25000000  0.39347783  0.43539591  1.0
  Ni  Ni7  1  0.75000000  0.60652217  0.43539591  1.0
  Te  Te8  1  0.25000000  -0.00388465  0.53723564  1.0
  Te  Te9  1  0.75000000  1.00388465  0.53723564  1.0
  Te  Te10  1  0.25000000  0.50361995  0.10574173  1.0
  Te  Te11  1  0.75000000  0.49638005  0.10574173  1.0
  Te  Te12  1  0.50000000  0.50000000  0.62931035  1.0
  Te  Te13  1  0.00000000  0.50000000  0.62931035  1.0
  Te  Te14  1  0.50000000  0.00000000  0.01365243  1.0
  Te  Te15  1  0.00000000  0.00000000  0.01365243  1.0
