# generated using pymatgen
data_TiZn(BiO3)2
_symmetry_space_group_name_H-M   'P 1'
_cell_length_a   3.83211410
_cell_length_b   3.83211410
_cell_length_c   9.94201784
_cell_angle_alpha   88.69075082
_cell_angle_beta   91.30924918
_cell_angle_gamma   90.61692378
_symmetry_Int_Tables_number   1
_chemical_formula_structural   TiZn(BiO3)2
_chemical_formula_sum   'Ti1 Zn1 Bi2 O6'
_cell_volume   145.91562366
_cell_formula_units_Z   1
loop_
 _symmetry_equiv_pos_site_id
 _symmetry_equiv_pos_as_xyz
  1  'x, y, z'
loop_
 _atom_site_type_symbol
 _atom_site_label
 _atom_site_symmetry_multiplicity
 _atom_site_fract_x
 _atom_site_fract_y
 _atom_site_fract_z
 _atom_site_occupancy
  Ti  Ti0  1  0.50933516  0.49066484  0.76509055  1.0
  Zn  Zn1  1  0.52276250  0.47723750  0.27956642  1.0
  Bi  Bi2  1  0.93623399  0.06376601  0.54886688  1.0
  Bi  Bi3  1  1.01306174  -0.01306174  0.07995931  1.0
  O  O4  1  1.02123896  -0.52152098  0.19876810  1.0
  O  O5  1  1.52152098  -0.02123896  0.19876810  1.0
  O  O6  1  1.01737431  -0.53376732  0.70664624  1.0
  O  O7  1  1.53376732  -0.01737431  0.70664624  1.0
  O  O8  1  0.55512933  0.44487067  0.47859381  1.0
  O  O9  1  0.51257572  0.48742428  0.93609435  1.0
