# generated using pymatgen
data_Na5Al3H14
_symmetry_space_group_name_H-M   'P 1'
_cell_length_a   6.76783192
_cell_length_b   6.76783192
_cell_length_c   10.34718096
_cell_angle_alpha   90.00000000
_cell_angle_beta   90.00000000
_cell_angle_gamma   90.00000000
_symmetry_Int_Tables_number   1
_chemical_formula_structural   Na5Al3H14
_chemical_formula_sum   'Na10 Al6 H28'
_cell_volume   473.93760904
_cell_formula_units_Z   2
loop_
 _symmetry_equiv_pos_site_id
 _symmetry_equiv_pos_as_xyz
  1  'x, y, z'
loop_
 _atom_site_type_symbol
 _atom_site_label
 _atom_site_symmetry_multiplicity
 _atom_site_fract_x
 _atom_site_fract_y
 _atom_site_fract_z
 _atom_site_occupancy
  Na  Na0  1  0.28502542  0.21497458  0.25000000  1.0
  Na  Na1  1  0.28502542  0.21497458  0.75000000  1.0
  Na  Na2  1  0.78502542  0.28502542  0.75000000  1.0
  Na  Na3  1  0.78502542  0.28502542  0.25000000  1.0
  Na  Na4  1  0.71497458  0.78502542  0.25000000  1.0
  Na  Na5  1  0.71497458  0.78502542  0.75000000  1.0
  Na  Na6  1  0.21497458  0.71497458  0.75000000  1.0
  Na  Na7  1  0.21497458  0.71497458  0.25000000  1.0
  Na  Na8  1  0.50000000  0.50000000  -0.00000000  1.0
  Na  Na9  1  0.00000000  0.00000000  0.50000000  1.0
  Al  Al10  1  0.50000000  0.00000000  0.50000000  1.0
  Al  Al11  1  0.00000000  0.50000000  0.00000000  1.0
  Al  Al12  1  0.00000000  0.50000000  0.50000000  1.0
  Al  Al13  1  0.50000000  0.00000000  0.00000000  1.0
  Al  Al14  1  0.50000000  0.50000000  0.50000000  1.0
  Al  Al15  1  0.00000000  0.00000000  0.00000000  1.0
  H  H16  1  0.45807005  0.82078805  0.11748273  1.0
  H  H17  1  0.45807005  0.82078805  0.88251727  1.0
  H  H18  1  0.95807005  0.67921195  0.61748273  1.0
  H  H19  1  0.95807005  0.67921195  0.38251727  1.0
  H  H20  1  0.17921195  0.45807005  0.11748273  1.0
  H  H21  1  0.17921195  0.45807005  0.88251727  1.0
  H  H22  1  0.67921195  0.04192995  0.61748273  1.0
  H  H23  1  0.67921195  0.04192995  0.38251727  1.0
  H  H24  1  0.54192995  0.17921195  0.11748273  1.0
  H  H25  1  0.54192995  0.17921195  0.88251727  1.0
  H  H26  1  0.04192995  0.32078805  0.61748273  1.0
  H  H27  1  0.04192995  0.32078805  0.38251727  1.0
  H  H28  1  0.82078805  0.54192995  0.11748273  1.0
  H  H29  1  0.82078805  0.54192995  0.88251727  1.0
  H  H30  1  0.32078805  0.95807005  0.61748273  1.0
  H  H31  1  0.32078805  0.95807005  0.38251727  1.0
  H  H32  1  0.25223402  0.57273352  0.50000000  1.0
  H  H33  1  0.75223402  0.92726648  0.00000000  1.0
  H  H34  1  0.42726648  0.25223402  0.50000000  1.0
  H  H35  1  0.92726648  0.24776598  -0.00000000  1.0
  H  H36  1  0.74776598  0.42726648  0.50000000  1.0
  H  H37  1  0.24776598  0.07273352  0.00000000  1.0
  H  H38  1  0.57273352  0.74776598  0.50000000  1.0
  H  H39  1  0.07273352  0.75223402  -0.00000000  1.0
  H  H40  1  0.50000000  0.50000000  0.33076826  1.0
  H  H41  1  0.50000000  0.50000000  0.66923174  1.0
  H  H42  1  0.00000000  0.00000000  0.83076826  1.0
  H  H43  1  0.00000000  0.00000000  0.16923174  1.0
