# generated using pymatgen
data_Lu2FeS4
_symmetry_space_group_name_H-M   'P 1'
_cell_length_a   7.64318649
_cell_length_b   7.64318649
_cell_length_c   7.64318649
_cell_angle_alpha   60.00000000
_cell_angle_beta   60.00000000
_cell_angle_gamma   60.00000000
_symmetry_Int_Tables_number   1
_chemical_formula_structural   Lu2FeS4
_chemical_formula_sum   'Lu4 Fe2 S8'
_cell_volume   315.72456329
_cell_formula_units_Z   2
loop_
 _symmetry_equiv_pos_site_id
 _symmetry_equiv_pos_as_xyz
  1  'x, y, z'
loop_
 _atom_site_type_symbol
 _atom_site_label
 _atom_site_symmetry_multiplicity
 _atom_site_fract_x
 _atom_site_fract_y
 _atom_site_fract_z
 _atom_site_occupancy
  Lu  Lu0  1  0.12500000  0.12500000  1.62500000  1.0
  Lu  Lu1  1  0.12500000  0.62500000  0.12500000  1.0
  Lu  Lu2  1  0.62500000  0.12500000  1.12500000  1.0
  Lu  Lu3  1  0.12500000  0.12500000  0.12500000  1.0
  Fe  Fe4  1  0.75000000  -0.25000000  0.75000000  1.0
  Fe  Fe5  1  0.50000000  0.50000000  -0.50000000  1.0
  S  S6  1  0.37323714  0.37323714  -0.11971143  1.0
  S  S7  1  0.37323714  -0.11971143  0.37323714  1.0
  S  S8  1  -0.11971143  0.37323714  0.37323714  1.0
  S  S9  1  0.37323714  0.37323714  0.37323714  1.0
  S  S10  1  -0.12323714  0.87676286  0.36971143  1.0
  S  S11  1  0.87676286  -0.63028857  0.87676286  1.0
  S  S12  1  -0.63028857  0.87676286  0.87676286  1.0
  S  S13  1  0.87676286  -0.12323714  0.87676286  1.0
