# generated using pymatgen
data_YB2C
_symmetry_space_group_name_H-M   'P 1'
_cell_length_a   6.79173045
_cell_length_b   6.79173045
_cell_length_c   7.47077972
_cell_angle_alpha   90.00000000
_cell_angle_beta   90.00000000
_cell_angle_gamma   90.00000000
_symmetry_Int_Tables_number   1
_chemical_formula_structural   YB2C
_chemical_formula_sum   'Y8 B16 C8'
_cell_volume   344.60915777
_cell_formula_units_Z   8
loop_
 _symmetry_equiv_pos_site_id
 _symmetry_equiv_pos_as_xyz
  1  'x, y, z'
loop_
 _atom_site_type_symbol
 _atom_site_label
 _atom_site_symmetry_multiplicity
 _atom_site_fract_x
 _atom_site_fract_y
 _atom_site_fract_z
 _atom_site_occupancy
  Y  Y0  1  0.30951073  0.19048927  0.75000000  1.0
  Y  Y1  1  0.30951073  0.19048927  0.25000000  1.0
  Y  Y2  1  0.80951073  0.30951073  0.75000000  1.0
  Y  Y3  1  0.80951073  0.30951073  0.25000000  1.0
  Y  Y4  1  0.69048927  0.80951073  0.75000000  1.0
  Y  Y5  1  0.69048927  0.80951073  0.25000000  1.0
  Y  Y6  1  0.19048927  0.69048927  0.75000000  1.0
  Y  Y7  1  0.19048927  0.69048927  0.25000000  1.0
  B  B8  1  0.46554132  0.65175043  0.00000000  1.0
  B  B9  1  0.96554132  0.84824957  0.00000000  1.0
  B  B10  1  0.34824957  0.46554132  0.50000000  1.0
  B  B11  1  0.84824957  0.03445868  0.50000000  1.0
  B  B12  1  0.53445868  0.34824957  0.00000000  1.0
  B  B13  1  0.03445868  0.15175043  0.00000000  1.0
  B  B14  1  0.65175043  0.53445868  0.50000000  1.0
  B  B15  1  0.15175043  0.96554132  0.50000000  1.0
  B  B16  1  0.40516746  0.90286979  0.00000000  1.0
  B  B17  1  0.90516746  0.59713021  0.00000000  1.0
  B  B18  1  0.09713021  0.40516746  0.50000000  1.0
  B  B19  1  0.59713021  0.09483254  0.50000000  1.0
  B  B20  1  0.59483254  0.09713021  0.00000000  1.0
  B  B21  1  0.09483254  0.40286979  0.00000000  1.0
  B  B22  1  0.90286979  0.59483254  0.50000000  1.0
  B  B23  1  0.40286979  0.90516746  0.50000000  1.0
  C  C24  1  0.17728405  0.95927832  0.00000000  1.0
  C  C25  1  0.67728405  0.54072168  0.00000000  1.0
  C  C26  1  0.04072168  0.17728405  0.50000000  1.0
  C  C27  1  0.54072168  0.32271595  0.50000000  1.0
  C  C28  1  0.82271595  0.04072168  0.00000000  1.0
  C  C29  1  0.32271595  0.45927832  0.00000000  1.0
  C  C30  1  0.95927832  0.82271595  0.50000000  1.0
  C  C31  1  0.45927832  0.67728405  0.50000000  1.0
