# generated using pymatgen
data_NaMgH4SO6F
_symmetry_space_group_name_H-M   'P 1'
_cell_length_a   5.81170220
_cell_length_b   7.30108912
_cell_length_c   7.23986203
_cell_angle_alpha   90.00000000
_cell_angle_beta   112.41392123
_cell_angle_gamma   90.00000000
_symmetry_Int_Tables_number   1
_chemical_formula_structural   NaMgH4SO6F
_chemical_formula_sum   'Na2 Mg2 H8 S2 O12 F2'
_cell_volume   283.99214229
_cell_formula_units_Z   2
loop_
 _symmetry_equiv_pos_site_id
 _symmetry_equiv_pos_as_xyz
  1  'x, y, z'
loop_
 _atom_site_type_symbol
 _atom_site_label
 _atom_site_symmetry_multiplicity
 _atom_site_fract_x
 _atom_site_fract_y
 _atom_site_fract_z
 _atom_site_occupancy
  Na  Na0  1  0.13368878  0.75000000  0.19986698  1.0
  Na  Na1  1  0.86631122  0.25000000  0.80013302  1.0
  Mg  Mg2  1  0.50000000  -0.00000000  -0.00000000  1.0
  Mg  Mg3  1  0.50000000  0.50000000  -0.00000000  1.0
  H  H4  1  0.80088172  0.90728740  0.37376854  1.0
  H  H5  1  0.80088172  0.59271260  0.37376854  1.0
  H  H6  1  0.19911828  0.40728740  0.62623146  1.0
  H  H7  1  0.19911828  0.09271260  0.62623146  1.0
  H  H8  1  0.07359893  0.92817099  0.69510670  1.0
  H  H9  1  0.07359893  0.57182901  0.69510670  1.0
  H  H10  1  0.92640107  0.42817099  0.30489330  1.0
  H  H11  1  0.92640107  0.07182901  0.30489330  1.0
  S  S12  1  0.65333530  0.75000000  0.69323452  1.0
  S  S13  1  0.34666470  0.25000000  0.30676548  1.0
  O  O14  1  0.70148512  0.91702740  0.82380540  1.0
  O  O15  1  0.70148512  0.58297260  0.82380540  1.0
  O  O16  1  0.29851488  0.41702740  0.17619460  1.0
  O  O17  1  0.29851488  0.08297260  0.17619460  1.0
  O  O18  1  0.82741520  0.95839893  0.25752400  1.0
  O  O19  1  0.82741520  0.54160107  0.25752400  1.0
  O  O20  1  0.17258480  0.45839893  0.74247600  1.0
  O  O21  1  0.17258480  0.04160107  0.74247600  1.0
  O  O22  1  0.84578271  0.75000000  0.59631980  1.0
  O  O23  1  0.15421729  0.25000000  0.40368020  1.0
  O  O24  1  0.40100537  0.75000000  0.53833457  1.0
  O  O25  1  0.59899463  0.25000000  0.46166543  1.0
  F  F26  1  0.38837007  0.75000000  0.02296320  1.0
  F  F27  1  0.61162993  0.25000000  0.97703680  1.0
