# generated using pymatgen
data_Mo3NO9
_symmetry_space_group_name_H-M   'P 1'
_cell_length_a   11.51833898
_cell_length_b   11.51833898
_cell_length_c   3.51376285
_cell_angle_alpha   90.00000000
_cell_angle_beta   90.00000000
_cell_angle_gamma   120.00000000
_symmetry_Int_Tables_number   1
_chemical_formula_structural   Mo3NO9
_chemical_formula_sum   'Mo6 N2 O18'
_cell_volume   403.72234717
_cell_formula_units_Z   2
loop_
 _symmetry_equiv_pos_site_id
 _symmetry_equiv_pos_as_xyz
  1  'x, y, z'
loop_
 _atom_site_type_symbol
 _atom_site_label
 _atom_site_symmetry_multiplicity
 _atom_site_fract_x
 _atom_site_fract_y
 _atom_site_fract_z
 _atom_site_occupancy
  Mo  Mo0  1  0.35097811  0.88256931  0.25000000  1.0
  Mo  Mo1  1  0.88256931  0.53159120  0.75000000  1.0
  Mo  Mo2  1  0.53159120  0.64902189  0.25000000  1.0
  Mo  Mo3  1  0.11743069  0.46840880  0.25000000  1.0
  Mo  Mo4  1  0.64902189  0.11743069  0.75000000  1.0
  Mo  Mo5  1  0.46840880  0.35097811  0.75000000  1.0
  N  N6  1  0.00000000  0.00000000  0.25000000  1.0
  N  N7  1  0.00000000  0.00000000  0.75000000  1.0
  O  O8  1  0.51240307  0.42850312  0.25000000  1.0
  O  O9  1  0.42850312  0.91610005  0.75000000  1.0
  O  O10  1  0.91610005  0.48759693  0.25000000  1.0
  O  O11  1  0.57149688  0.08389995  0.25000000  1.0
  O  O12  1  0.48759693  0.57149688  0.75000000  1.0
  O  O13  1  0.08389995  0.51240307  0.75000000  1.0
  O  O14  1  0.27048924  0.97086099  0.25000000  1.0
  O  O15  1  0.97086099  0.70037175  0.75000000  1.0
  O  O16  1  0.70037175  0.72951076  0.25000000  1.0
  O  O17  1  0.02913901  0.29962825  0.25000000  1.0
  O  O18  1  0.72951076  0.02913901  0.75000000  1.0
  O  O19  1  0.29962825  0.27048924  0.75000000  1.0
  O  O20  1  0.22289239  0.71789489  0.25000000  1.0
  O  O21  1  0.71789489  0.49500249  0.75000000  1.0
  O  O22  1  0.49500249  0.77710761  0.25000000  1.0
  O  O23  1  0.28210511  0.50499751  0.25000000  1.0
  O  O24  1  0.77710761  0.28210511  0.75000000  1.0
  O  O25  1  0.50499751  0.22289239  0.75000000  1.0
