# generated using pymatgen
data_SrCd2
_symmetry_space_group_name_H-M   'P 1'
_cell_length_a   6.43431938
_cell_length_b   6.43431938
_cell_length_c   6.43431938
_cell_angle_alpha   132.96308996
_cell_angle_beta   101.88707796
_cell_angle_gamma   96.45884005
_symmetry_Int_Tables_number   1
_chemical_formula_structural   SrCd2
_chemical_formula_sum   'Sr2 Cd4'
_cell_volume   178.46811158
_cell_formula_units_Z   2
loop_
 _symmetry_equiv_pos_site_id
 _symmetry_equiv_pos_as_xyz
  1  'x, y, z'
loop_
 _atom_site_type_symbol
 _atom_site_label
 _atom_site_symmetry_multiplicity
 _atom_site_fract_x
 _atom_site_fract_y
 _atom_site_fract_z
 _atom_site_occupancy
  Sr  Sr0  1  1.70351614  1.45351614  1.25000000  1.0
  Sr  Sr1  1  0.29648386  0.54648386  0.75000000  1.0
  Cd  Cd2  1  1.27943333  0.83539163  1.44404170  1.0
  Cd  Cd3  1  1.10865006  0.16460837  0.94404170  1.0
  Cd  Cd4  1  0.72056667  1.16460837  0.55595830  1.0
  Cd  Cd5  1  0.89134994  0.83539163  0.05595830  1.0
