# generated using pymatgen
data_TmB4Rh
_symmetry_space_group_name_H-M   'P 1'
_cell_length_a   5.94948161
_cell_length_b   11.52954860
_cell_length_c   3.51025872
_cell_angle_alpha   90.00000000
_cell_angle_beta   90.00000000
_cell_angle_gamma   90.00000000
_symmetry_Int_Tables_number   1
_chemical_formula_structural   TmB4Rh
_chemical_formula_sum   'Tm4 B16 Rh4'
_cell_volume   240.78562623
_cell_formula_units_Z   4
loop_
 _symmetry_equiv_pos_site_id
 _symmetry_equiv_pos_as_xyz
  1  'x, y, z'
loop_
 _atom_site_type_symbol
 _atom_site_label
 _atom_site_symmetry_multiplicity
 _atom_site_fract_x
 _atom_site_fract_y
 _atom_site_fract_z
 _atom_site_occupancy
  Tm  Tm0  1  0.13067926  0.64884438  0.50000000  1.0
  Tm  Tm1  1  0.63067926  0.85115562  0.50000000  1.0
  Tm  Tm2  1  0.86932074  0.35115562  0.50000000  1.0
  Tm  Tm3  1  0.36932074  0.14884438  0.50000000  1.0
  B  B4  1  0.47567456  0.69276431  0.00000000  1.0
  B  B5  1  0.97567456  0.80723569  0.00000000  1.0
  B  B6  1  0.52432544  0.30723569  0.00000000  1.0
  B  B7  1  0.02432544  0.19276431  0.00000000  1.0
  B  B8  1  0.38704857  0.54734385  0.00000000  1.0
  B  B9  1  0.88704857  0.95265615  0.00000000  1.0
  B  B10  1  0.61295143  0.45265615  0.00000000  1.0
  B  B11  1  0.11295143  0.04734385  0.00000000  1.0
  B  B12  1  0.36451261  0.96961545  0.00000000  1.0
  B  B13  1  0.86451261  0.53038455  0.00000000  1.0
  B  B14  1  0.63548739  0.03038455  0.00000000  1.0
  B  B15  1  0.13548739  0.46961545  0.00000000  1.0
  B  B16  1  0.29107755  0.81307235  0.00000000  1.0
  B  B17  1  0.79107755  0.68692765  0.00000000  1.0
  B  B18  1  0.70892245  0.18692765  0.00000000  1.0
  B  B19  1  0.20892245  0.31307235  0.00000000  1.0
  Rh  Rh20  1  0.14146007  0.90600432  0.50000000  1.0
  Rh  Rh21  1  0.64146007  0.59399568  0.50000000  1.0
  Rh  Rh22  1  0.85853993  0.09399568  0.50000000  1.0
  Rh  Rh23  1  0.35853993  0.40600432  0.50000000  1.0
