# generated using pymatgen
data_BaLa(BiS3)2
_symmetry_space_group_name_H-M   'P 1'
_cell_length_a   4.23016265
_cell_length_b   14.95200677
_cell_length_c   16.60256931
_cell_angle_alpha   90.00000000
_cell_angle_beta   92.81062208
_cell_angle_gamma   90.00000000
_symmetry_Int_Tables_number   1
_chemical_formula_structural   BaLa(BiS3)2
_chemical_formula_sum   'Ba4 La4 Bi8 S24'
_cell_volume   1048.83968109
_cell_formula_units_Z   4
loop_
 _symmetry_equiv_pos_site_id
 _symmetry_equiv_pos_as_xyz
  1  'x, y, z'
loop_
 _atom_site_type_symbol
 _atom_site_label
 _atom_site_symmetry_multiplicity
 _atom_site_fract_x
 _atom_site_fract_y
 _atom_site_fract_z
 _atom_site_occupancy
  Ba  Ba0  1  0.73953114  0.28581969  0.82970973  1.0
  Ba  Ba1  1  0.73953114  0.21418031  0.32970973  1.0
  Ba  Ba2  1  0.26046886  0.78581969  0.67029027  1.0
  Ba  Ba3  1  0.26046886  0.71418031  0.17029027  1.0
  La  La4  1  0.29678358  0.62607236  0.90739431  1.0
  La  La5  1  0.29678358  0.87392764  0.40739431  1.0
  La  La6  1  0.70321642  0.12607236  0.59260569  1.0
  La  La7  1  0.70321642  0.37392764  0.09260569  1.0
  Bi  Bi8  1  0.76254227  0.51991449  0.70215607  1.0
  Bi  Bi9  1  0.76254227  0.98008551  0.20215607  1.0
  Bi  Bi10  1  0.23745773  0.01991449  0.79784393  1.0
  Bi  Bi11  1  0.23745773  0.48008551  0.29784393  1.0
  Bi  Bi12  1  0.73791242  0.87341312  0.97058265  1.0
  Bi  Bi13  1  0.73791242  0.62658688  0.47058265  1.0
  Bi  Bi14  1  0.26208758  0.37341312  0.52941735  1.0
  Bi  Bi15  1  0.26208758  0.12658688  0.02941735  1.0
  S  S16  1  0.84114710  0.48817368  0.94934438  1.0
  S  S17  1  0.84114710  0.01182632  0.44934438  1.0
  S  S18  1  0.15885290  0.98817368  0.55065562  1.0
  S  S19  1  0.15885290  0.51182632  0.05065562  1.0
  S  S20  1  0.76680874  0.79172004  0.52090812  1.0
  S  S21  1  0.76680874  0.70827996  0.02090812  1.0
  S  S22  1  0.23319126  0.29172004  0.97909188  1.0
  S  S23  1  0.23319126  0.20827996  0.47909188  1.0
  S  S24  1  0.77907334  0.67255599  0.78286653  1.0
  S  S25  1  0.77907334  0.82744401  0.28286653  1.0
  S  S26  1  0.22092666  0.17255599  0.71713347  1.0
  S  S27  1  0.22092666  0.32744401  0.21713347  1.0
  S  S28  1  0.70205959  0.41879518  0.41008632  1.0
  S  S29  1  0.70205959  0.08120482  0.91008632  1.0
  S  S30  1  0.29794041  0.91879518  0.08991368  1.0
  S  S31  1  0.29794041  0.58120482  0.58991368  1.0
  S  S32  1  0.67613413  0.96214700  0.70056856  1.0
  S  S33  1  0.67613413  0.53785300  0.20056856  1.0
  S  S34  1  0.32386587  0.46214700  0.79943144  1.0
  S  S35  1  0.32386587  0.03785300  0.29943144  1.0
  S  S36  1  0.24848728  0.83124233  0.86959129  1.0
  S  S37  1  0.24848728  0.66875767  0.36959129  1.0
  S  S38  1  0.75151272  0.33124233  0.63040871  1.0
  S  S39  1  0.75151272  0.16875767  0.13040871  1.0
