# generated using pymatgen
data_Bi3Mo
_symmetry_space_group_name_H-M   'P 1'
_cell_length_a   7.40920688
_cell_length_b   4.89338458
_cell_length_c   12.32418273
_cell_angle_alpha   90.00000000
_cell_angle_beta   100.14365004
_cell_angle_gamma   90.00000000
_symmetry_Int_Tables_number   1
_chemical_formula_structural   Bi3Mo
_chemical_formula_sum   'Bi12 Mo4'
_cell_volume   439.84256728
_cell_formula_units_Z   4
loop_
 _symmetry_equiv_pos_site_id
 _symmetry_equiv_pos_as_xyz
  1  'x, y, z'
loop_
 _atom_site_type_symbol
 _atom_site_label
 _atom_site_symmetry_multiplicity
 _atom_site_fract_x
 _atom_site_fract_y
 _atom_site_fract_z
 _atom_site_occupancy
  Bi  Bi0  1  0.84181425  0.75000000  0.47480874  1.0
  Bi  Bi1  1  0.15818575  0.25000000  0.52519126  1.0
  Bi  Bi2  1  0.83562538  0.25000000  0.67962905  1.0
  Bi  Bi3  1  0.16437462  0.75000000  0.32037095  1.0
  Bi  Bi4  1  0.80055290  0.75000000  0.85964533  1.0
  Bi  Bi5  1  0.19944710  0.25000000  0.14035467  1.0
  Bi  Bi6  1  0.74247599  0.25000000  0.04347027  1.0
  Bi  Bi7  1  0.25752401  0.75000000  0.95652973  1.0
  Bi  Bi8  1  0.65800780  0.75000000  0.20240354  1.0
  Bi  Bi9  1  0.34199220  0.25000000  0.79759646  1.0
  Bi  Bi10  1  0.57394631  0.25000000  0.36889637  1.0
  Bi  Bi11  1  0.42605369  0.75000000  0.63110363  1.0
  Mo  Mo12  1  0.97352657  0.75000000  0.09991157  1.0
  Mo  Mo13  1  0.02647343  0.25000000  0.90008843  1.0
  Mo  Mo14  1  0.91465971  0.25000000  0.29369715  1.0
  Mo  Mo15  1  0.08534029  0.75000000  0.70630285  1.0
