# generated using pymatgen
data_Sc2InAu2
_symmetry_space_group_name_H-M   'P 1'
_cell_length_a   7.70380143
_cell_length_b   7.70380143
_cell_length_c   6.95010111
_cell_angle_alpha   90.00000000
_cell_angle_beta   90.00000000
_cell_angle_gamma   90.00000000
_symmetry_Int_Tables_number   1
_chemical_formula_structural   Sc2InAu2
_chemical_formula_sum   'Sc8 In4 Au8'
_cell_volume   412.47846771
_cell_formula_units_Z   4
loop_
 _symmetry_equiv_pos_site_id
 _symmetry_equiv_pos_as_xyz
  1  'x, y, z'
loop_
 _atom_site_type_symbol
 _atom_site_label
 _atom_site_symmetry_multiplicity
 _atom_site_fract_x
 _atom_site_fract_y
 _atom_site_fract_z
 _atom_site_occupancy
  Sc  Sc0  1  0.17887198  0.17887198  0.50000000  1.0
  Sc  Sc1  1  0.67887198  0.32112802  0.00000000  1.0
  Sc  Sc2  1  0.82112802  0.82112802  0.50000000  1.0
  Sc  Sc3  1  0.32112802  0.67887198  0.00000000  1.0
  Sc  Sc4  1  0.34623266  0.65376734  0.50000000  1.0
  Sc  Sc5  1  0.84623266  0.84623266  0.00000000  1.0
  Sc  Sc6  1  0.65376734  0.34623266  0.50000000  1.0
  Sc  Sc7  1  0.15376734  0.15376734  0.00000000  1.0
  In  In8  1  0.50000000  0.00000000  0.25000000  1.0
  In  In9  1  0.50000000  0.00000000  0.75000000  1.0
  In  In10  1  0.00000000  0.50000000  0.75000000  1.0
  In  In11  1  0.00000000  0.50000000  0.25000000  1.0
  Au  Au12  1  0.13095236  0.86904764  0.27475632  1.0
  Au  Au13  1  0.13095236  0.86904764  0.72524368  1.0
  Au  Au14  1  0.63095236  0.63095236  0.77475632  1.0
  Au  Au15  1  0.63095236  0.63095236  0.22524368  1.0
  Au  Au16  1  0.86904764  0.13095236  0.27475632  1.0
  Au  Au17  1  0.86904764  0.13095236  0.72524368  1.0
  Au  Au18  1  0.36904764  0.36904764  0.77475632  1.0
  Au  Au19  1  0.36904764  0.36904764  0.22524368  1.0
