# generated using pymatgen
data_Sn
_symmetry_space_group_name_H-M   'P 1'
_cell_length_a   5.91918911
_cell_length_b   5.91918911
_cell_length_c   10.48062260
_cell_angle_alpha   71.36410635
_cell_angle_beta   108.63589365
_cell_angle_gamma   139.96580729
_symmetry_Int_Tables_number   1
_chemical_formula_structural   Sn
_chemical_formula_sum   Sn8
_cell_volume   222.12409703
_cell_formula_units_Z   8
loop_
 _symmetry_equiv_pos_site_id
 _symmetry_equiv_pos_as_xyz
  1  'x, y, z'
loop_
 _atom_site_type_symbol
 _atom_site_label
 _atom_site_symmetry_multiplicity
 _atom_site_fract_x
 _atom_site_fract_y
 _atom_site_fract_z
 _atom_site_occupancy
  Sn  Sn0  1  0.50000000  0.50000000  0.50000000  1.0
  Sn  Sn1  1  0.50000000  0.50000000  0.00000000  1.0
  Sn  Sn2  1  0.00008338  0.00008338  0.75000000  1.0
  Sn  Sn3  1  -0.00008338  -0.00008338  0.25000000  1.0
  Sn  Sn4  1  0.25001726  -0.24997617  0.62501458  1.0
  Sn  Sn5  1  0.75002383  0.25001726  0.87498542  1.0
  Sn  Sn6  1  1.74998274  0.24997617  0.37498542  1.0
  Sn  Sn7  1  1.24997617  -0.25001726  0.12501458  1.0
