# generated using pymatgen
data_MgCuP
_symmetry_space_group_name_H-M   'P 1'
_cell_length_a   6.53103794
_cell_length_b   3.84946608
_cell_length_c   7.13915882
_cell_angle_alpha   90.00000000
_cell_angle_beta   90.00000000
_cell_angle_gamma   90.00000000
_symmetry_Int_Tables_number   1
_chemical_formula_structural   MgCuP
_chemical_formula_sum   'Mg4 Cu4 P4'
_cell_volume   179.48565605
_cell_formula_units_Z   4
loop_
 _symmetry_equiv_pos_site_id
 _symmetry_equiv_pos_as_xyz
  1  'x, y, z'
loop_
 _atom_site_type_symbol
 _atom_site_label
 _atom_site_symmetry_multiplicity
 _atom_site_fract_x
 _atom_site_fract_y
 _atom_site_fract_z
 _atom_site_occupancy
  Mg  Mg0  1  0.96876358  0.75000000  0.67951461  1.0
  Mg  Mg1  1  0.46876358  0.75000000  0.82048539  1.0
  Mg  Mg2  1  0.03123642  0.25000000  0.32048539  1.0
  Mg  Mg3  1  0.53123642  0.25000000  0.17951461  1.0
  Cu  Cu4  1  0.87289225  0.75000000  0.06147310  1.0
  Cu  Cu5  1  0.37289225  0.75000000  0.43852690  1.0
  Cu  Cu6  1  0.12710775  0.25000000  0.93852690  1.0
  Cu  Cu7  1  0.62710775  0.25000000  0.56147310  1.0
  P  P8  1  0.74659344  0.75000000  0.37798036  1.0
  P  P9  1  0.24659344  0.75000000  0.12201964  1.0
  P  P10  1  0.25340656  0.25000000  0.62201964  1.0
  P  P11  1  0.75340656  0.25000000  0.87798036  1.0
