# generated using pymatgen
data_V2Hg(P2O7)2
_symmetry_space_group_name_H-M   'P 1'
_cell_length_a   8.15236566
_cell_length_b   7.09010952
_cell_length_c   4.86132564
_cell_angle_alpha   103.42696598
_cell_angle_beta   93.84018037
_cell_angle_gamma   90.64822408
_symmetry_Int_Tables_number   1
_chemical_formula_structural   V2Hg(P2O7)2
_chemical_formula_sum   'V2 Hg1 P4 O14'
_cell_volume   272.59174157
_cell_formula_units_Z   1
loop_
 _symmetry_equiv_pos_site_id
 _symmetry_equiv_pos_as_xyz
  1  'x, y, z'
loop_
 _atom_site_type_symbol
 _atom_site_label
 _atom_site_symmetry_multiplicity
 _atom_site_fract_x
 _atom_site_fract_y
 _atom_site_fract_z
 _atom_site_occupancy
  V  V0  1  -0.50000000  -0.50000000  -0.00000000  1.0
  V  V1  1  0.00000000  0.00000000  -0.50000000  1.0
  Hg  Hg2  1  0.00000000  -0.50000000  0.00000000  1.0
  P  P3  1  -0.25015961  -0.88193317  -1.01288347  1.0
  P  P4  1  -0.74984039  -0.11806683  0.01288347  1.0
  P  P5  1  -0.69414869  -0.73781022  -0.61198811  1.0
  P  P6  1  -0.30585131  -0.26218978  -0.38801189  1.0
  O  O7  1  -0.35302597  -0.70555699  -0.91296614  1.0
  O  O8  1  -0.64697403  -0.29444301  -0.08703386  1.0
  O  O9  1  -0.88797033  -0.16002703  -0.79871401  1.0
  O  O10  1  -0.11202967  -0.83997297  -0.20128599  1.0
  O  O11  1  -0.67916634  -0.59673360  -0.80740232  1.0
  O  O12  1  -0.32083366  -0.40326640  -0.19259768  1.0
  O  O13  1  -0.63321671  -0.94983618  -0.78063385  1.0
  O  O14  1  -0.36678329  -0.05016382  -0.21936615  1.0
  O  O15  1  -0.17705387  -0.96363013  -0.76827266  1.0
  O  O16  1  -0.82294613  -0.03636987  -0.23172734  1.0
  O  O17  1  -0.87512867  -0.76590249  -0.55027804  1.0
  O  O18  1  -0.12487133  -0.23409751  -0.44972196  1.0
  O  O19  1  -0.57618340  -0.68062102  -0.34554164  1.0
  O  O20  1  -0.42381660  -0.31937898  -0.65445836  1.0
