# generated using pymatgen
data_La2B3Br
_symmetry_space_group_name_H-M   'P 1'
_cell_length_a   7.84089824
_cell_length_b   7.84089824
_cell_length_c   8.59833271
_cell_angle_alpha   90.00000000
_cell_angle_beta   90.00000000
_cell_angle_gamma   120.00000000
_symmetry_Int_Tables_number   1
_chemical_formula_structural   La2B3Br
_chemical_formula_sum   'La8 B12 Br4'
_cell_volume   457.80076331
_cell_formula_units_Z   4
loop_
 _symmetry_equiv_pos_site_id
 _symmetry_equiv_pos_as_xyz
  1  'x, y, z'
loop_
 _atom_site_type_symbol
 _atom_site_label
 _atom_site_symmetry_multiplicity
 _atom_site_fract_x
 _atom_site_fract_y
 _atom_site_fract_z
 _atom_site_occupancy
  La  La0  1  0.00000000  0.00000000  0.76918954  1.0
  La  La1  1  0.00000000  0.00000000  0.23081046  1.0
  La  La2  1  0.49981552  0.99946145  0.78324689  1.0
  La  La3  1  0.49981552  0.99946145  0.21675311  1.0
  La  La4  1  0.49964593  0.50018448  0.78324689  1.0
  La  La5  1  0.49964593  0.50018448  0.21675311  1.0
  La  La6  1  0.00053855  0.50035407  0.78324689  1.0
  La  La7  1  0.00053855  0.50035407  0.21675311  1.0
  B  B8  1  0.13886916  0.86114769  0.00000000  1.0
  B  B9  1  0.72227853  0.86113084  0.00000000  1.0
  B  B10  1  0.13885231  0.27772147  0.00000000  1.0
  B  B11  1  0.26268942  0.73734128  0.00000000  1.0
  B  B12  1  0.47465187  0.73731058  0.00000000  1.0
  B  B13  1  0.26265872  0.52534813  0.00000000  1.0
  B  B14  1  0.86082400  0.72162454  0.00000000  1.0
  B  B15  1  0.86080053  0.13917600  0.00000000  1.0
  B  B16  1  0.27837546  0.13919947  0.00000000  1.0
  B  B17  1  0.73730045  0.47459828  0.00000000  1.0
  B  B18  1  0.73729783  0.26269955  0.00000000  1.0
  B  B19  1  0.52540172  0.26270217  0.00000000  1.0
  Br  Br20  1  0.16949445  0.83064561  0.50000000  1.0
  Br  Br21  1  0.66115116  0.83050555  0.50000000  1.0
  Br  Br22  1  0.16935439  0.33884884  0.50000000  1.0
  Br  Br23  1  0.66666667  0.33333333  0.50000000  1.0
