# generated using pymatgen
data_BW
_symmetry_space_group_name_H-M   'P 1'
_cell_length_a   4.53322864
_cell_length_b   4.53322864
_cell_length_c   3.09345733
_cell_angle_alpha   90.00000000
_cell_angle_beta   90.00000000
_cell_angle_gamma   139.04988966
_symmetry_Int_Tables_number   1
_chemical_formula_structural   BW
_chemical_formula_sum   'B2 W2'
_cell_volume   41.66456889
_cell_formula_units_Z   2
loop_
 _symmetry_equiv_pos_site_id
 _symmetry_equiv_pos_as_xyz
  1  'x, y, z'
loop_
 _atom_site_type_symbol
 _atom_site_label
 _atom_site_symmetry_multiplicity
 _atom_site_fract_x
 _atom_site_fract_y
 _atom_site_fract_z
 _atom_site_occupancy
  B  B0  1  0.06078368  0.93921632  0.75000000  1.0
  B  B1  1  -0.06078368  0.06078368  0.25000000  1.0
  W  W2  1  0.35523979  0.64476021  0.75000000  1.0
  W  W3  1  -0.35523979  0.35523979  0.25000000  1.0
