# generated using pymatgen
data_Ti(TlSe)4
_symmetry_space_group_name_H-M   'P 1'
_cell_length_a   8.76115879
_cell_length_b   8.70134867
_cell_length_c   16.53234099
_cell_angle_alpha   90.00000000
_cell_angle_beta   105.18663821
_cell_angle_gamma   90.00000000
_symmetry_Int_Tables_number   1
_chemical_formula_structural   Ti(TlSe)4
_chemical_formula_sum   'Ti4 Tl16 Se16'
_cell_volume   1216.31123665
_cell_formula_units_Z   4
loop_
 _symmetry_equiv_pos_site_id
 _symmetry_equiv_pos_as_xyz
  1  'x, y, z'
loop_
 _atom_site_type_symbol
 _atom_site_label
 _atom_site_symmetry_multiplicity
 _atom_site_fract_x
 _atom_site_fract_y
 _atom_site_fract_z
 _atom_site_occupancy
  Ti  Ti0  1  0.79368426  0.39154887  0.12298250  1.0
  Ti  Ti1  1  0.79368426  0.10845113  0.62298250  1.0
  Ti  Ti2  1  0.20631574  0.89154887  0.37701750  1.0
  Ti  Ti3  1  0.20631574  0.60845113  0.87701750  1.0
  Tl  Tl4  1  0.96648136  0.51056288  0.36061370  1.0
  Tl  Tl5  1  0.96648136  -0.01056288  0.86061370  1.0
  Tl  Tl6  1  0.03351864  1.01056288  0.13938630  1.0
  Tl  Tl7  1  0.03351864  0.48943712  0.63938630  1.0
  Tl  Tl8  1  0.82201618  0.10840100  0.38419271  1.0
  Tl  Tl9  1  0.82201618  0.39159900  0.88419271  1.0
  Tl  Tl10  1  0.17798382  0.60840100  0.11580729  1.0
  Tl  Tl11  1  0.17798382  0.89159900  0.61580729  1.0
  Tl  Tl12  1  0.39081803  0.28082069  0.36268986  1.0
  Tl  Tl13  1  0.39081803  0.21917931  0.86268986  1.0
  Tl  Tl14  1  0.60918197  0.78082069  0.13731014  1.0
  Tl  Tl15  1  0.60918197  0.71917931  0.63731014  1.0
  Tl  Tl16  1  0.41496058  0.18374302  0.11130668  1.0
  Tl  Tl17  1  0.41496058  0.31625698  0.61130668  1.0
  Tl  Tl18  1  0.58503942  0.68374302  0.38869332  1.0
  Tl  Tl19  1  0.58503942  0.81625698  0.88869332  1.0
  Se  Se20  1  0.94466173  0.84183012  0.28864420  1.0
  Se  Se21  1  0.94466173  0.65816988  0.78864420  1.0
  Se  Se22  1  0.05533827  0.34183012  0.21135580  1.0
  Se  Se23  1  0.05533827  0.15816988  0.71135580  1.0
  Se  Se24  1  0.70565982  0.16917346  0.03869338  1.0
  Se  Se25  1  0.70565982  0.33082654  0.53869338  1.0
  Se  Se26  1  0.29434018  0.66917346  0.46130662  1.0
  Se  Se27  1  0.29434018  0.83082654  0.96130662  1.0
  Se  Se28  1  0.61494142  0.44786217  0.20697161  1.0
  Se  Se29  1  0.61494142  0.05213783  0.70697161  1.0
  Se  Se30  1  0.38505858  0.94786217  0.29302839  1.0
  Se  Se31  1  0.38505858  0.55213783  0.79302839  1.0
  Se  Se32  1  0.18667161  0.11285094  0.46255943  1.0
  Se  Se33  1  0.18667161  0.38714906  0.96255943  1.0
  Se  Se34  1  0.81332839  0.61285094  0.03744057  1.0
  Se  Se35  1  0.81332839  0.88714906  0.53744057  1.0
