# generated using pymatgen
data_Na5Mo2(ClO2)4
_symmetry_space_group_name_H-M   'P 1'
_cell_length_a   13.70539689
_cell_length_b   13.70539689
_cell_length_c   5.35956611
_cell_angle_alpha   90.00000000
_cell_angle_beta   90.00000000
_cell_angle_gamma   90.00000000
_symmetry_Int_Tables_number   1
_chemical_formula_structural   Na5Mo2(ClO2)4
_chemical_formula_sum   'Na10 Mo4 Cl8 O16'
_cell_volume   1006.72966335
_cell_formula_units_Z   2
loop_
 _symmetry_equiv_pos_site_id
 _symmetry_equiv_pos_as_xyz
  1  'x, y, z'
loop_
 _atom_site_type_symbol
 _atom_site_label
 _atom_site_symmetry_multiplicity
 _atom_site_fract_x
 _atom_site_fract_y
 _atom_site_fract_z
 _atom_site_occupancy
  Na  Na0  1  0.50000000  0.50000000  0.00000000  1.0
  Na  Na1  1  0.00000000  0.00000000  0.00000000  1.0
  Na  Na2  1  0.16550635  0.33449365  0.00007901  1.0
  Na  Na3  1  0.16550635  0.66550635  0.00007901  1.0
  Na  Na4  1  0.66550635  0.83449365  0.99992099  1.0
  Na  Na5  1  0.66550635  0.16550635  0.99992099  1.0
  Na  Na6  1  0.33449365  0.16550635  0.99992099  1.0
  Na  Na7  1  0.33449365  0.83449365  0.99992099  1.0
  Na  Na8  1  0.83449365  0.66550635  0.00007901  1.0
  Na  Na9  1  0.83449365  0.33449365  0.00007901  1.0
  Mo  Mo10  1  0.75000000  0.25000000  0.50000000  1.0
  Mo  Mo11  1  0.75000000  0.75000000  0.50000000  1.0
  Mo  Mo12  1  0.25000000  0.75000000  0.50000000  1.0
  Mo  Mo13  1  0.25000000  0.25000000  0.50000000  1.0
  Cl  Cl14  1  0.12197907  0.37802093  0.49997376  1.0
  Cl  Cl15  1  0.12197907  0.62197907  0.49997376  1.0
  Cl  Cl16  1  0.62197907  0.87802093  0.50002624  1.0
  Cl  Cl17  1  0.62197907  0.12197907  0.50002624  1.0
  Cl  Cl18  1  0.37802093  0.12197907  0.50002624  1.0
  Cl  Cl19  1  0.37802093  0.87802093  0.50002624  1.0
  Cl  Cl20  1  0.87802093  0.62197907  0.49997376  1.0
  Cl  Cl21  1  0.87802093  0.37802093  0.49997376  1.0
  O  O22  1  0.18225419  0.81779211  0.25473023  1.0
  O  O23  1  0.18225419  0.18220789  0.25473023  1.0
  O  O24  1  0.68225419  0.31779211  0.74526977  1.0
  O  O25  1  0.68225419  0.68220789  0.74526977  1.0
  O  O26  1  0.81779211  0.18225419  0.74526977  1.0
  O  O27  1  0.81779211  0.81774581  0.74526977  1.0
  O  O28  1  0.31779211  0.68225419  0.25473023  1.0
  O  O29  1  0.31779211  0.31774581  0.25473023  1.0
  O  O30  1  0.81774581  0.81779211  0.25473023  1.0
  O  O31  1  0.81774581  0.18220789  0.25473023  1.0
  O  O32  1  0.31774581  0.31779211  0.74526977  1.0
  O  O33  1  0.31774581  0.68220789  0.74526977  1.0
  O  O34  1  0.18220789  0.18225419  0.74526977  1.0
  O  O35  1  0.18220789  0.81774581  0.74526977  1.0
  O  O36  1  0.68220789  0.68225419  0.25473023  1.0
  O  O37  1  0.68220789  0.31774581  0.25473023  1.0
