# generated using pymatgen
data_K2ScSi2O6F
_symmetry_space_group_name_H-M   'P 1'
_cell_length_a   9.11878922
_cell_length_b   9.11878922
_cell_length_c   8.37062891
_cell_angle_alpha   90.00000000
_cell_angle_beta   90.00000000
_cell_angle_gamma   90.00000000
_symmetry_Int_Tables_number   1
_chemical_formula_structural   K2ScSi2O6F
_chemical_formula_sum   'K8 Sc4 Si8 O24 F4'
_cell_volume   696.03718696
_cell_formula_units_Z   4
loop_
 _symmetry_equiv_pos_site_id
 _symmetry_equiv_pos_as_xyz
  1  'x, y, z'
loop_
 _atom_site_type_symbol
 _atom_site_label
 _atom_site_symmetry_multiplicity
 _atom_site_fract_x
 _atom_site_fract_y
 _atom_site_fract_z
 _atom_site_occupancy
  K  K0  1  0.79085629  0.20914371  0.00000000  1.0
  K  K1  1  0.20914371  0.79085629  0.00000000  1.0
  K  K2  1  0.29085629  0.29085629  0.50000000  1.0
  K  K3  1  0.70914371  0.70914371  0.50000000  1.0
  K  K4  1  0.34311061  0.34311061  0.00000000  1.0
  K  K5  1  0.65688939  0.65688939  0.00000000  1.0
  K  K6  1  0.15688939  0.84311061  0.50000000  1.0
  K  K7  1  0.84311061  0.15688939  0.50000000  1.0
  Sc  Sc8  1  0.50000000  0.00000000  0.25000000  1.0
  Sc  Sc9  1  0.50000000  0.00000000  0.75000000  1.0
  Sc  Sc10  1  0.00000000  0.50000000  0.25000000  1.0
  Sc  Sc11  1  0.00000000  0.50000000  0.75000000  1.0
  Si  Si12  1  0.12243732  0.12243732  0.19751061  1.0
  Si  Si13  1  0.87756268  0.87756268  0.19751061  1.0
  Si  Si14  1  0.37756268  0.62243732  0.69751061  1.0
  Si  Si15  1  0.62243732  0.37756268  0.69751061  1.0
  Si  Si16  1  0.37756268  0.62243732  0.30248939  1.0
  Si  Si17  1  0.62243732  0.37756268  0.30248939  1.0
  Si  Si18  1  0.12243732  0.12243732  0.80248939  1.0
  Si  Si19  1  0.87756268  0.87756268  0.80248939  1.0
  O  O20  1  0.00000000  0.00000000  0.26319933  1.0
  O  O21  1  0.50000000  0.50000000  0.76319933  1.0
  O  O22  1  0.50000000  0.50000000  0.23680067  1.0
  O  O23  1  0.00000000  0.00000000  0.73680067  1.0
  O  O24  1  0.11543643  0.11543643  0.00000000  1.0
  O  O25  1  0.88456357  0.88456357  0.00000000  1.0
  O  O26  1  0.38456357  0.61543643  0.50000000  1.0
  O  O27  1  0.61543643  0.38456357  0.50000000  1.0
  O  O28  1  0.07270880  0.28203706  0.25992220  1.0
  O  O29  1  0.92729120  0.71796294  0.25992220  1.0
  O  O30  1  0.21796294  0.57270880  0.75992220  1.0
  O  O31  1  0.78203706  0.42729120  0.75992220  1.0
  O  O32  1  0.42729120  0.78203706  0.24007780  1.0
  O  O33  1  0.57270880  0.21796294  0.24007780  1.0
  O  O34  1  0.28203706  0.07270880  0.74007780  1.0
  O  O35  1  0.71796294  0.92729120  0.74007780  1.0
  O  O36  1  0.92729120  0.71796294  0.74007780  1.0
  O  O37  1  0.07270880  0.28203706  0.74007780  1.0
  O  O38  1  0.78203706  0.42729120  0.24007780  1.0
  O  O39  1  0.21796294  0.57270880  0.24007780  1.0
  O  O40  1  0.57270880  0.21796294  0.75992220  1.0
  O  O41  1  0.42729120  0.78203706  0.75992220  1.0
  O  O42  1  0.71796294  0.92729120  0.25992220  1.0
  O  O43  1  0.28203706  0.07270880  0.25992220  1.0
  F  F44  1  0.50000000  0.00000000  0.00000000  1.0
  F  F45  1  0.50000000  0.00000000  0.50000000  1.0
  F  F46  1  0.00000000  0.50000000  0.50000000  1.0
  F  F47  1  0.00000000  0.50000000  0.00000000  1.0
