# generated using pymatgen
data_NaCa3C2O7F3
_symmetry_space_group_name_H-M   'P 1'
_cell_length_a   6.82122370
_cell_length_b   6.82122370
_cell_length_c   15.34534833
_cell_angle_alpha   90.00000000
_cell_angle_beta   90.00000000
_cell_angle_gamma   120.00000000
_symmetry_Int_Tables_number   1
_chemical_formula_structural   NaCa3C2O7F3
_chemical_formula_sum   'Na3 Ca9 C6 O21 F9'
_cell_volume   618.34658626
_cell_formula_units_Z   3
loop_
 _symmetry_equiv_pos_site_id
 _symmetry_equiv_pos_as_xyz
  1  'x, y, z'
loop_
 _atom_site_type_symbol
 _atom_site_label
 _atom_site_symmetry_multiplicity
 _atom_site_fract_x
 _atom_site_fract_y
 _atom_site_fract_z
 _atom_site_occupancy
  F  F0  1  0.67786422  0.60945946  0.66928799  1.0
  F  F1  1  0.93159524  0.32213578  0.33595466  1.0
  F  F2  1  0.39054054  0.06840476  0.00262133  1.0
  F  F3  1  0.66893612  0.59954811  0.01960976  1.0
  F  F4  1  0.93061198  0.33106388  0.68627642  1.0
  F  F5  1  0.40045189  0.06938802  0.35294309  1.0
  F  F6  1  0.65254590  0.60524542  0.31649289  1.0
  F  F7  1  0.95269953  0.34745410  0.98315955  1.0
  F  F8  1  0.39475458  0.04730047  0.64982622  1.0
  Ca  Ca9  1  0.67057744  0.97711782  0.00768391  1.0
  Ca  Ca10  1  0.30654038  0.32942256  0.67435058  1.0
  Ca  Ca11  1  0.02288218  0.69345962  0.34101725  1.0
  Ca  Ca12  1  0.05063425  0.72049011  0.00402824  1.0
  Ca  Ca13  1  0.66985587  0.94936575  0.67069490  1.0
  Ca  Ca14  1  0.27950989  0.33014413  0.33736157  1.0
  Ca  Ca15  1  0.03940841  0.70117893  0.65712190  1.0
  Ca  Ca16  1  0.66177052  0.96059159  0.32378856  1.0
  Ca  Ca17  1  0.29882107  0.33822948  -0.00954477  1.0
  O  O18  1  1.01675227  1.00211771  0.24933697  1.0
  O  O19  1  -0.01463456  -0.01675227  0.91600363  1.0
  O  O20  1  -0.00211771  0.01463456  0.58267030  1.0
  O  O21  1  0.02462148  1.01292220  0.76947140  1.0
  O  O22  1  0.98830072  0.97537852  0.43613807  1.0
  O  O23  1  -0.01292220  0.01169928  0.10280474  1.0
  O  O24  1  0.37013340  0.69447306  0.91906486  1.0
  O  O25  1  0.32433966  0.62986660  0.58573153  1.0
  O  O26  1  0.30552694  0.67566034  0.25239820  1.0
  O  O27  1  0.33695095  0.64261931  0.77311253  1.0
  O  O28  1  0.30566836  0.66304905  0.43977919  1.0
  O  O29  1  0.35738069  0.69433164  0.10644586  1.0
  O  O30  1  0.35053428  0.33224051  0.82685534  1.0
  O  O31  1  0.98170623  0.64946572  0.49352201  1.0
  O  O32  1  0.66775949  0.01829377  0.16018868  1.0
  O  O33  1  0.96653441  0.69882263  0.83659521  1.0
  O  O34  1  0.73228821  0.03346559  0.50326188  1.0
  O  O35  1  0.30117737  0.26771179  0.16992855  1.0
  O  O36  1  0.59108866  0.97590943  0.82733889  1.0
  O  O37  1  0.38482077  0.40891134  0.49400555  1.0
  O  O38  1  0.02409057  0.61517923  0.16067222  1.0
  Na  Na39  1  0.66322632  0.59885776  0.16665647  1.0
  Na  Na40  1  0.93563144  0.33677368  0.83332314  1.0
  Na  Na41  1  0.40114224  0.06436856  0.49998980  1.0
  C  C42  1  0.99141577  0.89701764  0.84155188  1.0
  C  C43  1  0.90560186  0.00858423  0.50821855  1.0
  C  C44  1  0.10298236  0.09439814  0.17488521  1.0
  C  C45  1  0.43328431  0.77198373  0.84125843  1.0
  C  C46  1  0.33869942  0.56671569  0.50792510  1.0
  C  C47  1  0.22801627  0.66130058  0.17459177  1.0
