# generated using pymatgen
data_SrGaSiH
_symmetry_space_group_name_H-M   'P 1'
_cell_length_a   4.19005643
_cell_length_b   4.19005643
_cell_length_c   4.98799903
_cell_angle_alpha   90.00000000
_cell_angle_beta   90.00000000
_cell_angle_gamma   120.00000000
_symmetry_Int_Tables_number   1
_chemical_formula_structural   SrGaSiH
_chemical_formula_sum   'Sr1 Ga1 Si1 H1'
_cell_volume   75.83972269
_cell_formula_units_Z   1
loop_
 _symmetry_equiv_pos_site_id
 _symmetry_equiv_pos_as_xyz
  1  'x, y, z'
loop_
 _atom_site_type_symbol
 _atom_site_label
 _atom_site_symmetry_multiplicity
 _atom_site_fract_x
 _atom_site_fract_y
 _atom_site_fract_z
 _atom_site_occupancy
  Sr  Sr0  1  0.00000000  0.00000000  -0.00063258  1.0
  Ga  Ga1  1  0.66666667  0.33333333  0.54890250  1.0
  Si  Si2  1  0.33333333  0.66666667  0.44449646  1.0
  H  H3  1  0.66666667  0.33333333  0.90413363  1.0
