# generated using pymatgen
data_Na2V6O15
_symmetry_space_group_name_H-M   'P 1'
_cell_length_a   8.29875031
_cell_length_b   8.29875031
_cell_length_c   10.34758514
_cell_angle_alpha   68.16901888
_cell_angle_beta   111.83098112
_cell_angle_gamma   154.97142729
_symmetry_Int_Tables_number   1
_chemical_formula_structural   Na2V6O15
_chemical_formula_sum   'Na2 V6 O15'
_cell_volume   278.76260454
_cell_formula_units_Z   1
loop_
 _symmetry_equiv_pos_site_id
 _symmetry_equiv_pos_as_xyz
  1  'x, y, z'
loop_
 _atom_site_type_symbol
 _atom_site_label
 _atom_site_symmetry_multiplicity
 _atom_site_fract_x
 _atom_site_fract_y
 _atom_site_fract_z
 _atom_site_occupancy
  O  O0  1  0.00000000  0.00000000  0.00000000  1.0
  O  O1  1  0.18663990  -0.18663990  0.93892564  1.0
  O  O2  1  0.81336010  0.18663990  0.06107436  1.0
  O  O3  1  0.36710438  -0.36710438  0.93966314  1.0
  O  O4  1  0.63289562  0.36710438  0.06033686  1.0
  O  O5  1  0.43444183  -0.43444183  0.23413160  1.0
  O  O6  1  0.56555817  0.43444183  0.76586840  1.0
  O  O7  1  0.26770848  -0.26770848  0.22563337  1.0
  O  O8  1  0.73229152  0.26770848  0.77436663  1.0
  O  O9  1  0.11810390  -0.11810390  0.26072568  1.0
  O  O10  1  0.88189610  0.11810390  0.73927432  1.0
  O  O11  1  0.24387731  -0.24387731  0.57457097  1.0
  O  O12  1  0.75612269  0.24387731  0.42542903  1.0
  O  O13  1  0.39566319  -0.39566319  0.48202924  1.0
  O  O14  1  0.60433681  0.39566319  0.51797076  1.0
  V  V15  1  0.11741569  -0.11741569  0.10375842  1.0
  V  V16  1  0.88258431  0.11741569  0.89624158  1.0
  V  V17  1  0.33568470  -0.33568470  0.11110801  1.0
  V  V18  1  0.66431530  0.33568470  0.88889199  1.0
  V  V19  1  0.28691059  -0.28691059  0.41078679  1.0
  V  V20  1  0.71308941  0.28691059  0.58921321  1.0
  Na  Na21  1  0.01803296  -0.01803296  0.36050107  1.0
  Na  Na22  1  0.98196704  0.01803296  0.63949893  1.0
