# generated using pymatgen
data_VCoC2N3F5
_symmetry_space_group_name_H-M   'P 1'
_cell_length_a   7.58225615
_cell_length_b   7.58225615
_cell_length_c   7.58225615
_cell_angle_alpha   121.13767314
_cell_angle_beta   108.66556864
_cell_angle_gamma   99.37294316
_symmetry_Int_Tables_number   1
_chemical_formula_structural   VCoC2N3F5
_chemical_formula_sum   'V2 Co2 C4 N6 F10'
_cell_volume   323.20657057
_cell_formula_units_Z   2
loop_
 _symmetry_equiv_pos_site_id
 _symmetry_equiv_pos_as_xyz
  1  'x, y, z'
loop_
 _atom_site_type_symbol
 _atom_site_label
 _atom_site_symmetry_multiplicity
 _atom_site_fract_x
 _atom_site_fract_y
 _atom_site_fract_z
 _atom_site_occupancy
  V  V0  1  1.00000000  1.00000000  0.50000000  1.0
  V  V1  1  1.00000000  1.50000000  1.00000000  1.0
  Co  Co2  1  1.00000000  1.00000000  1.00000000  1.0
  Co  Co3  1  0.50000000  0.00000000  0.50000000  1.0
  C  C4  1  1.40162052  1.26603577  1.13558475  1.0
  C  C5  1  1.36954897  0.73396423  0.63558475  1.0
  C  C6  1  1.59837948  0.73396423  0.86441525  1.0
  C  C7  1  1.63045103  1.26603577  1.36441525  1.0
  N  N8  1  1.30191257  1.13353571  1.16837686  1.0
  N  N9  1  1.53484115  0.86646429  0.66837686  1.0
  N  N10  1  1.69808743  0.86646429  0.83162314  1.0
  N  N11  1  1.46515885  1.13353571  1.33162314  1.0
  N  N12  1  1.60171375  1.35171375  1.25000000  1.0
  N  N13  1  1.39828625  0.64828625  0.75000000  1.0
  F  F14  1  1.05063439  0.30063439  0.75000000  1.0
  F  F15  1  0.94936561  0.69936561  1.25000000  1.0
  F  F16  1  1.01774585  0.92038180  0.69625234  1.0
  F  F17  1  1.27587054  1.07961820  0.59736405  1.0
  F  F18  1  0.98225415  1.67850649  0.90263595  1.0
  F  F19  1  0.72412946  1.32149351  0.80374766  1.0
  F  F20  1  0.98225415  1.07961820  0.30374766  1.0
  F  F21  1  0.72412946  0.92038180  0.40263595  1.0
  F  F22  1  1.01774585  1.32149351  1.09736405  1.0
  F  F23  1  1.27587054  1.67850649  1.19625234  1.0
