# generated using pymatgen
data_ScV(TeO4)2
_symmetry_space_group_name_H-M   'P 1'
_cell_length_a   7.94143163
_cell_length_b   5.21052614
_cell_length_c   18.11045826
_cell_angle_alpha   90.00000000
_cell_angle_beta   112.06768828
_cell_angle_gamma   90.00000000
_symmetry_Int_Tables_number   1
_chemical_formula_structural   ScV(TeO4)2
_chemical_formula_sum   'Sc4 V4 Te8 O32'
_cell_volume   694.49325895
_cell_formula_units_Z   4
loop_
 _symmetry_equiv_pos_site_id
 _symmetry_equiv_pos_as_xyz
  1  'x, y, z'
loop_
 _atom_site_type_symbol
 _atom_site_label
 _atom_site_symmetry_multiplicity
 _atom_site_fract_x
 _atom_site_fract_y
 _atom_site_fract_z
 _atom_site_occupancy
  Sc  Sc0  1  0.98077825  0.28435148  0.32531865  1.0
  Sc  Sc1  1  0.98077825  0.21564852  0.82531865  1.0
  Sc  Sc2  1  0.01922175  0.78435148  0.17468135  1.0
  Sc  Sc3  1  0.01922175  0.71564852  0.67468135  1.0
  V  V4  1  0.71050519  0.29569651  0.07552743  1.0
  V  V5  1  0.71050519  0.20430349  0.57552743  1.0
  V  V6  1  0.28949481  0.79569651  0.42447257  1.0
  V  V7  1  0.28949481  0.70430349  0.92447257  1.0
  Te  Te8  1  0.79301926  0.85849861  0.43339183  1.0
  Te  Te9  1  0.79301926  0.64150139  0.93339183  1.0
  Te  Te10  1  0.20698074  0.35849861  0.06660817  1.0
  Te  Te11  1  0.20698074  0.14150139  0.56660817  1.0
  Te  Te12  1  0.34937131  0.26881915  0.27984048  1.0
  Te  Te13  1  0.34937131  0.23118085  0.77984048  1.0
  Te  Te14  1  0.65062869  0.76881915  0.22015952  1.0
  Te  Te15  1  0.65062869  0.73118085  0.72015952  1.0
  O  O16  1  0.97459447  0.11455778  0.43090266  1.0
  O  O17  1  0.97459447  0.38544222  0.93090266  1.0
  O  O18  1  0.02540553  0.61455778  0.06909734  1.0
  O  O19  1  0.02540553  0.88544222  0.56909734  1.0
  O  O20  1  0.89110236  0.09524882  0.09681390  1.0
  O  O21  1  0.89110236  0.40475118  0.59681390  1.0
  O  O22  1  0.10889764  0.59524882  0.40318610  1.0
  O  O23  1  0.10889764  0.90475118  0.90318610  1.0
  O  O24  1  0.88801097  0.95308657  0.24736297  1.0
  O  O25  1  0.88801097  0.54691343  0.74736297  1.0
  O  O26  1  0.11198903  0.45308657  0.25263703  1.0
  O  O27  1  0.11198903  0.04691343  0.75263703  1.0
  O  O28  1  0.74511153  0.48076244  0.29160991  1.0
  O  O29  1  0.74511153  0.01923756  0.79160991  1.0
  O  O30  1  0.25488847  0.98076244  0.20839009  1.0
  O  O31  1  0.25488847  0.51923756  0.70839009  1.0
  O  O32  1  0.65242613  0.09941393  0.47307911  1.0
  O  O33  1  0.65242613  0.40058607  0.97307911  1.0
  O  O34  1  0.34757387  0.59941393  0.02692089  1.0
  O  O35  1  0.34757387  0.90058607  0.52692089  1.0
  O  O36  1  0.62959880  0.95642852  0.32156492  1.0
  O  O37  1  0.62959880  0.54357148  0.82156492  1.0
  O  O38  1  0.37040120  0.45642852  0.17843508  1.0
  O  O39  1  0.37040120  0.04357148  0.67843508  1.0
  O  O40  1  0.54177942  0.13704548  0.08563922  1.0
  O  O41  1  0.54177942  0.36295452  0.58563922  1.0
  O  O42  1  0.45822058  0.63704548  0.41436078  1.0
  O  O43  1  0.45822058  0.86295452  0.91436078  1.0
  O  O44  1  0.23854604  0.06905797  0.35996418  1.0
  O  O45  1  0.23854604  0.43094203  0.85996418  1.0
  O  O46  1  0.76145396  0.56905797  0.14003582  1.0
  O  O47  1  0.76145396  0.93094203  0.64003582  1.0
