# generated using pymatgen
data_Li2Si
_symmetry_space_group_name_H-M   'P 1'
_cell_length_a   6.50903535
_cell_length_b   6.50903535
_cell_length_c   7.94174425
_cell_angle_alpha   61.30310484
_cell_angle_beta   118.69689516
_cell_angle_gamma   140.36181681
_symmetry_Int_Tables_number   1
_chemical_formula_structural   Li2Si
_chemical_formula_sum   'Li8 Si4'
_cell_volume   184.58283160
_cell_formula_units_Z   4
loop_
 _symmetry_equiv_pos_site_id
 _symmetry_equiv_pos_as_xyz
  1  'x, y, z'
loop_
 _atom_site_type_symbol
 _atom_site_label
 _atom_site_symmetry_multiplicity
 _atom_site_fract_x
 _atom_site_fract_y
 _atom_site_fract_z
 _atom_site_occupancy
  Li  Li0  1  0.13628018  -0.13628018  0.85377163  1.0
  Li  Li1  1  0.86371982  -0.86371982  0.14622837  1.0
  Li  Li2  1  0.62657402  -0.62657402  0.04074248  1.0
  Li  Li3  1  0.37342598  -0.37342598  0.95925752  1.0
  Li  Li4  1  0.20730628  -0.20730628  0.55811191  1.0
  Li  Li5  1  0.79269372  -0.79269372  0.44188809  1.0
  Li  Li6  1  0.53481080  0.46518920  0.35988296  1.0
  Li  Li7  1  1.46518920  -0.46518920  0.64011704  1.0
  Si  Si8  1  0.92212121  -0.92212121  0.82506607  1.0
  Si  Si9  1  0.07787879  -0.07787879  0.17493393  1.0
  Si  Si10  1  1.29165441  -0.29165441  0.25337720  1.0
  Si  Si11  1  0.70834559  0.29165441  0.74662280  1.0
