# generated using pymatgen
data_MnSnF6
_symmetry_space_group_name_H-M   'P 1'
_cell_length_a   5.77527409
_cell_length_b   5.77527409
_cell_length_c   5.77527409
_cell_angle_alpha   58.96844860
_cell_angle_beta   58.96844860
_cell_angle_gamma   58.96844860
_symmetry_Int_Tables_number   1
_chemical_formula_structural   MnSnF6
_chemical_formula_sum   'Mn1 Sn1 F6'
_cell_volume   133.00247004
_cell_formula_units_Z   1
loop_
 _symmetry_equiv_pos_site_id
 _symmetry_equiv_pos_as_xyz
  1  'x, y, z'
loop_
 _atom_site_type_symbol
 _atom_site_label
 _atom_site_symmetry_multiplicity
 _atom_site_fract_x
 _atom_site_fract_y
 _atom_site_fract_z
 _atom_site_occupancy
  Mn  Mn0  1  -0.00000000  0.00000000  0.00000000  1.0
  Sn  Sn1  1  0.50000000  0.50000000  -0.50000000  1.0
  F  F2  1  1.19095308  -0.25654109  -0.67832275  1.0
  F  F3  1  0.67832275  0.80904692  -0.74345891  1.0
  F  F4  1  0.25654109  0.67832275  -0.19095308  1.0
  F  F5  1  0.80904692  0.25654109  -0.32167725  1.0
  F  F6  1  0.32167725  0.19095308  -0.25654109  1.0
  F  F7  1  0.74345891  -0.67832275  0.19095308  1.0
