# generated using pymatgen
data_BiS
_symmetry_space_group_name_H-M   'P 1'
_cell_length_a   3.96472919
_cell_length_b   3.96472919
_cell_length_c   7.65133780
_cell_angle_alpha   76.04300389
_cell_angle_beta   103.95699611
_cell_angle_gamma   90.17271808
_symmetry_Int_Tables_number   1
_chemical_formula_structural   BiS
_chemical_formula_sum   'Bi2 S2'
_cell_volume   113.08079132
_cell_formula_units_Z   2
loop_
 _symmetry_equiv_pos_site_id
 _symmetry_equiv_pos_as_xyz
  1  'x, y, z'
loop_
 _atom_site_type_symbol
 _atom_site_label
 _atom_site_symmetry_multiplicity
 _atom_site_fract_x
 _atom_site_fract_y
 _atom_site_fract_z
 _atom_site_occupancy
  Bi  Bi0  1  1.11023556  -0.11023556  0.22137920  1.0
  Bi  Bi1  1  0.88976444  0.11023556  0.77862080  1.0
  S  S2  1  0.65693345  0.34306655  0.28522787  1.0
  S  S3  1  1.34306655  -0.34306655  0.71477213  1.0
