# generated using pymatgen
data_SiO2
_symmetry_space_group_name_H-M   'P 1'
_cell_length_a   5.02832738
_cell_length_b   6.24298294
_cell_length_c   5.51509121
_cell_angle_alpha   90.84119987
_cell_angle_beta   89.58059806
_cell_angle_gamma   90.27441800
_symmetry_Int_Tables_number   1
_chemical_formula_structural   SiO2
_chemical_formula_sum   'Si4 O8'
_cell_volume   173.10323654
_cell_formula_units_Z   4
loop_
 _symmetry_equiv_pos_site_id
 _symmetry_equiv_pos_as_xyz
  1  'x, y, z'
loop_
 _atom_site_type_symbol
 _atom_site_label
 _atom_site_symmetry_multiplicity
 _atom_site_fract_x
 _atom_site_fract_y
 _atom_site_fract_z
 _atom_site_occupancy
  Si  Si0  1  -0.20761947  -0.11453006  -0.24246767  1.0
  Si  Si1  1  -0.84938321  -0.82476967  -0.49214018  1.0
  Si  Si2  1  -0.48892310  -0.11838277  -0.73514183  1.0
  Si  Si3  1  -0.34699841  -0.52723328  -0.49369727  1.0
  O  O4  1  -0.34577129  -0.04721920  -0.98612033  1.0
  O  O5  1  -0.60506895  -0.66649724  -0.40416230  1.0
  O  O6  1  -0.35464328  -1.03132993  -0.48487518  1.0
  O  O7  1  -0.22128311  -0.37649824  -0.27271092  1.0
  O  O8  1  -0.46753522  -0.37986620  -0.71439682  1.0
  O  O9  1  -0.77443608  0.00894395  -0.72043258  1.0
  O  O10  1  -0.92550752  0.01856156  -0.26072607  1.0
  O  O11  1  -0.09415037  -0.67259892  -0.58383886  1.0
