# generated using pymatgen
data_Be3Ru2
_symmetry_space_group_name_H-M   'P 1'
_cell_length_a   8.31957136
_cell_length_b   8.31957136
_cell_length_c   8.31957136
_cell_angle_alpha   109.47122063
_cell_angle_beta   109.47122063
_cell_angle_gamma   109.47122063
_symmetry_Int_Tables_number   1
_chemical_formula_structural   Be3Ru2
_chemical_formula_sum   'Be24 Ru16'
_cell_volume   443.28288422
_cell_formula_units_Z   8
loop_
 _symmetry_equiv_pos_site_id
 _symmetry_equiv_pos_as_xyz
  1  'x, y, z'
loop_
 _atom_site_type_symbol
 _atom_site_label
 _atom_site_symmetry_multiplicity
 _atom_site_fract_x
 _atom_site_fract_y
 _atom_site_fract_z
 _atom_site_occupancy
  Be  Be0  1  0.60991094  0.55187478  0.86406048  1.0
  Be  Be1  1  1.10991094  0.24585046  1.05803616  1.0
  Be  Be2  1  0.18781430  0.74585046  0.63593952  1.0
  Be  Be3  1  0.68781430  1.05187478  0.44196384  1.0
  Be  Be4  1  0.55803616  1.31218570  0.94812522  1.0
  Be  Be5  1  1.05803616  1.10991094  0.24585046  1.0
  Be  Be6  1  0.86406048  0.60991094  0.55187478  1.0
  Be  Be7  1  1.36406048  0.81218570  1.25414954  1.0
  Be  Be8  1  0.74585046  0.63593952  0.18781430  1.0
  Be  Be9  1  1.24585046  1.05803616  1.10991094  1.0
  Be  Be10  1  0.94812522  0.55803616  1.31218570  1.0
  Be  Be11  1  1.44812522  1.13593952  1.39008906  1.0
  Be  Be12  1  1.81218570  1.25414954  1.36406048  1.0
  Be  Be13  1  1.31218570  0.94812522  1.55803616  1.0
  Be  Be14  1  1.39008906  1.44812522  1.13593952  1.0
  Be  Be15  1  0.89008906  1.75414954  0.94196384  1.0
  Be  Be16  1  1.13593952  1.39008906  1.44812522  1.0
  Be  Be17  1  0.63593952  1.18781430  0.74585046  1.0
  Be  Be18  1  1.44196384  0.68781430  1.05187478  1.0
  Be  Be19  1  0.94196384  0.89008906  1.75414954  1.0
  Be  Be20  1  1.05187478  1.44196384  0.68781430  1.0
  Be  Be21  1  0.55187478  0.86406048  0.60991094  1.0
  Be  Be22  1  1.25414954  1.36406048  1.81218570  1.0
  Be  Be23  1  0.75414954  0.94196384  0.89008906  1.0
  Ru  Ru24  1  1.61636860  1.36636860  1.25000000  1.0
  Ru  Ru25  1  1.11636860  0.86636860  1.25000000  1.0
  Ru  Ru26  1  0.75000000  0.88363140  0.13363140  1.0
  Ru  Ru27  1  0.25000000  1.11636860  0.86636860  1.0
  Ru  Ru28  1  0.25000000  0.61636860  0.36636860  1.0
  Ru  Ru29  1  0.75000000  1.38363140  0.63363140  1.0
  Ru  Ru30  1  1.36636860  1.25000000  1.61636860  1.0
  Ru  Ru31  1  0.86636860  0.25000000  1.11636860  1.0
  Ru  Ru32  1  0.13363140  0.75000000  0.88363140  1.0
  Ru  Ru33  1  0.63363140  0.75000000  0.38363140  1.0
  Ru  Ru34  1  0.38363140  0.63363140  0.75000000  1.0
  Ru  Ru35  1  0.88363140  1.13363140  0.75000000  1.0
  Ru  Ru36  1  1.00000000  0.50000000  1.00000000  1.0
  Ru  Ru37  1  0.50000000  0.50000000  0.50000000  1.0
  Ru  Ru38  1  1.00000000  1.00000000  1.50000000  1.0
  Ru  Ru39  1  1.50000000  1.00000000  1.00000000  1.0
