# generated using pymatgen
data_CoPW
_symmetry_space_group_name_H-M   'P 1'
_cell_length_a   5.78054291
_cell_length_b   3.75336305
_cell_length_c   6.73467826
_cell_angle_alpha   90.00000000
_cell_angle_beta   90.00000000
_cell_angle_gamma   90.00000000
_symmetry_Int_Tables_number   1
_chemical_formula_structural   CoPW
_chemical_formula_sum   'Co4 P4 W4'
_cell_volume   146.11878640
_cell_formula_units_Z   4
loop_
 _symmetry_equiv_pos_site_id
 _symmetry_equiv_pos_as_xyz
  1  'x, y, z'
loop_
 _atom_site_type_symbol
 _atom_site_label
 _atom_site_symmetry_multiplicity
 _atom_site_fract_x
 _atom_site_fract_y
 _atom_site_fract_z
 _atom_site_occupancy
  Co  Co0  1  0.85923963  0.75000000  0.06955253  1.0
  Co  Co1  1  0.35923963  0.75000000  0.43044747  1.0
  Co  Co2  1  0.14076037  0.25000000  0.93044747  1.0
  Co  Co3  1  0.64076037  0.25000000  0.56955253  1.0
  P  P4  1  0.73210301  0.75000000  0.37883339  1.0
  P  P5  1  0.23210301  0.75000000  0.12116661  1.0
  P  P6  1  0.26789699  0.25000000  0.62116661  1.0
  P  P7  1  0.76789699  0.25000000  0.87883339  1.0
  W  W8  1  0.96760115  0.75000000  0.66867980  1.0
  W  W9  1  0.46760115  0.75000000  0.83132020  1.0
  W  W10  1  0.03239885  0.25000000  0.33132020  1.0
  W  W11  1  0.53239885  0.25000000  0.16867980  1.0
