# generated using pymatgen
data_Hg4Pb2N6O19
_symmetry_space_group_name_H-M   'P 1'
_cell_length_a   11.16621418
_cell_length_b   11.16621418
_cell_length_c   11.16621418
_cell_angle_alpha   60.00000000
_cell_angle_beta   60.00000000
_cell_angle_gamma   60.00000000
_symmetry_Int_Tables_number   1
_chemical_formula_structural   Hg4Pb2N6O19
_chemical_formula_sum   'Hg8 Pb4 N12 O38'
_cell_volume   984.47085549
_cell_formula_units_Z   2
loop_
 _symmetry_equiv_pos_site_id
 _symmetry_equiv_pos_as_xyz
  1  'x, y, z'
loop_
 _atom_site_type_symbol
 _atom_site_label
 _atom_site_symmetry_multiplicity
 _atom_site_fract_x
 _atom_site_fract_y
 _atom_site_fract_z
 _atom_site_occupancy
  Hg  Hg0  1  0.57891043  0.26326870  0.57891043  1.0
  Hg  Hg1  1  0.26326870  0.57891043  0.57891043  1.0
  Hg  Hg2  1  0.57891043  0.57891043  0.57891043  1.0
  Hg  Hg3  1  0.57891043  0.57891043  0.26326870  1.0
  Hg  Hg4  1  -0.32891043  0.98673130  0.67108957  1.0
  Hg  Hg5  1  -0.01326870  0.67108957  0.67108957  1.0
  Hg  Hg6  1  -0.32891043  0.67108957  0.67108957  1.0
  Hg  Hg7  1  -0.32891043  0.67108957  0.98673130  1.0
  Pb  Pb8  1  0.62500000  0.12500000  0.12500000  1.0
  Pb  Pb9  1  0.12500000  0.62500000  1.12500000  1.0
  Pb  Pb10  1  0.12500000  0.12500000  0.62500000  1.0
  Pb  Pb11  1  1.12500000  0.12500000  0.12500000  1.0
  N  N12  1  0.76440721  0.23559279  -0.23559279  1.0
  N  N13  1  0.23559279  -0.23559279  0.23559279  1.0
  N  N14  1  0.23559279  0.76440721  0.76440721  1.0
  N  N15  1  0.76440721  0.23559279  0.23559279  1.0
  N  N16  1  0.76440721  -0.23559279  0.23559279  1.0
  N  N17  1  1.23559279  0.23559279  -0.23559279  1.0
  N  N18  1  0.48559279  0.01440721  0.48559279  1.0
  N  N19  1  1.01440721  0.48559279  0.01440721  1.0
  N  N20  1  0.01440721  0.48559279  0.48559279  1.0
  N  N21  1  0.48559279  0.01440721  0.01440721  1.0
  N  N22  1  0.48559279  0.48559279  0.01440721  1.0
  N  N23  1  0.01440721  0.01440721  0.48559279  1.0
  O  O24  1  0.50000000  0.50000000  0.50000000  1.0
  O  O25  1  -0.25000000  0.75000000  0.75000000  1.0
  O  O26  1  0.84491931  0.15508069  -0.15508069  1.0
  O  O27  1  0.15508069  -0.15508069  0.15508069  1.0
  O  O28  1  0.15508069  0.84491931  0.84491931  1.0
  O  O29  1  0.84491931  0.15508069  0.15508069  1.0
  O  O30  1  0.84491931  -0.15508069  0.15508069  1.0
  O  O31  1  1.15508069  0.15508069  -0.15508069  1.0
  O  O32  1  0.40508069  0.09491931  0.40508069  1.0
  O  O33  1  1.09491931  0.40508069  0.09491931  1.0
  O  O34  1  0.09491931  0.40508069  0.40508069  1.0
  O  O35  1  0.40508069  0.09491931  0.09491931  1.0
  O  O36  1  0.40508069  0.40508069  0.09491931  1.0
  O  O37  1  0.09491931  0.09491931  0.40508069  1.0
  O  O38  1  -0.37653970  0.97464588  0.97464588  1.0
  O  O39  1  0.97464588  0.62346030  -0.57275207  1.0
  O  O40  1  0.97464588  0.42724793  -0.37653970  1.0
  O  O41  1  -0.57275207  0.97464588  0.97464588  1.0
  O  O42  1  -0.02535412  0.97464588  0.62346030  1.0
  O  O43  1  0.62346030  0.42724793  -0.02535412  1.0
  O  O44  1  -0.57275207  0.62346030  0.97464588  1.0
  O  O45  1  0.97464588  0.97464588  -0.57275207  1.0
  O  O46  1  -0.02535412  0.62346030  0.97464588  1.0
  O  O47  1  0.42724793  0.97464588  0.62346030  1.0
  O  O48  1  0.62346030  -0.02535412  0.42724793  1.0
  O  O49  1  0.97464588  0.42724793  -0.02535412  1.0
  O  O50  1  0.62653970  0.27535412  0.27535412  1.0
  O  O51  1  1.27535412  0.62653970  -0.17724793  1.0
  O  O52  1  0.27535412  -0.17724793  0.62653970  1.0
  O  O53  1  0.82275207  0.27535412  0.27535412  1.0
  O  O54  1  0.27535412  0.27535412  0.62653970  1.0
  O  O55  1  0.62653970  -0.17724793  0.27535412  1.0
  O  O56  1  0.82275207  0.62653970  0.27535412  1.0
  O  O57  1  1.27535412  0.27535412  -0.17724793  1.0
  O  O58  1  0.27535412  0.62653970  0.27535412  1.0
  O  O59  1  -0.17724793  0.27535412  0.62653970  1.0
  O  O60  1  0.62653970  0.27535412  -0.17724793  1.0
  O  O61  1  0.27535412  -0.17724793  0.27535412  1.0
