# generated using pymatgen
data_KCoO2
_symmetry_space_group_name_H-M   'P 1'
_cell_length_a   5.43293016
_cell_length_b   5.43293016
_cell_length_c   5.43293016
_cell_angle_alpha   115.27642602
_cell_angle_beta   115.27642602
_cell_angle_gamma   98.39683049
_symmetry_Int_Tables_number   1
_chemical_formula_structural   KCoO2
_chemical_formula_sum   'K2 Co2 O4'
_cell_volume   120.08933779
_cell_formula_units_Z   2
loop_
 _symmetry_equiv_pos_site_id
 _symmetry_equiv_pos_as_xyz
  1  'x, y, z'
loop_
 _atom_site_type_symbol
 _atom_site_label
 _atom_site_symmetry_multiplicity
 _atom_site_fract_x
 _atom_site_fract_y
 _atom_site_fract_z
 _atom_site_occupancy
  K  K0  1  0.50000000  0.50000000  -0.00000000  1.0
  K  K1  1  1.25000000  0.75000000  0.50000000  1.0
  Co  Co2  1  0.00000000  0.00000000  0.00000000  1.0
  Co  Co3  1  0.75000000  1.25000000  0.50000000  1.0
  O  O4  1  0.87500000  0.99903157  0.62403157  1.0
  O  O5  1  0.74903157  1.12500000  1.12403157  1.0
  O  O6  1  1.00096843  1.62500000  0.87596843  1.0
  O  O7  1  0.37500000  0.25096843  0.37596843  1.0
