# generated using pymatgen
data_SmMg2H7
_symmetry_space_group_name_H-M   'P 1'
_cell_length_a   6.21467873
_cell_length_b   6.21467873
_cell_length_c   9.32881333
_cell_angle_alpha   90.00000000
_cell_angle_beta   90.00000000
_cell_angle_gamma   90.00000000
_symmetry_Int_Tables_number   1
_chemical_formula_structural   SmMg2H7
_chemical_formula_sum   'Sm4 Mg8 H28'
_cell_volume   360.29958948
_cell_formula_units_Z   4
loop_
 _symmetry_equiv_pos_site_id
 _symmetry_equiv_pos_as_xyz
  1  'x, y, z'
loop_
 _atom_site_type_symbol
 _atom_site_label
 _atom_site_symmetry_multiplicity
 _atom_site_fract_x
 _atom_site_fract_y
 _atom_site_fract_z
 _atom_site_occupancy
  Sm  Sm0  1  0.23035726  0.76964274  0.25000000  1.0
  Sm  Sm1  1  0.73035726  0.73035726  0.50000000  1.0
  Sm  Sm2  1  0.76964274  0.23035726  0.75000000  1.0
  Sm  Sm3  1  0.26964274  0.26964274  0.00000000  1.0
  H  H4  1  0.74589045  0.25410955  0.25000000  1.0
  H  H5  1  0.24589045  0.24589045  0.50000000  1.0
  H  H6  1  0.25410955  0.74589045  0.75000000  1.0
  H  H7  1  0.75410955  0.75410955  0.00000000  1.0
  H  H8  1  0.45921554  0.53125802  0.12179420  1.0
  H  H9  1  0.95921554  0.96874198  0.62820580  1.0
  H  H10  1  0.46874198  0.54078446  0.37820580  1.0
  H  H11  1  0.96874198  0.95921554  0.37179420  1.0
  H  H12  1  0.54078446  0.46874198  0.62179420  1.0
  H  H13  1  0.04078446  0.03125802  0.12820580  1.0
  H  H14  1  0.53125802  0.45921554  0.87820580  1.0
  H  H15  1  0.03125802  0.04078446  0.87179420  1.0
  H  H16  1  0.19119366  0.65454746  0.99832138  1.0
  H  H17  1  0.69119366  0.84545254  0.75167862  1.0
  H  H18  1  0.34545254  0.80880634  0.50167862  1.0
  H  H19  1  0.84545254  0.69119366  0.24832138  1.0
  H  H20  1  0.80880634  0.34545254  0.49832138  1.0
  H  H21  1  0.30880634  0.15454746  0.25167862  1.0
  H  H22  1  0.65454746  0.19119366  0.00167862  1.0
  H  H23  1  0.15454746  0.30880634  0.74832138  1.0
  H  H24  1  0.41976895  0.93746962  0.07346397  1.0
  H  H25  1  0.91976895  0.56253038  0.67653603  1.0
  H  H26  1  0.06253038  0.58023105  0.42653603  1.0
  H  H27  1  0.56253038  0.91976895  0.32346397  1.0
  H  H28  1  0.58023105  0.06253038  0.57346397  1.0
  H  H29  1  0.08023105  0.43746962  0.17653603  1.0
  H  H30  1  0.93746962  0.41976895  0.92653603  1.0
  H  H31  1  0.43746962  0.08023105  0.82346397  1.0
  Mg  Mg32  1  0.47006245  0.76135398  0.90112214  1.0
  Mg  Mg33  1  0.97006245  0.73864602  0.84887786  1.0
  Mg  Mg34  1  0.23864602  0.52993755  0.59887786  1.0
  Mg  Mg35  1  0.73864602  0.97006245  0.15112214  1.0
  Mg  Mg36  1  0.52993755  0.23864602  0.40112214  1.0
  Mg  Mg37  1  0.02993755  0.26135398  0.34887786  1.0
  Mg  Mg38  1  0.76135398  0.47006245  0.09887786  1.0
  Mg  Mg39  1  0.26135398  0.02993755  0.65112214  1.0
