# generated using pymatgen
data_BaSbF5
_symmetry_space_group_name_H-M   'P 1'
_cell_length_a   4.78546199
_cell_length_b   9.51805662
_cell_length_c   11.53570495
_cell_angle_alpha   90.00000000
_cell_angle_beta   90.00000000
_cell_angle_gamma   90.00000000
_symmetry_Int_Tables_number   1
_chemical_formula_structural   BaSbF5
_chemical_formula_sum   'Ba4 Sb4 F20'
_cell_volume   525.43172864
_cell_formula_units_Z   4
loop_
 _symmetry_equiv_pos_site_id
 _symmetry_equiv_pos_as_xyz
  1  'x, y, z'
loop_
 _atom_site_type_symbol
 _atom_site_label
 _atom_site_symmetry_multiplicity
 _atom_site_fract_x
 _atom_site_fract_y
 _atom_site_fract_z
 _atom_site_occupancy
  Ba  Ba0  1  0.99425046  0.75000000  0.00000000  1.0
  Ba  Ba1  1  0.99425046  0.75000000  0.50000000  1.0
  Ba  Ba2  1  0.00574954  0.25000000  0.00000000  1.0
  Ba  Ba3  1  0.00574954  0.25000000  0.50000000  1.0
  Sb  Sb4  1  0.61431646  0.94179320  0.75000000  1.0
  Sb  Sb5  1  0.61431646  0.55820680  0.25000000  1.0
  Sb  Sb6  1  0.38568354  0.44179320  0.75000000  1.0
  Sb  Sb7  1  0.38568354  0.05820680  0.25000000  1.0
  F  F8  1  0.89200962  0.48845406  0.38398740  1.0
  F  F9  1  0.89200962  0.48845406  0.11601260  1.0
  F  F10  1  0.89200962  0.01154594  0.88398740  1.0
  F  F11  1  0.89200962  0.01154594  0.61601260  1.0
  F  F12  1  0.10799038  0.98845406  0.38398740  1.0
  F  F13  1  0.10799038  0.98845406  0.11601260  1.0
  F  F14  1  0.10799038  0.51154594  0.88398740  1.0
  F  F15  1  0.10799038  0.51154594  0.61601260  1.0
  F  F16  1  0.47707461  0.80449904  0.88529679  1.0
  F  F17  1  0.47707461  0.80449904  0.61470321  1.0
  F  F18  1  0.47707461  0.69550096  0.38529679  1.0
  F  F19  1  0.47707461  0.69550096  0.11470321  1.0
  F  F20  1  0.52292539  0.30449904  0.88529679  1.0
  F  F21  1  0.52292539  0.30449904  0.61470321  1.0
  F  F22  1  0.52292539  0.19550096  0.38529679  1.0
  F  F23  1  0.52292539  0.19550096  0.11470321  1.0
  F  F24  1  0.90982635  0.79111627  0.75000000  1.0
  F  F25  1  0.90982635  0.70888373  0.25000000  1.0
  F  F26  1  0.09017365  0.29111627  0.75000000  1.0
  F  F27  1  0.09017365  0.20888373  0.25000000  1.0
