# generated using pymatgen
data_Sr2PdO3
_symmetry_space_group_name_H-M   'P 1'
_cell_length_a   6.97582425
_cell_length_b   6.97582425
_cell_length_c   6.97582425
_cell_angle_alpha   150.30055815
_cell_angle_beta   146.38628687
_cell_angle_gamma   45.45854715
_symmetry_Int_Tables_number   1
_chemical_formula_structural   Sr2PdO3
_chemical_formula_sum   'Sr2 Pd1 O3'
_cell_volume   92.80649016
_cell_formula_units_Z   1
loop_
 _symmetry_equiv_pos_site_id
 _symmetry_equiv_pos_as_xyz
  1  'x, y, z'
loop_
 _atom_site_type_symbol
 _atom_site_label
 _atom_site_symmetry_multiplicity
 _atom_site_fract_x
 _atom_site_fract_y
 _atom_site_fract_z
 _atom_site_occupancy
  Sr  Sr0  1  0.64704491  0.64704491  1.00000000  1.0
  Sr  Sr1  1  0.35295509  0.35295509  -0.00000000  1.0
  Pd  Pd2  1  0.00000000  0.00000000  0.00000000  1.0
  O  O3  1  0.83934868  0.83934868  1.00000000  1.0
  O  O4  1  0.16065132  0.16065132  -0.00000000  1.0
  O  O5  1  0.50000000  0.00000000  0.50000000  1.0
