# generated using pymatgen
data_EuSi2
_symmetry_space_group_name_H-M   'P 1'
_cell_length_a   11.38618552
_cell_length_b   11.38618552
_cell_length_c   11.38618552
_cell_angle_alpha   150.84650936
_cell_angle_beta   150.84650936
_cell_angle_gamma   41.70022146
_symmetry_Int_Tables_number   1
_chemical_formula_structural   EuSi2
_chemical_formula_sum   'Eu4 Si8'
_cell_volume   349.51554678
_cell_formula_units_Z   4
loop_
 _symmetry_equiv_pos_site_id
 _symmetry_equiv_pos_as_xyz
  1  'x, y, z'
loop_
 _atom_site_type_symbol
 _atom_site_label
 _atom_site_symmetry_multiplicity
 _atom_site_fract_x
 _atom_site_fract_y
 _atom_site_fract_z
 _atom_site_occupancy
  Eu  Eu0  1  0.37500000  0.12500000  0.25000000  1.0
  Eu  Eu1  1  0.87500000  0.12500000  0.75000000  1.0
  Eu  Eu2  1  0.87500000  1.12500000  1.25000000  1.0
  Eu  Eu3  1  0.87500000  0.62500000  0.75000000  1.0
  Si  Si4  1  1.05708517  0.27180656  0.78527862  1.0
  Si  Si5  1  1.26347206  0.97819344  1.28527862  1.0
  Si  Si6  1  0.48652794  0.27180656  0.21472138  1.0
  Si  Si7  1  0.69291483  0.97819344  0.71472138  1.0
  Si  Si8  1  0.72819344  0.51347206  0.78527862  1.0
  Si  Si9  1  0.02180656  0.30708517  0.28527862  1.0
  Si  Si10  1  0.72819344  0.94291483  1.21472138  1.0
  Si  Si11  1  0.02180656  0.73652794  0.71472138  1.0
