# generated using pymatgen
data_Pb2CBr2O3
_symmetry_space_group_name_H-M   'P 1'
_cell_length_a   8.48728925
_cell_length_b   8.48728925
_cell_length_c   9.24204145
_cell_angle_alpha   90.00000000
_cell_angle_beta   90.00000000
_cell_angle_gamma   90.00000000
_symmetry_Int_Tables_number   1
_chemical_formula_structural   Pb2CBr2O3
_chemical_formula_sum   'Pb8 C4 Br8 O12'
_cell_volume   665.74194235
_cell_formula_units_Z   4
loop_
 _symmetry_equiv_pos_site_id
 _symmetry_equiv_pos_as_xyz
  1  'x, y, z'
loop_
 _atom_site_type_symbol
 _atom_site_label
 _atom_site_symmetry_multiplicity
 _atom_site_fract_x
 _atom_site_fract_y
 _atom_site_fract_z
 _atom_site_occupancy
  Pb  Pb0  1  0.83522300  0.66477700  0.74926785  1.0
  Pb  Pb1  1  0.83522300  0.66477700  0.25073215  1.0
  Pb  Pb2  1  0.33522300  0.83522300  0.74926785  1.0
  Pb  Pb3  1  0.33522300  0.83522300  0.25073215  1.0
  Pb  Pb4  1  0.16477700  0.33522300  0.74926785  1.0
  Pb  Pb5  1  0.16477700  0.33522300  0.25073215  1.0
  Pb  Pb6  1  0.66477700  0.16477700  0.74926785  1.0
  Pb  Pb7  1  0.66477700  0.16477700  0.25073215  1.0
  C  C8  1  0.32443979  0.17556021  0.00000000  1.0
  C  C9  1  0.82443979  0.32443979  0.00000000  1.0
  C  C10  1  0.67556021  0.82443979  0.00000000  1.0
  C  C11  1  0.17556021  0.67556021  0.00000000  1.0
  Br  Br12  1  0.35011894  0.14988106  0.50000000  1.0
  Br  Br13  1  0.85011894  0.35011894  0.50000000  1.0
  Br  Br14  1  0.64988106  0.85011894  0.50000000  1.0
  Br  Br15  1  0.14988106  0.64988106  0.50000000  1.0
  Br  Br16  1  0.50000000  0.50000000  0.75916040  1.0
  Br  Br17  1  0.50000000  0.50000000  0.24083960  1.0
  Br  Br18  1  0.00000000  0.00000000  0.75916040  1.0
  Br  Br19  1  0.00000000  0.00000000  0.24083960  1.0
  O  O20  1  0.37303168  0.12696832  0.87559987  1.0
  O  O21  1  0.37303168  0.12696832  0.12440013  1.0
  O  O22  1  0.87303168  0.37303168  0.87559987  1.0
  O  O23  1  0.87303168  0.37303168  0.12440013  1.0
  O  O24  1  0.62696832  0.87303168  0.87559987  1.0
  O  O25  1  0.62696832  0.87303168  0.12440013  1.0
  O  O26  1  0.12696832  0.62696832  0.87559987  1.0
  O  O27  1  0.12696832  0.62696832  0.12440013  1.0
  O  O28  1  0.78539530  0.71460470  0.00000000  1.0
  O  O29  1  0.28539530  0.78539530  0.00000000  1.0
  O  O30  1  0.21460470  0.28539530  0.00000000  1.0
  O  O31  1  0.71460470  0.21460470  0.00000000  1.0
