# generated using pymatgen
data_Ga2PdBr8
_symmetry_space_group_name_H-M   'P 1'
_cell_length_a   7.93851472
_cell_length_b   7.93851472
_cell_length_c   7.84502963
_cell_angle_alpha   82.75426491
_cell_angle_beta   97.24573509
_cell_angle_gamma   110.92036870
_symmetry_Int_Tables_number   1
_chemical_formula_structural   Ga2PdBr8
_chemical_formula_sum   'Ga2 Pd1 Br8'
_cell_volume   456.35691687
_cell_formula_units_Z   1
loop_
 _symmetry_equiv_pos_site_id
 _symmetry_equiv_pos_as_xyz
  1  'x, y, z'
loop_
 _atom_site_type_symbol
 _atom_site_label
 _atom_site_symmetry_multiplicity
 _atom_site_fract_x
 _atom_site_fract_y
 _atom_site_fract_z
 _atom_site_occupancy
  Ga  Ga0  1  0.78088762  -0.78088762  0.67883902  1.0
  Ga  Ga1  1  0.21911238  -0.21911238  0.32116098  1.0
  Pd  Pd2  1  0.00000000  0.00000000  0.00000000  1.0
  Br  Br3  1  0.69605093  -0.07954348  0.84524463  1.0
  Br  Br4  1  1.07954348  0.30394907  0.84524463  1.0
  Br  Br5  1  0.92045652  -0.30394907  0.15475537  1.0
  Br  Br6  1  1.30394907  0.07954348  0.15475537  1.0
  Br  Br7  1  0.80534633  -0.80534633  0.39351789  1.0
  Br  Br8  1  0.19465367  -0.19465367  0.60648211  1.0
  Br  Br9  1  0.61402136  -0.61402136  0.73714431  1.0
  Br  Br10  1  0.38597864  -0.38597864  0.26285569  1.0
