# generated using pymatgen
data_MnCu2C8(N3O4)2
_symmetry_space_group_name_H-M   'P 1'
_cell_length_a   7.42921394
_cell_length_b   7.42921394
_cell_length_c   8.83593378
_cell_angle_alpha   68.53739642
_cell_angle_beta   111.46260358
_cell_angle_gamma   70.46096652
_symmetry_Int_Tables_number   1
_chemical_formula_structural   MnCu2C8(N3O4)2
_chemical_formula_sum   'Mn1 Cu2 C8 N6 O8'
_cell_volume   355.31904646
_cell_formula_units_Z   1
loop_
 _symmetry_equiv_pos_site_id
 _symmetry_equiv_pos_as_xyz
  1  'x, y, z'
loop_
 _atom_site_type_symbol
 _atom_site_label
 _atom_site_symmetry_multiplicity
 _atom_site_fract_x
 _atom_site_fract_y
 _atom_site_fract_z
 _atom_site_occupancy
  Mn  Mn0  1  0.50000000  -0.50000000  0.50000000  1.0
  Cu  Cu1  1  1.00000000  0.50000000  0.00000000  1.0
  Cu  Cu2  1  0.50000000  -0.00000000  0.00000000  1.0
  C  C3  1  0.73432517  -0.02201947  0.72042189  1.0
  C  C4  1  0.97798053  -0.26567483  0.27957811  1.0
  C  C5  1  1.26567483  0.02201947  0.27957811  1.0
  C  C6  1  1.02201947  0.26567483  0.72042189  1.0
  C  C7  1  0.97438610  0.91177228  0.83175199  1.0
  C  C8  1  1.91177228  -0.02561390  0.16824801  1.0
  C  C9  1  1.02561390  -0.91177228  0.16824801  1.0
  C  C10  1  0.08822772  0.02561390  0.83175199  1.0
  N  N11  1  1.13129804  0.69148415  0.98912169  1.0
  N  N12  1  1.69148415  0.13129804  0.01087831  1.0
  N  N13  1  0.86870196  -0.69148415  0.01087831  1.0
  N  N14  1  0.30851585  -0.13129804  0.98912169  1.0
  N  N15  1  0.33396559  -0.33396559  0.08596315  1.0
  N  N16  1  0.66603441  -0.66603441  0.91403685  1.0
  O  O17  1  0.69893241  -0.18250944  0.77101085  1.0
  O  O18  1  0.81749056  -0.30106759  0.22898915  1.0
  O  O19  1  1.30106759  0.18250944  0.22898915  1.0
  O  O20  1  1.18250944  0.30106759  0.77101085  1.0
  O  O21  1  1.57210690  0.18791103  0.58704544  1.0
  O  O22  1  1.18791103  0.57210690  0.41295456  1.0
  O  O23  1  0.42789310  -0.18791103  0.41295456  1.0
  O  O24  1  0.81208897  -0.57210690  0.58704544  1.0
