# generated using pymatgen
data_CaAlH5
_symmetry_space_group_name_H-M   'P 1'
_cell_length_a   4.40812464
_cell_length_b   4.96557996
_cell_length_c   12.18265198
_cell_angle_alpha   90.00000000
_cell_angle_beta   90.00000000
_cell_angle_gamma   90.00000000
_symmetry_Int_Tables_number   1
_chemical_formula_structural   CaAlH5
_chemical_formula_sum   'Ca4 Al4 H20'
_cell_volume   266.66479457
_cell_formula_units_Z   4
loop_
 _symmetry_equiv_pos_site_id
 _symmetry_equiv_pos_as_xyz
  1  'x, y, z'
loop_
 _atom_site_type_symbol
 _atom_site_label
 _atom_site_symmetry_multiplicity
 _atom_site_fract_x
 _atom_site_fract_y
 _atom_site_fract_z
 _atom_site_occupancy
  Ca  Ca0  1  0.71880057  0.63948118  0.83940360  1.0
  Ca  Ca1  1  0.21880057  0.86051882  0.16059640  1.0
  Ca  Ca2  1  0.78119943  0.36051882  0.33940360  1.0
  Ca  Ca3  1  0.28119943  0.13948118  0.66059640  1.0
  Al  Al4  1  0.31114114  0.12294551  0.91309586  1.0
  Al  Al5  1  0.81114114  0.37705449  0.08690414  1.0
  Al  Al6  1  0.18885886  0.87705449  0.41309586  1.0
  Al  Al7  1  0.68885886  0.62294551  0.58690414  1.0
  H  H8  1  0.47686869  0.87341732  0.98608835  1.0
  H  H9  1  0.97686869  0.62658268  0.01391165  1.0
  H  H10  1  0.02313131  0.12658268  0.48608835  1.0
  H  H11  1  0.52313131  0.37341732  0.51391165  1.0
  H  H12  1  0.14023762  0.90115054  0.82512158  1.0
  H  H13  1  0.64023762  0.59884946  0.17487842  1.0
  H  H14  1  0.35976238  0.09884946  0.32512158  1.0
  H  H15  1  0.85976238  0.40115054  0.67487842  1.0
  H  H16  1  0.67516653  0.10974274  0.16030183  1.0
  H  H17  1  0.17516653  0.39025726  0.83969817  1.0
  H  H18  1  0.82483347  0.89025726  0.66030183  1.0
  H  H19  1  0.32483347  0.60974274  0.33969817  1.0
  H  H20  1  0.60821099  0.12216696  0.81828091  1.0
  H  H21  1  0.10821099  0.37783304  0.18171909  1.0
  H  H22  1  0.89178901  0.87783304  0.31828091  1.0
  H  H23  1  0.39178901  0.62216696  0.68171909  1.0
  H  H24  1  1.02263784  0.12763613  0.01201575  1.0
  H  H25  1  0.52263784  0.37236387  0.98798425  1.0
  H  H26  1  0.47736216  0.87236387  0.51201575  1.0
  H  H27  1  -0.02263784  0.62763613  0.48798425  1.0
