# generated using pymatgen
data_Na2VPO6
_symmetry_space_group_name_H-M   'P 1'
_cell_length_a   6.27496909
_cell_length_b   12.55856063
_cell_length_c   8.40278592
_cell_angle_alpha   90.00000000
_cell_angle_beta   118.33450414
_cell_angle_gamma   90.00000000
_symmetry_Int_Tables_number   1
_chemical_formula_structural   Na2VPO6
_chemical_formula_sum   'Na8 V4 P4 O24'
_cell_volume   582.84358607
_cell_formula_units_Z   4
loop_
 _symmetry_equiv_pos_site_id
 _symmetry_equiv_pos_as_xyz
  1  'x, y, z'
loop_
 _atom_site_type_symbol
 _atom_site_label
 _atom_site_symmetry_multiplicity
 _atom_site_fract_x
 _atom_site_fract_y
 _atom_site_fract_z
 _atom_site_occupancy
  Na  Na0  1  0.37678062  0.14007906  0.07495643  1.0
  Na  Na1  1  0.37678062  0.35992094  0.57495643  1.0
  Na  Na2  1  0.62321938  0.64007906  0.42504357  1.0
  Na  Na3  1  0.62321938  0.85992094  0.92504357  1.0
  Na  Na4  1  0.24145933  0.07295268  0.43770425  1.0
  Na  Na5  1  0.24145933  0.42704732  0.93770425  1.0
  Na  Na6  1  0.75854067  0.57295268  0.06229575  1.0
  Na  Na7  1  0.75854067  0.92704732  0.56229575  1.0
  V  V8  1  0.90280257  0.27941196  0.12274113  1.0
  V  V9  1  0.90280257  0.22058804  0.62274113  1.0
  V  V10  1  0.09719743  0.77941196  0.37725887  1.0
  V  V11  1  0.09719743  0.72058804  0.87725887  1.0
  P  P12  1  0.70735940  0.38352900  0.30229867  1.0
  P  P13  1  0.70735940  0.11647100  0.80229867  1.0
  P  P14  1  0.29264060  0.88352900  0.19770133  1.0
  P  P15  1  0.29264060  0.61647100  0.69770133  1.0
  O  O16  1  0.97206173  0.38402726  0.32289304  1.0
  O  O17  1  0.97206173  0.11597274  0.82289304  1.0
  O  O18  1  0.02793827  0.88402726  0.17710696  1.0
  O  O19  1  0.02793827  0.61597274  0.67710696  1.0
  O  O20  1  0.91523715  0.14111689  0.47316122  1.0
  O  O21  1  0.91523715  0.35888311  0.97316122  1.0
  O  O22  1  0.08476285  0.64111689  0.02683878  1.0
  O  O23  1  0.08476285  0.85888311  0.52683878  1.0
  O  O24  1  0.83764337  0.71598038  0.26916854  1.0
  O  O25  1  0.83764337  0.78401962  0.76916854  1.0
  O  O26  1  0.16235663  0.21598038  0.23083146  1.0
  O  O27  1  0.16235663  0.28401962  0.73083146  1.0
  O  O28  1  0.70943616  0.34223658  0.47848796  1.0
  O  O29  1  0.70943616  0.15776342  0.97848796  1.0
  O  O30  1  0.29056384  0.84223658  0.02151204  1.0
  O  O31  1  0.29056384  0.65776342  0.52151204  1.0
  O  O32  1  0.59248035  0.29909050  0.14498412  1.0
  O  O33  1  0.59248035  0.20090950  0.64498412  1.0
  O  O34  1  0.40751965  0.79909050  0.35501588  1.0
  O  O35  1  0.40751965  0.70090950  0.85501588  1.0
  O  O36  1  0.57901081  0.49036160  0.24304787  1.0
  O  O37  1  0.57901081  0.00963840  0.74304787  1.0
  O  O38  1  0.42098919  0.99036160  0.25695213  1.0
  O  O39  1  0.42098919  0.50963840  0.75695213  1.0
