# generated using pymatgen
data_Hf3B2Ir5
_symmetry_space_group_name_H-M   'P 1'
_cell_length_a   9.28771216
_cell_length_b   9.28771216
_cell_length_c   3.38480762
_cell_angle_alpha   90.00000000
_cell_angle_beta   90.00000000
_cell_angle_gamma   90.00000000
_symmetry_Int_Tables_number   1
_chemical_formula_structural   Hf3B2Ir5
_chemical_formula_sum   'Hf6 B4 Ir10'
_cell_volume   291.97891170
_cell_formula_units_Z   2
loop_
 _symmetry_equiv_pos_site_id
 _symmetry_equiv_pos_as_xyz
  1  'x, y, z'
loop_
 _atom_site_type_symbol
 _atom_site_label
 _atom_site_symmetry_multiplicity
 _atom_site_fract_x
 _atom_site_fract_y
 _atom_site_fract_z
 _atom_site_occupancy
  Hf  Hf0  1  0.50000000  0.50000000  0.00000000  1.0
  Hf  Hf1  1  0.00000000  0.00000000  0.00000000  1.0
  Hf  Hf2  1  0.32379651  0.17620349  0.00000000  1.0
  Hf  Hf3  1  0.82379651  0.32379651  0.00000000  1.0
  Hf  Hf4  1  0.67620349  0.82379651  0.00000000  1.0
  Hf  Hf5  1  0.17620349  0.67620349  0.00000000  1.0
  B  B6  1  0.88077772  0.61922228  0.00000000  1.0
  B  B7  1  0.38077772  0.88077772  0.00000000  1.0
  B  B8  1  0.11922228  0.38077772  0.00000000  1.0
  B  B9  1  0.61922228  0.11922228  0.00000000  1.0
  Ir  Ir10  1  0.50000000  0.00000000  0.50000000  1.0
  Ir  Ir11  1  0.00000000  0.50000000  0.50000000  1.0
  Ir  Ir12  1  0.42753290  0.72048223  0.50000000  1.0
  Ir  Ir13  1  0.92753290  0.77951777  0.50000000  1.0
  Ir  Ir14  1  0.27951777  0.42753290  0.50000000  1.0
  Ir  Ir15  1  0.77951777  0.07246710  0.50000000  1.0
  Ir  Ir16  1  0.57246710  0.27951777  0.50000000  1.0
  Ir  Ir17  1  0.07246710  0.22048223  0.50000000  1.0
  Ir  Ir18  1  0.72048223  0.57246710  0.50000000  1.0
  Ir  Ir19  1  0.22048223  0.92753290  0.50000000  1.0
