# generated using pymatgen
data_Rb3AsSe16
_symmetry_space_group_name_H-M   'P 1'
_cell_length_a   12.08260514
_cell_length_b   12.08260514
_cell_length_c   12.08260514
_cell_angle_alpha   60.00000000
_cell_angle_beta   60.00000000
_cell_angle_gamma   60.00000000
_symmetry_Int_Tables_number   1
_chemical_formula_structural   Rb3AsSe16
_chemical_formula_sum   'Rb6 As2 Se32'
_cell_volume   1247.28801979
_cell_formula_units_Z   2
loop_
 _symmetry_equiv_pos_site_id
 _symmetry_equiv_pos_as_xyz
  1  'x, y, z'
loop_
 _atom_site_type_symbol
 _atom_site_label
 _atom_site_symmetry_multiplicity
 _atom_site_fract_x
 _atom_site_fract_y
 _atom_site_fract_z
 _atom_site_occupancy
  Rb  Rb0  1  0.12500000  0.62500000  0.12500000  1.0
  Rb  Rb1  1  0.62500000  0.12500000  0.12500000  1.0
  Rb  Rb2  1  0.12500000  1.12500000  0.12500000  1.0
  Rb  Rb3  1  0.12500000  0.12500000  0.62500000  1.0
  Rb  Rb4  1  -0.25000000  0.75000000  0.75000000  1.0
  Rb  Rb5  1  0.50000000  0.50000000  0.50000000  1.0
  As  As6  1  0.25000000  1.25000000  0.25000000  1.0
  As  As7  1  0.00000000  -0.00000000  1.00000000  1.0
  Se  Se8  1  -0.18774128  1.07395779  0.66297667  1.0
  Se  Se9  1  0.07395779  0.81225872  0.45080682  1.0
  Se  Se10  1  -0.33702333  0.45080682  0.81225872  1.0
  Se  Se11  1  -0.54919318  0.66297667  1.07395779  1.0
  Se  Se12  1  0.66297667  0.07395779  0.45080682  1.0
  Se  Se13  1  0.45080682  -0.18774128  0.66297667  1.0
  Se  Se14  1  -0.18774128  0.45080682  1.07395779  1.0
  Se  Se15  1  0.07395779  0.66297667  0.81225872  1.0
  Se  Se16  1  -0.54919318  1.07395779  0.81225872  1.0
  Se  Se17  1  -0.33702333  0.81225872  1.07395779  1.0
  Se  Se18  1  0.07395779  0.45080682  0.66297667  1.0
  Se  Se19  1  -0.18774128  0.66297667  0.45080682  1.0
  Se  Se20  1  0.43774128  0.17604221  0.58702333  1.0
  Se  Se21  1  0.17604221  0.43774128  0.79919318  1.0
  Se  Se22  1  0.58702333  0.79919318  0.43774128  1.0
  Se  Se23  1  0.79919318  0.58702333  0.17604221  1.0
  Se  Se24  1  -0.41297667  1.17604221  0.79919318  1.0
  Se  Se25  1  0.79919318  0.43774128  -0.41297667  1.0
  Se  Se26  1  0.43774128  0.79919318  0.17604221  1.0
  Se  Se27  1  0.17604221  0.58702333  0.43774128  1.0
  Se  Se28  1  0.79919318  0.17604221  0.43774128  1.0
  Se  Se29  1  0.58702333  0.43774128  0.17604221  1.0
  Se  Se30  1  0.17604221  0.79919318  0.58702333  1.0
  Se  Se31  1  0.43774128  0.58702333  0.79919318  1.0
  Se  Se32  1  0.00961783  1.33012739  0.33012739  1.0
  Se  Se33  1  0.33012739  1.00961783  0.33012739  1.0
  Se  Se34  1  0.33012739  0.33012739  0.00961783  1.0
  Se  Se35  1  0.33012739  0.33012739  0.33012739  1.0
  Se  Se36  1  0.24038217  -0.08012739  0.91987261  1.0
  Se  Se37  1  -0.08012739  0.24038217  0.91987261  1.0
  Se  Se38  1  0.91987261  -0.08012739  0.24038217  1.0
  Se  Se39  1  -0.08012739  0.91987261  0.91987261  1.0
