# generated using pymatgen
data_Ca3(GeAs2)2
_symmetry_space_group_name_H-M   'P 1'
_cell_length_a   7.34252863
_cell_length_b   18.09527233
_cell_length_c   7.31791115
_cell_angle_alpha   90.00000000
_cell_angle_beta   111.74639040
_cell_angle_gamma   90.00000000
_symmetry_Int_Tables_number   1
_chemical_formula_structural   Ca3(GeAs2)2
_chemical_formula_sum   'Ca12 Ge8 As16'
_cell_volume   903.09927268
_cell_formula_units_Z   4
loop_
 _symmetry_equiv_pos_site_id
 _symmetry_equiv_pos_as_xyz
  1  'x, y, z'
loop_
 _atom_site_type_symbol
 _atom_site_label
 _atom_site_symmetry_multiplicity
 _atom_site_fract_x
 _atom_site_fract_y
 _atom_site_fract_z
 _atom_site_occupancy
  Ca  Ca0  1  0.78338706  0.18327355  0.98681232  1.0
  Ca  Ca1  1  0.78338706  0.31672645  0.48681232  1.0
  Ca  Ca2  1  0.21661294  0.68327355  0.51318768  1.0
  Ca  Ca3  1  0.21661294  0.81672645  0.01318768  1.0
  Ca  Ca4  1  0.74442791  0.44296810  0.98798638  1.0
  Ca  Ca5  1  0.74442791  0.05703190  0.48798638  1.0
  Ca  Ca6  1  0.25557209  0.94296810  0.51201362  1.0
  Ca  Ca7  1  0.25557209  0.55703190  0.01201362  1.0
  Ca  Ca8  1  0.73625029  0.93669669  0.99830511  1.0
  Ca  Ca9  1  0.73625029  0.56330331  0.49830511  1.0
  Ca  Ca10  1  0.26374971  0.43669669  0.50169489  1.0
  Ca  Ca11  1  0.26374971  0.06330331  0.00169489  1.0
  Ge  Ge12  1  0.79059227  0.62673628  0.96895391  1.0
  Ge  Ge13  1  0.79059227  0.87326372  0.46895391  1.0
  Ge  Ge14  1  0.20940773  0.12673628  0.53104609  1.0
  Ge  Ge15  1  0.20940773  0.37326372  0.03104609  1.0
  Ge  Ge16  1  0.68027892  0.75872876  0.57921818  1.0
  Ge  Ge17  1  0.68027892  0.74127124  0.07921818  1.0
  Ge  Ge18  1  0.31972108  0.25872876  0.92078182  1.0
  Ge  Ge19  1  0.31972108  0.24127124  0.42078182  1.0
  As  As20  1  0.99914005  0.94117414  0.75789366  1.0
  As  As21  1  0.99914005  0.55882586  0.25789366  1.0
  As  As22  1  0.00085995  0.44117414  0.74210634  1.0
  As  As23  1  0.00085995  0.05882586  0.24210634  1.0
  As  As24  1  0.97323085  0.68629214  0.77773009  1.0
  As  As25  1  0.97323085  0.81370786  0.27773009  1.0
  As  As26  1  0.02676915  0.18629214  0.72226991  1.0
  As  As27  1  0.02676915  0.31370786  0.22226991  1.0
  As  As28  1  0.49119050  0.56564260  0.75055948  1.0
  As  As29  1  0.49119050  0.93435740  0.25055948  1.0
  As  As30  1  0.50880950  0.06564260  0.74944052  1.0
  As  As31  1  0.50880950  0.43435740  0.24944052  1.0
  As  As32  1  0.48091223  0.80516708  0.76652527  1.0
  As  As33  1  0.48091223  0.69483292  0.26652527  1.0
  As  As34  1  0.51908777  0.30516708  0.73347473  1.0
  As  As35  1  0.51908777  0.19483292  0.23347473  1.0
