# generated using pymatgen
data_BaNiN
_symmetry_space_group_name_H-M   'P 1'
_cell_length_a   9.71857691
_cell_length_b   13.76097868
_cell_length_c   5.44728910
_cell_angle_alpha   90.00000000
_cell_angle_beta   90.00000000
_cell_angle_gamma   90.00000000
_symmetry_Int_Tables_number   1
_chemical_formula_structural   BaNiN
_chemical_formula_sum   'Ba12 Ni12 N12'
_cell_volume   728.50480858
_cell_formula_units_Z   12
loop_
 _symmetry_equiv_pos_site_id
 _symmetry_equiv_pos_as_xyz
  1  'x, y, z'
loop_
 _atom_site_type_symbol
 _atom_site_label
 _atom_site_symmetry_multiplicity
 _atom_site_fract_x
 _atom_site_fract_y
 _atom_site_fract_z
 _atom_site_occupancy
  Ba  Ba0  1  0.32672378  0.91275806  0.97224516  1.0
  Ba  Ba1  1  0.32672378  0.58724194  0.97224516  1.0
  Ba  Ba2  1  0.82672378  0.91275806  0.52775484  1.0
  Ba  Ba3  1  0.82672378  0.58724194  0.52775484  1.0
  Ba  Ba4  1  0.67327622  0.41275806  0.02775484  1.0
  Ba  Ba5  1  0.67327622  0.08724194  0.02775484  1.0
  Ba  Ba6  1  0.17327622  0.41275806  0.47224516  1.0
  Ba  Ba7  1  0.17327622  0.08724194  0.47224516  1.0
  Ba  Ba8  1  0.49466601  0.75000000  0.52093189  1.0
  Ba  Ba9  1  0.99466601  0.75000000  0.97906811  1.0
  Ba  Ba10  1  0.50533399  0.25000000  0.47906811  1.0
  Ba  Ba11  1  0.00533399  0.25000000  0.02093189  1.0
  Ni  Ni12  1  0.35636883  0.33781662  0.93759162  1.0
  Ni  Ni13  1  0.35636883  0.16218338  0.93759162  1.0
  Ni  Ni14  1  0.85636883  0.33781662  0.56240838  1.0
  Ni  Ni15  1  0.85636883  0.16218338  0.56240838  1.0
  Ni  Ni16  1  0.64363117  0.83781662  0.06240838  1.0
  Ni  Ni17  1  0.64363117  0.66218338  0.06240838  1.0
  Ni  Ni18  1  0.14363117  0.83781662  0.43759162  1.0
  Ni  Ni19  1  0.14363117  0.66218338  0.43759162  1.0
  Ni  Ni20  1  0.50000000  0.00000000  0.50000000  1.0
  Ni  Ni21  1  0.50000000  0.50000000  0.50000000  1.0
  Ni  Ni22  1  0.00000000  0.00000000  0.00000000  1.0
  Ni  Ni23  1  0.00000000  0.50000000  0.00000000  1.0
  N  N24  1  0.42844295  0.42323192  0.72444456  1.0
  N  N25  1  0.42844295  0.07676808  0.72444456  1.0
  N  N26  1  0.92844295  0.42323192  0.77555544  1.0
  N  N27  1  0.92844295  0.07676808  0.77555544  1.0
  N  N28  1  0.57155705  0.92323192  0.27555544  1.0
  N  N29  1  0.57155705  0.57676808  0.27555544  1.0
  N  N30  1  0.07155705  0.92323192  0.22444456  1.0
  N  N31  1  0.07155705  0.57676808  0.22444456  1.0
  N  N32  1  0.21879030  0.75000000  0.64950931  1.0
  N  N33  1  0.71879030  0.75000000  0.85049069  1.0
  N  N34  1  0.78120970  0.25000000  0.35049069  1.0
  N  N35  1  0.28120970  0.25000000  0.14950931  1.0
