# generated using pymatgen
data_Rb6Cl4O
_symmetry_space_group_name_H-M   'P 1'
_cell_length_a   9.17281941
_cell_length_b   9.17281941
_cell_length_c   9.17281941
_cell_angle_alpha   89.40909367
_cell_angle_beta   89.40909367
_cell_angle_gamma   89.40909367
_symmetry_Int_Tables_number   1
_chemical_formula_structural   Rb6Cl4O
_chemical_formula_sum   'Rb12 Cl8 O2'
_cell_volume   771.68437900
_cell_formula_units_Z   2
loop_
 _symmetry_equiv_pos_site_id
 _symmetry_equiv_pos_as_xyz
  1  'x, y, z'
loop_
 _atom_site_type_symbol
 _atom_site_label
 _atom_site_symmetry_multiplicity
 _atom_site_fract_x
 _atom_site_fract_y
 _atom_site_fract_z
 _atom_site_occupancy
  Rb  Rb0  1  0.21679945  0.43054355  -0.44412253  1.0
  Rb  Rb1  1  0.71679945  0.05587747  -0.06945645  1.0
  Rb  Rb2  1  0.94412253  0.06945645  -0.71679945  1.0
  Rb  Rb3  1  0.44412253  0.78320055  -0.43054355  1.0
  Rb  Rb4  1  0.56945645  0.44412253  -0.21679945  1.0
  Rb  Rb5  1  1.06945645  -0.71679945  -0.05587747  1.0
  Rb  Rb6  1  0.78320055  0.56945645  -0.55587747  1.0
  Rb  Rb7  1  0.28320055  -0.05587747  0.06945645  1.0
  Rb  Rb8  1  0.55587747  0.21679945  -0.56945645  1.0
  Rb  Rb9  1  1.05587747  -0.06945645  -0.28320055  1.0
  Rb  Rb10  1  0.93054355  -0.28320055  0.05587747  1.0
  Rb  Rb11  1  0.43054355  0.55587747  -0.78320055  1.0
  Cl  Cl12  1  0.87540815  0.25000000  -0.37540815  1.0
  Cl  Cl13  1  0.37540815  0.12459185  -0.25000000  1.0
  Cl  Cl14  1  0.75000000  0.37540815  -0.87540815  1.0
  Cl  Cl15  1  0.25000000  0.62459185  -0.12459185  1.0
  Cl  Cl16  1  0.12459185  0.75000000  -0.62459185  1.0
  Cl  Cl17  1  0.62459185  -0.12459185  0.25000000  1.0
  Cl  Cl18  1  1.25000000  1.25000000  0.25000000  1.0
  Cl  Cl19  1  0.75000000  0.75000000  -0.25000000  1.0
  O  O20  1  0.50000000  0.50000000  -0.50000000  1.0
  O  O21  1  0.00000000  0.00000000  0.00000000  1.0
