# generated using pymatgen
data_Ca11Bi10
_symmetry_space_group_name_H-M   'P 1'
_cell_length_a   12.47144629
_cell_length_b   12.47144629
_cell_length_c   12.47144629
_cell_angle_alpha   120.65194970
_cell_angle_beta   120.65194970
_cell_angle_gamma   88.87445108
_symmetry_Int_Tables_number   1
_chemical_formula_structural   Ca11Bi10
_chemical_formula_sum   'Ca22 Bi20'
_cell_volume   1357.82477147
_cell_formula_units_Z   2
loop_
 _symmetry_equiv_pos_site_id
 _symmetry_equiv_pos_as_xyz
  1  'x, y, z'
loop_
 _atom_site_type_symbol
 _atom_site_label
 _atom_site_symmetry_multiplicity
 _atom_site_fract_x
 _atom_site_fract_y
 _atom_site_fract_z
 _atom_site_occupancy
  Ca  Ca0  1  0.43944831  0.69029498  0.74915333  1.0
  Ca  Ca1  1  1.05885835  0.30970502  0.74915333  1.0
  Ca  Ca2  1  0.94114165  0.69029498  1.25084667  1.0
  Ca  Ca3  1  0.56055169  0.30970502  0.25084667  1.0
  Ca  Ca4  1  0.69029498  0.43944831  0.74915333  1.0
  Ca  Ca5  1  0.30970502  1.05885835  0.74915333  1.0
  Ca  Ca6  1  0.69029498  0.94114165  1.25084667  1.0
  Ca  Ca7  1  0.30970502  0.56055169  0.25084667  1.0
  Ca  Ca8  1  0.55483596  0.89642723  0.65840873  1.0
  Ca  Ca9  1  0.76198150  0.10357277  0.65840873  1.0
  Ca  Ca10  1  1.23801850  0.89642723  1.34159127  1.0
  Ca  Ca11  1  0.44516404  0.10357277  0.34159127  1.0
  Ca  Ca12  1  0.89642723  0.55483596  0.65840873  1.0
  Ca  Ca13  1  0.10357277  0.76198150  0.65840873  1.0
  Ca  Ca14  1  0.89642723  1.23801850  1.34159127  1.0
  Ca  Ca15  1  0.10357277  0.44516404  0.34159127  1.0
  Ca  Ca16  1  0.66080106  0.66080106  1.32160212  1.0
  Ca  Ca17  1  0.33919894  0.66080106  1.00000000  1.0
  Ca  Ca18  1  0.66080106  0.33919894  1.00000000  1.0
  Ca  Ca19  1  0.33919894  0.33919894  0.67839788  1.0
  Ca  Ca20  1  0.83463766  0.83463766  1.00000000  1.0
  Ca  Ca21  1  0.16536234  0.16536234  0.00000000  1.0
  Bi  Bi22  1  0.62323411  0.62323411  0.59144638  1.0
  Bi  Bi23  1  0.96821227  0.96821227  1.59144638  1.0
  Bi  Bi24  1  1.03178773  0.62323411  1.00000000  1.0
  Bi  Bi25  1  0.37676589  0.96821227  1.00000000  1.0
  Bi  Bi26  1  0.62323411  1.03178773  1.00000000  1.0
  Bi  Bi27  1  0.96821227  0.37676589  1.00000000  1.0
  Bi  Bi28  1  1.03178773  1.03178773  1.40855362  1.0
  Bi  Bi29  1  0.37676589  0.37676589  0.40855362  1.0
  Bi  Bi30  1  0.50000000  0.84759149  1.34759149  1.0
  Bi  Bi31  1  0.84759149  0.50000000  1.34759149  1.0
  Bi  Bi32  1  0.15240851  0.50000000  0.65240851  1.0
  Bi  Bi33  1  0.50000000  0.15240851  0.65240851  1.0
  Bi  Bi34  1  0.86908201  0.86908201  1.73816402  1.0
  Bi  Bi35  1  0.13091799  0.86908201  1.00000000  1.0
  Bi  Bi36  1  0.86908201  0.13091799  1.00000000  1.0
  Bi  Bi37  1  0.13091799  0.13091799  0.26183598  1.0
  Bi  Bi38  1  0.62839345  0.62839345  1.00000000  1.0
  Bi  Bi39  1  0.37160655  0.37160655  0.00000000  1.0
  Bi  Bi40  1  0.25000000  0.75000000  0.50000000  1.0
  Bi  Bi41  1  0.75000000  0.25000000  0.50000000  1.0
