# generated using pymatgen
data_NaAg(CN)2
_symmetry_space_group_name_H-M   'P 1'
_cell_length_a   3.79018623
_cell_length_b   3.79018623
_cell_length_c   18.32003213
_cell_angle_alpha   95.95334934
_cell_angle_beta   84.04665066
_cell_angle_gamma   120.00085025
_symmetry_Int_Tables_number   1
_chemical_formula_structural   NaAg(CN)2
_chemical_formula_sum   'Na2 Ag2 C4 N4'
_cell_volume   226.27526473
_cell_formula_units_Z   2
loop_
 _symmetry_equiv_pos_site_id
 _symmetry_equiv_pos_as_xyz
  1  'x, y, z'
loop_
 _atom_site_type_symbol
 _atom_site_label
 _atom_site_symmetry_multiplicity
 _atom_site_fract_x
 _atom_site_fract_y
 _atom_site_fract_z
 _atom_site_occupancy
  Na  Na0  1  0.27747024  0.27747024  0.75000000  1.0
  Na  Na1  1  0.72252976  0.72252976  0.25000000  1.0
  Ag  Ag2  1  0.50000000  -0.00000000  -0.00000000  1.0
  Ag  Ag3  1  1.00000000  0.50000000  0.50000000  1.0
  C  C4  1  0.55635829  -0.01828770  0.88791732  1.0
  C  C5  1  1.01828770  0.44364171  0.38791732  1.0
  C  C6  1  0.98171230  0.55635829  0.61208268  1.0
  C  C7  1  0.44364171  0.01828770  0.11208268  1.0
  N  N8  1  0.58775410  -0.02988876  0.82358263  1.0
  N  N9  1  1.02988876  0.41224590  0.32358263  1.0
  N  N10  1  0.97011124  0.58775410  0.67641737  1.0
  N  N11  1  0.41224590  0.02988876  0.17641737  1.0
