# generated using pymatgen
data_SiO2
_symmetry_space_group_name_H-M   'P 1'
_cell_length_a   7.56120017
_cell_length_b   7.56120017
_cell_length_c   9.18971841
_cell_angle_alpha   90.00000000
_cell_angle_beta   90.00000000
_cell_angle_gamma   90.00000000
_symmetry_Int_Tables_number   1
_chemical_formula_structural   SiO2
_chemical_formula_sum   'Si12 O24'
_cell_volume   525.39226534
_cell_formula_units_Z   12
loop_
 _symmetry_equiv_pos_site_id
 _symmetry_equiv_pos_as_xyz
  1  'x, y, z'
loop_
 _atom_site_type_symbol
 _atom_site_label
 _atom_site_symmetry_multiplicity
 _atom_site_fract_x
 _atom_site_fract_y
 _atom_site_fract_z
 _atom_site_occupancy
  Si  Si0  1  0.42537357  0.57462643  0.25000000  1.0
  Si  Si1  1  0.92537357  0.92537357  0.50000000  1.0
  Si  Si2  1  0.57462643  0.42537357  0.75000000  1.0
  Si  Si3  1  0.07462643  0.07462643  0.00000000  1.0
  Si  Si4  1  0.12616722  0.66398469  0.02596155  1.0
  Si  Si5  1  0.62616722  0.83601531  0.72403845  1.0
  Si  Si6  1  0.33601531  0.87383278  0.47403845  1.0
  Si  Si7  1  0.83601531  0.62616722  0.27596155  1.0
  Si  Si8  1  0.87383278  0.33601531  0.52596155  1.0
  Si  Si9  1  0.37383278  0.16398469  0.22403845  1.0
  Si  Si10  1  0.66398469  0.12616722  0.97403845  1.0
  Si  Si11  1  0.16398469  0.37383278  0.77596155  1.0
  O  O12  1  0.31668560  0.63944852  0.10660563  1.0
  O  O13  1  0.81668560  0.86055148  0.64339437  1.0
  O  O14  1  0.36055148  0.68331440  0.39339437  1.0
  O  O15  1  0.86055148  0.81668560  0.35660563  1.0
  O  O16  1  0.68331440  0.36055148  0.60660563  1.0
  O  O17  1  0.18331440  0.13944852  0.14339437  1.0
  O  O18  1  0.63944852  0.31668560  0.89339437  1.0
  O  O19  1  0.13944852  0.18331440  0.85660563  1.0
  O  O20  1  0.11508474  0.53438624  0.88600403  1.0
  O  O21  1  0.61508474  0.96561376  0.86399597  1.0
  O  O22  1  0.46561376  0.88491526  0.61399597  1.0
  O  O23  1  0.96561376  0.61508474  0.13600403  1.0
  O  O24  1  0.88491526  0.46561376  0.38600403  1.0
  O  O25  1  0.38491526  0.03438624  0.36399597  1.0
  O  O26  1  0.53438624  0.11508474  0.11399597  1.0
  O  O27  1  0.03438624  0.38491526  0.63600403  1.0
  O  O28  1  0.10945213  0.86622502  0.96829450  1.0
  O  O29  1  0.60945213  0.63377498  0.78170550  1.0
  O  O30  1  0.13377498  0.89054787  0.53170550  1.0
  O  O31  1  0.63377498  0.60945213  0.21829450  1.0
  O  O32  1  0.89054787  0.13377498  0.46829450  1.0
  O  O33  1  0.39054787  0.36622502  0.28170550  1.0
  O  O34  1  0.86622502  0.10945213  0.03170550  1.0
  O  O35  1  0.36622502  0.39054787  0.71829450  1.0
