# generated using pymatgen
data_NaFeP2O7
_symmetry_space_group_name_H-M   'P 1'
_cell_length_a   7.45220388
_cell_length_b   8.05851792
_cell_length_c   9.72667494
_cell_angle_alpha   90.00000000
_cell_angle_beta   111.64363848
_cell_angle_gamma   90.00000000
_symmetry_Int_Tables_number   1
_chemical_formula_structural   NaFeP2O7
_chemical_formula_sum   'Na4 Fe4 P8 O28'
_cell_volume   542.93989715
_cell_formula_units_Z   4
loop_
 _symmetry_equiv_pos_site_id
 _symmetry_equiv_pos_as_xyz
  1  'x, y, z'
loop_
 _atom_site_type_symbol
 _atom_site_label
 _atom_site_symmetry_multiplicity
 _atom_site_fract_x
 _atom_site_fract_y
 _atom_site_fract_z
 _atom_site_occupancy
  Fe  Fe0  1  0.74073350  0.98942302  0.74835879  1.0
  Fe  Fe1  1  0.74073350  0.51057698  0.24835879  1.0
  Fe  Fe2  1  0.25926650  0.48942302  0.75164121  1.0
  Fe  Fe3  1  0.25926650  0.01057698  0.25164121  1.0
  O  O4  1  0.87475772  0.34591497  0.93793577  1.0
  O  O5  1  0.87475772  0.15408503  0.43793577  1.0
  O  O6  1  0.12524228  0.84591497  0.56206423  1.0
  O  O7  1  0.12524228  0.65408503  0.06206423  1.0
  O  O8  1  0.46836146  0.91195135  0.65163274  1.0
  O  O9  1  0.46836146  0.58804865  0.15163274  1.0
  O  O10  1  0.53163854  0.41195135  0.84836726  1.0
  O  O11  1  0.53163854  0.08804865  0.34836726  1.0
  O  O12  1  0.98887686  0.58493864  0.63831716  1.0
  O  O13  1  0.98887686  0.91506136  0.13831716  1.0
  O  O14  1  0.01112314  0.08493864  0.86168284  1.0
  O  O15  1  0.01112314  0.41506136  0.36168284  1.0
  O  O16  1  0.82013315  0.86456891  0.60842713  1.0
  O  O17  1  0.82013315  0.63543109  0.10842713  1.0
  O  O18  1  0.17986685  0.36456891  0.89157287  1.0
  O  O19  1  0.17986685  0.13543109  0.39157287  1.0
  O  O20  1  0.81520520  0.78462448  0.88034310  1.0
  O  O21  1  0.81520520  0.71537552  0.38034310  1.0
  O  O22  1  0.18479480  0.28462448  0.61965690  1.0
  O  O23  1  0.18479480  0.21537552  0.11965690  1.0
  O  O24  1  0.36519776  0.60637435  0.60347992  1.0
  O  O25  1  0.36519776  0.89362565  0.10347992  1.0
  O  O26  1  0.63480224  0.10637435  0.89652008  1.0
  O  O27  1  0.63480224  0.39362565  0.39652008  1.0
  O  O28  1  0.30830864  0.70153100  0.88480840  1.0
  O  O29  1  0.30830864  0.79846900  0.38480840  1.0
  O  O30  1  0.69169136  0.20153100  0.61519160  1.0
  O  O31  1  0.69169136  0.29846900  0.11519160  1.0
  Na  Na32  1  0.71141728  0.52315915  0.70825487  1.0
  Na  Na33  1  0.71141728  0.97684085  0.20825487  1.0
  Na  Na34  1  0.28858272  0.02315915  0.79174513  1.0
  Na  Na35  1  0.28858272  0.47684085  0.29174513  1.0
  P  P36  1  0.67178601  0.28709362  0.95291223  1.0
  P  P37  1  0.67178601  0.21290638  0.45291223  1.0
  P  P38  1  0.32821399  0.78709362  0.54708777  1.0
  P  P39  1  0.32821399  0.71290638  0.04708777  1.0
  P  P40  1  0.92919855  0.74461357  0.54549883  1.0
  P  P41  1  0.92919855  0.75538643  0.04549883  1.0
  P  P42  1  0.07080145  0.24461357  0.95450117  1.0
  P  P43  1  0.07080145  0.25538643  0.45450117  1.0
