# generated using pymatgen
data_Sn4Pt
_symmetry_space_group_name_H-M   'P 1'
_cell_length_a   6.66876998
_cell_length_b   6.66876998
_cell_length_c   6.51697657
_cell_angle_alpha   90.00000000
_cell_angle_beta   90.00000000
_cell_angle_gamma   121.39204346
_symmetry_Int_Tables_number   1
_chemical_formula_structural   Sn4Pt
_chemical_formula_sum   'Sn8 Pt2'
_cell_volume   247.40234700
_cell_formula_units_Z   2
loop_
 _symmetry_equiv_pos_site_id
 _symmetry_equiv_pos_as_xyz
  1  'x, y, z'
loop_
 _atom_site_type_symbol
 _atom_site_label
 _atom_site_symmetry_multiplicity
 _atom_site_fract_x
 _atom_site_fract_y
 _atom_site_fract_z
 _atom_site_occupancy
  Sn  Sn0  1  0.04144542  0.29195009  0.66697209  1.0
  Sn  Sn1  1  0.70804991  0.95855458  0.33302791  1.0
  Sn  Sn2  1  0.54144542  0.79195009  0.83302791  1.0
  Sn  Sn3  1  0.20804991  0.45855458  0.16697209  1.0
  Sn  Sn4  1  0.45855458  1.20804991  0.83302791  1.0
  Sn  Sn5  1  -0.20804991  0.54144542  0.16697209  1.0
  Sn  Sn6  1  -0.04144542  0.70804991  0.66697209  1.0
  Sn  Sn7  1  0.29195009  1.04144542  0.33302791  1.0
  Pt  Pt8  1  0.50000000  0.50000000  0.50000000  1.0
  Pt  Pt9  1  0.00000000  0.00000000  0.00000000  1.0
