# generated using pymatgen
data_Zr2Fe3Ge
_symmetry_space_group_name_H-M   'P 1'
_cell_length_a   5.01337288
_cell_length_b   5.01337288
_cell_length_c   8.17606161
_cell_angle_alpha   90.00000000
_cell_angle_beta   90.00000000
_cell_angle_gamma   120.00000000
_symmetry_Int_Tables_number   1
_chemical_formula_structural   Zr2Fe3Ge
_chemical_formula_sum   'Zr4 Fe6 Ge2'
_cell_volume   177.96508342
_cell_formula_units_Z   2
loop_
 _symmetry_equiv_pos_site_id
 _symmetry_equiv_pos_as_xyz
  1  'x, y, z'
loop_
 _atom_site_type_symbol
 _atom_site_label
 _atom_site_symmetry_multiplicity
 _atom_site_fract_x
 _atom_site_fract_y
 _atom_site_fract_z
 _atom_site_occupancy
  Zr  Zr0  1  0.33333333  0.66666667  0.43432968  1.0
  Zr  Zr1  1  0.66666667  0.33333333  0.56567032  1.0
  Zr  Zr2  1  0.66666667  0.33333333  0.93432968  1.0
  Zr  Zr3  1  0.33333333  0.66666667  0.06567032  1.0
  Fe  Fe4  1  0.82705451  0.17294549  0.25000000  1.0
  Fe  Fe5  1  0.82705451  0.65410901  0.25000000  1.0
  Fe  Fe6  1  0.34589099  0.17294549  0.25000000  1.0
  Fe  Fe7  1  0.17294549  0.82705451  0.75000000  1.0
  Fe  Fe8  1  0.17294549  0.34589099  0.75000000  1.0
  Fe  Fe9  1  0.65410901  0.82705451  0.75000000  1.0
  Ge  Ge10  1  0.00000000  0.00000000  0.50000000  1.0
  Ge  Ge11  1  0.00000000  0.00000000  0.00000000  1.0
