# generated using pymatgen
data_InS
_symmetry_space_group_name_H-M   'P 1'
_cell_length_a   6.33881319
_cell_length_b   6.33881319
_cell_length_c   6.33881319
_cell_angle_alpha   142.96597480
_cell_angle_beta   142.96597480
_cell_angle_gamma   53.37636733
_symmetry_Int_Tables_number   1
_chemical_formula_structural   InS
_chemical_formula_sum   'In2 S2'
_cell_volume   91.80878442
_cell_formula_units_Z   2
loop_
 _symmetry_equiv_pos_site_id
 _symmetry_equiv_pos_as_xyz
  1  'x, y, z'
loop_
 _atom_site_type_symbol
 _atom_site_label
 _atom_site_symmetry_multiplicity
 _atom_site_fract_x
 _atom_site_fract_y
 _atom_site_fract_z
 _atom_site_occupancy
  In  In0  1  0.87527384  0.87527384  1.00000000  1.0
  In  In1  1  0.12472616  0.12472616  -0.00000000  1.0
  S  S2  1  0.65063214  0.65063214  1.00000000  1.0
  S  S3  1  0.34936786  0.34936786  -0.00000000  1.0
