# generated using pymatgen
data_ScCuGe
_symmetry_space_group_name_H-M   'P 1'
_cell_length_a   6.71362987
_cell_length_b   6.71362987
_cell_length_c   3.82972193
_cell_angle_alpha   90.00000000
_cell_angle_beta   90.00000000
_cell_angle_gamma   120.00000000
_symmetry_Int_Tables_number   1
_chemical_formula_structural   ScCuGe
_chemical_formula_sum   'Sc3 Cu3 Ge3'
_cell_volume   149.49017931
_cell_formula_units_Z   3
loop_
 _symmetry_equiv_pos_site_id
 _symmetry_equiv_pos_as_xyz
  1  'x, y, z'
loop_
 _atom_site_type_symbol
 _atom_site_label
 _atom_site_symmetry_multiplicity
 _atom_site_fract_x
 _atom_site_fract_y
 _atom_site_fract_z
 _atom_site_occupancy
  Sc  Sc0  1  0.39806130  0.39806130  0.00000000  1.0
  Sc  Sc1  1  -0.00000000  0.60193870  -0.00000000  1.0
  Sc  Sc2  1  0.60193870  0.00000000  -0.00000000  1.0
  Cu  Cu3  1  0.33333333  0.66666667  0.50000000  1.0
  Cu  Cu4  1  0.66666667  0.33333333  0.50000000  1.0
  Cu  Cu5  1  0.00000000  0.00000000  0.00000000  1.0
  Ge  Ge6  1  0.73176065  0.73176065  0.50000000  1.0
  Ge  Ge7  1  -0.00000000  0.26823935  0.50000000  1.0
  Ge  Ge8  1  0.26823935  0.00000000  0.50000000  1.0
