# generated using pymatgen
data_KTi2(PO4)3
_symmetry_space_group_name_H-M   'P 1'
_cell_length_a   9.18862261
_cell_length_b   9.18862261
_cell_length_c   9.18862261
_cell_angle_alpha   55.15338146
_cell_angle_beta   55.15338146
_cell_angle_gamma   55.15338146
_symmetry_Int_Tables_number   1
_chemical_formula_structural   KTi2(PO4)3
_chemical_formula_sum   'K2 Ti4 P6 O24'
_cell_volume   486.75365647
_cell_formula_units_Z   2
loop_
 _symmetry_equiv_pos_site_id
 _symmetry_equiv_pos_as_xyz
  1  'x, y, z'
loop_
 _atom_site_type_symbol
 _atom_site_label
 _atom_site_symmetry_multiplicity
 _atom_site_fract_x
 _atom_site_fract_y
 _atom_site_fract_z
 _atom_site_occupancy
  K  K0  1  1.00000000  0.00000000  -0.00000000  1.0
  K  K1  1  0.50000000  0.50000000  0.50000000  1.0
  Ti  Ti2  1  0.85089245  -0.14910755  -0.14910755  1.0
  Ti  Ti3  1  0.35089245  0.35089245  0.35089245  1.0
  Ti  Ti4  1  0.64910755  0.64910755  -0.35089245  1.0
  Ti  Ti5  1  1.14910755  0.14910755  0.14910755  1.0
  P  P6  1  0.46812376  0.75000000  0.03187624  1.0
  P  P7  1  0.96812376  -0.46812376  0.25000000  1.0
  P  P8  1  0.25000000  0.96812376  -0.46812376  1.0
  P  P9  1  0.75000000  1.03187624  -0.53187624  1.0
  P  P10  1  0.53187624  0.25000000  -0.03187624  1.0
  P  P11  1  1.03187624  0.46812376  -0.25000000  1.0
  O  O12  1  0.75146841  1.01008607  -0.35252097  1.0
  O  O13  1  1.25146841  0.14747903  -0.48991393  1.0
  O  O14  1  0.85252097  0.48991393  -0.25146841  1.0
  O  O15  1  0.35252097  0.24853159  -0.01008607  1.0
  O  O16  1  0.98991393  0.35252097  -0.75146841  1.0
  O  O17  1  0.48991393  0.74853159  -0.14747903  1.0
  O  O18  1  0.24853159  0.98991393  -0.64747903  1.0
  O  O19  1  0.74853159  0.85252097  -0.51008607  1.0
  O  O20  1  0.64747903  0.75146841  0.01008607  1.0
  O  O21  1  1.14747903  -0.48991393  0.25146841  1.0
  O  O22  1  0.51008607  0.25146841  0.14747903  1.0
  O  O23  1  1.01008607  0.64747903  -0.24853159  1.0
  O  O24  1  0.70437452  0.06908560  -0.06714691  1.0
  O  O25  1  1.20437452  0.43285309  -0.43091440  1.0
  O  O26  1  0.56714691  0.43091440  -0.20437452  1.0
  O  O27  1  1.06714691  0.29562548  -0.06908560  1.0
  O  O28  1  0.93091440  0.06714691  0.29562548  1.0
  O  O29  1  0.43091440  0.79562548  -0.43285309  1.0
  O  O30  1  1.29562548  -0.06908560  0.06714691  1.0
  O  O31  1  0.79562548  0.56714691  -0.56908560  1.0
  O  O32  1  0.93285309  -0.29562548  0.06908560  1.0
  O  O33  1  0.43285309  0.56908560  0.20437452  1.0
  O  O34  1  0.56908560  1.20437452  -0.56714691  1.0
  O  O35  1  1.06908560  -0.06714691  -0.29562548  1.0
