# generated using pymatgen
data_LuWClO4
_symmetry_space_group_name_H-M   'P 1'
_cell_length_a   5.97398526
_cell_length_b   6.98491190
_cell_length_c   6.53205420
_cell_angle_alpha   73.54041506
_cell_angle_beta   71.16792618
_cell_angle_gamma   77.35221813
_symmetry_Int_Tables_number   1
_chemical_formula_structural   LuWClO4
_chemical_formula_sum   'Lu2 W2 Cl2 O8'
_cell_volume   244.95231531
_cell_formula_units_Z   2
loop_
 _symmetry_equiv_pos_site_id
 _symmetry_equiv_pos_as_xyz
  1  'x, y, z'
loop_
 _atom_site_type_symbol
 _atom_site_label
 _atom_site_symmetry_multiplicity
 _atom_site_fract_x
 _atom_site_fract_y
 _atom_site_fract_z
 _atom_site_occupancy
  Lu  Lu0  1  -0.74282542  -0.86563068  -0.69834649  1.0
  Lu  Lu1  1  -0.25717458  -0.13436932  -0.30165351  1.0
  W  W2  1  -0.87593487  -0.26610642  -0.85735675  1.0
  W  W3  1  -0.12406513  -0.73389358  -0.14264325  1.0
  Cl  Cl4  1  -0.49964472  -0.77673065  -0.46361204  1.0
  Cl  Cl5  1  -0.50035528  -0.22326935  -0.53638796  1.0
  O  O6  1  -0.97296826  -0.13173573  -0.63162246  1.0
  O  O7  1  -0.02703174  -0.86826427  -0.36837754  1.0
  O  O8  1  -0.92323643  -0.80319355  -0.97344897  1.0
  O  O9  1  -0.07676357  -0.19680645  -0.02655103  1.0
  O  O10  1  -0.84901820  -0.53155950  -0.75075294  1.0
  O  O11  1  -0.15098180  -0.46844050  -0.24924706  1.0
  O  O12  1  -0.40929236  -0.80188803  -0.97427603  1.0
  O  O13  1  -0.59070764  -0.19811197  -0.02572397  1.0
