# generated using pymatgen
data_Ca4Zn2Cu3P5
_symmetry_space_group_name_H-M   'P 1'
_cell_length_a   4.04030248
_cell_length_b   4.04030248
_cell_length_c   37.36095603
_cell_angle_alpha   90.00000000
_cell_angle_beta   90.00000000
_cell_angle_gamma   120.00000000
_symmetry_Int_Tables_number   1
_chemical_formula_structural   Ca4Zn2Cu3P5
_chemical_formula_sum   'Ca8 Zn4 Cu6 P10'
_cell_volume   528.17321511
_cell_formula_units_Z   2
loop_
 _symmetry_equiv_pos_site_id
 _symmetry_equiv_pos_as_xyz
  1  'x, y, z'
loop_
 _atom_site_type_symbol
 _atom_site_label
 _atom_site_symmetry_multiplicity
 _atom_site_fract_x
 _atom_site_fract_y
 _atom_site_fract_z
 _atom_site_occupancy
  Ca  Ca0  1  -0.00000000  -0.00000000  0.40855498  1.0
  Ca  Ca1  1  0.00000000  0.00000000  0.09144502  1.0
  Ca  Ca2  1  -0.00000000  -0.00000000  0.90855498  1.0
  Ca  Ca3  1  0.00000000  0.00000000  0.59144502  1.0
  Ca  Ca4  1  0.00000000  0.00000000  0.30294401  1.0
  Ca  Ca5  1  -0.00000000  -0.00000000  0.19705599  1.0
  Ca  Ca6  1  0.00000000  0.00000000  0.80294401  1.0
  Ca  Ca7  1  0.00000000  0.00000000  0.69705599  1.0
  Zn  Zn8  1  0.33333333  0.66666667  0.97545241  1.0
  Zn  Zn9  1  0.33333333  0.66666667  0.52454759  1.0
  Zn  Zn10  1  0.66666667  0.33333333  0.47545241  1.0
  Zn  Zn11  1  0.66666667  0.33333333  0.02454759  1.0
  Cu  Cu12  1  0.33333333  0.66666667  0.35625637  1.0
  Cu  Cu13  1  0.33333333  0.66666667  0.14374363  1.0
  Cu  Cu14  1  0.66666667  0.33333333  0.85625637  1.0
  Cu  Cu15  1  0.66666667  0.33333333  0.64374363  1.0
  Cu  Cu16  1  0.33333333  0.66666667  0.75000000  1.0
  Cu  Cu17  1  0.66666667  0.33333333  0.25000000  1.0
  P  P18  1  0.33333333  0.66666667  0.45641994  1.0
  P  P19  1  0.33333333  0.66666667  0.04358006  1.0
  P  P20  1  0.66666667  0.33333333  0.95641994  1.0
  P  P21  1  0.66666667  0.33333333  0.54358006  1.0
  P  P22  1  0.33333333  0.66666667  0.85577645  1.0
  P  P23  1  0.33333333  0.66666667  0.64422355  1.0
  P  P24  1  0.66666667  0.33333333  0.35577645  1.0
  P  P25  1  0.66666667  0.33333333  0.14422355  1.0
  P  P26  1  0.33333333  0.66666667  0.25000000  1.0
  P  P27  1  0.66666667  0.33333333  0.75000000  1.0
