# generated using pymatgen
data_SrMnOF5
_symmetry_space_group_name_H-M   'P 1'
_cell_length_a   5.09390588
_cell_length_b   7.59735434
_cell_length_c   6.38011844
_cell_angle_alpha   90.00000000
_cell_angle_beta   109.65524442
_cell_angle_gamma   90.00000000
_symmetry_Int_Tables_number   1
_chemical_formula_structural   SrMnOF5
_chemical_formula_sum   'Sr2 Mn2 O2 F10'
_cell_volume   232.52523566
_cell_formula_units_Z   2
loop_
 _symmetry_equiv_pos_site_id
 _symmetry_equiv_pos_as_xyz
  1  'x, y, z'
loop_
 _atom_site_type_symbol
 _atom_site_label
 _atom_site_symmetry_multiplicity
 _atom_site_fract_x
 _atom_site_fract_y
 _atom_site_fract_z
 _atom_site_occupancy
  Sr  Sr0  1  0.39041086  0.25000000  0.59602304  1.0
  Sr  Sr1  1  0.60958914  0.75000000  0.40397696  1.0
  Mn  Mn2  1  -0.00000000  0.50000000  -0.00000000  1.0
  Mn  Mn3  1  0.00000000  -0.00000000  0.00000000  1.0
  O  O4  1  0.85080702  0.25000000  0.48683488  1.0
  O  O5  1  0.14919298  0.75000000  0.51316512  1.0
  F  F6  1  0.71380401  0.96334582  0.73170428  1.0
  F  F7  1  0.71380401  0.53665418  0.73170428  1.0
  F  F8  1  0.28619599  0.46334582  0.26829572  1.0
  F  F9  1  0.28619599  0.03665418  0.26829572  1.0
  F  F10  1  0.23133301  0.44485797  0.84822841  1.0
  F  F11  1  0.23133301  0.05514203  0.84822841  1.0
  F  F12  1  0.76866699  0.94485797  0.15177159  1.0
  F  F13  1  0.76866699  0.55514203  0.15177159  1.0
  F  F14  1  0.88078801  0.25000000  0.98238580  1.0
  F  F15  1  0.11921199  0.75000000  0.01761420  1.0
