# generated using pymatgen
data_K2H3IrNCl5
_symmetry_space_group_name_H-M   'P 1'
_cell_length_a   13.80901918
_cell_length_b   9.61187083
_cell_length_c   7.74220408
_cell_angle_alpha   90.00000000
_cell_angle_beta   90.00000000
_cell_angle_gamma   90.00000000
_symmetry_Int_Tables_number   1
_chemical_formula_structural   K2H3IrNCl5
_chemical_formula_sum   'K8 H12 Ir4 N4 Cl20'
_cell_volume   1027.62668541
_cell_formula_units_Z   4
loop_
 _symmetry_equiv_pos_site_id
 _symmetry_equiv_pos_as_xyz
  1  'x, y, z'
loop_
 _atom_site_type_symbol
 _atom_site_label
 _atom_site_symmetry_multiplicity
 _atom_site_fract_x
 _atom_site_fract_y
 _atom_site_fract_z
 _atom_site_occupancy
  K  K0  1  0.66116286  0.50235301  0.40169194  1.0
  K  K1  1  0.66116286  -0.00235301  0.40169194  1.0
  K  K2  1  0.16116286  0.50235301  0.09830806  1.0
  K  K3  1  0.16116286  -0.00235301  0.09830806  1.0
  K  K4  1  0.33883714  1.00235301  0.59830806  1.0
  K  K5  1  0.33883714  0.49764699  0.59830806  1.0
  K  K6  1  0.83883714  1.00235301  0.90169194  1.0
  K  K7  1  0.83883714  0.49764699  0.90169194  1.0
  H  H8  1  0.98224121  0.83660052  0.46315925  1.0
  H  H9  1  0.98224121  0.66339948  0.46315925  1.0
  H  H10  1  0.48224121  0.83660052  0.03684075  1.0
  H  H11  1  0.48224121  0.66339948  0.03684075  1.0
  H  H12  1  0.01775879  0.33660052  0.53684075  1.0
  H  H13  1  0.01775879  0.16339948  0.53684075  1.0
  H  H14  1  0.51775879  0.33660052  0.96315925  1.0
  H  H15  1  0.51775879  0.16339948  0.96315925  1.0
  H  H16  1  0.57556115  0.25000000  0.11431416  1.0
  H  H17  1  0.07556115  0.25000000  0.38568584  1.0
  H  H18  1  0.42443885  0.75000000  0.88568584  1.0
  H  H19  1  0.92443885  0.75000000  0.61431416  1.0
  Ir  Ir20  1  0.89039633  0.25000000  0.30967605  1.0
  Ir  Ir21  1  0.39039633  0.25000000  0.19032395  1.0
  Ir  Ir22  1  0.10960367  0.75000000  0.69032395  1.0
  Ir  Ir23  1  0.60960367  0.75000000  0.80967605  1.0
  N  N24  1  0.01334229  0.25000000  0.45885266  1.0
  N  N25  1  0.51334229  0.25000000  1.04114734  1.0
  N  N26  1  0.98665771  0.75000000  0.54114734  1.0
  N  N27  1  0.48665771  0.75000000  -0.04114734  1.0
  Cl  Cl28  1  0.89190303  0.49609644  0.30655318  1.0
  Cl  Cl29  1  0.89190303  0.00390356  0.30655318  1.0
  Cl  Cl30  1  0.39190303  0.49609644  0.19344682  1.0
  Cl  Cl31  1  0.39190303  0.00390356  0.19344682  1.0
  Cl  Cl32  1  0.10809697  0.99609644  0.69344682  1.0
  Cl  Cl33  1  0.10809697  0.50390356  0.69344682  1.0
  Cl  Cl34  1  0.60809697  0.99609644  0.80655318  1.0
  Cl  Cl35  1  0.60809697  0.50390356  0.80655318  1.0
  Cl  Cl36  1  0.98818747  0.25000000  0.05629023  1.0
  Cl  Cl37  1  0.48818747  0.25000000  0.44370977  1.0
  Cl  Cl38  1  0.01181253  0.75000000  0.94370977  1.0
  Cl  Cl39  1  0.51181253  0.75000000  0.55629023  1.0
  Cl  Cl40  1  0.79787110  0.25000000  0.56973277  1.0
  Cl  Cl41  1  0.29787110  0.25000000  0.93026723  1.0
  Cl  Cl42  1  0.20212890  0.75000000  0.43026723  1.0
  Cl  Cl43  1  0.70212890  0.75000000  0.06973277  1.0
  Cl  Cl44  1  0.74554147  0.25000000  0.13659261  1.0
  Cl  Cl45  1  0.24554147  0.25000000  0.36340739  1.0
  Cl  Cl46  1  0.25445853  0.75000000  0.86340739  1.0
  Cl  Cl47  1  0.75445853  0.75000000  0.63659261  1.0
