# generated using pymatgen
data_Y2Al2Co15
_symmetry_space_group_name_H-M   'P 1'
_cell_length_a   8.30119834
_cell_length_b   8.30119834
_cell_length_c   8.21654843
_cell_angle_alpha   90.00000000
_cell_angle_beta   90.00000000
_cell_angle_gamma   120.00000000
_symmetry_Int_Tables_number   1
_chemical_formula_structural   Y2Al2Co15
_chemical_formula_sum   'Y4 Al4 Co30'
_cell_volume   490.34486544
_cell_formula_units_Z   2
loop_
 _symmetry_equiv_pos_site_id
 _symmetry_equiv_pos_as_xyz
  1  'x, y, z'
loop_
 _atom_site_type_symbol
 _atom_site_label
 _atom_site_symmetry_multiplicity
 _atom_site_fract_x
 _atom_site_fract_y
 _atom_site_fract_z
 _atom_site_occupancy
  Co  Co0  1  0.32803537  0.37643434  0.25000000  1.0
  Co  Co1  1  0.62356566  0.95160103  0.25000000  1.0
  Co  Co2  1  0.04839897  0.67196463  0.25000000  1.0
  Co  Co3  1  0.62356566  0.67196463  0.25000000  1.0
  Co  Co4  1  0.04839897  0.37643434  0.25000000  1.0
  Co  Co5  1  0.32803537  0.95160103  0.25000000  1.0
  Co  Co6  1  0.67196463  0.62356566  0.75000000  1.0
  Co  Co7  1  0.37643434  0.04839897  0.75000000  1.0
  Co  Co8  1  0.95160103  0.32803537  0.75000000  1.0
  Co  Co9  1  0.37643434  0.32803537  0.75000000  1.0
  Co  Co10  1  0.95160103  0.62356566  0.75000000  1.0
  Co  Co11  1  0.67196463  0.04839897  0.75000000  1.0
  Co  Co12  1  0.16332472  0.83667528  0.52454818  1.0
  Co  Co13  1  0.16332472  0.32664944  0.52454818  1.0
  Co  Co14  1  0.67335056  0.83667528  0.52454818  1.0
  Co  Co15  1  0.83667528  0.16332472  0.47545182  1.0
  Co  Co16  1  0.83667528  0.67335056  0.47545182  1.0
  Co  Co17  1  0.32664944  0.16332472  0.47545182  1.0
  Co  Co18  1  0.83667528  0.16332472  0.02454818  1.0
  Co  Co19  1  0.83667528  0.67335056  0.02454818  1.0
  Co  Co20  1  0.32664944  0.16332472  0.02454818  1.0
  Co  Co21  1  0.16332472  0.83667528  -0.02454818  1.0
  Co  Co22  1  0.16332472  0.32664944  -0.02454818  1.0
  Co  Co23  1  0.67335056  0.83667528  -0.02454818  1.0
  Co  Co24  1  0.50000000  0.50000000  0.50000000  1.0
  Co  Co25  1  0.50000000  0.00000000  0.50000000  1.0
  Co  Co26  1  0.00000000  0.50000000  0.50000000  1.0
  Co  Co27  1  0.50000000  0.50000000  0.00000000  1.0
  Co  Co28  1  0.50000000  0.00000000  0.00000000  1.0
  Co  Co29  1  0.00000000  0.50000000  0.00000000  1.0
  Al  Al30  1  0.33333333  0.66666667  0.40308058  1.0
  Al  Al31  1  0.66666667  0.33333333  0.59691942  1.0
  Al  Al32  1  0.66666667  0.33333333  0.90308058  1.0
  Al  Al33  1  0.33333333  0.66666667  0.09691942  1.0
  Y  Y34  1  0.33333333  0.66666667  0.75000000  1.0
  Y  Y35  1  0.66666667  0.33333333  0.25000000  1.0
  Y  Y36  1  0.00000000  0.00000000  0.25000000  1.0
  Y  Y37  1  0.00000000  0.00000000  0.75000000  1.0
