# generated using pymatgen
data_LiClO2
_symmetry_space_group_name_H-M   'P 1'
_cell_length_a   4.80862717
_cell_length_b   4.80862717
_cell_length_c   11.06931885
_cell_angle_alpha   90.00000000
_cell_angle_beta   90.00000000
_cell_angle_gamma   90.00000000
_symmetry_Int_Tables_number   1
_chemical_formula_structural   LiClO2
_chemical_formula_sum   'Li4 Cl4 O8'
_cell_volume   255.95470064
_cell_formula_units_Z   4
loop_
 _symmetry_equiv_pos_site_id
 _symmetry_equiv_pos_as_xyz
  1  'x, y, z'
loop_
 _atom_site_type_symbol
 _atom_site_label
 _atom_site_symmetry_multiplicity
 _atom_site_fract_x
 _atom_site_fract_y
 _atom_site_fract_z
 _atom_site_occupancy
  Li  Li0  1  0.00000000  0.00000000  0.50000000  1.0
  Li  Li1  1  0.00000000  0.00000000  0.00000000  1.0
  Li  Li2  1  0.50000000  0.50000000  0.00000000  1.0
  Li  Li3  1  0.50000000  0.50000000  0.50000000  1.0
  Cl  Cl4  1  0.50000000  0.00000000  0.83190847  1.0
  Cl  Cl5  1  0.50000000  0.00000000  0.33190847  1.0
  Cl  Cl6  1  0.00000000  0.50000000  0.66809153  1.0
  Cl  Cl7  1  0.00000000  0.50000000  0.16809153  1.0
  O  O8  1  0.69361706  0.19361706  0.91354682  1.0
  O  O9  1  0.69361706  0.80638294  0.41354682  1.0
  O  O10  1  0.19361706  0.69361706  0.58645318  1.0
  O  O11  1  0.19361706  0.30638294  0.08645318  1.0
  O  O12  1  0.80638294  0.69361706  0.08645318  1.0
  O  O13  1  0.80638294  0.30638294  0.58645318  1.0
  O  O14  1  0.30638294  0.19361706  0.41354682  1.0
  O  O15  1  0.30638294  0.80638294  0.91354682  1.0
