# generated using pymatgen
data_CsBe2F5
_symmetry_space_group_name_H-M   'P 1'
_cell_length_a   8.10209099
_cell_length_b   8.10209099
_cell_length_c   8.10209099
_cell_angle_alpha   90.00000000
_cell_angle_beta   90.00000000
_cell_angle_gamma   90.00000000
_symmetry_Int_Tables_number   1
_chemical_formula_structural   CsBe2F5
_chemical_formula_sum   'Cs4 Be8 F20'
_cell_volume   531.85267640
_cell_formula_units_Z   4
loop_
 _symmetry_equiv_pos_site_id
 _symmetry_equiv_pos_as_xyz
  1  'x, y, z'
loop_
 _atom_site_type_symbol
 _atom_site_label
 _atom_site_symmetry_multiplicity
 _atom_site_fract_x
 _atom_site_fract_y
 _atom_site_fract_z
 _atom_site_occupancy
  Cs  Cs0  1  0.12500000  0.62500000  0.87500000  1.0
  Cs  Cs1  1  0.87500000  0.12500000  0.62500000  1.0
  Cs  Cs2  1  0.37500000  0.37500000  0.37500000  1.0
  Cs  Cs3  1  0.62500000  0.87500000  0.12500000  1.0
  Be  Be4  1  0.40135042  0.90135042  0.59864958  1.0
  Be  Be5  1  0.15135042  0.84864958  0.34864958  1.0
  Be  Be6  1  0.65135042  0.65135042  0.65135042  1.0
  Be  Be7  1  0.90135042  0.59864958  0.40135042  1.0
  Be  Be8  1  0.59864958  0.40135042  0.90135042  1.0
  Be  Be9  1  0.34864958  0.15135042  0.84864958  1.0
  Be  Be10  1  0.84864958  0.34864958  0.15135042  1.0
  Be  Be11  1  0.09864958  0.09864958  0.09864958  1.0
  F  F12  1  0.37500000  0.96919448  0.78080552  1.0
  F  F13  1  0.12500000  0.03080552  0.28080552  1.0
  F  F14  1  0.62500000  0.46919448  0.71919448  1.0
  F  F15  1  0.87500000  0.53080552  0.21919448  1.0
  F  F16  1  0.46919448  0.71919448  0.62500000  1.0
  F  F17  1  0.21919448  0.87500000  0.53080552  1.0
  F  F18  1  0.71919448  0.62500000  0.46919448  1.0
  F  F19  1  0.96919448  0.78080552  0.37500000  1.0
  F  F20  1  0.53080552  0.21919448  0.87500000  1.0
  F  F21  1  0.28080552  0.12500000  0.03080552  1.0
  F  F22  1  0.78080552  0.37500000  0.96919448  1.0
  F  F23  1  0.03080552  0.28080552  0.12500000  1.0
  F  F24  1  0.74173260  0.24173260  0.25826740  1.0
  F  F25  1  0.49173260  0.50826740  0.00826740  1.0
  F  F26  1  0.99173260  0.99173260  0.99173260  1.0
  F  F27  1  0.24173260  0.25826740  0.74173260  1.0
  F  F28  1  0.25826740  0.74173260  0.24173260  1.0
  F  F29  1  0.00826740  0.49173260  0.50826740  1.0
  F  F30  1  0.50826740  0.00826740  0.49173260  1.0
  F  F31  1  0.75826740  0.75826740  0.75826740  1.0
