# generated using pymatgen
data_Sc2VO5
_symmetry_space_group_name_H-M   'P 1'
_cell_length_a   9.17654237
_cell_length_b   9.17654237
_cell_length_c   9.17654237
_cell_angle_alpha   129.39346709
_cell_angle_beta   129.39346709
_cell_angle_gamma   74.37828711
_symmetry_Int_Tables_number   1
_chemical_formula_structural   Sc2VO5
_chemical_formula_sum   'Sc10 V5 O25'
_cell_volume   449.83154123
_cell_formula_units_Z   5
loop_
 _symmetry_equiv_pos_site_id
 _symmetry_equiv_pos_as_xyz
  1  'x, y, z'
loop_
 _atom_site_type_symbol
 _atom_site_label
 _atom_site_symmetry_multiplicity
 _atom_site_fract_x
 _atom_site_fract_y
 _atom_site_fract_z
 _atom_site_occupancy
  O  O0  1  0.75332289  0.59175170  0.34947263  1.0
  O  O1  1  1.24227907  1.40385026  1.65052737  1.0
  O  O2  1  0.59614974  0.24667711  0.83842881  1.0
  O  O3  1  0.40824830  0.75772093  1.16157119  1.0
  O  O4  1  1.05109239  0.49642861  1.23240442  1.0
  O  O5  1  0.26402419  0.81868797  0.76759558  1.0
  O  O6  1  1.18131203  0.94890761  1.44533622  1.0
  O  O7  1  0.50357139  0.73597581  0.55466378  1.0
  O  O8  1  0.88535499  1.27840156  1.22242799  1.0
  O  O9  1  1.05597357  0.66292700  0.77757201  1.0
  O  O10  1  0.33707300  0.11464501  0.39304657  1.0
  O  O11  1  0.72159844  0.94402643  1.60695343  1.0
  O  O12  1  0.37054431  0.37054431  -0.00000000  1.0
  O  O13  1  0.62945569  0.62945569  1.00000000  1.0
  O  O14  1  0.82365648  0.82365648  1.00000000  1.0
  O  O15  1  0.17634352  0.17634352  0.00000000  1.0
  O  O16  1  0.00000000  0.00000000  0.00000000  1.0
  O  O17  1  0.51473797  1.06604312  0.93017071  1.0
  O  O18  1  1.13587241  0.58456725  1.06982929  1.0
  O  O19  1  0.41543275  0.48526203  0.55130515  1.0
  O  O20  1  0.93395688  0.86412759  1.44869485  1.0
  O  O21  1  0.65500824  0.39231812  0.40830540  1.0
  O  O22  1  0.98401272  1.24670284  1.59169460  1.0
  O  O23  1  0.75329716  0.34499176  0.73730988  1.0
  O  O24  1  0.60768188  1.01598728  1.26269012  1.0
  V  V25  1  0.75000000  0.25000000  0.50000000  1.0
  V  V26  1  0.61862732  1.31153521  1.09859631  1.0
  V  V27  1  1.21293890  0.52003102  0.90140369  1.0
  V  V28  1  0.47996898  0.38137268  0.69290788  1.0
  V  V29  1  0.68846479  0.78706110  1.30709212  1.0
  Sc  Sc30  1  0.05786907  0.55786907  0.50000000  1.0
  Sc  Sc31  1  0.44213093  0.94213093  0.50000000  1.0
  Sc  Sc32  1  0.94654659  0.69195956  1.15618022  1.0
  Sc  Sc33  1  0.53577933  0.79036637  0.84381978  1.0
  Sc  Sc34  1  1.20963363  1.05345341  1.74541297  1.0
  Sc  Sc35  1  0.30804044  0.46422067  0.25458703  1.0
  Sc  Sc36  1  0.89649988  0.20712789  0.95217375  1.0
  Sc  Sc37  1  0.25495414  0.94432613  1.04782625  1.0
  Sc  Sc38  1  1.05567387  1.10350012  1.31062801  1.0
  Sc  Sc39  1  0.79287211  0.74504586  0.68937199  1.0
