# generated using pymatgen
data_AlPS4
_symmetry_space_group_name_H-M   'P 1'
_cell_length_a   6.76912232
_cell_length_b   6.76912232
_cell_length_c   6.76912232
_cell_angle_alpha   130.13136957
_cell_angle_beta   123.01744354
_cell_angle_gamma   79.08008926
_symmetry_Int_Tables_number   1
_chemical_formula_structural   AlPS4
_chemical_formula_sum   'Al1 P1 S4'
_cell_volume   192.41229059
_cell_formula_units_Z   1
loop_
 _symmetry_equiv_pos_site_id
 _symmetry_equiv_pos_as_xyz
  1  'x, y, z'
loop_
 _atom_site_type_symbol
 _atom_site_label
 _atom_site_symmetry_multiplicity
 _atom_site_fract_x
 _atom_site_fract_y
 _atom_site_fract_z
 _atom_site_occupancy
  Al  Al0  1  0.00000000  0.50000000  0.50000000  1.0
  P  P1  1  0.00000000  0.00000000  0.00000000  1.0
  S  S2  1  0.93144493  0.88656141  1.59709851  1.0
  S  S3  1  1.06855507  0.66565358  0.95511648  1.0
  S  S4  1  0.71053710  1.11343859  1.04488352  1.0
  S  S5  1  0.28946290  0.33434642  0.40290149  1.0
