# generated using pymatgen
data_RbPb2Br5
_symmetry_space_group_name_H-M   'P 1'
_cell_length_a   9.71455806
_cell_length_b   9.71455806
_cell_length_c   9.71455806
_cell_angle_alpha   127.72965954
_cell_angle_beta   127.72965954
_cell_angle_gamma   77.06337989
_symmetry_Int_Tables_number   1
_chemical_formula_structural   RbPb2Br5
_chemical_formula_sum   'Rb2 Pb4 Br10'
_cell_volume   556.61523001
_cell_formula_units_Z   2
loop_
 _symmetry_equiv_pos_site_id
 _symmetry_equiv_pos_as_xyz
  1  'x, y, z'
loop_
 _atom_site_type_symbol
 _atom_site_label
 _atom_site_symmetry_multiplicity
 _atom_site_fract_x
 _atom_site_fract_y
 _atom_site_fract_z
 _atom_site_occupancy
  Rb  Rb0  1  0.75000000  0.75000000  1.00000000  1.0
  Rb  Rb1  1  0.25000000  0.25000000  -0.00000000  1.0
  Pb  Pb2  1  0.33271227  0.83271227  1.16542454  1.0
  Pb  Pb3  1  0.16728773  0.33271227  0.50000000  1.0
  Pb  Pb4  1  0.83271227  0.66728773  1.50000000  1.0
  Pb  Pb5  1  0.66728773  0.16728773  0.83457546  1.0
  Br  Br6  1  0.71457072  1.21457072  1.19115476  1.0
  Br  Br7  1  0.97658403  0.47658403  1.19115476  1.0
  Br  Br8  1  0.52341597  0.71457072  0.50000000  1.0
  Br  Br9  1  0.78542928  0.97658403  1.50000000  1.0
  Br  Br10  1  1.21457072  1.02341597  1.50000000  1.0
  Br  Br11  1  0.47658403  0.28542928  0.50000000  1.0
  Br  Br12  1  1.02341597  0.52341597  0.80884524  1.0
  Br  Br13  1  0.28542928  0.78542928  0.80884524  1.0
  Br  Br14  1  0.00000000  0.00000000  0.00000000  1.0
  Br  Br15  1  0.50000000  0.50000000  1.00000000  1.0
