# generated using pymatgen
data_NaGdCu2F8
_symmetry_space_group_name_H-M   'P 1'
_cell_length_a   6.52634424
_cell_length_b   6.52634424
_cell_length_c   6.52634424
_cell_angle_alpha   129.85963153
_cell_angle_beta   129.85963153
_cell_angle_gamma   73.63126657
_symmetry_Int_Tables_number   1
_chemical_formula_structural   NaGdCu2F8
_chemical_formula_sum   'Na1 Gd1 Cu2 F8'
_cell_volume   159.82424848
_cell_formula_units_Z   1
loop_
 _symmetry_equiv_pos_site_id
 _symmetry_equiv_pos_as_xyz
  1  'x, y, z'
loop_
 _atom_site_type_symbol
 _atom_site_label
 _atom_site_symmetry_multiplicity
 _atom_site_fract_x
 _atom_site_fract_y
 _atom_site_fract_z
 _atom_site_occupancy
  Na  Na0  1  0.50000000  0.50000000  1.00000000  1.0
  Gd  Gd1  1  0.00000000  0.00000000  0.00000000  1.0
  Cu  Cu2  1  0.75000000  0.25000000  0.50000000  1.0
  Cu  Cu3  1  0.25000000  0.75000000  0.50000000  1.0
  F  F4  1  0.80824387  0.95633765  1.52065560  1.0
  F  F5  1  1.19175613  0.71241174  1.14809378  1.0
  F  F6  1  0.71241174  0.56431796  0.52065560  1.0
  F  F7  1  0.28758826  0.80824387  0.85190622  1.0
  F  F8  1  0.56431796  1.04366235  0.85190622  1.0
  F  F9  1  0.43568204  0.28758826  0.47934440  1.0
  F  F10  1  0.95633765  0.43568204  1.14809378  1.0
  F  F11  1  1.04366235  1.19175613  1.47934440  1.0
