# generated using pymatgen
data_Li2SeO4
_symmetry_space_group_name_H-M   'P 1'
_cell_length_a   8.77018867
_cell_length_b   8.77018867
_cell_length_c   8.77018867
_cell_angle_alpha   107.83278104
_cell_angle_beta   107.83278104
_cell_angle_gamma   107.83278104
_symmetry_Int_Tables_number   1
_chemical_formula_structural   Li2SeO4
_chemical_formula_sum   'Li12 Se6 O24'
_cell_volume   548.52553007
_cell_formula_units_Z   6
loop_
 _symmetry_equiv_pos_site_id
 _symmetry_equiv_pos_as_xyz
  1  'x, y, z'
loop_
 _atom_site_type_symbol
 _atom_site_label
 _atom_site_symmetry_multiplicity
 _atom_site_fract_x
 _atom_site_fract_y
 _atom_site_fract_z
 _atom_site_occupancy
  Li  Li0  1  0.70390716  1.10802603  -0.06485848  1.0
  Li  Li1  1  0.89197397  0.06485848  0.29609284  1.0
  Li  Li2  1  1.06485848  0.29609284  -0.10802603  1.0
  Li  Li3  1  1.29609284  -0.10802603  0.06485848  1.0
  Li  Li4  1  1.10802603  0.93514152  -0.29609284  1.0
  Li  Li5  1  0.93514152  0.70390716  0.10802603  1.0
  Li  Li6  1  1.37810067  0.77861690  -0.40083632  1.0
  Li  Li7  1  1.22138310  0.40083632  -0.37810067  1.0
  Li  Li8  1  1.40083632  -0.37810067  0.22138310  1.0
  Li  Li9  1  0.62189933  0.22138310  0.40083632  1.0
  Li  Li10  1  0.77861690  0.59916368  0.37810067  1.0
  Li  Li11  1  0.59916368  1.37810067  -0.22138310  1.0
  Se  Se12  1  1.55157490  0.73646646  -0.03998679  1.0
  Se  Se13  1  0.26353354  1.03998679  -0.55157490  1.0
  Se  Se14  1  1.03998679  0.44842510  -0.73646646  1.0
  Se  Se15  1  0.44842510  0.26353354  0.03998679  1.0
  Se  Se16  1  1.73646646  -0.03998679  0.55157490  1.0
  Se  Se17  1  0.96001321  0.55157490  0.73646646  1.0
  O  O18  1  1.53347936  0.86207372  -0.14760234  1.0
  O  O19  1  1.13792628  0.14760234  -0.53347936  1.0
  O  O20  1  1.14760234  -0.53347936  0.13792628  1.0
  O  O21  1  0.46652064  0.13792628  0.14760234  1.0
  O  O22  1  0.86207372  0.85239766  0.53347936  1.0
  O  O23  1  0.85239766  1.53347936  -0.13792628  1.0
  O  O24  1  1.56810774  0.25175485  -0.07459839  1.0
  O  O25  1  0.74824515  1.07459839  -0.56810774  1.0
  O  O26  1  1.07459839  0.43189226  -0.25175485  1.0
  O  O27  1  0.43189226  0.74824515  0.07459839  1.0
  O  O28  1  1.25175485  -0.07459839  0.56810774  1.0
  O  O29  1  0.92540161  0.56810774  0.25175485  1.0
  O  O30  1  0.76578757  0.81454514  0.09989148  1.0
  O  O31  1  1.18545486  -0.09989148  0.23421243  1.0
  O  O32  1  0.90010852  0.23421243  0.18545486  1.0
  O  O33  1  1.23421243  0.18545486  -0.09989148  1.0
  O  O34  1  0.81454514  1.09989148  -0.23421243  1.0
  O  O35  1  1.09989148  0.76578757  -0.18545486  1.0
  O  O36  1  1.47251026  0.52663533  -0.19057731  1.0
  O  O37  1  0.47336467  1.19057731  -0.47251026  1.0
  O  O38  1  1.19057731  0.52748974  -0.52663533  1.0
  O  O39  1  0.52748974  0.47336467  0.19057731  1.0
  O  O40  1  1.52663533  -0.19057731  0.47251026  1.0
  O  O41  1  0.80942269  0.47251026  0.52663533  1.0
