# generated using pymatgen
data_CsGdHgSe3
_symmetry_space_group_name_H-M   'P 1'
_cell_length_a   8.45574127
_cell_length_b   8.45574127
_cell_length_c   11.23711525
_cell_angle_alpha   90.00000000
_cell_angle_beta   90.00000000
_cell_angle_gamma   150.29746089
_symmetry_Int_Tables_number   1
_chemical_formula_structural   CsGdHgSe3
_chemical_formula_sum   'Cs2 Gd2 Hg2 Se6'
_cell_volume   398.10660107
_cell_formula_units_Z   2
loop_
 _symmetry_equiv_pos_site_id
 _symmetry_equiv_pos_as_xyz
  1  'x, y, z'
loop_
 _atom_site_type_symbol
 _atom_site_label
 _atom_site_symmetry_multiplicity
 _atom_site_fract_x
 _atom_site_fract_y
 _atom_site_fract_z
 _atom_site_occupancy
  Cs  Cs0  1  -0.25529873  0.25529873  0.75000000  1.0
  Cs  Cs1  1  0.25529873  0.74470127  0.25000000  1.0
  Gd  Gd2  1  0.00000000  0.00000000  0.00000000  1.0
  Gd  Gd3  1  0.00000000  0.00000000  0.50000000  1.0
  Hg  Hg4  1  0.45575335  0.54424665  0.75000000  1.0
  Hg  Hg5  1  -0.45575335  0.45575335  0.25000000  1.0
  Se  Se6  1  0.38113104  0.61886896  0.95663796  1.0
  Se  Se7  1  0.38113104  0.61886896  0.54336204  1.0
  Se  Se8  1  -0.38113104  0.38113104  0.45663796  1.0
  Se  Se9  1  -0.38113104  0.38113104  0.04336204  1.0
  Se  Se10  1  0.06091840  0.93908160  0.75000000  1.0
  Se  Se11  1  -0.06091840  0.06091840  0.25000000  1.0
