# generated using pymatgen
data_Ti3P
_symmetry_space_group_name_H-M   'P 1'
_cell_length_a   9.95596802
_cell_length_b   9.95596802
_cell_length_c   4.98012807
_cell_angle_alpha   90.00000000
_cell_angle_beta   90.00000000
_cell_angle_gamma   90.00000000
_symmetry_Int_Tables_number   1
_chemical_formula_structural   Ti3P
_chemical_formula_sum   'Ti24 P8'
_cell_volume   493.63676398
_cell_formula_units_Z   8
loop_
 _symmetry_equiv_pos_site_id
 _symmetry_equiv_pos_as_xyz
  1  'x, y, z'
loop_
 _atom_site_type_symbol
 _atom_site_label
 _atom_site_symmetry_multiplicity
 _atom_site_fract_x
 _atom_site_fract_y
 _atom_site_fract_z
 _atom_site_occupancy
  Ti  Ti0  1  0.58312645  0.89297937  0.03507018  1.0
  Ti  Ti1  1  0.41687355  0.10702063  0.03507018  1.0
  Ti  Ti2  1  0.39297937  0.91687355  0.53507018  1.0
  Ti  Ti3  1  0.60702063  0.08312645  0.53507018  1.0
  Ti  Ti4  1  0.91687355  0.60702063  0.46492982  1.0
  Ti  Ti5  1  0.08312645  0.39297937  0.46492982  1.0
  Ti  Ti6  1  0.10702063  0.58312645  0.96492982  1.0
  Ti  Ti7  1  0.89297937  0.41687355  0.96492982  1.0
  Ti  Ti8  1  0.02825964  0.86081190  0.71874540  1.0
  Ti  Ti9  1  0.97174036  0.13918810  0.71874540  1.0
  Ti  Ti10  1  0.36081190  0.47174036  0.21874540  1.0
  Ti  Ti11  1  0.63918810  0.52825964  0.21874540  1.0
  Ti  Ti12  1  0.47174036  0.63918810  0.78125460  1.0
  Ti  Ti13  1  0.52825964  0.36081190  0.78125460  1.0
  Ti  Ti14  1  0.13918810  0.02825964  0.28125460  1.0
  Ti  Ti15  1  0.86081190  0.97174036  0.28125460  1.0
  Ti  Ti16  1  0.18093963  0.28358952  0.99003064  1.0
  Ti  Ti17  1  0.81906037  0.71641048  0.99003064  1.0
  Ti  Ti18  1  0.78358952  0.31906037  0.49003064  1.0
  Ti  Ti19  1  0.21641048  0.68093963  0.49003064  1.0
  Ti  Ti20  1  0.31906037  0.21641048  0.50996936  1.0
  Ti  Ti21  1  0.68093963  0.78358952  0.50996936  1.0
  Ti  Ti22  1  0.71641048  0.18093963  0.00996936  1.0
  Ti  Ti23  1  0.28358952  0.81906037  0.00996936  1.0
  P  P24  1  0.04147736  0.79311160  0.21362628  1.0
  P  P25  1  0.95852264  0.20688840  0.21362628  1.0
  P  P26  1  0.29311160  0.45852264  0.71362628  1.0
  P  P27  1  0.70688840  0.54147736  0.71362628  1.0
  P  P28  1  0.45852264  0.70688840  0.28637372  1.0
  P  P29  1  0.54147736  0.29311160  0.28637372  1.0
  P  P30  1  0.20688840  0.04147736  0.78637372  1.0
  P  P31  1  0.79311160  0.95852264  0.78637372  1.0
