# generated using pymatgen
data_Tl2Se3
_symmetry_space_group_name_H-M   'P 1'
_cell_length_a   7.28148718
_cell_length_b   7.28148718
_cell_length_c   7.67381341
_cell_angle_alpha   70.56606257
_cell_angle_beta   109.43393743
_cell_angle_gamma   127.94634924
_symmetry_Int_Tables_number   1
_chemical_formula_structural   Tl2Se3
_chemical_formula_sum   'Tl4 Se6'
_cell_volume   298.04468419
_cell_formula_units_Z   2
loop_
 _symmetry_equiv_pos_site_id
 _symmetry_equiv_pos_as_xyz
  1  'x, y, z'
loop_
 _atom_site_type_symbol
 _atom_site_label
 _atom_site_symmetry_multiplicity
 _atom_site_fract_x
 _atom_site_fract_y
 _atom_site_fract_z
 _atom_site_occupancy
  Tl  Tl0  1  0.43213117  0.20495370  0.97659100  1.0
  Tl  Tl1  1  0.79504630  0.56786883  0.47659100  1.0
  Tl  Tl2  1  1.20495370  0.43213117  0.52340900  1.0
  Tl  Tl3  1  0.56786883  -0.20495370  0.02340900  1.0
  Se  Se4  1  0.64405363  0.01419359  0.44245477  1.0
  Se  Se5  1  0.98580641  0.35594637  0.94245477  1.0
  Se  Se6  1  1.01419359  0.64405363  0.05754523  1.0
  Se  Se7  1  0.35594637  -0.01419359  0.55754523  1.0
  Se  Se8  1  0.83714776  0.83714776  0.75000000  1.0
  Se  Se9  1  0.16285224  0.16285224  0.25000000  1.0
