# generated using pymatgen
data_Ba(FeP)2
_symmetry_space_group_name_H-M   'P 1'
_cell_length_a   6.72558282
_cell_length_b   6.72558282
_cell_length_c   6.72558282
_cell_angle_alpha   146.96143337
_cell_angle_beta   146.96143337
_cell_angle_gamma   47.42088979
_symmetry_Int_Tables_number   1
_chemical_formula_structural   Ba(FeP)2
_chemical_formula_sum   'Ba1 Fe2 P2'
_cell_volume   90.07833842
_cell_formula_units_Z   1
loop_
 _symmetry_equiv_pos_site_id
 _symmetry_equiv_pos_as_xyz
  1  'x, y, z'
loop_
 _atom_site_type_symbol
 _atom_site_label
 _atom_site_symmetry_multiplicity
 _atom_site_fract_x
 _atom_site_fract_y
 _atom_site_fract_z
 _atom_site_occupancy
  Ba  Ba0  1  0.00000000  0.00000000  0.00000000  1.0
  Fe  Fe1  1  0.25000000  0.75000000  0.50000000  1.0
  Fe  Fe2  1  0.75000000  0.25000000  0.50000000  1.0
  P  P3  1  0.66094224  0.66094224  1.00000000  1.0
  P  P4  1  0.33905776  0.33905776  0.00000000  1.0
