# generated using pymatgen
data_CsSO4
_symmetry_space_group_name_H-M   'P 1'
_cell_length_a   5.48057513
_cell_length_b   6.00272496
_cell_length_c   8.16836675
_cell_angle_alpha   90.00000000
_cell_angle_beta   109.57672953
_cell_angle_gamma   90.00000000
_symmetry_Int_Tables_number   1
_chemical_formula_structural   CsSO4
_chemical_formula_sum   'Cs2 S2 O8'
_cell_volume   253.19199286
_cell_formula_units_Z   2
loop_
 _symmetry_equiv_pos_site_id
 _symmetry_equiv_pos_as_xyz
  1  'x, y, z'
loop_
 _atom_site_type_symbol
 _atom_site_label
 _atom_site_symmetry_multiplicity
 _atom_site_fract_x
 _atom_site_fract_y
 _atom_site_fract_z
 _atom_site_occupancy
  Cs  Cs0  1  0.62491960  0.75000000  0.25180854  1.0
  Cs  Cs1  1  0.37508040  0.25000000  0.74819146  1.0
  S  S2  1  0.88595612  0.75000000  0.76833381  1.0
  S  S3  1  0.11404388  0.25000000  0.23166619  1.0
  O  O4  1  0.16433952  0.75000000  0.88188498  1.0
  O  O5  1  0.83566048  0.25000000  0.11811502  1.0
  O  O6  1  0.82956002  0.95352753  0.65754206  1.0
  O  O7  1  0.82956002  0.54647247  0.65754206  1.0
  O  O8  1  0.17043998  0.45352753  0.34245794  1.0
  O  O9  1  0.17043998  0.04647247  0.34245794  1.0
  O  O10  1  0.72360113  0.75000000  0.88363741  1.0
  O  O11  1  0.27639887  0.25000000  0.11636259  1.0
