# generated using pymatgen
data_SbPO5
_symmetry_space_group_name_H-M   'P 1'
_cell_length_a   5.36825434
_cell_length_b   5.36825434
_cell_length_c   7.14906984
_cell_angle_alpha   73.49286909
_cell_angle_beta   106.50713091
_cell_angle_gamma   80.08852560
_symmetry_Int_Tables_number   1
_chemical_formula_structural   SbPO5
_chemical_formula_sum   'Sb2 P2 O10'
_cell_volume   182.08460248
_cell_formula_units_Z   2
loop_
 _symmetry_equiv_pos_site_id
 _symmetry_equiv_pos_as_xyz
  1  'x, y, z'
loop_
 _atom_site_type_symbol
 _atom_site_label
 _atom_site_symmetry_multiplicity
 _atom_site_fract_x
 _atom_site_fract_y
 _atom_site_fract_z
 _atom_site_occupancy
  Sb  Sb0  1  -0.00000000  0.00000000  0.50000000  1.0
  Sb  Sb1  1  -0.00000000  0.00000000  -0.00000000  1.0
  P  P2  1  1.33103902  0.33103902  0.25000000  1.0
  P  P3  1  0.66896098  -0.33103902  0.75000000  1.0
  O  O4  1  1.62401672  0.25862800  0.40419609  1.0
  O  O5  1  0.74137200  -0.62401672  0.90419609  1.0
  O  O6  1  1.25862800  0.62401672  0.09580391  1.0
  O  O7  1  0.37598328  -0.25862800  0.59580391  1.0
  O  O8  1  1.31569947  0.13062581  0.12881077  1.0
  O  O9  1  0.86937419  -0.31569947  0.62881077  1.0
  O  O10  1  1.13062581  0.31569947  0.37118923  1.0
  O  O11  1  0.68430053  -0.13062581  0.87118923  1.0
  O  O12  1  0.90625905  -0.09374095  0.25000000  1.0
  O  O13  1  1.09374095  0.09374095  0.75000000  1.0
