# generated using pymatgen
data_PtS
_symmetry_space_group_name_H-M   'P 1'
_cell_length_a   6.48123197
_cell_length_b   6.48123197
_cell_length_c   6.65262414
_cell_angle_alpha   90.00000000
_cell_angle_beta   90.00000000
_cell_angle_gamma   90.00000000
_symmetry_Int_Tables_number   1
_chemical_formula_structural   PtS
_chemical_formula_sum   'Pt8 S8'
_cell_volume   279.45257655
_cell_formula_units_Z   8
loop_
 _symmetry_equiv_pos_site_id
 _symmetry_equiv_pos_as_xyz
  1  'x, y, z'
loop_
 _atom_site_type_symbol
 _atom_site_label
 _atom_site_symmetry_multiplicity
 _atom_site_fract_x
 _atom_site_fract_y
 _atom_site_fract_z
 _atom_site_occupancy
  Pt  Pt0  1  0.00000000  0.00000000  0.25000000  1.0
  Pt  Pt1  1  0.00000000  0.00000000  0.75000000  1.0
  Pt  Pt2  1  -0.00000000  0.50000000  0.50000000  1.0
  Pt  Pt3  1  0.50000000  0.00000000  0.00000000  1.0
  Pt  Pt4  1  0.52797755  0.25562532  0.50000000  1.0
  Pt  Pt5  1  0.47202245  0.74437468  0.50000000  1.0
  Pt  Pt6  1  0.25562532  0.47202245  -0.00000000  1.0
  Pt  Pt7  1  0.74437468  0.52797755  0.00000000  1.0
  S  S8  1  0.80605251  0.30681588  0.27374676  1.0
  S  S9  1  0.19394749  0.69318412  0.27374676  1.0
  S  S10  1  0.30681588  0.19394749  0.77374676  1.0
  S  S11  1  0.69318412  0.80605251  0.77374676  1.0
  S  S12  1  0.19394749  0.69318412  0.72625324  1.0
  S  S13  1  0.80605251  0.30681588  0.72625324  1.0
  S  S14  1  0.69318412  0.80605251  0.22625324  1.0
  S  S15  1  0.30681588  0.19394749  0.22625324  1.0
