# generated using pymatgen
data_K3B6ClO10
_symmetry_space_group_name_H-M   'P 1'
_cell_length_a   6.59103865
_cell_length_b   6.59103865
_cell_length_c   6.59103865
_cell_angle_alpha   100.67286441
_cell_angle_beta   100.67286441
_cell_angle_gamma   100.67286441
_symmetry_Int_Tables_number   1
_chemical_formula_structural   K3B6ClO10
_chemical_formula_sum   'K3 B6 Cl1 O10'
_cell_volume   269.26827105
_cell_formula_units_Z   1
loop_
 _symmetry_equiv_pos_site_id
 _symmetry_equiv_pos_as_xyz
  1  'x, y, z'
loop_
 _atom_site_type_symbol
 _atom_site_label
 _atom_site_symmetry_multiplicity
 _atom_site_fract_x
 _atom_site_fract_y
 _atom_site_fract_z
 _atom_site_occupancy
  K  K0  1  0.96626657  0.50413547  0.50413547  1.0
  K  K1  1  1.50413547  -0.03373343  0.50413547  1.0
  K  K2  1  1.50413547  0.50413547  -0.03373343  1.0
  B  B3  1  1.40549107  0.95631859  -0.04368141  1.0
  B  B4  1  0.95631859  1.40549107  -0.04368141  1.0
  B  B5  1  0.95631859  0.95631859  0.40549107  1.0
  B  B6  1  0.81458758  0.07737558  0.07737558  1.0
  B  B7  1  1.07737558  -0.18541242  0.07737558  1.0
  B  B8  1  1.07737558  0.07737558  -0.18541242  1.0
  Cl  Cl9  1  0.45735907  0.45735907  0.45735907  1.0
  O  O10  1  1.30168522  -0.16558215  0.06953348  1.0
  O  O11  1  1.30168522  0.06953348  -0.16558215  1.0
  O  O12  1  0.83441785  0.30168522  0.06953348  1.0
  O  O13  1  0.83441785  0.06953348  0.30168522  1.0
  O  O14  1  1.06953348  -0.16558215  0.30168522  1.0
  O  O15  1  1.06953348  0.30168522  -0.16558215  1.0
  O  O16  1  1.61168771  0.94832369  -0.05167631  1.0
  O  O17  1  0.94832369  1.61168771  -0.05167631  1.0
  O  O18  1  0.94832369  0.94832369  0.61168771  1.0
  O  O19  1  -0.00487176  -0.00487176  -0.00487176  1.0
