# generated using pymatgen
data_MoS3N2O
_symmetry_space_group_name_H-M   'P 1'
_cell_length_a   7.39369681
_cell_length_b   6.49985153
_cell_length_c   13.09836214
_cell_angle_alpha   90.00000000
_cell_angle_beta   90.00000000
_cell_angle_gamma   90.00000000
_symmetry_Int_Tables_number   1
_chemical_formula_structural   MoS3N2O
_chemical_formula_sum   'Mo4 S12 N8 O4'
_cell_volume   629.48019186
_cell_formula_units_Z   4
loop_
 _symmetry_equiv_pos_site_id
 _symmetry_equiv_pos_as_xyz
  1  'x, y, z'
loop_
 _atom_site_type_symbol
 _atom_site_label
 _atom_site_symmetry_multiplicity
 _atom_site_fract_x
 _atom_site_fract_y
 _atom_site_fract_z
 _atom_site_occupancy
  Mo  Mo0  1  0.60081471  0.75000000  0.41378297  1.0
  Mo  Mo1  1  0.10081471  0.75000000  0.08621703  1.0
  Mo  Mo2  1  0.39918529  0.25000000  0.58621703  1.0
  Mo  Mo3  1  0.89918529  0.25000000  0.91378297  1.0
  S  S4  1  0.68678512  1.02897013  0.31073259  1.0
  S  S5  1  0.68678512  0.47102987  0.31073259  1.0
  S  S6  1  0.18678512  1.02897013  0.18926741  1.0
  S  S7  1  0.18678512  0.47102987  0.18926741  1.0
  S  S8  1  0.31321488  0.52897013  0.68926741  1.0
  S  S9  1  0.31321488  -0.02897013  0.68926741  1.0
  S  S10  1  0.81321488  0.52897013  0.81073259  1.0
  S  S11  1  0.81321488  -0.02897013  0.81073259  1.0
  S  S12  1  1.17661041  0.75000000  0.49998031  1.0
  S  S13  1  0.67661041  0.75000000  0.00001969  1.0
  S  S14  1  -0.17661041  0.25000000  0.50001969  1.0
  S  S15  1  0.32338959  0.25000000  0.99998031  1.0
  N  N16  1  0.23309763  0.75000000  0.62560422  1.0
  N  N17  1  0.73309763  0.75000000  0.87439578  1.0
  N  N18  1  0.76690237  0.25000000  0.37439578  1.0
  N  N19  1  0.26690237  0.25000000  0.12560422  1.0
  N  N20  1  0.85696675  0.75000000  0.06707092  1.0
  N  N21  1  0.35696675  0.75000000  0.43292908  1.0
  N  N22  1  0.14303325  0.25000000  0.93292908  1.0
  N  N23  1  0.64303325  0.25000000  0.56707092  1.0
  O  O24  1  0.70120910  0.75000000  0.52964190  1.0
  O  O25  1  0.20120910  0.75000000  0.97035810  1.0
  O  O26  1  0.29879090  0.25000000  0.47035810  1.0
  O  O27  1  0.79879090  0.25000000  0.02964190  1.0
