# generated using pymatgen
data_LaAg
_symmetry_space_group_name_H-M   'P 1'
_cell_length_a   5.42648446
_cell_length_b   3.81805658
_cell_length_c   5.42961753
_cell_angle_alpha   90.00000000
_cell_angle_beta   90.00000000
_cell_angle_gamma   90.00000000
_symmetry_Int_Tables_number   1
_chemical_formula_structural   LaAg
_chemical_formula_sum   'La2 Ag2'
_cell_volume   112.49420783
_cell_formula_units_Z   2
loop_
 _symmetry_equiv_pos_site_id
 _symmetry_equiv_pos_as_xyz
  1  'x, y, z'
loop_
 _atom_site_type_symbol
 _atom_site_label
 _atom_site_symmetry_multiplicity
 _atom_site_fract_x
 _atom_site_fract_y
 _atom_site_fract_z
 _atom_site_occupancy
  La  La0  1  0.75000000  0.50000000  0.74726355  1.0
  La  La1  1  0.25000000  0.50000000  0.25273645  1.0
  Ag  Ag2  1  0.75000000  0.00000000  0.24477274  1.0
  Ag  Ag3  1  0.25000000  0.00000000  0.75522726  1.0
