# generated using pymatgen
data_TiZn(BiO3)2
_symmetry_space_group_name_H-M   'P 1'
_cell_length_a   4.67377336
_cell_length_b   4.67377336
_cell_length_c   7.22452521
_cell_angle_alpha   90.00000000
_cell_angle_beta   90.00000000
_cell_angle_gamma   97.67932118
_symmetry_Int_Tables_number   1
_chemical_formula_structural   TiZn(BiO3)2
_chemical_formula_sum   'Ti1 Zn1 Bi2 O6'
_cell_volume   156.39831260
_cell_formula_units_Z   1
loop_
 _symmetry_equiv_pos_site_id
 _symmetry_equiv_pos_as_xyz
  1  'x, y, z'
loop_
 _atom_site_type_symbol
 _atom_site_label
 _atom_site_symmetry_multiplicity
 _atom_site_fract_x
 _atom_site_fract_y
 _atom_site_fract_z
 _atom_site_occupancy
  Ti  Ti0  1  -0.46730916  1.46730916  0.00000000  1.0
  Zn  Zn1  1  -0.46508787  1.46508787  0.50000000  1.0
  Bi  Bi2  1  0.11422037  0.88577963  0.26267604  1.0
  Bi  Bi3  1  0.11422037  0.88577963  0.73732396  1.0
  O  O4  1  -0.60665864  1.05315993  0.50000000  1.0
  O  O5  1  -0.05315993  1.60665864  0.50000000  1.0
  O  O6  1  -0.55795032  1.08097886  0.00000000  1.0
  O  O7  1  -0.08097886  1.55795032  0.00000000  1.0
  O  O8  1  0.41985202  0.58014798  0.23884993  1.0
  O  O9  1  0.41985202  0.58014798  0.76115007  1.0
