# generated using pymatgen
data_LuH9C5(NO4)2
_symmetry_space_group_name_H-M   'P 1'
_cell_length_a   9.71295159
_cell_length_b   9.71295159
_cell_length_c   8.55465123
_cell_angle_alpha   90.00000000
_cell_angle_beta   90.00000000
_cell_angle_gamma   139.50658129
_symmetry_Int_Tables_number   1
_chemical_formula_structural   LuH9C5(NO4)2
_chemical_formula_sum   'Lu2 H18 C10 N4 O16'
_cell_volume   524.07175966
_cell_formula_units_Z   2
loop_
 _symmetry_equiv_pos_site_id
 _symmetry_equiv_pos_as_xyz
  1  'x, y, z'
loop_
 _atom_site_type_symbol
 _atom_site_label
 _atom_site_symmetry_multiplicity
 _atom_site_fract_x
 _atom_site_fract_y
 _atom_site_fract_z
 _atom_site_occupancy
  Lu  Lu0  1  -0.14242800  1.14242800  0.75000000  1.0
  Lu  Lu1  1  -0.85757200  0.85757200  0.25000000  1.0
  H  H2  1  -0.51608945  1.06624926  0.93416500  1.0
  H  H3  1  0.06624926  1.48391055  0.06583500  1.0
  H  H4  1  -0.48391055  0.93375074  0.43416500  1.0
  H  H5  1  -0.06624926  1.51608945  0.56583500  1.0
  H  H6  1  -0.68575232  0.68575232  0.75000000  1.0
  H  H7  1  -0.31424768  1.31424768  0.25000000  1.0
  H  H8  1  0.75293666  0.75293666  0.50000000  1.0
  H  H9  1  0.24706334  0.24706334  0.00000000  1.0
  H  H10  1  0.33337851  1.34913546  0.32479642  1.0
  H  H11  1  -0.65086454  1.33337851  0.67520358  1.0
  H  H12  1  -0.33337851  1.65086454  0.82479642  1.0
  H  H13  1  -0.34913546  0.66662149  0.17520358  1.0
  H  H14  1  0.16961211  1.36053314  0.39672471  1.0
  H  H15  1  -0.63946686  1.16961211  0.60327529  1.0
  H  H16  1  -0.16961211  1.63946686  0.89672471  1.0
  H  H17  1  -0.36053314  0.83038789  0.10327529  1.0
  H  H18  1  -0.65707727  0.65707727  0.25000000  1.0
  H  H19  1  -0.34292273  1.34292273  0.75000000  1.0
  C  C20  1  -0.48597691  1.00563618  0.01978592  1.0
  C  C21  1  0.00563618  1.51402309  0.98021408  1.0
  C  C22  1  -0.51402309  0.99436382  0.51978592  1.0
  C  C23  1  -0.00563618  1.48597691  0.48021408  1.0
  C  C24  1  -0.62507191  0.62507191  0.75000000  1.0
  C  C25  1  -0.37492809  1.37492809  0.25000000  1.0
  C  C26  1  0.91787649  0.91787649  0.50000000  1.0
  C  C27  1  0.08212351  0.08212351  0.00000000  1.0
  C  C28  1  -0.59704794  0.59704794  0.25000000  1.0
  C  C29  1  -0.40295206  1.40295206  0.75000000  1.0
  N  N30  1  0.29637106  1.42412207  0.33107756  1.0
  N  N31  1  -0.57587793  1.29637106  0.66892244  1.0
  N  N32  1  -0.29637106  1.57587793  0.83107756  1.0
  N  N33  1  -0.42412207  0.70362894  0.16892244  1.0
  O  O34  1  -0.42653845  0.75894698  0.73799029  1.0
  O  O35  1  -0.24105302  1.57346155  0.26200971  1.0
  O  O36  1  -0.57346155  1.24105302  0.23799029  1.0
  O  O37  1  0.24105302  1.42653845  0.76200971  1.0
  O  O38  1  -0.04328579  1.05813654  0.57168868  1.0
  O  O39  1  -0.94186346  0.95671421  0.42831132  1.0
  O  O40  1  0.04328579  1.94186346  0.07168868  1.0
  O  O41  1  -0.05813654  1.04328579  0.92831132  1.0
  O  O42  1  -0.35911852  1.00771847  0.98025781  1.0
  O  O43  1  0.00771847  1.64088148  0.01974219  1.0
  O  O44  1  -0.64088148  0.99228153  0.48025781  1.0
  O  O45  1  -0.00771847  1.35911852  0.51974219  1.0
  O  O46  1  -0.06235078  1.41795042  0.85012546  1.0
  O  O47  1  -0.58204958  0.93764922  0.14987454  1.0
  O  O48  1  0.06235078  1.58204958  0.35012546  1.0
  O  O49  1  -0.41795042  1.06235078  0.64987454  1.0
