# generated using pymatgen
data_GdCrO3
_symmetry_space_group_name_H-M   'P 1'
_cell_length_a   5.59611332
_cell_length_b   7.66063796
_cell_length_c   5.34297235
_cell_angle_alpha   90.00000000
_cell_angle_beta   90.00000000
_cell_angle_gamma   90.00000000
_symmetry_Int_Tables_number   1
_chemical_formula_structural   GdCrO3
_chemical_formula_sum   'Gd4 Cr4 O12'
_cell_volume   229.05214605
_cell_formula_units_Z   4
loop_
 _symmetry_equiv_pos_site_id
 _symmetry_equiv_pos_as_xyz
  1  'x, y, z'
loop_
 _atom_site_type_symbol
 _atom_site_label
 _atom_site_symmetry_multiplicity
 _atom_site_fract_x
 _atom_site_fract_y
 _atom_site_fract_z
 _atom_site_occupancy
  Gd  Gd0  1  0.06246948  0.75000000  0.51639801  1.0
  Gd  Gd1  1  0.56246948  0.75000000  0.98360199  1.0
  Gd  Gd2  1  0.93753052  0.25000000  0.48360199  1.0
  Gd  Gd3  1  0.43753052  0.25000000  0.01639801  1.0
  Cr  Cr4  1  0.50000000  0.00000000  0.50000000  1.0
  Cr  Cr5  1  0.50000000  0.50000000  0.50000000  1.0
  Cr  Cr6  1  0.00000000  0.00000000  0.00000000  1.0
  Cr  Cr7  1  0.00000000  0.50000000  0.00000000  1.0
  O  O8  1  0.29907643  0.94840028  0.80246602  1.0
  O  O9  1  0.29907643  0.55159972  0.80246602  1.0
  O  O10  1  0.79907643  0.94840028  0.69753398  1.0
  O  O11  1  0.79907643  0.55159972  0.69753398  1.0
  O  O12  1  0.70092357  0.44840028  0.19753398  1.0
  O  O13  1  0.70092357  0.05159972  0.19753398  1.0
  O  O14  1  0.20092357  0.44840028  0.30246602  1.0
  O  O15  1  0.20092357  0.05159972  0.30246602  1.0
  O  O16  1  0.96799667  0.75000000  0.09950819  1.0
  O  O17  1  0.46799667  0.75000000  0.40049181  1.0
  O  O18  1  0.03200333  0.25000000  0.90049181  1.0
  O  O19  1  0.53200333  0.25000000  0.59950819  1.0
