# generated using pymatgen
data_CaAg2
_symmetry_space_group_name_H-M   'P 1'
_cell_length_a   5.98004597
_cell_length_b   5.98004597
_cell_length_c   5.98004597
_cell_angle_alpha   133.28746112
_cell_angle_beta   104.84864928
_cell_angle_gamma   93.32928817
_symmetry_Int_Tables_number   1
_chemical_formula_structural   CaAg2
_chemical_formula_sum   'Ca2 Ag4'
_cell_volume   141.92078124
_cell_formula_units_Z   2
loop_
 _symmetry_equiv_pos_site_id
 _symmetry_equiv_pos_as_xyz
  1  'x, y, z'
loop_
 _atom_site_type_symbol
 _atom_site_label
 _atom_site_symmetry_multiplicity
 _atom_site_fract_x
 _atom_site_fract_y
 _atom_site_fract_z
 _atom_site_occupancy
  Ca  Ca0  1  1.70620871  1.45620871  1.25000000  1.0
  Ca  Ca1  1  0.29379129  0.54379129  0.75000000  1.0
  Ag  Ag2  1  1.28808836  0.83710416  1.45098419  1.0
  Ag  Ag3  1  1.11388003  0.16289584  0.95098419  1.0
  Ag  Ag4  1  0.71191164  1.16289584  0.54901581  1.0
  Ag  Ag5  1  0.88611997  0.83710416  0.04901581  1.0
