# generated using pymatgen
data_AlF3
_symmetry_space_group_name_H-M   'P 1'
_cell_length_a   11.65418447
_cell_length_b   11.65418447
_cell_length_c   3.64762039
_cell_angle_alpha   90.00000000
_cell_angle_beta   90.00000000
_cell_angle_gamma   90.00000000
_symmetry_Int_Tables_number   1
_chemical_formula_structural   AlF3
_chemical_formula_sum   'Al10 F30'
_cell_volume   495.41985809
_cell_formula_units_Z   10
loop_
 _symmetry_equiv_pos_site_id
 _symmetry_equiv_pos_as_xyz
  1  'x, y, z'
loop_
 _atom_site_type_symbol
 _atom_site_label
 _atom_site_symmetry_multiplicity
 _atom_site_fract_x
 _atom_site_fract_y
 _atom_site_fract_z
 _atom_site_occupancy
  Al  Al0  1  0.29196893  0.57575405  0.00000000  1.0
  Al  Al1  1  0.79196893  0.92424595  -0.00000000  1.0
  Al  Al2  1  0.42424595  0.29196893  0.00000000  1.0
  Al  Al3  1  0.92424595  0.20803107  -0.00000000  1.0
  Al  Al4  1  0.70803107  0.42424595  0.00000000  1.0
  Al  Al5  1  0.20803107  0.07575405  -0.00000000  1.0
  Al  Al6  1  0.57575405  0.70803107  0.00000000  1.0
  Al  Al7  1  0.07575405  0.79196893  -0.00000000  1.0
  Al  Al8  1  0.50000000  0.00000000  0.00000000  1.0
  Al  Al9  1  0.00000000  0.50000000  0.00000000  1.0
  F  F10  1  0.29182650  0.57706142  0.50000000  1.0
  F  F11  1  0.79182650  0.92293858  0.50000000  1.0
  F  F12  1  0.42293858  0.29182650  0.50000000  1.0
  F  F13  1  0.92293858  0.20817350  0.50000000  1.0
  F  F14  1  0.70817350  0.42293858  0.50000000  1.0
  F  F15  1  0.20817350  0.07706142  0.50000000  1.0
  F  F16  1  0.57706142  0.70817350  0.50000000  1.0
  F  F17  1  0.07706142  0.79182650  0.50000000  1.0
  F  F18  1  0.50020046  0.84458700  0.00000000  1.0
  F  F19  1  1.00020046  0.65541300  0.00000000  1.0
  F  F20  1  0.15541300  0.50020046  0.00000000  1.0
  F  F21  1  0.65541300  -0.00020046  0.00000000  1.0
  F  F22  1  0.49979954  0.15541300  0.00000000  1.0
  F  F23  1  -0.00020046  0.34458700  0.00000000  1.0
  F  F24  1  0.84458700  0.49979954  -0.00000000  1.0
  F  F25  1  0.34458700  1.00020046  0.00000000  1.0
  F  F26  1  0.43264905  0.64131756  -0.00000000  1.0
  F  F27  1  0.93264905  0.85868244  -0.00000000  1.0
  F  F28  1  0.35868244  0.43264905  -0.00000000  1.0
  F  F29  1  0.85868244  0.06735095  -0.00000000  1.0
  F  F30  1  0.56735095  0.35868244  -0.00000000  1.0
  F  F31  1  0.06735095  0.14131756  -0.00000000  1.0
  F  F32  1  0.64131756  0.56735095  -0.00000000  1.0
  F  F33  1  0.14131756  0.93264905  -0.00000000  1.0
  F  F34  1  0.28494410  0.21505590  -0.00000000  1.0
  F  F35  1  0.78494410  0.28494410  0.00000000  1.0
  F  F36  1  0.71505590  0.78494410  -0.00000000  1.0
  F  F37  1  0.21505590  0.71505590  0.00000000  1.0
  F  F38  1  0.50000000  0.00000000  0.50000000  1.0
  F  F39  1  0.00000000  0.50000000  0.50000000  1.0
