# generated using pymatgen
data_Hf4NbGe4
_symmetry_space_group_name_H-M   'P 1'
_cell_length_a   6.94285975
_cell_length_b   13.48087533
_cell_length_c   7.06144654
_cell_angle_alpha   90.00000000
_cell_angle_beta   90.00000000
_cell_angle_gamma   90.00000000
_symmetry_Int_Tables_number   1
_chemical_formula_structural   Hf4NbGe4
_chemical_formula_sum   'Hf16 Nb4 Ge16'
_cell_volume   660.92192729
_cell_formula_units_Z   4
loop_
 _symmetry_equiv_pos_site_id
 _symmetry_equiv_pos_as_xyz
  1  'x, y, z'
loop_
 _atom_site_type_symbol
 _atom_site_label
 _atom_site_symmetry_multiplicity
 _atom_site_fract_x
 _atom_site_fract_y
 _atom_site_fract_z
 _atom_site_occupancy
  Hf  Hf0  1  0.48662311  0.40510932  0.17670567  1.0
  Hf  Hf1  1  0.48662311  0.09489068  0.17670567  1.0
  Hf  Hf2  1  0.98662311  0.40510932  0.32329433  1.0
  Hf  Hf3  1  0.98662311  0.09489068  0.32329433  1.0
  Hf  Hf4  1  0.51337689  0.90510932  0.82329433  1.0
  Hf  Hf5  1  0.51337689  0.59489068  0.82329433  1.0
  Hf  Hf6  1  0.01337689  0.90510932  0.67670567  1.0
  Hf  Hf7  1  0.01337689  0.59489068  0.67670567  1.0
  Hf  Hf8  1  0.15297977  0.37524366  0.83093378  1.0
  Hf  Hf9  1  0.15297977  0.12475634  0.83093378  1.0
  Hf  Hf10  1  0.65297977  0.37524366  0.66906622  1.0
  Hf  Hf11  1  0.65297977  0.12475634  0.66906622  1.0
  Hf  Hf12  1  0.84702023  0.87524366  0.16906622  1.0
  Hf  Hf13  1  0.84702023  0.62475634  0.16906622  1.0
  Hf  Hf14  1  0.34702023  0.87524366  0.33093378  1.0
  Hf  Hf15  1  0.34702023  0.62475634  0.33093378  1.0
  Nb  Nb16  1  0.32632493  0.25000000  0.50309761  1.0
  Nb  Nb17  1  0.82632493  0.25000000  0.99690239  1.0
  Nb  Nb18  1  0.67367507  0.75000000  0.49690239  1.0
  Nb  Nb19  1  0.17367507  0.75000000  0.00309761  1.0
  Ge  Ge20  1  0.30990884  0.45948339  0.53212176  1.0
  Ge  Ge21  1  0.30990884  0.04051661  0.53212176  1.0
  Ge  Ge22  1  0.80990884  0.45948339  0.96787824  1.0
  Ge  Ge23  1  0.80990884  0.04051661  0.96787824  1.0
  Ge  Ge24  1  0.69009116  0.95948339  0.46787824  1.0
  Ge  Ge25  1  0.69009116  0.54051661  0.46787824  1.0
  Ge  Ge26  1  0.19009116  0.95948339  0.03212176  1.0
  Ge  Ge27  1  0.19009116  0.54051661  0.03212176  1.0
  Ge  Ge28  1  0.45517592  0.25000000  0.89182346  1.0
  Ge  Ge29  1  0.95517592  0.25000000  0.60817654  1.0
  Ge  Ge30  1  0.54482408  0.75000000  0.10817654  1.0
  Ge  Ge31  1  0.04482408  0.75000000  0.39182346  1.0
  Ge  Ge32  1  0.18572175  0.25000000  0.14975838  1.0
  Ge  Ge33  1  0.68572175  0.25000000  0.35024162  1.0
  Ge  Ge34  1  0.81427825  0.75000000  0.85024162  1.0
  Ge  Ge35  1  0.31427825  0.75000000  0.64975838  1.0
