# generated using pymatgen
data_V3H4NO8
_symmetry_space_group_name_H-M   'P 1'
_cell_length_a   5.17599766
_cell_length_b   9.05316829
_cell_length_c   8.66393161
_cell_angle_alpha   90.00000000
_cell_angle_beta   107.66329673
_cell_angle_gamma   90.00000000
_symmetry_Int_Tables_number   1
_chemical_formula_structural   V3H4NO8
_chemical_formula_sum   'V6 H8 N2 O16'
_cell_volume   386.84498862
_cell_formula_units_Z   2
loop_
 _symmetry_equiv_pos_site_id
 _symmetry_equiv_pos_as_xyz
  1  'x, y, z'
loop_
 _atom_site_type_symbol
 _atom_site_label
 _atom_site_symmetry_multiplicity
 _atom_site_fract_x
 _atom_site_fract_y
 _atom_site_fract_z
 _atom_site_occupancy
  V  V0  1  0.02531945  0.43490878  0.83334962  1.0
  V  V1  1  0.02531945  0.06509122  0.83334962  1.0
  V  V2  1  0.97468055  0.93490878  0.16665038  1.0
  V  V3  1  0.97468055  0.56509122  0.16665038  1.0
  V  V4  1  0.59837757  0.25000000  0.96529503  1.0
  V  V5  1  0.40162243  0.75000000  0.03470497  1.0
  H  H6  1  0.38602327  0.34232990  0.43108567  1.0
  H  H7  1  0.38602327  0.15767010  0.43108567  1.0
  H  H8  1  0.61397673  0.84232990  0.56891433  1.0
  H  H9  1  0.61397673  0.65767010  0.56891433  1.0
  H  H10  1  0.61826595  0.25000000  0.37340371  1.0
  H  H11  1  0.38173405  0.75000000  0.62659629  1.0
  H  H12  1  0.64237634  0.25000000  0.57492337  1.0
  H  H13  1  0.35762366  0.75000000  0.42507663  1.0
  N  N14  1  0.51175759  0.25000000  0.45598935  1.0
  N  N15  1  0.48824241  0.75000000  0.54401065  1.0
  O  O16  1  0.84899691  0.40462357  1.00449236  1.0
  O  O17  1  0.84899691  0.09537643  1.00449236  1.0
  O  O18  1  0.15100309  0.90462357  -0.00449236  1.0
  O  O19  1  0.15100309  0.59537643  -0.00449236  1.0
  O  O20  1  0.34468471  0.38720568  0.82675212  1.0
  O  O21  1  0.34468471  0.11279432  0.82675212  1.0
  O  O22  1  0.65531529  0.88720568  0.17324788  1.0
  O  O23  1  0.65531529  0.61279432  0.17324788  1.0
  O  O24  1  0.87353855  0.96805153  0.67530370  1.0
  O  O25  1  0.87353855  0.53194847  0.67530370  1.0
  O  O26  1  0.12646145  0.46805153  0.32469630  1.0
  O  O27  1  0.12646145  0.03194847  0.32469630  1.0
  O  O28  1  0.87188792  0.25000000  0.76893322  1.0
  O  O29  1  0.12811208  0.75000000  0.23106678  1.0
  O  O30  1  0.51016240  0.25000000  0.12600239  1.0
  O  O31  1  0.48983760  0.75000000  0.87399761  1.0
