# generated using pymatgen
data_Na2GeF6
_symmetry_space_group_name_H-M   'P 1'
_cell_length_a   9.26241491
_cell_length_b   9.26241491
_cell_length_c   5.21256387
_cell_angle_alpha   90.00000000
_cell_angle_beta   90.00000000
_cell_angle_gamma   120.00000000
_symmetry_Int_Tables_number   1
_chemical_formula_structural   Na2GeF6
_chemical_formula_sum   'Na6 Ge3 F18'
_cell_volume   387.28482809
_cell_formula_units_Z   3
loop_
 _symmetry_equiv_pos_site_id
 _symmetry_equiv_pos_as_xyz
  1  'x, y, z'
loop_
 _atom_site_type_symbol
 _atom_site_label
 _atom_site_symmetry_multiplicity
 _atom_site_fract_x
 _atom_site_fract_y
 _atom_site_fract_z
 _atom_site_occupancy
  Na  Na0  1  0.70966563  0.70966563  0.50000000  1.0
  Na  Na1  1  -0.00000000  0.29033437  0.50000000  1.0
  Na  Na2  1  0.29033437  0.00000000  0.50000000  1.0
  Na  Na3  1  0.37477313  0.37477313  0.00000000  1.0
  Na  Na4  1  0.00000000  0.62522687  0.00000000  1.0
  Na  Na5  1  0.62522687  0.00000000  0.00000000  1.0
  Ge  Ge6  1  0.33333333  0.66666667  0.49429283  1.0
  Ge  Ge7  1  0.66666667  0.33333333  0.50570717  1.0
  Ge  Ge8  1  0.00000000  0.00000000  0.00000000  1.0
  F  F9  1  0.08631067  0.89863595  0.19972223  1.0
  F  F10  1  0.89863595  0.08631067  0.80027777  1.0
  F  F11  1  0.81232527  0.91368933  0.19972223  1.0
  F  F12  1  0.10136405  0.18767473  0.19972223  1.0
  F  F13  1  0.91368933  0.81232527  0.80027777  1.0
  F  F14  1  0.18767473  0.10136405  0.80027777  1.0
  F  F15  1  0.40650046  0.85279872  0.29249907  1.0
  F  F16  1  0.85279872  0.40650046  0.70750093  1.0
  F  F17  1  0.44629826  0.59349954  0.29249907  1.0
  F  F18  1  0.14720128  0.55370174  0.29249907  1.0
  F  F19  1  0.59349954  0.44629826  0.70750093  1.0
  F  F20  1  0.55370174  0.14720128  0.70750093  1.0
  F  F21  1  0.77490150  0.52052687  0.30446554  1.0
  F  F22  1  0.52052687  0.77490150  0.69553446  1.0
  F  F23  1  0.74562537  0.22509850  0.30446554  1.0
  F  F24  1  0.47947313  0.25437463  0.30446554  1.0
  F  F25  1  0.22509850  0.74562537  0.69553446  1.0
  F  F26  1  0.25437463  0.47947313  0.69553446  1.0
