# generated using pymatgen
data_Na2PdF6
_symmetry_space_group_name_H-M   'P 1'
_cell_length_a   9.43111837
_cell_length_b   9.43111837
_cell_length_c   5.27872409
_cell_angle_alpha   90.00000000
_cell_angle_beta   90.00000000
_cell_angle_gamma   120.00000000
_symmetry_Int_Tables_number   1
_chemical_formula_structural   Na2PdF6
_chemical_formula_sum   'Na6 Pd3 F18'
_cell_volume   406.61742441
_cell_formula_units_Z   3
loop_
 _symmetry_equiv_pos_site_id
 _symmetry_equiv_pos_as_xyz
  1  'x, y, z'
loop_
 _atom_site_type_symbol
 _atom_site_label
 _atom_site_symmetry_multiplicity
 _atom_site_fract_x
 _atom_site_fract_y
 _atom_site_fract_z
 _atom_site_occupancy
  Na  Na0  1  0.70507681  0.70507681  0.50000000  1.0
  Na  Na1  1  -0.00000000  0.29492319  0.50000000  1.0
  Na  Na2  1  0.29492319  0.00000000  0.50000000  1.0
  Na  Na3  1  0.37053664  0.37053664  0.00000000  1.0
  Na  Na4  1  -0.00000000  0.62946336  -0.00000000  1.0
  Na  Na5  1  0.62946336  0.00000000  0.00000000  1.0
  Pd  Pd6  1  0.33333333  0.66666667  0.49232593  1.0
  Pd  Pd7  1  0.66666667  0.33333333  0.50767407  1.0
  Pd  Pd8  1  0.00000000  0.00000000  -0.00000000  1.0
  F  F9  1  0.09237680  0.89493893  0.20441478  1.0
  F  F10  1  0.89493893  0.09237680  0.79558522  1.0
  F  F11  1  0.80256213  0.90762320  0.20441478  1.0
  F  F12  1  0.10506107  0.19743787  0.20441478  1.0
  F  F13  1  0.90762320  0.80256213  0.79558522  1.0
  F  F14  1  0.19743787  0.10506107  0.79558522  1.0
  F  F15  1  0.41013821  0.86117046  0.28303382  1.0
  F  F16  1  0.86117046  0.41013821  0.71696618  1.0
  F  F17  1  0.45103225  0.58986179  0.28303382  1.0
  F  F18  1  0.13882954  0.54896775  0.28303382  1.0
  F  F19  1  0.58986179  0.45103225  0.71696618  1.0
  F  F20  1  0.54896775  0.13882954  0.71696618  1.0
  F  F21  1  0.77942116  0.52909915  0.29915452  1.0
  F  F22  1  0.52909915  0.77942116  0.70084548  1.0
  F  F23  1  0.74967798  0.22057884  0.29915452  1.0
  F  F24  1  0.47090085  0.25032202  0.29915452  1.0
  F  F25  1  0.22057884  0.74967798  0.70084548  1.0
  F  F26  1  0.25032202  0.47090085  0.70084548  1.0
