# generated using pymatgen
data_CuN5
_symmetry_space_group_name_H-M   'P 1'
_cell_length_a   6.71182042
_cell_length_b   6.71182042
_cell_length_c   6.71182042
_cell_angle_alpha   98.53556930
_cell_angle_beta   98.53556930
_cell_angle_gamma   134.68054197
_symmetry_Int_Tables_number   1
_chemical_formula_structural   CuN5
_chemical_formula_sum   'Cu2 N10'
_cell_volume   198.39277546
_cell_formula_units_Z   2
loop_
 _symmetry_equiv_pos_site_id
 _symmetry_equiv_pos_as_xyz
  1  'x, y, z'
loop_
 _atom_site_type_symbol
 _atom_site_label
 _atom_site_symmetry_multiplicity
 _atom_site_fract_x
 _atom_site_fract_y
 _atom_site_fract_z
 _atom_site_occupancy
  Cu  Cu0  1  0.00000000  0.00000000  0.00000000  1.0
  Cu  Cu1  1  0.75000000  0.25000000  0.50000000  1.0
  N  N2  1  0.50000000  0.50000000  0.00000000  1.0
  N  N3  1  1.25000000  0.75000000  0.50000000  1.0
  N  N4  1  0.65646146  0.58266778  0.86207060  1.0
  N  N5  1  1.02940282  1.45560915  1.36207060  1.0
  N  N6  1  1.20560915  1.34353854  0.92620633  1.0
  N  N7  1  1.33266778  0.97059718  0.42620633  1.0
  N  N8  1  0.72059718  0.79439085  0.13792940  1.0
  N  N9  1  1.09353854  0.66733222  0.63792940  1.0
  N  N10  1  0.41733222  1.27940282  1.07379367  1.0
  N  N11  1  1.54439085  1.90646146  1.57379367  1.0
