# generated using pymatgen
data_K2Pb2O3
_symmetry_space_group_name_H-M   'P 1'
_cell_length_a   7.45380982
_cell_length_b   7.45380982
_cell_length_c   7.45380982
_cell_angle_alpha   109.47122063
_cell_angle_beta   109.47122063
_cell_angle_gamma   109.47122063
_symmetry_Int_Tables_number   1
_chemical_formula_structural   K2Pb2O3
_chemical_formula_sum   'K4 Pb4 O6'
_cell_volume   318.79612438
_cell_formula_units_Z   2
loop_
 _symmetry_equiv_pos_site_id
 _symmetry_equiv_pos_as_xyz
  1  'x, y, z'
loop_
 _atom_site_type_symbol
 _atom_site_label
 _atom_site_symmetry_multiplicity
 _atom_site_fract_x
 _atom_site_fract_y
 _atom_site_fract_z
 _atom_site_occupancy
  K  K0  1  1.45197054  1.45197054  1.45197054  1.0
  K  K1  1  1.50000000  1.00000000  1.04802946  1.0
  K  K2  1  1.00000000  1.04802946  1.50000000  1.0
  K  K3  1  1.04802946  0.50000000  1.00000000  1.0
  Pb  Pb4  1  0.98862515  0.98862515  0.98862515  1.0
  Pb  Pb5  1  0.50000000  1.00000000  0.51137485  1.0
  Pb  Pb6  1  1.00000000  0.51137485  1.50000000  1.0
  Pb  Pb7  1  0.51137485  1.50000000  1.00000000  1.0
  O  O8  1  1.20878028  0.95878028  1.25000000  1.0
  O  O9  1  0.25000000  1.20878028  0.95878028  1.0
  O  O10  1  0.75000000  1.29121972  0.54121972  1.0
  O  O11  1  0.95878028  0.25000000  1.20878028  1.0
  O  O12  1  0.54121972  0.75000000  0.29121972  1.0
  O  O13  1  0.29121972  0.54121972  0.75000000  1.0
