# generated using pymatgen
data_Hf3Sb
_symmetry_space_group_name_H-M   'P 1'
_cell_length_a   8.43657335
_cell_length_b   8.43657335
_cell_length_c   8.43657335
_cell_angle_alpha   96.52296138
_cell_angle_beta   96.52296138
_cell_angle_gamma   140.60574734
_symmetry_Int_Tables_number   1
_chemical_formula_structural   Hf3Sb
_chemical_formula_sum   'Hf12 Sb4'
_cell_volume   358.79727147
_cell_formula_units_Z   4
loop_
 _symmetry_equiv_pos_site_id
 _symmetry_equiv_pos_as_xyz
  1  'x, y, z'
loop_
 _atom_site_type_symbol
 _atom_site_label
 _atom_site_symmetry_multiplicity
 _atom_site_fract_x
 _atom_site_fract_y
 _atom_site_fract_z
 _atom_site_occupancy
  Hf  Hf0  1  0.62108261  0.59777916  0.81194833  1.0
  Hf  Hf1  1  1.19086572  0.37891739  0.97669655  1.0
  Hf  Hf2  1  0.78583083  0.80913428  1.18805167  1.0
  Hf  Hf3  1  0.40222084  1.21416917  1.02330345  1.0
  Hf  Hf4  1  0.82868400  0.49752460  0.37722722  1.0
  Hf  Hf5  1  0.54854322  0.17131600  0.66884059  1.0
  Hf  Hf6  1  1.12029738  1.45145678  1.62277278  1.0
  Hf  Hf7  1  0.50247540  0.87970262  1.33115941  1.0
  Hf  Hf8  1  1.44937218  1.47790106  1.40206135  1.0
  Hf  Hf9  1  0.95268917  1.55062782  1.02852888  1.0
  Hf  Hf10  1  1.07583970  1.04731083  0.59793865  1.0
  Hf  Hf11  1  1.52209894  0.92416030  0.97147112  1.0
  Sb  Sb12  1  1.68298224  1.94063131  1.67712559  1.0
  Sb  Sb13  1  0.99414335  1.31701776  1.25764907  1.0
  Sb  Sb14  1  1.26350572  1.00585665  0.32287441  1.0
  Sb  Sb15  1  1.05936869  0.73649428  0.74235093  1.0
