# generated using pymatgen
data_Ca4Ni4Ge3
_symmetry_space_group_name_H-M   'P 1'
_cell_length_a   5.61598775
_cell_length_b   5.61598775
_cell_length_c   19.84949021
_cell_angle_alpha   90.00000000
_cell_angle_beta   90.00000000
_cell_angle_gamma   136.28987721
_symmetry_Int_Tables_number   1
_chemical_formula_structural   Ca4Ni4Ge3
_chemical_formula_sum   'Ca8 Ni8 Ge6'
_cell_volume   432.59956302
_cell_formula_units_Z   2
loop_
 _symmetry_equiv_pos_site_id
 _symmetry_equiv_pos_as_xyz
  1  'x, y, z'
loop_
 _atom_site_type_symbol
 _atom_site_label
 _atom_site_symmetry_multiplicity
 _atom_site_fract_x
 _atom_site_fract_y
 _atom_site_fract_z
 _atom_site_occupancy
  Ca  Ca0  1  0.44136051  0.55863949  0.84979187  1.0
  Ca  Ca1  1  0.44136051  0.55863949  0.65020813  1.0
  Ca  Ca2  1  -0.44136051  0.44136051  0.34979187  1.0
  Ca  Ca3  1  -0.44136051  0.44136051  0.15020813  1.0
  Ca  Ca4  1  -0.27120546  0.27120546  0.75000000  1.0
  Ca  Ca5  1  0.27120546  0.72879454  0.25000000  1.0
  Ca  Ca6  1  0.00000000  0.00000000  0.00000000  1.0
  Ca  Ca7  1  0.00000000  0.00000000  0.50000000  1.0
  Ni  Ni8  1  0.15369550  0.84630450  0.85670427  1.0
  Ni  Ni9  1  0.15369550  0.84630450  0.64329573  1.0
  Ni  Ni10  1  -0.15369550  0.15369550  0.35670427  1.0
  Ni  Ni11  1  -0.15369550  0.15369550  0.14329573  1.0
  Ni  Ni12  1  0.27169921  0.72830079  0.96600907  1.0
  Ni  Ni13  1  0.27169921  0.72830079  0.53399093  1.0
  Ni  Ni14  1  -0.27169921  0.27169921  0.46600907  1.0
  Ni  Ni15  1  -0.27169921  0.27169921  0.03399093  1.0
  Ge  Ge16  1  0.28547335  0.71452665  0.41291526  1.0
  Ge  Ge17  1  0.28547335  0.71452665  0.08708474  1.0
  Ge  Ge18  1  -0.28547335  0.28547335  0.91291526  1.0
  Ge  Ge19  1  -0.28547335  0.28547335  0.58708474  1.0
  Ge  Ge20  1  0.03063265  0.96936735  0.75000000  1.0
  Ge  Ge21  1  -0.03063265  0.03063265  0.25000000  1.0
