# generated using pymatgen
data_Zr5P12Ru19
_symmetry_space_group_name_H-M   'P 1'
_cell_length_a   12.39880279
_cell_length_b   12.39880279
_cell_length_c   3.90498095
_cell_angle_alpha   90.00000000
_cell_angle_beta   90.00000000
_cell_angle_gamma   120.00000000
_symmetry_Int_Tables_number   1
_chemical_formula_structural   Zr5P12Ru19
_chemical_formula_sum   'Zr5 P12 Ru19'
_cell_volume   519.88711791
_cell_formula_units_Z   1
loop_
 _symmetry_equiv_pos_site_id
 _symmetry_equiv_pos_as_xyz
  1  'x, y, z'
loop_
 _atom_site_type_symbol
 _atom_site_label
 _atom_site_symmetry_multiplicity
 _atom_site_fract_x
 _atom_site_fract_y
 _atom_site_fract_z
 _atom_site_occupancy
  Zr  Zr0  1  0.33333333  0.66666667  0.00000000  1.0
  Zr  Zr1  1  0.66666667  0.33333333  -0.00000000  1.0
  Zr  Zr2  1  0.19006968  0.19006968  0.50000000  1.0
  Zr  Zr3  1  -0.00000000  0.80993032  0.50000000  1.0
  Zr  Zr4  1  0.80993032  0.00000000  0.50000000  1.0
  P  P5  1  0.81968414  0.81968414  0.00000000  1.0
  P  P6  1  -0.00000000  0.18031586  -0.00000000  1.0
  P  P7  1  0.18031586  -0.00000000  -0.00000000  1.0
  P  P8  1  0.30634921  0.82709917  0.50000000  1.0
  P  P9  1  0.82709917  0.30634921  0.50000000  1.0
  P  P10  1  0.52074996  0.69365079  0.50000000  1.0
  P  P11  1  0.17290083  0.47925004  0.50000000  1.0
  P  P12  1  0.69365079  0.52074996  0.50000000  1.0
  P  P13  1  0.47925004  0.17290083  0.50000000  1.0
  P  P14  1  0.37066036  0.37066036  0.00000000  1.0
  P  P15  1  0.00000000  0.62933964  0.00000000  1.0
  P  P16  1  0.62933964  -0.00000000  0.00000000  1.0
  Ru  Ru17  1  -0.00000000  0.00000000  0.00000000  1.0
  Ru  Ru18  1  0.18975712  0.81564961  -0.00000000  1.0
  Ru  Ru19  1  0.81564961  0.18975712  0.00000000  1.0
  Ru  Ru20  1  0.62589249  0.81024288  -0.00000000  1.0
  Ru  Ru21  1  0.18435039  0.37410751  0.00000000  1.0
  Ru  Ru22  1  0.81024288  0.62589249  -0.00000000  1.0
  Ru  Ru23  1  0.37410751  0.18435039  -0.00000000  1.0
  Ru  Ru24  1  0.12799889  0.63399767  0.50000000  1.0
  Ru  Ru25  1  0.63399767  0.12799889  0.50000000  1.0
  Ru  Ru26  1  0.50599878  0.87200111  0.50000000  1.0
  Ru  Ru27  1  0.36600233  0.49400122  0.50000000  1.0
  Ru  Ru28  1  0.87200111  0.50599878  0.50000000  1.0
  Ru  Ru29  1  0.49400122  0.36600233  0.50000000  1.0
  Ru  Ru30  1  0.55570609  0.55570609  0.00000000  1.0
  Ru  Ru31  1  -0.00000000  0.44429391  0.00000000  1.0
  Ru  Ru32  1  0.44429391  -0.00000000  0.00000000  1.0
  Ru  Ru33  1  0.72109292  0.72109292  0.50000000  1.0
  Ru  Ru34  1  0.00000000  0.27890708  0.50000000  1.0
  Ru  Ru35  1  0.27890708  0.00000000  0.50000000  1.0
