# generated using pymatgen
data_Sr2GdTaO6
_symmetry_space_group_name_H-M   'P 1'
_cell_length_a   5.86714333
_cell_length_b   5.97988344
_cell_length_c   10.18509784
_cell_angle_alpha   90.00000000
_cell_angle_beta   124.91800263
_cell_angle_gamma   90.00000000
_symmetry_Int_Tables_number   1
_chemical_formula_structural   Sr2GdTaO6
_chemical_formula_sum   'Sr4 Gd2 Ta2 O12'
_cell_volume   293.01083373
_cell_formula_units_Z   2
loop_
 _symmetry_equiv_pos_site_id
 _symmetry_equiv_pos_as_xyz
  1  'x, y, z'
loop_
 _atom_site_type_symbol
 _atom_site_label
 _atom_site_symmetry_multiplicity
 _atom_site_fract_x
 _atom_site_fract_y
 _atom_site_fract_z
 _atom_site_occupancy
  Sr  Sr0  1  0.24066246  0.45961078  0.25084328  1.0
  Sr  Sr1  1  0.24066246  0.04038922  0.75084328  1.0
  Sr  Sr2  1  0.75933754  0.95961078  0.24915672  1.0
  Sr  Sr3  1  0.75933754  0.54038922  0.74915672  1.0
  Gd  Gd4  1  0.50000000  0.00000000  0.50000000  1.0
  Gd  Gd5  1  0.50000000  0.50000000  -0.00000000  1.0
  Ta  Ta6  1  0.00000000  0.00000000  0.00000000  1.0
  Ta  Ta7  1  0.00000000  0.50000000  0.50000000  1.0
  O  O8  1  0.31995590  1.02943309  0.23200112  1.0
  O  O9  1  0.31995590  0.47056691  0.73200112  1.0
  O  O10  1  0.68004410  0.52943309  0.26799888  1.0
  O  O11  1  0.68004410  -0.02943309  0.76799888  1.0
  O  O12  1  0.86028878  0.72615084  0.04984116  1.0
  O  O13  1  0.86028878  0.77384916  0.54984116  1.0
  O  O14  1  0.13971122  0.22615084  0.45015884  1.0
  O  O15  1  0.13971122  0.27384916  0.95015884  1.0
  O  O16  1  0.77021804  0.19286557  0.04407061  1.0
  O  O17  1  0.77021804  0.30713443  0.54407061  1.0
  O  O18  1  0.22978196  0.69286557  0.45592939  1.0
  O  O19  1  0.22978196  0.80713443  0.95592939  1.0
