# generated using pymatgen
data_WS2
_symmetry_space_group_name_H-M   'P 1'
_cell_length_a   6.77394363
_cell_length_b   6.77394363
_cell_length_c   6.77394363
_cell_angle_alpha   27.16285520
_cell_angle_beta   27.16285520
_cell_angle_gamma   27.16285520
_symmetry_Int_Tables_number   1
_chemical_formula_structural   WS2
_chemical_formula_sum   'W1 S2'
_cell_volume   57.15160380
_cell_formula_units_Z   1
loop_
 _symmetry_equiv_pos_site_id
 _symmetry_equiv_pos_as_xyz
  1  'x, y, z'
loop_
 _atom_site_type_symbol
 _atom_site_label
 _atom_site_symmetry_multiplicity
 _atom_site_fract_x
 _atom_site_fract_y
 _atom_site_fract_z
 _atom_site_occupancy
  W  W0  1  0.58100659  0.58100659  -0.41899341  1.0
  S  S1  1  0.83394335  -0.16605665  -0.16605665  1.0
  S  S2  1  -0.00524994  -0.00524994  -0.00524994  1.0
