# generated using pymatgen
data_VNiAs
_symmetry_space_group_name_H-M   'P 1'
_cell_length_a   6.12706148
_cell_length_b   3.60052515
_cell_length_c   7.16455058
_cell_angle_alpha   90.00000000
_cell_angle_beta   90.00000000
_cell_angle_gamma   90.00000000
_symmetry_Int_Tables_number   1
_chemical_formula_structural   VNiAs
_chemical_formula_sum   'V4 Ni4 As4'
_cell_volume   158.05456369
_cell_formula_units_Z   4
loop_
 _symmetry_equiv_pos_site_id
 _symmetry_equiv_pos_as_xyz
  1  'x, y, z'
loop_
 _atom_site_type_symbol
 _atom_site_label
 _atom_site_symmetry_multiplicity
 _atom_site_fract_x
 _atom_site_fract_y
 _atom_site_fract_z
 _atom_site_occupancy
  V  V0  1  0.97212900  0.75000000  0.65580626  1.0
  V  V1  1  0.47212900  0.75000000  0.84419374  1.0
  V  V2  1  0.02787100  0.25000000  0.34419374  1.0
  V  V3  1  0.52787100  0.25000000  0.15580626  1.0
  Ni  Ni4  1  0.85343593  0.75000000  0.06259100  1.0
  Ni  Ni5  1  0.35343593  0.75000000  0.43740900  1.0
  Ni  Ni6  1  0.14656407  0.25000000  0.93740900  1.0
  Ni  Ni7  1  0.64656407  0.25000000  0.56259100  1.0
  As  As8  1  0.73030661  0.75000000  0.36688892  1.0
  As  As9  1  0.23030661  0.75000000  0.13311108  1.0
  As  As10  1  0.26969339  0.25000000  0.63311108  1.0
  As  As11  1  0.76969339  0.25000000  0.86688892  1.0
