# generated using pymatgen
data_BaGe3
_symmetry_space_group_name_H-M   'P 1'
_cell_length_a   6.34002320
_cell_length_b   6.34002320
_cell_length_c   12.28622873
_cell_angle_alpha   90.00000000
_cell_angle_beta   90.00000000
_cell_angle_gamma   121.84233557
_symmetry_Int_Tables_number   1
_chemical_formula_structural   BaGe3
_chemical_formula_sum   'Ba4 Ge12'
_cell_volume   419.53215900
_cell_formula_units_Z   4
loop_
 _symmetry_equiv_pos_site_id
 _symmetry_equiv_pos_as_xyz
  1  'x, y, z'
loop_
 _atom_site_type_symbol
 _atom_site_label
 _atom_site_symmetry_multiplicity
 _atom_site_fract_x
 _atom_site_fract_y
 _atom_site_fract_z
 _atom_site_occupancy
  Ba  Ba0  1  0.34473678  0.65526322  0.25864636  1.0
  Ba  Ba1  1  0.34473678  0.65526322  0.74135364  1.0
  Ba  Ba2  1  0.00945185  0.99054815  0.15450500  1.0
  Ba  Ba3  1  0.00945185  0.99054815  0.84549500  1.0
  Ge  Ge4  1  0.37502861  1.18818291  0.38737718  1.0
  Ge  Ge5  1  -0.18818291  0.62497139  0.61262282  1.0
  Ge  Ge6  1  0.37502861  1.18818291  0.61262282  1.0
  Ge  Ge7  1  -0.18818291  0.62497139  0.38737718  1.0
  Ge  Ge8  1  -0.19500941  0.19500941  0.39045847  1.0
  Ge  Ge9  1  -0.19500941  0.19500941  0.60954153  1.0
  Ge  Ge10  1  -0.31869910  0.31869910  0.19114126  1.0
  Ge  Ge11  1  -0.31869910  0.31869910  0.80885874  1.0
  Ge  Ge12  1  0.53276405  1.03213407  0.00000000  1.0
  Ge  Ge13  1  -0.03213407  0.46723595  0.00000000  1.0
  Ge  Ge14  1  -0.45785178  0.45785178  0.00000000  1.0
  Ge  Ge15  1  0.23557015  0.76442985  0.50000000  1.0
