# generated using pymatgen
data_SnS
_symmetry_space_group_name_H-M   'P 1'
_cell_length_a   4.15986429
_cell_length_b   4.15986429
_cell_length_c   23.31023984
_cell_angle_alpha   90.00000000
_cell_angle_beta   90.00000000
_cell_angle_gamma   90.63157264
_symmetry_Int_Tables_number   1
_chemical_formula_structural   SnS
_chemical_formula_sum   'Sn2 S2'
_cell_volume   403.34686127
_cell_formula_units_Z   2
loop_
 _symmetry_equiv_pos_site_id
 _symmetry_equiv_pos_as_xyz
  1  'x, y, z'
loop_
 _atom_site_type_symbol
 _atom_site_label
 _atom_site_symmetry_multiplicity
 _atom_site_fract_x
 _atom_site_fract_y
 _atom_site_fract_z
 _atom_site_occupancy
  Sn  Sn0  1  0.75166319  0.74833681  0.43935109  1.0
  Sn  Sn1  1  0.25166319  0.24833681  0.56064891  1.0
  S  S2  1  0.21433681  0.28566319  0.45013424  1.0
  S  S3  1  0.71433681  0.78566319  0.54986576  1.0
