# generated using pymatgen
data_Hf13Rh4
_symmetry_space_group_name_H-M   'P 1'
_cell_length_a   11.22591917
_cell_length_b   11.22591917
_cell_length_c   11.22591917
_cell_angle_alpha   60.00000000
_cell_angle_beta   60.00000000
_cell_angle_gamma   60.00000000
_symmetry_Int_Tables_number   1
_chemical_formula_structural   Hf13Rh4
_chemical_formula_sum   'Hf26 Rh8'
_cell_volume   1000.34713998
_cell_formula_units_Z   2
loop_
 _symmetry_equiv_pos_site_id
 _symmetry_equiv_pos_as_xyz
  1  'x, y, z'
loop_
 _atom_site_type_symbol
 _atom_site_label
 _atom_site_symmetry_multiplicity
 _atom_site_fract_x
 _atom_site_fract_y
 _atom_site_fract_z
 _atom_site_occupancy
  Hf  Hf0  1  0.94485145  -0.57273326  0.68303035  1.0
  Hf  Hf1  1  -0.05514855  0.68303035  0.42726674  1.0
  Hf  Hf2  1  -0.17726674  0.30514855  0.30514855  1.0
  Hf  Hf3  1  0.56696965  0.30514855  0.30514855  1.0
  Hf  Hf4  1  -0.57273326  0.94485145  0.68303035  1.0
  Hf  Hf5  1  0.94485145  -0.05514855  0.68303035  1.0
  Hf  Hf6  1  0.94485145  -0.31696965  0.94485145  1.0
  Hf  Hf7  1  -0.57273326  0.68303035  0.94485145  1.0
  Hf  Hf8  1  0.30514855  -0.17726674  0.30514855  1.0
  Hf  Hf9  1  0.30514855  0.30514855  -0.17726674  1.0
  Hf  Hf10  1  0.56696965  0.30514855  -0.17726674  1.0
  Hf  Hf11  1  0.56696965  -0.17726674  0.30514855  1.0
  Hf  Hf12  1  0.68303035  -0.05514855  0.94485145  1.0
  Hf  Hf13  1  -0.57273326  0.94485145  0.94485145  1.0
  Hf  Hf14  1  0.30514855  0.56696965  -0.17726674  1.0
  Hf  Hf15  1  0.30514855  -0.17726674  0.56696965  1.0
  Hf  Hf16  1  -0.31696965  0.94485145  0.42726674  1.0
  Hf  Hf17  1  0.68303035  -0.57273326  0.94485145  1.0
  Hf  Hf18  1  0.94485145  -0.57273326  0.94485145  1.0
  Hf  Hf19  1  -0.05514855  0.94485145  0.42726674  1.0
  Hf  Hf20  1  0.30514855  0.56696965  0.30514855  1.0
  Hf  Hf21  1  -0.17726674  0.56696965  0.30514855  1.0
  Hf  Hf22  1  -0.17726674  0.30514855  0.56696965  1.0
  Hf  Hf23  1  0.30514855  0.30514855  0.56696965  1.0
  Hf  Hf24  1  0.50000000  0.50000000  -0.50000000  1.0
  Hf  Hf25  1  0.75000000  -0.25000000  0.75000000  1.0
  Rh  Rh26  1  0.66545473  -0.33454527  1.00363581  1.0
  Rh  Rh27  1  0.66545473  0.00363581  0.66545473  1.0
  Rh  Rh28  1  0.58454527  -0.41545473  0.58454527  1.0
  Rh  Rh29  1  1.24636419  -0.41545473  0.58454527  1.0
  Rh  Rh30  1  1.00363581  -0.33454527  0.66545473  1.0
  Rh  Rh31  1  0.66545473  -0.33454527  0.66545473  1.0
  Rh  Rh32  1  0.58454527  0.24636419  0.58454527  1.0
  Rh  Rh33  1  0.58454527  -0.41545473  1.24636419  1.0
