# generated using pymatgen
data_PbI2
_symmetry_space_group_name_H-M   'P 1'
_cell_length_a   4.66093920
_cell_length_b   4.66093920
_cell_length_c   30.02515420
_cell_angle_alpha   90.00000000
_cell_angle_beta   90.00000000
_cell_angle_gamma   120.00000000
_symmetry_Int_Tables_number   1
_chemical_formula_structural   PbI2
_chemical_formula_sum   'Pb4 I8'
_cell_volume   564.88852545
_cell_formula_units_Z   4
loop_
 _symmetry_equiv_pos_site_id
 _symmetry_equiv_pos_as_xyz
  1  'x, y, z'
loop_
 _atom_site_type_symbol
 _atom_site_label
 _atom_site_symmetry_multiplicity
 _atom_site_fract_x
 _atom_site_fract_y
 _atom_site_fract_z
 _atom_site_occupancy
  Pb  Pb0  1  0.66666667  0.33333333  0.49989574  1.0
  Pb  Pb1  1  0.33333333  0.66666667  -0.00010426  1.0
  Pb  Pb2  1  0.33333333  0.66666667  0.75009792  1.0
  Pb  Pb3  1  0.66666667  0.33333333  0.25009792  1.0
  I  I4  1  0.33333333  0.66666667  0.43787834  1.0
  I  I5  1  0.66666667  0.33333333  0.93787834  1.0
  I  I6  1  0.00000000  0.00000000  0.56190740  1.0
  I  I7  1  0.00000000  0.00000000  0.06190740  1.0
  I  I8  1  0.66666667  0.33333333  0.68811932  1.0
  I  I9  1  0.33333333  0.66666667  0.18811932  1.0
  I  I10  1  0.00000000  0.00000000  0.81210127  1.0
  I  I11  1  0.00000000  0.00000000  0.31210127  1.0
