# generated using pymatgen
data_Eu5(MoO6)2
_symmetry_space_group_name_H-M   'P 1'
_cell_length_a   6.97515607
_cell_length_b   6.97515607
_cell_length_c   7.78682395
_cell_angle_alpha   73.68233043
_cell_angle_beta   106.31766957
_cell_angle_gamma   129.99597245
_symmetry_Int_Tables_number   1
_chemical_formula_structural   Eu5(MoO6)2
_chemical_formula_sum   'Eu5 Mo2 O12'
_cell_volume   275.93452101
_cell_formula_units_Z   1
loop_
 _symmetry_equiv_pos_site_id
 _symmetry_equiv_pos_as_xyz
  1  'x, y, z'
loop_
 _atom_site_type_symbol
 _atom_site_label
 _atom_site_symmetry_multiplicity
 _atom_site_fract_x
 _atom_site_fract_y
 _atom_site_fract_z
 _atom_site_occupancy
  Mo  Mo0  1  0.77760851  0.77760851  -0.00000000  1.0
  Mo  Mo1  1  0.22239149  0.22239149  0.00000000  1.0
  Eu  Eu2  1  0.68468877  0.31531123  0.82085579  1.0
  Eu  Eu3  1  0.31531123  -0.31531123  0.17914421  1.0
  Eu  Eu4  1  0.00000000  -0.00000000  0.50000000  1.0
  Eu  Eu5  1  0.69243550  0.30756450  0.36342490  1.0
  Eu  Eu6  1  0.30756450  -0.30756450  0.63657510  1.0
  O  O7  1  0.58845441  -0.09997267  0.92400393  1.0
  O  O8  1  1.09997267  0.41154559  0.92400393  1.0
  O  O9  1  0.90002733  0.58845441  0.07599607  1.0
  O  O10  1  0.41154559  0.09997267  0.07599607  1.0
  O  O11  1  0.99847373  0.00152627  0.80638317  1.0
  O  O12  1  0.00152627  -0.00152627  0.19361683  1.0
  O  O13  1  0.49924610  -0.49924610  0.82756291  1.0
  O  O14  1  0.50075390  0.49924610  0.17243709  1.0
  O  O15  1  0.40650358  0.09615071  0.57739322  1.0
  O  O16  1  0.90384929  0.59349642  0.57739322  1.0
  O  O17  1  1.09615071  0.40650358  0.42260678  1.0
  O  O18  1  0.59349642  -0.09615071  0.42260678  1.0
