# generated using pymatgen
data_SmCrO3
_symmetry_space_group_name_H-M   'P 1'
_cell_length_a   5.48176727
_cell_length_b   7.69914658
_cell_length_c   5.44092445
_cell_angle_alpha   90.00000000
_cell_angle_beta   90.00000000
_cell_angle_gamma   90.00000000
_symmetry_Int_Tables_number   1
_chemical_formula_structural   SmCrO3
_chemical_formula_sum   'Sm4 Cr4 O12'
_cell_volume   229.63383361
_cell_formula_units_Z   4
loop_
 _symmetry_equiv_pos_site_id
 _symmetry_equiv_pos_as_xyz
  1  'x, y, z'
loop_
 _atom_site_type_symbol
 _atom_site_label
 _atom_site_symmetry_multiplicity
 _atom_site_fract_x
 _atom_site_fract_y
 _atom_site_fract_z
 _atom_site_occupancy
  Sm  Sm0  1  0.03675389  0.75000000  0.50599619  1.0
  Sm  Sm1  1  0.53675389  0.75000000  0.99400381  1.0
  Sm  Sm2  1  0.96324611  0.25000000  0.49400381  1.0
  Sm  Sm3  1  0.46324611  0.25000000  0.00599619  1.0
  Cr  Cr4  1  0.50000000  0.00000000  0.50000000  1.0
  Cr  Cr5  1  0.50000000  0.50000000  0.50000000  1.0
  Cr  Cr6  1  0.00000000  0.00000000  0.00000000  1.0
  Cr  Cr7  1  0.00000000  0.50000000  0.00000000  1.0
  O  O8  1  0.29439553  0.96197126  0.79438594  1.0
  O  O9  1  0.29439553  0.53802874  0.79438594  1.0
  O  O10  1  0.79439553  0.96197126  0.70561406  1.0
  O  O11  1  0.79439553  0.53802874  0.70561406  1.0
  O  O12  1  0.70560447  0.46197126  0.20561406  1.0
  O  O13  1  0.70560447  0.03802874  0.20561406  1.0
  O  O14  1  0.20560447  0.46197126  0.29438594  1.0
  O  O15  1  0.20560447  0.03802874  0.29438594  1.0
  O  O16  1  0.98221272  0.75000000  0.07468813  1.0
  O  O17  1  0.48221272  0.75000000  0.42531187  1.0
  O  O18  1  0.01778728  0.25000000  0.92531187  1.0
  O  O19  1  0.51778728  0.25000000  0.57468813  1.0
