# generated using pymatgen
data_BaFePHO5
_symmetry_space_group_name_H-M   'P 1'
_cell_length_a   5.44201027
_cell_length_b   8.64579162
_cell_length_c   9.72745863
_cell_angle_alpha   90.00000000
_cell_angle_beta   90.00000000
_cell_angle_gamma   90.00000000
_symmetry_Int_Tables_number   1
_chemical_formula_structural   BaFePHO5
_chemical_formula_sum   'Ba4 Fe4 P4 H4 O20'
_cell_volume   457.68166433
_cell_formula_units_Z   4
loop_
 _symmetry_equiv_pos_site_id
 _symmetry_equiv_pos_as_xyz
  1  'x, y, z'
loop_
 _atom_site_type_symbol
 _atom_site_label
 _atom_site_symmetry_multiplicity
 _atom_site_fract_x
 _atom_site_fract_y
 _atom_site_fract_z
 _atom_site_occupancy
  Ba  Ba0  1  0.97195904  0.74839096  0.79387308  1.0
  Ba  Ba1  1  0.47195904  0.75160904  0.20612692  1.0
  Ba  Ba2  1  0.02804096  0.24839096  0.70612692  1.0
  Ba  Ba3  1  0.52804096  0.25160904  0.29387308  1.0
  Fe  Fe4  1  0.46758879  0.96481897  0.58406541  1.0
  Fe  Fe5  1  0.96758879  0.53518103  0.41593459  1.0
  Fe  Fe6  1  0.53241121  0.46481897  0.91593459  1.0
  Fe  Fe7  1  0.03241121  0.03518103  0.08406541  1.0
  P  P8  1  0.48797709  0.57748339  0.58587671  1.0
  P  P9  1  0.98797709  0.92251661  0.41412329  1.0
  P  P10  1  0.51202291  0.07748339  0.91412329  1.0
  P  P11  1  0.01202291  0.42251661  0.08587671  1.0
  H  H12  1  0.46601822  0.77076807  0.88164530  1.0
  H  H13  1  0.96601822  0.72923193  0.11835470  1.0
  H  H14  1  0.53398178  0.27076807  0.61835470  1.0
  H  H15  1  0.03398178  0.22923193  0.38164530  1.0
  O  O16  1  0.53960784  0.68644656  0.93495310  1.0
  O  O17  1  1.03960784  0.81355344  0.06504690  1.0
  O  O18  1  0.46039216  0.18644656  0.56504690  1.0
  O  O19  1  -0.03960784  0.31355344  0.43495310  1.0
  O  O20  1  0.45097963  0.24905753  0.87426518  1.0
  O  O21  1  0.95097963  0.25094247  0.12573482  1.0
  O  O22  1  0.54902037  0.74905753  0.62573482  1.0
  O  O23  1  0.04902037  0.75094247  0.37426518  1.0
  O  O24  1  0.36082220  0.97201104  0.81493779  1.0
  O  O25  1  0.86082220  0.52798896  0.18506221  1.0
  O  O26  1  0.63917780  0.47201104  0.68506221  1.0
  O  O27  1  0.13917780  0.02798896  0.31493779  1.0
  O  O28  1  0.20631992  0.54717999  0.60363535  1.0
  O  O29  1  0.70631992  0.95282001  0.39636465  1.0
  O  O30  1  0.79368008  0.04717999  0.89636465  1.0
  O  O31  1  0.29368008  0.45282001  0.10363535  1.0
  O  O32  1  0.06663648  0.95273889  0.56692903  1.0
  O  O33  1  0.56663648  0.54726111  0.43307097  1.0
  O  O34  1  0.93336352  0.45273889  0.93307097  1.0
  O  O35  1  0.43336352  0.04726111  0.06692903  1.0
