# generated using pymatgen
data_NiH10C2(N2O3)2
_symmetry_space_group_name_H-M   'P 1'
_cell_length_a   6.87641882
_cell_length_b   6.87641882
_cell_length_c   10.57329646
_cell_angle_alpha   70.92613834
_cell_angle_beta   109.07386166
_cell_angle_gamma   117.37617782
_symmetry_Int_Tables_number   1
_chemical_formula_structural   NiH10C2(N2O3)2
_chemical_formula_sum   'Ni2 H20 C4 N8 O12'
_cell_volume   410.20680964
_cell_formula_units_Z   2
loop_
 _symmetry_equiv_pos_site_id
 _symmetry_equiv_pos_as_xyz
  1  'x, y, z'
loop_
 _atom_site_type_symbol
 _atom_site_label
 _atom_site_symmetry_multiplicity
 _atom_site_fract_x
 _atom_site_fract_y
 _atom_site_fract_z
 _atom_site_occupancy
  N  N0  1  0.66591482  0.16653257  0.84248952  1.0
  N  N1  1  0.83346743  0.33408518  0.34248952  1.0
  N  N2  1  1.16653257  -0.33408518  0.65751048  1.0
  N  N3  1  1.33408518  -0.16653257  0.15751048  1.0
  N  N4  1  1.73740471  0.01021587  0.83255135  1.0
  N  N5  1  0.98978413  -0.73740471  0.33255135  1.0
  N  N6  1  1.01021587  0.73740471  0.66744865  1.0
  N  N7  1  0.26259529  -0.01021587  0.16744865  1.0
  Ni  Ni8  1  0.00000000  0.00000000  0.00000000  1.0
  Ni  Ni9  1  -0.00000000  0.00000000  0.50000000  1.0
  O  O10  1  0.83085668  0.12442851  0.56006581  1.0
  O  O11  1  0.87557149  0.16914332  0.06006581  1.0
  O  O12  1  1.12442851  -0.16914332  0.93993419  1.0
  O  O13  1  1.16914332  -0.12442851  0.43993419  1.0
  O  O14  1  0.63216086  0.33964306  0.97819439  1.0
  O  O15  1  0.66035694  0.36783914  0.47819439  1.0
  O  O16  1  1.33964306  -0.36783914  0.52180561  1.0
  O  O17  1  1.36783914  -0.33964306  0.02180561  1.0
  O  O18  1  1.21420538  -0.68199326  0.89976136  1.0
  O  O19  1  1.68199326  -0.21420538  0.39976136  1.0
  O  O20  1  0.31800674  0.21420538  0.60023864  1.0
  O  O21  1  0.78579462  0.68199326  0.10023864  1.0
  C  C22  1  0.72642840  0.22631389  0.96589782  1.0
  C  C23  1  0.77368611  0.27357160  0.46589782  1.0
  C  C24  1  1.22631389  -0.27357160  0.53410218  1.0
  C  C25  1  1.27357160  -0.22631389  0.03410218  1.0
  H  H26  1  1.60553544  -0.14340946  0.83563488  1.0
  H  H27  1  1.14340946  -0.60553544  0.33563488  1.0
  H  H28  1  0.85659054  0.60553544  0.66436512  1.0
  H  H29  1  0.39446456  0.14340946  0.16436512  1.0
  H  H30  1  0.78211759  0.05982069  0.73878660  1.0
  H  H31  1  0.94017931  0.21788241  0.23878660  1.0
  H  H32  1  1.05982069  -0.21788241  0.76121340  1.0
  H  H33  1  1.21788241  -0.05982069  0.26121340  1.0
  H  H34  1  0.52560544  0.18123841  0.77305922  1.0
  H  H35  1  0.81876159  0.47439456  0.27305922  1.0
  H  H36  1  1.18123841  -0.47439456  0.72694078  1.0
  H  H37  1  1.47439456  -0.18123841  0.22694078  1.0
  H  H38  1  0.43771950  0.24820703  0.55226791  1.0
  H  H39  1  0.75179297  0.56228050  0.05226791  1.0
  H  H40  1  1.24820703  -0.56228050  0.94773209  1.0
  H  H41  1  1.56228050  -0.24820703  0.44773209  1.0
  H  H42  1  0.36451162  0.31437122  0.91552041  1.0
  H  H43  1  0.68562878  0.63548838  0.41552041  1.0
  H  H44  1  1.31437122  -0.63548838  0.58447959  1.0
  H  H45  1  1.63548838  -0.31437122  0.08447959  1.0
