# generated using pymatgen
data_Ba2CaCu2HgO6
_symmetry_space_group_name_H-M   'P 1'
_cell_length_a   3.90097884
_cell_length_b   3.90097884
_cell_length_c   13.00164896
_cell_angle_alpha   90.00000000
_cell_angle_beta   90.00000000
_cell_angle_gamma   90.00000000
_symmetry_Int_Tables_number   1
_chemical_formula_structural   Ba2CaCu2HgO6
_chemical_formula_sum   'Ba2 Ca1 Cu2 Hg1 O6'
_cell_volume   197.85435975
_cell_formula_units_Z   1
loop_
 _symmetry_equiv_pos_site_id
 _symmetry_equiv_pos_as_xyz
  1  'x, y, z'
loop_
 _atom_site_type_symbol
 _atom_site_label
 _atom_site_symmetry_multiplicity
 _atom_site_fract_x
 _atom_site_fract_y
 _atom_site_fract_z
 _atom_site_occupancy
  Ba  Ba0  1  0.50000000  0.50000000  0.77036366  1.0
  Ba  Ba1  1  0.50000000  0.50000000  0.22963634  1.0
  Ca  Ca2  1  0.50000000  0.50000000  0.50000000  1.0
  Cu  Cu3  1  0.00000000  0.00000000  0.61534154  1.0
  Cu  Cu4  1  0.00000000  0.00000000  0.38465846  1.0
  Hg  Hg5  1  0.00000000  0.00000000  0.00000000  1.0
  O  O6  1  0.50000000  0.00000000  0.62159403  1.0
  O  O7  1  0.00000000  0.50000000  0.62159403  1.0
  O  O8  1  0.50000000  0.00000000  0.37840597  1.0
  O  O9  1  0.00000000  0.50000000  0.37840597  1.0
  O  O10  1  0.00000000  0.00000000  0.84682714  1.0
  O  O11  1  0.00000000  0.00000000  0.15317286  1.0
