# generated using pymatgen
data_Hf2In5
_symmetry_space_group_name_H-M   'P 1'
_cell_length_a   10.39484759
_cell_length_b   10.39484759
_cell_length_c   3.07737607
_cell_angle_alpha   90.00000000
_cell_angle_beta   90.00000000
_cell_angle_gamma   90.00000000
_symmetry_Int_Tables_number   1
_chemical_formula_structural   Hf2In5
_chemical_formula_sum   'Hf4 In10'
_cell_volume   332.51927497
_cell_formula_units_Z   2
loop_
 _symmetry_equiv_pos_site_id
 _symmetry_equiv_pos_as_xyz
  1  'x, y, z'
loop_
 _atom_site_type_symbol
 _atom_site_label
 _atom_site_symmetry_multiplicity
 _atom_site_fract_x
 _atom_site_fract_y
 _atom_site_fract_z
 _atom_site_occupancy
  Hf  Hf0  1  0.32024381  0.17975619  0.50000000  1.0
  Hf  Hf1  1  0.82024381  0.32024381  0.50000000  1.0
  Hf  Hf2  1  0.67975619  0.82024381  0.50000000  1.0
  Hf  Hf3  1  0.17975619  0.67975619  0.50000000  1.0
  In  In4  1  0.43805794  0.70854495  0.00000000  1.0
  In  In5  1  0.93805794  0.79145505  0.00000000  1.0
  In  In6  1  0.29145505  0.43805794  0.00000000  1.0
  In  In7  1  0.79145505  0.06194206  0.00000000  1.0
  In  In8  1  0.56194206  0.29145505  0.00000000  1.0
  In  In9  1  0.06194206  0.20854495  0.00000000  1.0
  In  In10  1  0.70854495  0.56194206  0.00000000  1.0
  In  In11  1  0.20854495  0.93805794  0.00000000  1.0
  In  In12  1  0.50000000  0.00000000  0.00000000  1.0
  In  In13  1  0.00000000  0.50000000  0.00000000  1.0
