# generated using pymatgen
data_NaCr5Se8
_symmetry_space_group_name_H-M   'P 1'
_cell_length_a   9.74015498
_cell_length_b   9.74015498
_cell_length_c   8.93885278
_cell_angle_alpha   73.92433626
_cell_angle_beta   106.07566374
_cell_angle_gamma   158.25083137
_symmetry_Int_Tables_number   1
_chemical_formula_structural   NaCr5Se8
_chemical_formula_sum   'Na1 Cr5 Se8'
_cell_volume   301.48345352
_cell_formula_units_Z   1
loop_
 _symmetry_equiv_pos_site_id
 _symmetry_equiv_pos_as_xyz
  1  'x, y, z'
loop_
 _atom_site_type_symbol
 _atom_site_label
 _atom_site_symmetry_multiplicity
 _atom_site_fract_x
 _atom_site_fract_y
 _atom_site_fract_z
 _atom_site_occupancy
  Na  Na0  1  0.50000000  0.50000000  0.00000000  1.0
  Cr  Cr1  1  0.70398291  -0.70398291  0.83324382  1.0
  Cr  Cr2  1  1.29601709  -0.29601709  0.16675618  1.0
  Cr  Cr3  1  0.65587780  -0.65587780  0.46656938  1.0
  Cr  Cr4  1  1.34412220  -0.34412220  0.53343062  1.0
  Cr  Cr5  1  0.00000000  -0.00000000  0.50000000  1.0
  Se  Se6  1  0.92093213  -0.92093213  0.68929275  1.0
  Se  Se7  1  1.07906787  -0.07906787  0.31070725  1.0
  Se  Se8  1  0.82967496  -0.82967496  1.01103429  1.0
  Se  Se9  1  1.17032504  -0.17032504  -0.01103429  1.0
  Se  Se10  1  0.76304513  -0.76304513  0.34768009  1.0
  Se  Se11  1  1.23695487  -0.23695487  0.65231991  1.0
  Se  Se12  1  0.57690666  -0.57690666  0.64902992  1.0
  Se  Se13  1  1.42309334  -0.42309334  0.35097008  1.0
