# generated using pymatgen
data_HCN3O
_symmetry_space_group_name_H-M   'P 1'
_cell_length_a   12.26571316
_cell_length_b   3.99028823
_cell_length_c   7.40928213
_cell_angle_alpha   90.00000000
_cell_angle_beta   105.23759047
_cell_angle_gamma   90.00000000
_symmetry_Int_Tables_number   1
_chemical_formula_structural   HCN3O
_chemical_formula_sum   'H4 C4 N12 O4'
_cell_volume   349.88911037
_cell_formula_units_Z   4
loop_
 _symmetry_equiv_pos_site_id
 _symmetry_equiv_pos_as_xyz
  1  'x, y, z'
loop_
 _atom_site_type_symbol
 _atom_site_label
 _atom_site_symmetry_multiplicity
 _atom_site_fract_x
 _atom_site_fract_y
 _atom_site_fract_z
 _atom_site_occupancy
  H  H0  1  0.89295583  0.94859435  0.81717120  1.0
  H  H1  1  0.89295583  0.05140565  0.31717120  1.0
  H  H2  1  0.72028231  0.57276134  0.47888343  1.0
  H  H3  1  0.72028231  0.42723866  0.97888343  1.0
  C  C4  1  0.95095285  0.79748987  0.75940560  1.0
  C  C5  1  0.95095285  0.20251013  0.25940560  1.0
  C  C6  1  0.66324495  0.71397835  0.36470021  1.0
  C  C7  1  0.66324495  0.28602165  0.86470021  1.0
  N  N8  1  0.13859735  0.71555469  0.80092325  1.0
  N  N9  1  0.13859735  0.28444531  0.30092325  1.0
  N  N10  1  0.47623786  0.77732111  0.22855380  1.0
  N  N11  1  0.47623786  0.22267889  0.72855380  1.0
  N  N12  1  0.06507075  0.87043782  0.85454016  1.0
  N  N13  1  0.06507075  0.12956218  0.35454016  1.0
  N  N14  1  0.21179368  0.58679285  0.76219030  1.0
  N  N15  1  0.21179368  0.41320715  0.26219030  1.0
  N  N16  1  0.54878696  0.63025851  0.35172342  1.0
  N  N17  1  0.54878696  0.36974149  0.85172342  1.0
  N  N18  1  0.40395275  0.89892307  0.12073142  1.0
  N  N19  1  0.40395275  0.10107693  0.62073142  1.0
  O  O20  1  0.92133344  0.59842959  0.63159988  1.0
  O  O21  1  0.92133344  0.40157041  0.13159988  1.0
  O  O22  1  0.69424129  0.91311368  0.26422734  1.0
  O  O23  1  0.69424129  0.08688632  0.76422734  1.0
