# generated using pymatgen
data_NaSb3F10
_symmetry_space_group_name_H-M   'P 1'
_cell_length_a   8.38198423
_cell_length_b   8.38198423
_cell_length_c   8.02539143
_cell_angle_alpha   90.00000000
_cell_angle_beta   90.00000000
_cell_angle_gamma   120.00000000
_symmetry_Int_Tables_number   1
_chemical_formula_structural   NaSb3F10
_chemical_formula_sum   'Na2 Sb6 F20'
_cell_volume   488.30428351
_cell_formula_units_Z   2
loop_
 _symmetry_equiv_pos_site_id
 _symmetry_equiv_pos_as_xyz
  1  'x, y, z'
loop_
 _atom_site_type_symbol
 _atom_site_label
 _atom_site_symmetry_multiplicity
 _atom_site_fract_x
 _atom_site_fract_y
 _atom_site_fract_z
 _atom_site_occupancy
  Na  Na0  1  0.33333333  0.66666667  0.41893511  1.0
  Na  Na1  1  0.66666667  0.33333333  0.91893511  1.0
  Sb  Sb2  1  0.21938367  0.87909976  0.01284377  1.0
  Sb  Sb3  1  0.87909976  0.65971609  0.51284377  1.0
  Sb  Sb4  1  0.65971609  0.78061633  0.01284377  1.0
  Sb  Sb5  1  0.12090024  0.34028391  0.01284377  1.0
  Sb  Sb6  1  0.78061633  0.12090024  0.51284377  1.0
  Sb  Sb7  1  0.34028391  0.21938367  0.51284377  1.0
  F  F8  1  0.20744117  0.81045127  0.24934864  1.0
  F  F9  1  0.81045127  0.60301010  0.74934864  1.0
  F  F10  1  0.60301010  0.79255883  0.24934864  1.0
  F  F11  1  0.18954873  0.39698990  0.24934864  1.0
  F  F12  1  0.79255883  0.18954873  0.74934864  1.0
  F  F13  1  0.39698990  0.20744117  0.74934864  1.0
  F  F14  1  0.88590333  0.77324177  0.09445522  1.0
  F  F15  1  0.77324177  0.88733844  0.59445522  1.0
  F  F16  1  0.88733844  0.11409667  0.09445522  1.0
  F  F17  1  0.22675823  0.11266156  0.09445522  1.0
  F  F18  1  0.11409667  0.22675823  0.59445522  1.0
  F  F19  1  0.11266156  0.88590333  0.59445522  1.0
  F  F20  1  0.54213665  0.50639893  0.03259794  1.0
  F  F21  1  0.50639893  0.96426228  0.53259794  1.0
  F  F22  1  0.96426228  0.45786335  0.03259794  1.0
  F  F23  1  0.49360107  0.03573772  0.03259794  1.0
  F  F24  1  0.45786335  0.49360107  0.53259794  1.0
  F  F25  1  0.03573772  0.54213665  0.53259794  1.0
  F  F26  1  0.33333333  0.66666667  -0.00967184  1.0
  F  F27  1  0.66666667  0.33333333  0.49032816  1.0
