# generated using pymatgen
data_Ti3P
_symmetry_space_group_name_H-M   'P 1'
_cell_length_a   9.95582299
_cell_length_b   9.95582299
_cell_length_c   4.98016737
_cell_angle_alpha   90.00000000
_cell_angle_beta   90.00000000
_cell_angle_gamma   90.00000000
_symmetry_Int_Tables_number   1
_chemical_formula_structural   Ti3P
_chemical_formula_sum   'Ti24 P8'
_cell_volume   493.62627893
_cell_formula_units_Z   8
loop_
 _symmetry_equiv_pos_site_id
 _symmetry_equiv_pos_as_xyz
  1  'x, y, z'
loop_
 _atom_site_type_symbol
 _atom_site_label
 _atom_site_symmetry_multiplicity
 _atom_site_fract_x
 _atom_site_fract_y
 _atom_site_fract_z
 _atom_site_occupancy
  Ti  Ti0  1  0.47173377  0.36080403  1.21875470  1.0
  Ti  Ti1  1  0.97173377  0.86080403  0.28124530  1.0
  Ti  Ti2  1  0.36080403  0.52826623  -0.21875470  1.0
  Ti  Ti3  1  0.86080403  0.02826623  0.71875470  1.0
  Ti  Ti4  1  0.52826623  0.63919597  1.21875470  1.0
  Ti  Ti5  1  0.02826623  0.13919597  0.28124530  1.0
  Ti  Ti6  1  0.63919597  0.47173377  -0.21875470  1.0
  Ti  Ti7  1  0.13919597  0.97173377  0.71875470  1.0
  Ti  Ti8  1  0.31906715  0.78359564  0.48998107  1.0
  Ti  Ti9  1  0.81906715  0.28359564  0.01001893  1.0
  Ti  Ti10  1  0.78359564  0.68093285  0.51001893  1.0
  Ti  Ti11  1  0.28359564  0.18093285  0.98998107  1.0
  Ti  Ti12  1  0.68093285  0.21640436  0.48998107  1.0
  Ti  Ti13  1  0.18093285  0.71640436  0.01001893  1.0
  Ti  Ti14  1  0.21640436  0.31906715  0.51001893  1.0
  Ti  Ti15  1  0.71640436  0.81906715  0.98998107  1.0
  Ti  Ti16  1  1.10698897  0.41682484  0.03514245  1.0
  Ti  Ti17  1  0.60698897  0.91682484  0.46485755  1.0
  Ti  Ti18  1  0.41682484  -0.10698897  0.96485755  1.0
  Ti  Ti19  1  0.91682484  0.39301103  0.53514245  1.0
  Ti  Ti20  1  -0.10698897  0.58317516  0.03514245  1.0
  Ti  Ti21  1  0.39301103  0.08317516  0.46485755  1.0
  Ti  Ti22  1  0.58317516  1.10698897  0.96485755  1.0
  Ti  Ti23  1  0.08317516  0.60698897  0.53514245  1.0
  P  P24  1  0.45855706  0.29310356  0.71364427  1.0
  P  P25  1  0.95855706  0.79310356  -0.21364427  1.0
  P  P26  1  0.29310356  0.54144294  0.28635573  1.0
  P  P27  1  0.79310356  0.04144294  1.21364427  1.0
  P  P28  1  0.54144294  0.70689644  0.71364427  1.0
  P  P29  1  0.04144294  0.20689644  -0.21364427  1.0
  P  P30  1  0.70689644  0.45855706  0.28635573  1.0
  P  P31  1  0.20689644  0.95855706  1.21364427  1.0
