# generated using pymatgen
data_Na2Cu(NO3)4
_symmetry_space_group_name_H-M   'P 1'
_cell_length_a   7.19131247
_cell_length_b   7.89673997
_cell_length_c   9.10700567
_cell_angle_alpha   90.00000000
_cell_angle_beta   91.38630378
_cell_angle_gamma   90.00000000
_symmetry_Int_Tables_number   1
_chemical_formula_structural   Na2Cu(NO3)4
_chemical_formula_sum   'Na4 Cu2 N8 O24'
_cell_volume   517.01657724
_cell_formula_units_Z   2
loop_
 _symmetry_equiv_pos_site_id
 _symmetry_equiv_pos_as_xyz
  1  'x, y, z'
loop_
 _atom_site_type_symbol
 _atom_site_label
 _atom_site_symmetry_multiplicity
 _atom_site_fract_x
 _atom_site_fract_y
 _atom_site_fract_z
 _atom_site_occupancy
  N  N0  1  0.14024921  0.39869254  0.22990302  1.0
  N  N1  1  0.85975079  0.89869254  0.27009698  1.0
  N  N2  1  0.85975079  0.60130746  0.77009698  1.0
  N  N3  1  0.14024921  0.10130746  0.72990302  1.0
  N  N4  1  0.69056156  0.29181177  0.43904193  1.0
  N  N5  1  0.30943844  0.79181177  0.06095807  1.0
  N  N6  1  0.30943844  0.70818823  0.56095807  1.0
  N  N7  1  0.69056156  0.20818823  0.93904193  1.0
  Cu  Cu8  1  0.00000000  0.50000000  0.50000000  1.0
  Cu  Cu9  1  0.00000000  0.00000000  0.00000000  1.0
  Na  Na10  1  0.28115536  0.06697480  0.38653905  1.0
  Na  Na11  1  0.71884464  0.56697480  0.11346095  1.0
  Na  Na12  1  0.71884464  0.93302520  0.61346095  1.0
  Na  Na13  1  0.28115536  0.43302520  0.88653905  1.0
  O  O14  1  0.14723530  0.35519247  0.36847385  1.0
  O  O15  1  0.85276470  0.85519247  0.13152615  1.0
  O  O16  1  0.85276470  0.64480753  0.63152615  1.0
  O  O17  1  0.14723530  0.14480753  0.86847385  1.0
  O  O18  1  0.23463704  0.31329425  0.14506836  1.0
  O  O19  1  0.76536296  0.81329425  0.35493164  1.0
  O  O20  1  0.76536296  0.68670575  0.85493164  1.0
  O  O21  1  0.23463704  0.18670575  0.64506836  1.0
  O  O22  1  0.95806786  0.02077045  0.30904196  1.0
  O  O23  1  0.04193214  0.52077045  0.19095804  1.0
  O  O24  1  0.04193214  0.97922955  0.69095804  1.0
  O  O25  1  0.95806786  0.47922955  0.80904196  1.0
  O  O26  1  0.40801834  0.83764466  0.54902826  1.0
  O  O27  1  0.59198166  0.33764466  0.95097174  1.0
  O  O28  1  0.59198166  0.16235534  0.45097174  1.0
  O  O29  1  0.40801834  0.66235534  0.04902826  1.0
  O  O30  1  0.33832903  0.90277776  0.15480199  1.0
  O  O31  1  0.66167097  0.40277776  0.34519801  1.0
  O  O32  1  0.66167097  0.09722224  0.84519801  1.0
  O  O33  1  0.33832903  0.59722224  0.65480199  1.0
  O  O34  1  0.82917081  0.30621942  0.53244177  1.0
  O  O35  1  0.17082919  0.80621942  0.96755823  1.0
  O  O36  1  0.17082919  0.69378058  0.46755823  1.0
  O  O37  1  0.82917081  0.19378058  0.03244177  1.0
