# generated using pymatgen
data_MnSe2O9
_symmetry_space_group_name_H-M   'P 1'
_cell_length_a   8.47830257
_cell_length_b   4.89512610
_cell_length_c   17.25234097
_cell_angle_alpha   90.00000000
_cell_angle_beta   109.11700848
_cell_angle_gamma   90.00000000
_symmetry_Int_Tables_number   1
_chemical_formula_structural   MnSe2O9
_chemical_formula_sum   'Mn4 Se8 O36'
_cell_volume   676.52600077
_cell_formula_units_Z   4
loop_
 _symmetry_equiv_pos_site_id
 _symmetry_equiv_pos_as_xyz
  1  'x, y, z'
loop_
 _atom_site_type_symbol
 _atom_site_label
 _atom_site_symmetry_multiplicity
 _atom_site_fract_x
 _atom_site_fract_y
 _atom_site_fract_z
 _atom_site_occupancy
  Mn  Mn0  1  0.75015024  0.24997885  0.00018937  1.0
  Mn  Mn1  1  0.75015024  0.25002115  0.50018937  1.0
  Mn  Mn2  1  0.24984976  0.74997885  0.49981063  1.0
  Mn  Mn3  1  0.24984976  0.75002115  0.99981063  1.0
  O  O4  1  0.94674369  0.42593567  0.06877512  1.0
  O  O5  1  0.94674369  0.07406433  0.56877512  1.0
  O  O6  1  0.05325631  0.92593567  0.43122488  1.0
  O  O7  1  0.05325631  0.57406433  0.93122488  1.0
  O  O8  1  0.86780450  0.38846551  0.43162480  1.0
  O  O9  1  0.86780450  0.11153449  0.93162480  1.0
  O  O10  1  0.13219550  0.88846551  0.06837520  1.0
  O  O11  1  0.13219550  0.61153449  0.56837520  1.0
  O  O12  1  0.80854863  0.93587343  0.06888070  1.0
  O  O13  1  0.80854863  0.56412657  0.56888070  1.0
  O  O14  1  0.19145137  0.43587343  0.43111930  1.0
  O  O15  1  0.19145137  0.06412657  0.93111930  1.0
  O  O16  1  0.69213781  0.93561883  0.43173100  1.0
  O  O17  1  0.69213781  0.56438117  0.93173100  1.0
  O  O18  1  0.30786219  0.43561883  0.06826900  1.0
  O  O19  1  0.30786219  0.06438117  0.56826900  1.0
  O  O20  1  0.63228859  0.38825793  0.06871079  1.0
  O  O21  1  0.63228859  0.11174207  0.56871079  1.0
  O  O22  1  0.36771141  0.88825793  0.43128921  1.0
  O  O23  1  0.36771141  0.61174207  0.93128921  1.0
  O  O24  1  0.55360599  0.42597328  0.43155205  1.0
  O  O25  1  0.55360599  0.07402672  0.93155205  1.0
  O  O26  1  0.44639401  0.92597328  0.06844795  1.0
  O  O27  1  0.44639401  0.57402672  0.56844795  1.0
  O  O28  1  0.24842556  0.24906280  0.24948046  1.0
  O  O29  1  0.24842556  0.25093720  0.74948046  1.0
  O  O30  1  0.75157444  0.74906280  0.25051954  1.0
  O  O31  1  0.75157444  0.75093720  0.75051954  1.0
  O  O32  1  0.55263843  0.25025744  0.20529436  1.0
  O  O33  1  0.55263843  0.24974256  0.70529436  1.0
  O  O34  1  0.44736157  0.75025744  0.29470564  1.0
  O  O35  1  0.44736158  0.74974256  0.79470564  1.0
  O  O36  1  0.94541497  0.25005203  0.29451813  1.0
  O  O37  1  0.94541497  0.24994797  0.79451813  1.0
  O  O38  1  0.05458503  0.75005203  0.20548187  1.0
  O  O39  1  0.05458503  0.74994797  0.70548187  1.0
  Se  Se40  1  1.01182073  0.25008354  0.39311561  1.0
  Se  Se41  1  1.01182073  0.24991646  0.89311561  1.0
  Se  Se42  1  -0.01182073  0.75008354  0.10688439  1.0
  Se  Se43  1  -0.01182073  0.74991646  0.60688439  1.0
  Se  Se44  1  0.48748292  0.25002318  0.10671938  1.0
  Se  Se45  1  0.48748292  0.24997682  0.60671938  1.0
  Se  Se46  1  0.51251708  0.75002318  0.39328062  1.0
  Se  Se47  1  0.51251708  0.74997682  0.89328062  1.0
