# generated using pymatgen
data_C2NCl3
_symmetry_space_group_name_H-M   'P 1'
_cell_length_a   12.82378128
_cell_length_b   12.82378128
_cell_length_c   12.82378128
_cell_angle_alpha   97.00094971
_cell_angle_beta   97.00094971
_cell_angle_gamma   139.13282151
_symmetry_Int_Tables_number   1
_chemical_formula_structural   C2NCl3
_chemical_formula_sum   'C16 N8 Cl24'
_cell_volume   1293.02181806
_cell_formula_units_Z   8
loop_
 _symmetry_equiv_pos_site_id
 _symmetry_equiv_pos_as_xyz
  1  'x, y, z'
loop_
 _atom_site_type_symbol
 _atom_site_label
 _atom_site_symmetry_multiplicity
 _atom_site_fract_x
 _atom_site_fract_y
 _atom_site_fract_z
 _atom_site_occupancy
  C  C0  1  0.80226610  0.75229467  0.23976519  1.0
  C  C1  1  1.51252948  1.56250090  1.76023481  1.0
  C  C2  1  1.31250090  1.05226610  0.54997143  1.0
  C  C3  1  1.50229467  1.76252948  1.45002857  1.0
  C  C4  1  0.30226610  1.06250090  1.04997143  1.0
  C  C5  1  1.01252948  0.25229467  0.95002857  1.0
  C  C6  1  0.81250090  1.26252948  1.26023481  1.0
  C  C7  1  1.00229467  0.55226610  0.73976519  1.0
  C  C8  1  0.76442770  0.67083456  0.32400810  1.0
  C  C9  1  1.34682646  1.44041960  1.67599190  1.0
  C  C10  1  1.19041960  1.01442770  0.59359314  1.0
  C  C11  1  1.42083456  1.59682646  1.40640686  1.0
  C  C12  1  0.26442770  0.94041960  1.09359314  1.0
  C  C13  1  0.84682646  0.17083456  0.90640686  1.0
  C  C14  1  0.69041960  1.09682646  1.17599190  1.0
  C  C15  1  0.92083456  0.51442770  0.82400810  1.0
  N  N16  1  0.73424999  0.60496393  0.39053986  1.0
  N  N17  1  1.21442407  1.34371013  1.60946014  1.0
  N  N18  1  1.09371013  0.98424999  0.62928606  1.0
  N  N19  1  1.35496393  1.46442407  1.37071394  1.0
  N  N20  1  1.23424999  1.84371013  1.12928606  1.0
  N  N21  1  1.71442407  1.10496393  0.87071394  1.0
  N  N22  1  0.59371013  0.96442407  1.10946014  1.0
  N  N23  1  0.85496393  0.48424999  0.89053986  1.0
  Cl  Cl24  1  0.98268706  0.97605630  1.30593666  1.0
  Cl  Cl25  1  0.67011965  0.67675040  0.69406334  1.0
  Cl  Cl26  1  0.42675040  0.23268706  0.50663076  1.0
  Cl  Cl27  1  0.72605630  0.92011965  1.49336924  1.0
  Cl  Cl28  1  1.48268706  1.17675040  1.00663076  1.0
  Cl  Cl29  1  1.17011965  1.47605630  0.99336924  1.0
  Cl  Cl30  1  0.92675040  1.42011965  1.19406334  1.0
  Cl  Cl31  1  1.22605630  0.73268706  0.80593666  1.0
  Cl  Cl32  1  0.62402615  0.68983052  1.17223934  1.0
  Cl  Cl33  1  0.51759118  0.45178681  0.82776066  1.0
  Cl  Cl34  1  1.20178681  0.87402615  0.43419563  1.0
  Cl  Cl35  1  1.43983052  1.76759118  1.56580437  1.0
  Cl  Cl36  1  1.12402615  0.95178681  0.93419563  1.0
  Cl  Cl37  1  1.01759118  1.18983052  1.06580437  1.0
  Cl  Cl38  1  0.70178681  1.26759118  1.32776066  1.0
  Cl  Cl39  1  0.93983052  0.37402615  0.67223934  1.0
  Cl  Cl40  1  0.84418422  1.68622758  1.14135961  1.0
  Cl  Cl41  1  1.54486796  0.70282461  0.85864039  1.0
  Cl  Cl42  1  1.45282461  1.09418422  0.65795665  1.0
  Cl  Cl43  1  1.43622758  1.79486796  1.34204335  1.0
  Cl  Cl44  1  0.34418422  0.20282461  0.15795665  1.0
  Cl  Cl45  1  1.04486796  1.18622758  1.84204335  1.0
  Cl  Cl46  1  0.95282461  1.29486796  1.35864039  1.0
  Cl  Cl47  1  0.93622758  0.59418422  0.64135961  1.0
