# generated using pymatgen
data_Rb2Sn2Se5
_symmetry_space_group_name_H-M   'P 1'
_cell_length_a   7.36711362
_cell_length_b   7.36711362
_cell_length_c   12.19847488
_cell_angle_alpha   75.74008688
_cell_angle_beta   104.25991312
_cell_angle_gamma   106.60345513
_symmetry_Int_Tables_number   1
_chemical_formula_structural   Rb2Sn2Se5
_chemical_formula_sum   'Rb4 Sn4 Se10'
_cell_volume   603.77803481
_cell_formula_units_Z   2
loop_
 _symmetry_equiv_pos_site_id
 _symmetry_equiv_pos_as_xyz
  1  'x, y, z'
loop_
 _atom_site_type_symbol
 _atom_site_label
 _atom_site_symmetry_multiplicity
 _atom_site_fract_x
 _atom_site_fract_y
 _atom_site_fract_z
 _atom_site_occupancy
  Rb  Rb0  1  0.58997971  0.05818482  0.67872748  1.0
  Rb  Rb1  1  0.94181518  0.41002029  0.17872748  1.0
  Rb  Rb2  1  1.05818482  -0.41002029  0.82127252  1.0
  Rb  Rb3  1  1.41002029  -0.05818482  0.32127252  1.0
  Sn  Sn4  1  0.44637949  0.25146830  0.94442928  1.0
  Sn  Sn5  1  0.74853170  0.55362051  0.44442928  1.0
  Sn  Sn6  1  1.25146830  -0.55362051  0.55557072  1.0
  Sn  Sn7  1  1.55362051  -0.25146830  0.05557072  1.0
  Se  Se8  1  1.62104298  -0.36033699  0.88329906  1.0
  Se  Se9  1  1.36033699  -0.62104298  0.38329906  1.0
  Se  Se10  1  0.63966301  0.62104298  0.61670094  1.0
  Se  Se11  1  0.37895702  0.36033699  0.11670094  1.0
  Se  Se12  1  0.75075499  0.12931635  0.96788252  1.0
  Se  Se13  1  0.87068365  0.24924501  0.46788252  1.0
  Se  Se14  1  1.12931635  -0.24924501  0.53211748  1.0
  Se  Se15  1  1.24924501  -0.12931635  0.03211748  1.0
  Se  Se16  1  0.19642278  0.19642278  0.75000000  1.0
  Se  Se17  1  0.80357722  0.80357722  0.25000000  1.0
