# generated using pymatgen
data_GdAl4Ge2Au
_symmetry_space_group_name_H-M   'P 1'
_cell_length_a   10.68051301
_cell_length_b   10.68051301
_cell_length_c   10.68051301
_cell_angle_alpha   22.91929985
_cell_angle_beta   22.91929985
_cell_angle_gamma   22.91929985
_symmetry_Int_Tables_number   1
_chemical_formula_structural   GdAl4Ge2Au
_chemical_formula_sum   'Gd1 Al4 Ge2 Au1'
_cell_volume   162.15310502
_cell_formula_units_Z   1
loop_
 _symmetry_equiv_pos_site_id
 _symmetry_equiv_pos_as_xyz
  1  'x, y, z'
loop_
 _atom_site_type_symbol
 _atom_site_label
 _atom_site_symmetry_multiplicity
 _atom_site_fract_x
 _atom_site_fract_y
 _atom_site_fract_z
 _atom_site_occupancy
  Gd  Gd0  1  1.50000000  0.50000000  0.50000000  1.0
  Al  Al1  1  0.91644745  0.91644745  0.91644745  1.0
  Al  Al2  1  1.08355255  1.08355255  0.08355255  1.0
  Al  Al3  1  0.69258041  0.69258041  0.69258041  1.0
  Al  Al4  1  1.30741959  1.30741959  0.30741959  1.0
  Ge  Ge5  1  0.77756959  0.77756959  0.77756959  1.0
  Ge  Ge6  1  1.22243041  1.22243041  0.22243041  1.0
  Au  Au7  1  0.00000000  0.00000000  0.00000000  1.0
