# generated using pymatgen
data_Lu2(Al3Rh)3
_symmetry_space_group_name_H-M   'P 1'
_cell_length_a   7.50136483
_cell_length_b   7.50136483
_cell_length_c   9.40929656
_cell_angle_alpha   90.00000000
_cell_angle_beta   90.00000000
_cell_angle_gamma   60.56553994
_symmetry_Int_Tables_number   1
_chemical_formula_structural   Lu2(Al3Rh)3
_chemical_formula_sum   'Lu4 Al18 Rh6'
_cell_volume   461.12131876
_cell_formula_units_Z   2
loop_
 _symmetry_equiv_pos_site_id
 _symmetry_equiv_pos_as_xyz
  1  'x, y, z'
loop_
 _atom_site_type_symbol
 _atom_site_label
 _atom_site_symmetry_multiplicity
 _atom_site_fract_x
 _atom_site_fract_y
 _atom_site_fract_z
 _atom_site_occupancy
  Lu  Lu0  1  -0.00539736  1.32745242  0.25000000  1.0
  Lu  Lu1  1  0.32745242  0.99460264  0.75000000  1.0
  Lu  Lu2  1  -0.32745242  1.00539736  0.25000000  1.0
  Lu  Lu3  1  0.00539736  0.67254758  0.75000000  1.0
  Al  Al4  1  -0.00003082  0.66430429  0.42395267  1.0
  Al  Al5  1  -0.00003082  0.66430429  0.07604733  1.0
  Al  Al6  1  -0.33569571  0.99996918  0.92395267  1.0
  Al  Al7  1  -0.33569571  0.99996918  0.57604733  1.0
  Al  Al8  1  0.33569571  1.00003082  0.42395267  1.0
  Al  Al9  1  0.33569571  1.00003082  0.07604733  1.0
  Al  Al10  1  0.00003082  1.33569571  0.92395267  1.0
  Al  Al11  1  0.00003082  1.33569571  0.57604733  1.0
  Al  Al12  1  0.33985142  0.44834077  0.25000000  1.0
  Al  Al13  1  -0.55165923  1.33985142  0.75000000  1.0
  Al  Al14  1  0.55165923  0.66014858  0.25000000  1.0
  Al  Al15  1  -0.33985142  1.55165923  0.75000000  1.0
  Al  Al16  1  0.33241058  0.66758942  0.94705157  1.0
  Al  Al17  1  0.33241058  0.66758942  0.55294843  1.0
  Al  Al18  1  -0.33241058  1.33241058  0.44705157  1.0
  Al  Al19  1  -0.33241058  1.33241058  0.05294843  1.0
  Al  Al20  1  0.12768887  0.87231113  0.25000000  1.0
  Al  Al21  1  -0.12768887  1.12768887  0.75000000  1.0
  Rh  Rh22  1  0.67224254  0.67224254  0.50000000  1.0
  Rh  Rh23  1  0.67224254  0.67224254  0.00000000  1.0
  Rh  Rh24  1  0.32775746  0.32775746  0.50000000  1.0
  Rh  Rh25  1  0.32775746  0.32775746  0.00000000  1.0
  Rh  Rh26  1  0.00000000  0.00000000  0.50000000  1.0
  Rh  Rh27  1  0.00000000  0.00000000  0.00000000  1.0
