# generated using pymatgen
data_Rb2MnF6
_symmetry_space_group_name_H-M   'P 1'
_cell_length_a   6.06165538
_cell_length_b   6.06165538
_cell_length_c   9.94606327
_cell_angle_alpha   90.00000000
_cell_angle_beta   90.00000000
_cell_angle_gamma   120.00000000
_symmetry_Int_Tables_number   1
_chemical_formula_structural   Rb2MnF6
_chemical_formula_sum   'Rb4 Mn2 F12'
_cell_volume   316.49316320
_cell_formula_units_Z   2
loop_
 _symmetry_equiv_pos_site_id
 _symmetry_equiv_pos_as_xyz
  1  'x, y, z'
loop_
 _atom_site_type_symbol
 _atom_site_label
 _atom_site_symmetry_multiplicity
 _atom_site_fract_x
 _atom_site_fract_y
 _atom_site_fract_z
 _atom_site_occupancy
  Rb  Rb0  1  0.33333333  0.66666667  0.26767101  1.0
  Rb  Rb1  1  0.66666667  0.33333333  0.76767101  1.0
  Rb  Rb2  1  -0.00000000  -0.00000000  -0.00637172  1.0
  Rb  Rb3  1  -0.00000000  -0.00000000  0.49362828  1.0
  Mn  Mn4  1  0.33333333  0.66666667  0.65135659  1.0
  Mn  Mn5  1  0.66666667  0.33333333  0.15135659  1.0
  F  F6  1  0.94994115  0.47497057  0.04341247  1.0
  F  F7  1  0.47497057  0.94994115  0.54341247  1.0
  F  F8  1  0.47497057  0.52502943  0.54341247  1.0
  F  F9  1  0.52502943  0.47497057  0.04341247  1.0
  F  F10  1  0.52502943  0.05005885  0.04341247  1.0
  F  F11  1  0.05005885  0.52502943  0.54341247  1.0
  F  F12  1  0.37602817  0.18801408  0.25403557  1.0
  F  F13  1  0.18801408  0.37602817  0.75403557  1.0
  F  F14  1  0.18801408  0.81198592  0.75403557  1.0
  F  F15  1  0.81198592  0.18801408  0.25403557  1.0
  F  F16  1  0.81198592  0.62397183  0.25403557  1.0
  F  F17  1  0.62397183  0.81198592  0.75403557  1.0
