# generated using pymatgen
data_Mn5Te4(ClO6)2
_symmetry_space_group_name_H-M   'P 1'
_cell_length_a   8.92169978
_cell_length_b   5.55458667
_cell_length_c   16.27248739
_cell_angle_alpha   90.00000000
_cell_angle_beta   104.98179916
_cell_angle_gamma   90.00000000
_symmetry_Int_Tables_number   1
_chemical_formula_structural   Mn5Te4(ClO6)2
_chemical_formula_sum   'Mn10 Te8 Cl4 O24'
_cell_volume   778.99382822
_cell_formula_units_Z   2
loop_
 _symmetry_equiv_pos_site_id
 _symmetry_equiv_pos_as_xyz
  1  'x, y, z'
loop_
 _atom_site_type_symbol
 _atom_site_label
 _atom_site_symmetry_multiplicity
 _atom_site_fract_x
 _atom_site_fract_y
 _atom_site_fract_z
 _atom_site_occupancy
  Mn  Mn0  1  0.00000000  0.50000000  0.50000000  1.0
  Mn  Mn1  1  0.00000000  0.00000000  0.00000000  1.0
  Mn  Mn2  1  0.77629038  0.91995813  0.12754034  1.0
  Mn  Mn3  1  0.22370962  0.41995813  0.37245966  1.0
  Mn  Mn4  1  0.22370962  0.08004187  0.87245966  1.0
  Mn  Mn5  1  0.77629038  0.58004187  0.62754034  1.0
  Mn  Mn6  1  0.98984828  0.88087153  0.33677189  1.0
  Mn  Mn7  1  0.01015172  0.38087153  0.16322811  1.0
  Mn  Mn8  1  0.01015172  0.11912847  0.66322811  1.0
  Mn  Mn9  1  0.98984828  0.61912847  0.83677189  1.0
  Te  Te10  1  0.74657128  0.37517589  0.27184931  1.0
  Te  Te11  1  0.25342872  0.87517589  0.22815069  1.0
  Te  Te12  1  0.25342872  0.62482411  0.72815069  1.0
  Te  Te13  1  0.74657128  0.12482411  0.77184931  1.0
  Te  Te14  1  0.71368511  0.47988806  0.97364350  1.0
  Te  Te15  1  0.28631489  0.97988806  0.52635650  1.0
  Te  Te16  1  0.28631489  0.52011194  0.02635650  1.0
  Te  Te17  1  0.71368511  0.02011194  0.47364350  1.0
  Cl  Cl18  1  0.51239110  0.05335723  0.11586472  1.0
  Cl  Cl19  1  0.48760890  0.55335723  0.38413528  1.0
  Cl  Cl20  1  0.48760890  0.94664277  0.88413528  1.0
  Cl  Cl21  1  0.51239110  0.44664277  0.61586472  1.0
  O  O22  1  0.90185371  0.53566405  0.36232563  1.0
  O  O23  1  0.09814629  0.03566405  0.13767437  1.0
  O  O24  1  0.09814629  0.46433595  0.63767437  1.0
  O  O25  1  0.90185371  0.96433595  0.86232563  1.0
  O  O26  1  0.88239504  0.13259904  0.23452821  1.0
  O  O27  1  0.11760496  0.63259904  0.26547179  1.0
  O  O28  1  0.11760496  0.86740096  0.76547179  1.0
  O  O29  1  0.88239504  0.36740096  0.73452821  1.0
  O  O30  1  0.79155632  0.58345097  0.18128127  1.0
  O  O31  1  0.20844368  0.08345097  0.31871873  1.0
  O  O32  1  0.20844368  0.41654903  0.81871873  1.0
  O  O33  1  0.79155632  0.91654903  0.68128127  1.0
  O  O34  1  0.79452958  0.45399595  0.87341540  1.0
  O  O35  1  0.20547042  0.95399595  0.62658460  1.0
  O  O36  1  0.20547042  0.54600405  0.12658460  1.0
  O  O37  1  0.79452958  0.04600405  0.37341540  1.0
  O  O38  1  0.85387085  0.24765952  0.04681512  1.0
  O  O39  1  0.14612915  0.74765952  0.45318488  1.0
  O  O40  1  0.14612915  0.75234048  0.95318488  1.0
  O  O41  1  0.85387085  0.25234048  0.54681512  1.0
  O  O42  1  0.83495695  0.75947191  0.02514093  1.0
  O  O43  1  0.16504305  0.25947191  0.47485907  1.0
  O  O44  1  0.16504305  0.24052809  0.97485907  1.0
  O  O45  1  0.83495695  0.74052809  0.52514093  1.0
