# generated using pymatgen
data_KBa4Sb3O
_symmetry_space_group_name_H-M   'P 1'
_cell_length_a   10.50897818
_cell_length_b   10.50897818
_cell_length_c   10.50897818
_cell_angle_alpha   129.70673862
_cell_angle_beta   129.70673862
_cell_angle_gamma   73.87602822
_symmetry_Int_Tables_number   1
_chemical_formula_structural   KBa4Sb3O
_chemical_formula_sum   'K2 Ba8 Sb6 O2'
_cell_volume   670.02556403
_cell_formula_units_Z   2
loop_
 _symmetry_equiv_pos_site_id
 _symmetry_equiv_pos_as_xyz
  1  'x, y, z'
loop_
 _atom_site_type_symbol
 _atom_site_label
 _atom_site_symmetry_multiplicity
 _atom_site_fract_x
 _atom_site_fract_y
 _atom_site_fract_z
 _atom_site_occupancy
  K  K0  1  0.00000000  0.00000000  0.00000000  1.0
  K  K1  1  0.50000000  0.50000000  1.00000000  1.0
  Ba  Ba2  1  1.18817654  0.68817654  1.18497948  1.0
  Ba  Ba3  1  0.49680294  0.99680294  1.18497948  1.0
  Ba  Ba4  1  1.00319706  1.18817654  1.50000000  1.0
  Ba  Ba5  1  0.31182346  0.49680294  0.50000000  1.0
  Ba  Ba6  1  0.68817654  0.50319706  0.50000000  1.0
  Ba  Ba7  1  0.99680294  0.81182346  1.50000000  1.0
  Ba  Ba8  1  0.50319706  1.00319706  0.81502052  1.0
  Ba  Ba9  1  0.81182346  0.31182346  0.81502052  1.0
  Sb  Sb10  1  0.88427484  0.38427484  1.26854968  1.0
  Sb  Sb11  1  0.61572516  0.88427484  1.50000000  1.0
  Sb  Sb12  1  0.38427484  0.11572516  0.50000000  1.0
  Sb  Sb13  1  0.11572516  0.61572516  0.73145032  1.0
  Sb  Sb14  1  0.75000000  0.75000000  1.00000000  1.0
  Sb  Sb15  1  0.25000000  0.25000000  0.00000000  1.0
  O  O16  1  0.25000000  0.75000000  0.50000000  1.0
  O  O17  1  0.75000000  0.25000000  0.50000000  1.0
