# generated using pymatgen
data_Zr(GeO)2
_symmetry_space_group_name_H-M   'P 1'
_cell_length_a   8.15398360
_cell_length_b   8.15398360
_cell_length_c   8.15398360
_cell_angle_alpha   101.26079272
_cell_angle_beta   101.26079272
_cell_angle_gamma   127.54973524
_symmetry_Int_Tables_number   1
_chemical_formula_structural   Zr(GeO)2
_chemical_formula_sum   'Zr4 Ge8 O8'
_cell_volume   385.57631755
_cell_formula_units_Z   4
loop_
 _symmetry_equiv_pos_site_id
 _symmetry_equiv_pos_as_xyz
  1  'x, y, z'
loop_
 _atom_site_type_symbol
 _atom_site_label
 _atom_site_symmetry_multiplicity
 _atom_site_fract_x
 _atom_site_fract_y
 _atom_site_fract_z
 _atom_site_occupancy
  Zr  Zr0  1  1.37500000  1.12500000  1.25000000  1.0
  Zr  Zr1  1  0.87500000  1.12500000  0.75000000  1.0
  Zr  Zr2  1  0.87500000  1.12500000  0.25000000  1.0
  Zr  Zr3  1  0.87500000  1.62500000  0.75000000  1.0
  Ge  Ge4  1  1.15193755  1.50312075  0.64881680  1.0
  Ge  Ge5  1  0.89569605  0.74687925  0.14881680  1.0
  Ge  Ge6  1  0.85430395  0.50312075  0.35118320  1.0
  Ge  Ge7  1  1.59806245  0.74687925  0.85118320  1.0
  Ge  Ge8  1  0.49687925  0.14569605  0.64881680  1.0
  Ge  Ge9  1  1.25312075  1.40193755  1.14881680  1.0
  Ge  Ge10  1  0.49687925  0.84806245  0.35118320  1.0
  Ge  Ge11  1  1.25312075  1.10430395  0.85118320  1.0
  O  O12  1  1.21380064  1.32982979  0.88397085  1.0
  O  O13  1  1.30414106  0.92017021  1.38397085  1.0
  O  O14  1  0.44585894  0.32982979  0.11602915  1.0
  O  O15  1  0.53619936  0.92017021  0.61602915  1.0
  O  O16  1  0.67017021  0.55414106  0.88397085  1.0
  O  O17  1  1.07982979  1.46380064  0.38397085  1.0
  O  O18  1  0.67017021  0.78619936  0.11602915  1.0
  O  O19  1  1.07982979  1.69585894  0.61602915  1.0
