# generated using pymatgen
data_CuPHO4
_symmetry_space_group_name_H-M   'P 1'
_cell_length_a   9.64213244
_cell_length_b   9.64213244
_cell_length_c   9.64213244
_cell_angle_alpha   114.65330267
_cell_angle_beta   114.65330267
_cell_angle_gamma   114.65330267
_symmetry_Int_Tables_number   1
_chemical_formula_structural   CuPHO4
_chemical_formula_sum   'Cu6 P6 H6 O24'
_cell_volume   517.19078693
_cell_formula_units_Z   6
loop_
 _symmetry_equiv_pos_site_id
 _symmetry_equiv_pos_as_xyz
  1  'x, y, z'
loop_
 _atom_site_type_symbol
 _atom_site_label
 _atom_site_symmetry_multiplicity
 _atom_site_fract_x
 _atom_site_fract_y
 _atom_site_fract_z
 _atom_site_occupancy
  P  P0  1  0.81579922  0.25051391  0.18301816  1.0
  P  P1  1  0.81698185  1.18420078  -0.25051391  1.0
  P  P2  1  0.74948609  -0.18301815  0.18420078  1.0
  P  P3  1  1.18420078  0.74948609  0.81698185  1.0
  P  P4  1  1.18301816  0.81579922  0.25051391  1.0
  P  P5  1  0.25051391  0.18301815  -0.18420078  1.0
  O  O6  1  1.04510118  0.35486506  0.26713134  1.0
  O  O7  1  0.73286866  0.95489882  -0.35486506  1.0
  O  O8  1  0.64513494  -0.26713134  -0.04510118  1.0
  O  O9  1  0.95489882  0.64513494  0.73286866  1.0
  O  O10  1  1.26713134  1.04510118  0.35486506  1.0
  O  O11  1  0.35486506  0.26713134  0.04510118  1.0
  O  O12  1  0.77210906  0.38719813  0.18417657  1.0
  O  O13  1  0.81582343  1.22789094  -0.38719813  1.0
  O  O14  1  0.61280187  0.81582343  -0.77210906  1.0
  O  O15  1  1.22789094  0.61280187  0.81582343  1.0
  O  O16  1  1.18417657  0.77210906  0.38719813  1.0
  O  O17  1  0.38719813  0.18417657  -0.22789094  1.0
  O  O18  1  0.98569020  0.05052082  0.37022645  1.0
  O  O19  1  0.62977355  0.01430980  -0.05052082  1.0
  O  O20  1  0.94947918  0.62977355  0.01430980  1.0
  O  O21  1  1.01430980  0.94947918  0.62977355  1.0
  O  O22  1  0.37022645  -0.01430980  0.05052082  1.0
  O  O23  1  1.05052082  1.37022645  -0.01430980  1.0
  O  O24  1  0.83542297  0.24461278  0.34986095  1.0
  O  O25  1  0.65013905  0.16457703  -0.24461278  1.0
  O  O26  1  0.75538722  0.65013905  0.16457703  1.0
  O  O27  1  1.16457703  0.75538722  0.65013905  1.0
  O  O28  1  0.34986095  0.83542297  -0.75538722  1.0
  O  O29  1  1.24461278  1.34986095  -0.16457703  1.0
  H  H30  1  1.17459230  1.05843230  0.36713367  1.0
  H  H31  1  0.63286633  -0.17459230  -0.05843230  1.0
  H  H32  1  0.94156770  1.63286633  -0.17459230  1.0
  H  H33  1  0.82540770  0.94156770  -0.36713367  1.0
  H  H34  1  0.36713367  0.17459230  0.05843230  1.0
  H  H35  1  1.05843230  0.36713367  0.17459230  1.0
  Cu  Cu36  1  0.92984575  0.68901404  0.41538840  1.0
  Cu  Cu37  1  0.58461160  0.07015425  0.31098596  1.0
  Cu  Cu38  1  1.31098596  1.58461160  0.07015425  1.0
  Cu  Cu39  1  1.07015425  0.31098596  0.58461160  1.0
  Cu  Cu40  1  0.41538840  -0.07015425  -0.31098596  1.0
  Cu  Cu41  1  0.68901404  0.41538840  -0.07015425  1.0
