# generated using pymatgen
data_Sr2TlO3
_symmetry_space_group_name_H-M   'P 1'
_cell_length_a   3.65179026
_cell_length_b   3.65179026
_cell_length_c   8.22499102
_cell_angle_alpha   77.19149245
_cell_angle_beta   102.80850755
_cell_angle_gamma   89.96788805
_symmetry_Int_Tables_number   1
_chemical_formula_structural   Sr2TlO3
_chemical_formula_sum   'Sr2 Tl1 O3'
_cell_volume   104.15156063
_cell_formula_units_Z   1
loop_
 _symmetry_equiv_pos_site_id
 _symmetry_equiv_pos_as_xyz
  1  'x, y, z'
loop_
 _atom_site_type_symbol
 _atom_site_label
 _atom_site_symmetry_multiplicity
 _atom_site_fract_x
 _atom_site_fract_y
 _atom_site_fract_z
 _atom_site_occupancy
  Sr  Sr0  1  0.33589707  -0.33589707  0.67180192  1.0
  Sr  Sr1  1  0.66410293  -0.66410293  0.32819808  1.0
  Tl  Tl2  1  0.00000000  0.00000000  0.00000000  1.0
  O  O3  1  0.50000000  -0.50000000  0.00000000  1.0
  O  O4  1  0.17081402  -0.17081402  0.34154872  1.0
  O  O5  1  0.82918598  -0.82918598  0.65845128  1.0
