# generated using pymatgen
data_Gd2GeBr2
_symmetry_space_group_name_H-M   'P 1'
_cell_length_a   10.97543805
_cell_length_b   10.97543805
_cell_length_c   10.97543805
_cell_angle_alpha   22.06135228
_cell_angle_beta   22.06135228
_cell_angle_gamma   22.06135228
_symmetry_Int_Tables_number   1
_chemical_formula_structural   Gd2GeBr2
_chemical_formula_sum   'Gd2 Ge1 Br2'
_cell_volume   163.52197869
_cell_formula_units_Z   1
loop_
 _symmetry_equiv_pos_site_id
 _symmetry_equiv_pos_as_xyz
  1  'x, y, z'
loop_
 _atom_site_type_symbol
 _atom_site_label
 _atom_site_symmetry_multiplicity
 _atom_site_fract_x
 _atom_site_fract_y
 _atom_site_fract_z
 _atom_site_occupancy
  Gd  Gd0  1  1.61586410  0.61586410  0.61586410  1.0
  Gd  Gd1  1  1.38413590  0.38413590  0.38413590  1.0
  Ge  Ge2  1  0.00000000  0.00000000  0.00000000  1.0
  Br  Br3  1  0.77225711  0.77225711  0.77225711  1.0
  Br  Br4  1  1.22774289  1.22774289  0.22774289  1.0
