# generated using pymatgen
data_Sr2CuSi2O7
_symmetry_space_group_name_H-M   'P 1'
_cell_length_a   8.20206816
_cell_length_b   8.20206816
_cell_length_c   5.10971525
_cell_angle_alpha   90.00000000
_cell_angle_beta   90.00000000
_cell_angle_gamma   90.00000000
_symmetry_Int_Tables_number   1
_chemical_formula_structural   Sr2CuSi2O7
_chemical_formula_sum   'Sr4 Cu2 Si4 O14'
_cell_volume   343.75058590
_cell_formula_units_Z   2
loop_
 _symmetry_equiv_pos_site_id
 _symmetry_equiv_pos_as_xyz
  1  'x, y, z'
loop_
 _atom_site_type_symbol
 _atom_site_label
 _atom_site_symmetry_multiplicity
 _atom_site_fract_x
 _atom_site_fract_y
 _atom_site_fract_z
 _atom_site_occupancy
  Sr  Sr0  1  0.83339415  0.33339415  0.49100054  1.0
  Sr  Sr1  1  0.66660585  0.83339415  0.50899946  1.0
  Sr  Sr2  1  0.16660585  0.66660585  0.49100054  1.0
  Sr  Sr3  1  0.33339415  0.16660585  0.50899946  1.0
  Cu  Cu4  1  0.50000000  0.50000000  0.00000000  1.0
  Cu  Cu5  1  0.00000000  0.00000000  0.00000000  1.0
  Si  Si6  1  0.36365778  0.86365778  0.03707320  1.0
  Si  Si7  1  0.13634222  0.36365778  0.96292680  1.0
  Si  Si8  1  0.63634222  0.13634222  0.03707320  1.0
  Si  Si9  1  0.86365778  0.63634222  0.96292680  1.0
  O  O10  1  0.30695074  0.41831230  0.81940198  1.0
  O  O11  1  0.19304926  0.91831230  0.18059802  1.0
  O  O12  1  0.58168770  0.30695074  0.18059802  1.0
  O  O13  1  0.91831230  0.80695074  0.81940198  1.0
  O  O14  1  0.69304926  0.58168770  0.81940198  1.0
  O  O15  1  0.80695074  0.08168770  0.18059802  1.0
  O  O16  1  0.41831230  0.69304926  0.18059802  1.0
  O  O17  1  0.08168770  0.19304926  0.81940198  1.0
  O  O18  1  0.36481981  0.86481981  0.72089812  1.0
  O  O19  1  0.13518019  0.36481981  0.27910188  1.0
  O  O20  1  0.63518019  0.13518019  0.72089812  1.0
  O  O21  1  0.86481981  0.63518019  0.27910188  1.0
  O  O22  1  0.00000000  0.50000000  0.84641208  1.0
  O  O23  1  0.50000000  0.00000000  0.15358792  1.0
