# generated using pymatgen
data_CaH2I2O7
_symmetry_space_group_name_H-M   'P 1'
_cell_length_a   8.50537619
_cell_length_b   9.99895479
_cell_length_c   7.86490839
_cell_angle_alpha   90.00000000
_cell_angle_beta   93.30778302
_cell_angle_gamma   90.00000000
_symmetry_Int_Tables_number   1
_chemical_formula_structural   CaH2I2O7
_chemical_formula_sum   'Ca4 H8 I8 O28'
_cell_volume   667.75578105
_cell_formula_units_Z   4
loop_
 _symmetry_equiv_pos_site_id
 _symmetry_equiv_pos_as_xyz
  1  'x, y, z'
loop_
 _atom_site_type_symbol
 _atom_site_label
 _atom_site_symmetry_multiplicity
 _atom_site_fract_x
 _atom_site_fract_y
 _atom_site_fract_z
 _atom_site_occupancy
  Ca  Ca0  1  0.79040492  0.49277229  0.84419987  1.0
  Ca  Ca1  1  0.79040492  0.00722771  0.34419987  1.0
  Ca  Ca2  1  0.20959508  0.99277229  0.65580013  1.0
  Ca  Ca3  1  0.20959508  0.50722771  0.15580013  1.0
  H  H4  1  0.38107465  0.49674174  0.83838180  1.0
  H  H5  1  0.38107465  1.00325826  0.33838180  1.0
  H  H6  1  0.61892535  -0.00325826  0.66161820  1.0
  H  H7  1  0.61892535  0.50325826  0.16161820  1.0
  H  H8  1  0.22455097  0.57941201  0.79032597  1.0
  H  H9  1  0.22455097  0.92058799  0.29032597  1.0
  H  H10  1  0.77544903  0.07941201  0.70967403  1.0
  H  H11  1  0.77544903  0.42058799  0.20967403  1.0
  I  I12  1  0.97349033  0.81742921  0.95648234  1.0
  I  I13  1  0.97349033  0.68257079  0.45648234  1.0
  I  I14  1  0.02650967  0.31742921  0.54351766  1.0
  I  I15  1  0.02650967  0.18257079  0.04351766  1.0
  I  I16  1  0.50983531  0.82223533  0.93545681  1.0
  I  I17  1  0.50983531  0.67776467  0.43545681  1.0
  I  I18  1  0.49016469  0.32223533  0.56454319  1.0
  I  I19  1  0.49016469  0.17776467  0.06454319  1.0
  O  O20  1  1.00262542  0.58832698  0.66585568  1.0
  O  O21  1  1.00262542  0.91167302  0.16585568  1.0
  O  O22  1  -0.00262542  0.08832698  0.83414432  1.0
  O  O23  1  -0.00262542  0.41167302  0.33414432  1.0
  O  O24  1  0.97618302  0.86008384  0.53956397  1.0
  O  O25  1  0.97618302  0.63991616  0.03956397  1.0
  O  O26  1  0.02381698  0.36008384  0.96043603  1.0
  O  O27  1  0.02381698  0.13991616  0.46043603  1.0
  O  O28  1  0.82598826  0.32744708  0.62727230  1.0
  O  O29  1  0.82598826  0.17255292  0.12727230  1.0
  O  O30  1  0.17401174  0.82744708  0.87272770  1.0
  O  O31  1  0.17401174  0.67255292  0.37272770  1.0
  O  O32  1  0.65895857  0.54750348  0.51476795  1.0
  O  O33  1  0.65895857  0.95249652  0.01476795  1.0
  O  O34  1  0.34104143  0.04750348  0.98523205  1.0
  O  O35  1  0.34104143  0.45249652  0.48523205  1.0
  O  O36  1  0.65946017  0.69374175  0.88081328  1.0
  O  O37  1  0.65946017  0.80625825  0.38081328  1.0
  O  O38  1  0.34053983  0.19374175  0.61918672  1.0
  O  O39  1  0.34053983  0.30625825  0.11918672  1.0
  O  O40  1  0.46287820  0.88199942  0.70965475  1.0
  O  O41  1  0.46287820  0.61800058  0.20965475  1.0
  O  O42  1  0.53712180  0.38199942  0.79034525  1.0
  O  O43  1  0.53712180  0.11800058  0.29034525  1.0
  O  O44  1  0.30782396  0.56496458  0.88013376  1.0
  O  O45  1  0.30782396  0.93503542  0.38013376  1.0
  O  O46  1  0.69217604  0.06496458  0.61986624  1.0
  O  O47  1  0.69217604  0.43503542  0.11986624  1.0
