# generated using pymatgen
data_Hf8Ni21
_symmetry_space_group_name_H-M   'P 1'
_cell_length_a   8.54453488
_cell_length_b   8.02621078
_cell_length_c   6.42201834
_cell_angle_alpha   75.47565152
_cell_angle_beta   68.08265029
_cell_angle_gamma   75.21290992
_symmetry_Int_Tables_number   1
_chemical_formula_structural   Hf8Ni21
_chemical_formula_sum   'Hf8 Ni21'
_cell_volume   389.07573836
_cell_formula_units_Z   1
loop_
 _symmetry_equiv_pos_site_id
 _symmetry_equiv_pos_as_xyz
  1  'x, y, z'
loop_
 _atom_site_type_symbol
 _atom_site_label
 _atom_site_symmetry_multiplicity
 _atom_site_fract_x
 _atom_site_fract_y
 _atom_site_fract_z
 _atom_site_occupancy
  Hf  Hf0  1  -0.68543544  -0.09651863  -0.93020740  1.0
  Hf  Hf1  1  -0.31456456  -0.90348137  -0.06979260  1.0
  Hf  Hf2  1  -0.96626440  -0.56254472  -0.75234001  1.0
  Hf  Hf3  1  -0.03373560  -0.43745528  -0.24765999  1.0
  Hf  Hf4  1  -0.39255899  -0.43879584  -0.75299312  1.0
  Hf  Hf5  1  -0.60744101  -0.56120416  -0.24700688  1.0
  Hf  Hf6  1  -0.75355785  -0.96432931  -0.43156438  1.0
  Hf  Hf7  1  -0.24644215  -0.03567069  -0.56843562  1.0
  Ni  Ni8  1  -0.15394949  -0.71778131  -0.90146343  1.0
  Ni  Ni9  1  -0.84605051  -0.28221869  -0.09853657  1.0
  Ni  Ni10  1  -0.65144792  -0.44591499  -0.87981066  1.0
  Ni  Ni11  1  -0.34855208  -0.55408501  -0.12018934  1.0
  Ni  Ni12  1  -0.65742309  -0.78862915  -0.86279363  1.0
  Ni  Ni13  1  -0.34257691  -0.21137085  -0.13720637  1.0
  Ni  Ni14  1  -0.45821667  -0.75472186  -0.69618800  1.0
  Ni  Ni15  1  -0.54178333  -0.24527814  -0.30381200  1.0
  Ni  Ni16  1  -0.96320744  -0.90072904  -0.68323597  1.0
  Ni  Ni17  1  -0.03679256  -0.09927096  -0.31676403  1.0
  Ni  Ni18  1  -0.95243062  -0.25578449  -0.68127325  1.0
  Ni  Ni19  1  -0.04756938  -0.74421551  -0.31872675  1.0
  Ni  Ni20  1  -0.72444387  -0.29396647  -0.51631694  1.0
  Ni  Ni21  1  -0.27555613  -0.70603353  -0.48368306  1.0
  Ni  Ni22  1  -0.75665413  -0.61895374  -0.51384686  1.0
  Ni  Ni23  1  -0.24334587  -0.38104626  -0.48615314  1.0
  Ni  Ni24  1  -0.52970297  -0.88818976  -0.28629484  1.0
  Ni  Ni25  1  -0.47029703  -0.11181024  -0.71370516  1.0
  Ni  Ni26  1  -0.84716400  -0.75896291  -0.09795003  1.0
  Ni  Ni27  1  -0.15283600  -0.24103709  -0.90204997  1.0
  Ni  Ni28  1  0.00000000  0.00000000  0.00000000  1.0
