# generated using pymatgen
data_Tl5Te3
_symmetry_space_group_name_H-M   'P 1'
_cell_length_a   9.34919859
_cell_length_b   9.34919859
_cell_length_c   9.34919859
_cell_angle_alpha   120.79078643
_cell_angle_beta   120.79078643
_cell_angle_gamma   88.63568935
_symmetry_Int_Tables_number   1
_chemical_formula_structural   Tl5Te3
_chemical_formula_sum   'Tl10 Te6'
_cell_volume   570.75841152
_cell_formula_units_Z   2
loop_
 _symmetry_equiv_pos_site_id
 _symmetry_equiv_pos_as_xyz
  1  'x, y, z'
loop_
 _atom_site_type_symbol
 _atom_site_label
 _atom_site_symmetry_multiplicity
 _atom_site_fract_x
 _atom_site_fract_y
 _atom_site_fract_z
 _atom_site_occupancy
  Tl  Tl0  1  0.49327396  1.06014377  0.83187167  1.0
  Tl  Tl1  1  0.93985623  0.77172790  1.43313018  1.0
  Tl  Tl2  1  1.22827210  0.66140229  1.16812833  1.0
  Tl  Tl3  1  0.33859771  0.50672604  0.56686982  1.0
  Tl  Tl4  1  0.52699885  0.94992098  1.21038791  1.0
  Tl  Tl5  1  1.05007902  1.26046693  1.57707788  1.0
  Tl  Tl6  1  0.73953307  0.31661094  0.78961209  1.0
  Tl  Tl7  1  0.68338906  0.47300115  0.42292212  1.0
  Tl  Tl8  1  0.24076112  0.24076112  0.00000000  1.0
  Tl  Tl9  1  0.75923888  0.75923888  1.00000000  1.0
  Te  Te10  1  0.12326983  0.70296910  0.79086466  1.0
  Te  Te11  1  1.29703090  1.08789556  1.42030073  1.0
  Te  Te12  1  0.91210444  0.33240517  1.20913534  1.0
  Te  Te13  1  0.66759483  0.87673017  0.57969927  1.0
  Te  Te14  1  0.50000000  0.50000000  1.00000000  1.0
  Te  Te15  1  -0.00000000  -0.00000000  -0.00000000  1.0
