# generated using pymatgen
data_SiC
_symmetry_space_group_name_H-M   'P 1'
_cell_length_a   17.81012665
_cell_length_b   17.81012665
_cell_length_c   17.81012665
_cell_angle_alpha   9.97284465
_cell_angle_beta   9.97284465
_cell_angle_gamma   9.97284465
_symmetry_Int_Tables_number   1
_chemical_formula_structural   SiC
_chemical_formula_sum   'Si7 C7'
_cell_volume   147.10561732
_cell_formula_units_Z   7
loop_
 _symmetry_equiv_pos_site_id
 _symmetry_equiv_pos_as_xyz
  1  'x, y, z'
loop_
 _atom_site_type_symbol
 _atom_site_label
 _atom_site_symmetry_multiplicity
 _atom_site_fract_x
 _atom_site_fract_y
 _atom_site_fract_z
 _atom_site_occupancy
  Si  Si0  1  0.19049707  0.19049707  0.19049707  1.0
  Si  Si1  1  0.38094456  0.38094456  -0.61905544  1.0
  Si  Si2  1  0.47625328  0.47625328  -0.52374672  1.0
  Si  Si3  1  0.61904663  0.61904663  -0.38095337  1.0
  Si  Si4  1  0.76192750  -0.23807250  -0.23807250  1.0
  Si  Si5  1  0.90473998  -0.09526002  -0.09526002  1.0
  Si  Si6  1  0.00003521  0.00003521  0.00003521  1.0
  C  C7  1  0.15477755  0.15477755  0.15477755  1.0
  C  C8  1  0.34523122  0.34523122  -0.65476878  1.0
  C  C9  1  0.44054245  0.44054245  -0.55945755  1.0
  C  C10  1  0.58323389  0.58323389  -0.41676611  1.0
  C  C11  1  0.72610995  -0.27389005  -0.27389005  1.0
  C  C12  1  0.86903477  -0.13096523  -0.13096523  1.0
  C  C13  1  0.96432595  -0.03567405  -0.03567405  1.0
