# generated using pymatgen
data_Nb4AlN3
_symmetry_space_group_name_H-M   'P 1'
_cell_length_a   2.99096314
_cell_length_b   2.99096314
_cell_length_c   25.58720492
_cell_angle_alpha   90.00000000
_cell_angle_beta   90.00000000
_cell_angle_gamma   120.00000000
_symmetry_Int_Tables_number   1
_chemical_formula_structural   Nb4AlN3
_chemical_formula_sum   'Nb8 Al2 N6'
_cell_volume   198.23283869
_cell_formula_units_Z   2
loop_
 _symmetry_equiv_pos_site_id
 _symmetry_equiv_pos_as_xyz
  1  'x, y, z'
loop_
 _atom_site_type_symbol
 _atom_site_label
 _atom_site_symmetry_multiplicity
 _atom_site_fract_x
 _atom_site_fract_y
 _atom_site_fract_z
 _atom_site_occupancy
  Nb  Nb0  1  0.33333333  0.66666667  0.44528499  1.0
  Nb  Nb1  1  0.66666667  0.33333333  0.55471501  1.0
  Nb  Nb2  1  0.66666667  0.33333333  0.94528499  1.0
  Nb  Nb3  1  0.33333333  0.66666667  0.05471501  1.0
  Nb  Nb4  1  0.33333333  0.66666667  0.83797373  1.0
  Nb  Nb5  1  0.66666667  0.33333333  0.16202627  1.0
  Nb  Nb6  1  0.66666667  0.33333333  0.33797373  1.0
  Nb  Nb7  1  0.33333333  0.66666667  0.66202627  1.0
  Al  Al8  1  0.33333333  0.66666667  0.25000000  1.0
  Al  Al9  1  0.66666667  0.33333333  0.75000000  1.0
  N  N10  1  0.00000000  0.00000000  0.50000000  1.0
  N  N11  1  0.00000000  0.00000000  0.00000000  1.0
  N  N12  1  0.00000000  0.00000000  0.39228935  1.0
  N  N13  1  0.00000000  0.00000000  0.60771065  1.0
  N  N14  1  0.00000000  0.00000000  0.89228935  1.0
  N  N15  1  0.00000000  0.00000000  0.10771065  1.0
