# generated using pymatgen
data_ZnB8(H2N)4
_symmetry_space_group_name_H-M   'P 1'
_cell_length_a   7.71924904
_cell_length_b   7.71924904
_cell_length_c   10.76141287
_cell_angle_alpha   90.00000000
_cell_angle_beta   90.00000000
_cell_angle_gamma   90.00000000
_symmetry_Int_Tables_number   1
_chemical_formula_structural   ZnB8(H2N)4
_chemical_formula_sum   'Zn2 B16 H16 N8'
_cell_volume   641.23821793
_cell_formula_units_Z   2
loop_
 _symmetry_equiv_pos_site_id
 _symmetry_equiv_pos_as_xyz
  1  'x, y, z'
loop_
 _atom_site_type_symbol
 _atom_site_label
 _atom_site_symmetry_multiplicity
 _atom_site_fract_x
 _atom_site_fract_y
 _atom_site_fract_z
 _atom_site_occupancy
  Zn  Zn0  1  0.50000000  0.50000000  0.50000000  1.0
  Zn  Zn1  1  0.00000000  0.00000000  0.00000000  1.0
  B  B2  1  0.34239699  0.50000000  0.03776742  1.0
  B  B3  1  0.65760301  0.50000000  0.03776742  1.0
  B  B4  1  0.00000000  0.84239699  0.53776742  1.0
  B  B5  1  0.00000000  0.15760301  0.53776742  1.0
  B  B6  1  0.15760301  0.00000000  0.46223258  1.0
  B  B7  1  0.84239699  0.00000000  0.46223258  1.0
  B  B8  1  0.50000000  0.65760301  0.96223258  1.0
  B  B9  1  0.50000000  0.34239699  0.96223258  1.0
  B  B10  1  0.38644158  0.50000000  0.87912978  1.0
  B  B11  1  0.61355842  0.50000000  0.87912978  1.0
  B  B12  1  0.00000000  0.88644158  0.37912978  1.0
  B  B13  1  0.00000000  0.11355842  0.37912978  1.0
  B  B14  1  0.11355842  0.00000000  0.62087022  1.0
  B  B15  1  0.88644158  0.00000000  0.62087022  1.0
  B  B16  1  0.50000000  0.61355842  0.12087022  1.0
  B  B17  1  0.50000000  0.38644158  0.12087022  1.0
  H  H18  1  0.18698869  0.50000000  0.04136134  1.0
  H  H19  1  0.81301131  0.50000000  0.04136134  1.0
  H  H20  1  0.00000000  0.68698869  0.54136134  1.0
  H  H21  1  0.00000000  0.31301131  0.54136134  1.0
  H  H22  1  0.31301131  0.00000000  0.45863866  1.0
  H  H23  1  0.68698869  0.00000000  0.45863866  1.0
  H  H24  1  0.50000000  0.81301131  0.95863866  1.0
  H  H25  1  0.50000000  0.18698869  0.95863866  1.0
  H  H26  1  0.28786605  0.50000000  0.79443609  1.0
  H  H27  1  0.71213395  0.50000000  0.79443609  1.0
  H  H28  1  0.00000000  0.78786605  0.29443609  1.0
  H  H29  1  0.00000000  0.21213395  0.29443609  1.0
  H  H30  1  0.21213395  0.00000000  0.70556391  1.0
  H  H31  1  0.78786605  0.00000000  0.70556391  1.0
  H  H32  1  0.50000000  0.71213395  0.20556391  1.0
  H  H33  1  0.50000000  0.28786605  0.20556391  1.0
  N  N34  1  0.72651664  0.50000000  0.40676703  1.0
  N  N35  1  0.27348336  0.50000000  0.40676703  1.0
  N  N36  1  0.00000000  0.22651664  0.90676703  1.0
  N  N37  1  0.00000000  0.77348336  0.90676703  1.0
  N  N38  1  0.77348336  0.00000000  0.09323297  1.0
  N  N39  1  0.22651664  0.00000000  0.09323297  1.0
  N  N40  1  0.50000000  0.27348336  0.59323297  1.0
  N  N41  1  0.50000000  0.72651664  0.59323297  1.0
