# generated using pymatgen
data_La2Ga2GeS8
_symmetry_space_group_name_H-M   'P 1'
_cell_length_a   9.36883170
_cell_length_b   9.36883170
_cell_length_c   11.64972143
_cell_angle_alpha   90.00000000
_cell_angle_beta   90.00000000
_cell_angle_gamma   36.28927800
_symmetry_Int_Tables_number   1
_chemical_formula_structural   La2Ga2GeS8
_chemical_formula_sum   'La4 Ga4 Ge2 S16'
_cell_volume   605.21144335
_cell_formula_units_Z   2
loop_
 _symmetry_equiv_pos_site_id
 _symmetry_equiv_pos_as_xyz
  1  'x, y, z'
loop_
 _atom_site_type_symbol
 _atom_site_label
 _atom_site_symmetry_multiplicity
 _atom_site_fract_x
 _atom_site_fract_y
 _atom_site_fract_z
 _atom_site_occupancy
  La  La0  1  -0.18573083  0.90800924  0.06930502  1.0
  La  La1  1  -0.09199076  0.81426917  0.56930502  1.0
  La  La2  1  0.09199076  0.18573083  0.06930502  1.0
  La  La3  1  -0.81426917  1.09199076  0.56930502  1.0
  Ga  Ga4  1  -0.31208591  0.69884169  0.27681258  1.0
  Ga  Ga5  1  -0.30115831  0.68791409  0.77681258  1.0
  Ga  Ga6  1  0.30115831  0.31208591  0.27681258  1.0
  Ga  Ga7  1  -0.68791409  1.30115831  0.77681258  1.0
  Ge  Ge8  1  -0.41281708  0.41281708  0.34641402  1.0
  Ge  Ge9  1  -0.58718292  0.58718292  0.84641402  1.0
  S  S10  1  -0.31080278  0.93616086  0.32586215  1.0
  S  S11  1  -0.06383914  0.68919722  0.82586215  1.0
  S  S12  1  0.06383914  0.31080278  0.32586215  1.0
  S  S13  1  -0.68919722  1.06383914  0.82586215  1.0
  S  S14  1  -0.35086465  0.73326952  0.08377455  1.0
  S  S15  1  -0.26673048  0.64913535  0.58377455  1.0
  S  S16  1  0.26673048  0.35086465  0.08377455  1.0
  S  S17  1  -0.64913535  1.26673048  0.58377455  1.0
  S  S18  1  -0.59855715  0.78008220  0.34863666  1.0
  S  S19  1  -0.21991780  0.40144285  0.84863666  1.0
  S  S20  1  0.21991780  0.59855715  0.34863666  1.0
  S  S21  1  -0.40144285  1.21991780  0.84863666  1.0
  S  S22  1  -0.19121633  0.19121633  0.50124390  1.0
  S  S23  1  -0.80878367  0.80878367  0.00124390  1.0
  S  S24  1  -0.23036047  0.23036047  0.17816016  1.0
  S  S25  1  -0.76963953  0.76963953  0.67816016  1.0
