# generated using pymatgen
data_CsCuCl3
_symmetry_space_group_name_H-M   'P 1'
_cell_length_a   7.41900694
_cell_length_b   7.41900694
_cell_length_c   18.62697861
_cell_angle_alpha   90.00000000
_cell_angle_beta   90.00000000
_cell_angle_gamma   120.00000000
_symmetry_Int_Tables_number   1
_chemical_formula_structural   CsCuCl3
_chemical_formula_sum   'Cs6 Cu6 Cl18'
_cell_volume   887.90111783
_cell_formula_units_Z   6
loop_
 _symmetry_equiv_pos_site_id
 _symmetry_equiv_pos_as_xyz
  1  'x, y, z'
loop_
 _atom_site_type_symbol
 _atom_site_label
 _atom_site_symmetry_multiplicity
 _atom_site_fract_x
 _atom_site_fract_y
 _atom_site_fract_z
 _atom_site_occupancy
  Cl  Cl0  1  0.14581809  0.77818319  0.76088553  1.0
  Cl  Cl1  1  0.14581809  0.36763490  0.40578114  1.0
  Cl  Cl2  1  0.77818319  0.14581809  0.57244781  1.0
  Cl  Cl3  1  0.77818319  0.63236510  0.59421886  1.0
  Cl  Cl4  1  0.63236510  0.77818319  0.73911447  1.0
  Cl  Cl5  1  0.63236510  0.85418191  0.42755219  1.0
  Cl  Cl6  1  0.22181681  0.85418191  0.07244781  1.0
  Cl  Cl7  1  0.22181681  0.36763490  0.09421886  1.0
  Cl  Cl8  1  0.85418191  0.63236510  0.90578114  1.0
  Cl  Cl9  1  0.85418191  0.22181681  0.26088553  1.0
  Cl  Cl10  1  0.36763490  0.14581809  0.92755219  1.0
  Cl  Cl11  1  0.36763490  0.22181681  0.23911447  1.0
  Cl  Cl12  1  0.90434145  0.09565855  0.91666667  1.0
  Cl  Cl13  1  0.90434145  0.80868289  0.25000000  1.0
  Cl  Cl14  1  0.09565855  0.90434145  0.41666667  1.0
  Cl  Cl15  1  0.09565855  0.19131711  0.75000000  1.0
  Cl  Cl16  1  0.19131711  0.09565855  0.58333333  1.0
  Cl  Cl17  1  0.80868289  0.90434145  0.08333333  1.0
  Cs  Cs18  1  0.35719804  0.64280196  0.91666667  1.0
  Cs  Cs19  1  0.35719804  0.71439609  0.25000000  1.0
  Cs  Cs20  1  0.64280196  0.35719804  0.41666667  1.0
  Cs  Cs21  1  0.64280196  0.28560391  0.75000000  1.0
  Cs  Cs22  1  0.28560391  0.64280196  0.58333333  1.0
  Cs  Cs23  1  0.71439609  0.35719804  0.08333333  1.0
  Cu  Cu24  1  0.92066248  0.92066248  0.66666667  1.0
  Cu  Cu25  1  0.92066248  -0.00000000  0.50000000  1.0
  Cu  Cu26  1  0.00000000  0.92066248  0.83333333  1.0
  Cu  Cu27  1  -0.00000000  0.07933752  0.33333333  1.0
  Cu  Cu28  1  0.07933752  0.07933752  0.16666667  1.0
  Cu  Cu29  1  0.07933752  -0.00000000  -0.00000000  1.0
