# generated using pymatgen
data_MgB2
_symmetry_space_group_name_H-M   'P 1'
_cell_length_a   8.63119348
_cell_length_b   8.63119348
_cell_length_c   8.63119348
_cell_angle_alpha   109.47122063
_cell_angle_beta   109.47122063
_cell_angle_gamma   109.47122063
_symmetry_Int_Tables_number   1
_chemical_formula_structural   MgB2
_chemical_formula_sum   'Mg12 B24'
_cell_volume   494.98343565
_cell_formula_units_Z   12
loop_
 _symmetry_equiv_pos_site_id
 _symmetry_equiv_pos_as_xyz
  1  'x, y, z'
loop_
 _atom_site_type_symbol
 _atom_site_label
 _atom_site_symmetry_multiplicity
 _atom_site_fract_x
 _atom_site_fract_y
 _atom_site_fract_z
 _atom_site_occupancy
  Mg  Mg0  1  0.75000000  1.37500000  0.62500000  1.0
  Mg  Mg1  1  0.75000000  0.87500000  0.12500000  1.0
  Mg  Mg2  1  1.25000000  1.12500000  0.87500000  1.0
  Mg  Mg3  1  1.25000000  1.62500000  1.37500000  1.0
  Mg  Mg4  1  0.37500000  0.62500000  0.75000000  1.0
  Mg  Mg5  1  0.62500000  0.37500000  0.25000000  1.0
  Mg  Mg6  1  1.12500000  0.87500000  0.25000000  1.0
  Mg  Mg7  1  0.87500000  1.12500000  0.75000000  1.0
  Mg  Mg8  1  0.87500000  1.25000000  1.12500000  1.0
  Mg  Mg9  1  0.37500000  0.25000000  0.62500000  1.0
  Mg  Mg10  1  0.12500000  0.75000000  0.87500000  1.0
  Mg  Mg11  1  0.62500000  0.75000000  0.37500000  1.0
  B  B12  1  0.75000000  1.18101826  1.31898174  1.0
  B  B13  1  0.63796348  0.56898174  0.81898174  1.0
  B  B14  1  0.75000000  1.06898174  0.43101826  1.0
  B  B15  1  0.86203652  0.68101826  0.93101826  1.0
  B  B16  1  0.25000000  0.81898174  0.68101826  1.0
  B  B17  1  0.36203652  0.43101826  0.18101826  1.0
  B  B18  1  1.13796348  0.31898174  1.06898174  1.0
  B  B19  1  1.25000000  0.93101826  0.56898174  1.0
  B  B20  1  1.18101826  1.31898174  0.75000000  1.0
  B  B21  1  0.93101826  1.56898174  1.25000000  1.0
  B  B22  1  1.31898174  1.06898174  1.13796348  1.0
  B  B23  1  0.56898174  0.81898174  0.63796348  1.0
  B  B24  1  0.68101826  1.25000000  0.81898174  1.0
  B  B25  1  1.06898174  1.13796348  0.31898174  1.0
  B  B26  1  0.43101826  0.75000000  1.06898174  1.0
  B  B27  1  1.81898174  1.63796348  1.56898174  1.0
  B  B28  1  1.31898174  1.75000000  1.18101826  1.0
  B  B29  1  0.93101826  0.86203652  0.68101826  1.0
  B  B30  1  1.18101826  1.36203652  1.43101826  1.0
  B  B31  1  0.56898174  1.25000000  0.93101826  1.0
  B  B32  1  0.81898174  0.68101826  0.25000000  1.0
  B  B33  1  1.06898174  1.43101826  0.75000000  1.0
  B  B34  1  0.43101826  0.18101826  0.36203652  1.0
  B  B35  1  1.68101826  0.93101826  0.86203652  1.0
