# generated using pymatgen
data_MoH12Pd(NO)4
_symmetry_space_group_name_H-M   'P 1'
_cell_length_a   9.54667139
_cell_length_b   9.54667139
_cell_length_c   9.54667139
_cell_angle_alpha   133.64960033
_cell_angle_beta   133.64960033
_cell_angle_gamma   67.63581450
_symmetry_Int_Tables_number   1
_chemical_formula_structural   MoH12Pd(NO)4
_chemical_formula_sum   'Mo2 H24 Pd2 N8 O8'
_cell_volume   447.82112767
_cell_formula_units_Z   2
loop_
 _symmetry_equiv_pos_site_id
 _symmetry_equiv_pos_as_xyz
  1  'x, y, z'
loop_
 _atom_site_type_symbol
 _atom_site_label
 _atom_site_symmetry_multiplicity
 _atom_site_fract_x
 _atom_site_fract_y
 _atom_site_fract_z
 _atom_site_occupancy
  Mo  Mo0  1  1.25000000  0.75000000  0.50000000  1.0
  Mo  Mo1  1  0.50000000  0.50000000  1.00000000  1.0
  H  H2  1  0.68216726  0.87804823  0.19588097  1.0
  H  H3  1  1.62804823  0.93216726  0.69588097  1.0
  H  H4  1  1.23628628  0.93216726  0.30411903  1.0
  H  H5  1  0.68216726  1.48628628  0.80411903  1.0
  H  H6  1  0.06783274  0.37195177  0.30411903  1.0
  H  H7  1  1.12195177  1.31783274  0.80411903  1.0
  H  H8  1  1.51371372  1.31783274  1.19588097  1.0
  H  H9  1  0.06783274  0.76371372  0.69588097  1.0
  H  H10  1  0.88357004  0.94095909  0.27794046  1.0
  H  H11  1  1.66301863  0.94095909  1.05738904  1.0
  H  H12  1  0.69095909  0.13357004  0.77794046  1.0
  H  H13  1  0.35562959  0.13357004  0.44261096  1.0
  H  H14  1  0.88357004  1.60562959  0.94261096  1.0
  H  H15  1  1.66301863  1.60562959  1.72205954  1.0
  H  H16  1  0.69095909  0.91301863  1.55738904  1.0
  H  H17  1  0.35562959  0.91301863  1.22205954  1.0
  H  H18  1  1.86642996  1.30904091  1.22205954  1.0
  H  H19  1  1.08698137  1.30904091  0.44261096  1.0
  H  H20  1  1.05904091  1.11642996  0.72205954  1.0
  H  H21  1  1.39437041  1.11642996  1.05738904  1.0
  H  H22  1  1.86642996  1.64437041  1.55738904  1.0
  H  H23  1  1.08698137  1.64437041  0.77794046  1.0
  H  H24  1  1.05904091  1.33698137  0.94261096  1.0
  H  H25  1  1.39437041  1.33698137  1.27794046  1.0
  Pd  Pd26  1  0.00000000  0.00000000  0.00000000  1.0
  Pd  Pd27  1  0.75000000  1.25000000  0.50000000  1.0
  N  N28  1  0.74605537  0.97211843  0.22606305  1.0
  N  N29  1  1.72211843  0.99605537  0.72606305  1.0
  N  N30  1  1.26999232  0.99605537  0.27393695  1.0
  N  N31  1  0.74605537  1.51999232  0.77393695  1.0
  N  N32  1  0.00394463  0.27788157  0.27393695  1.0
  N  N33  1  1.02788157  1.25394463  0.77393695  1.0
  N  N34  1  1.48000768  1.25394463  1.22606305  1.0
  N  N35  1  0.00394463  0.73000768  0.72606305  1.0
  O  O36  1  0.56385121  0.75920510  1.19535389  1.0
  O  O37  1  1.50920510  0.81385121  0.69535389  1.0
  O  O38  1  1.11849732  0.81385121  0.30464611  1.0
  O  O39  1  0.56385121  0.36849732  0.80464611  1.0
  O  O40  1  1.18614879  1.49079490  1.30464611  1.0
  O  O41  1  1.24079490  1.43614879  0.80464611  1.0
  O  O42  1  1.63150268  1.43614879  1.19535389  1.0
  O  O43  1  1.18614879  0.88150268  0.69535389  1.0
