# generated using pymatgen
data_Ta2Co
_symmetry_space_group_name_H-M   'P 1'
_cell_length_a   4.98802966
_cell_length_b   4.98802966
_cell_length_c   4.98802966
_cell_angle_alpha   104.36963442
_cell_angle_beta   104.36963442
_cell_angle_gamma   120.24157526
_symmetry_Int_Tables_number   1
_chemical_formula_structural   Ta2Co
_chemical_formula_sum   'Ta4 Co2'
_cell_volume   92.96368008
_cell_formula_units_Z   2
loop_
 _symmetry_equiv_pos_site_id
 _symmetry_equiv_pos_as_xyz
  1  'x, y, z'
loop_
 _atom_site_type_symbol
 _atom_site_label
 _atom_site_symmetry_multiplicity
 _atom_site_fract_x
 _atom_site_fract_y
 _atom_site_fract_z
 _atom_site_occupancy
  Ta  Ta0  1  0.83903466  0.33903466  1.17806932  1.0
  Ta  Ta1  1  0.66096534  0.83903466  0.50000000  1.0
  Ta  Ta2  1  1.33903466  1.16096534  1.50000000  1.0
  Ta  Ta3  1  0.16096534  0.66096534  0.82193068  1.0
  Co  Co4  1  0.25000000  0.25000000  0.00000000  1.0
  Co  Co5  1  0.75000000  0.75000000  0.00000000  1.0
