# generated using pymatgen
data_RbFeCl4
_symmetry_space_group_name_H-M   'P 1'
_cell_length_a   11.37416764
_cell_length_b   7.29028486
_cell_length_c   9.72157874
_cell_angle_alpha   90.00000000
_cell_angle_beta   90.00000000
_cell_angle_gamma   90.00000000
_symmetry_Int_Tables_number   1
_chemical_formula_structural   RbFeCl4
_chemical_formula_sum   'Rb4 Fe4 Cl16'
_cell_volume   806.12227398
_cell_formula_units_Z   4
loop_
 _symmetry_equiv_pos_site_id
 _symmetry_equiv_pos_as_xyz
  1  'x, y, z'
loop_
 _atom_site_type_symbol
 _atom_site_label
 _atom_site_symmetry_multiplicity
 _atom_site_fract_x
 _atom_site_fract_y
 _atom_site_fract_z
 _atom_site_occupancy
  Rb  Rb0  1  0.31194047  0.75000000  0.18020840  1.0
  Rb  Rb1  1  0.81194047  0.75000000  0.31979160  1.0
  Rb  Rb2  1  0.68805953  0.25000000  0.81979160  1.0
  Rb  Rb3  1  0.18805953  0.25000000  0.68020840  1.0
  Fe  Fe4  1  0.44106573  0.75000000  0.68811084  1.0
  Fe  Fe5  1  0.94106573  0.75000000  0.81188916  1.0
  Fe  Fe6  1  0.55893427  0.25000000  0.31188916  1.0
  Fe  Fe7  1  0.05893427  0.25000000  0.18811084  1.0
  Cl  Cl8  1  0.42749178  0.99630624  0.82103889  1.0
  Cl  Cl9  1  0.42749178  0.50369376  0.82103889  1.0
  Cl  Cl10  1  0.92749178  0.99630624  0.67896111  1.0
  Cl  Cl11  1  0.92749178  0.50369376  0.67896111  1.0
  Cl  Cl12  1  0.57250822  0.49630624  0.17896111  1.0
  Cl  Cl13  1  0.57250822  0.00369376  0.17896111  1.0
  Cl  Cl14  1  0.07250822  0.49630624  0.32103889  1.0
  Cl  Cl15  1  0.07250822  0.00369376  0.32103889  1.0
  Cl  Cl16  1  0.29250941  0.75000000  0.54230444  1.0
  Cl  Cl17  1  0.79250941  0.75000000  0.95769556  1.0
  Cl  Cl18  1  0.70749059  0.25000000  0.45769556  1.0
  Cl  Cl19  1  0.20749059  0.25000000  0.04230444  1.0
  Cl  Cl20  1  0.11242752  0.75000000  0.91654697  1.0
  Cl  Cl21  1  0.61242752  0.75000000  0.58345303  1.0
  Cl  Cl22  1  0.88757248  0.25000000  0.08345303  1.0
  Cl  Cl23  1  0.38757248  0.25000000  0.41654697  1.0
