# generated using pymatgen
data_Ca3SbI3
_symmetry_space_group_name_H-M   'P 1'
_cell_length_a   11.15055281
_cell_length_b   11.15055281
_cell_length_c   11.15055281
_cell_angle_alpha   109.47122063
_cell_angle_beta   109.47122063
_cell_angle_gamma   109.47122063
_symmetry_Int_Tables_number   1
_chemical_formula_structural   Ca3SbI3
_chemical_formula_sum   'Ca12 Sb4 I12'
_cell_volume   1067.25280895
_cell_formula_units_Z   4
loop_
 _symmetry_equiv_pos_site_id
 _symmetry_equiv_pos_as_xyz
  1  'x, y, z'
loop_
 _atom_site_type_symbol
 _atom_site_label
 _atom_site_symmetry_multiplicity
 _atom_site_fract_x
 _atom_site_fract_y
 _atom_site_fract_z
 _atom_site_occupancy
  Ca  Ca0  1  1.75000000  1.24028978  1.25971022  1.0
  Ca  Ca1  1  0.75000000  1.00971022  0.49028978  1.0
  Ca  Ca2  1  1.01942044  0.25971022  1.00971022  1.0
  Ca  Ca3  1  0.48057956  0.49028978  0.24028978  1.0
  Ca  Ca4  1  1.25971022  1.00971022  1.01942044  1.0
  Ca  Ca5  1  1.24028978  1.25971022  0.75000000  1.0
  Ca  Ca6  1  1.00971022  1.01942044  0.25971022  1.0
  Ca  Ca7  1  1.49028978  0.75000000  1.00971022  1.0
  Ca  Ca8  1  1.00971022  1.49028978  0.75000000  1.0
  Ca  Ca9  1  1.49028978  1.24028978  1.48057956  1.0
  Ca  Ca10  1  0.24028978  0.48057956  0.49028978  1.0
  Ca  Ca11  1  1.25971022  0.75000000  1.24028978  1.0
  Sb  Sb12  1  1.50000000  1.00000000  1.25000000  1.0
  Sb  Sb13  1  1.00000000  1.25000000  0.50000000  1.0
  Sb  Sb14  1  0.25000000  0.25000000  0.25000000  1.0
  Sb  Sb15  1  1.25000000  0.50000000  1.00000000  1.0
  I  I16  1  0.49993386  0.49996693  0.74996693  1.0
  I  I17  1  1.00006614  0.75003307  1.00003307  1.0
  I  I18  1  1.25000000  0.74996693  0.75003307  1.0
  I  I19  1  1.25000000  1.00003307  0.49996693  1.0
  I  I20  1  1.00003307  1.49996693  1.25000000  1.0
  I  I21  1  1.49996693  1.74996693  1.49993386  1.0
  I  I22  1  0.75003307  0.25000000  0.74996693  1.0
  I  I23  1  0.74996693  0.49993386  0.49996693  1.0
  I  I24  1  1.00003307  1.00006614  0.75003307  1.0
  I  I25  1  1.49996693  1.25000000  1.00003307  1.0
  I  I26  1  0.74996693  0.75003307  0.25000000  1.0
  I  I27  1  1.75003307  1.00003307  1.00006614  1.0
