# generated using pymatgen
data_Te3Pd10
_symmetry_space_group_name_H-M   'P 1'
_cell_length_a   8.93227419
_cell_length_b   8.93227419
_cell_length_c   8.93227419
_cell_angle_alpha   60.00000000
_cell_angle_beta   60.00000000
_cell_angle_gamma   60.00000000
_symmetry_Int_Tables_number   1
_chemical_formula_structural   Te3Pd10
_chemical_formula_sum   'Te6 Pd20'
_cell_volume   503.93107550
_cell_formula_units_Z   2
loop_
 _symmetry_equiv_pos_site_id
 _symmetry_equiv_pos_as_xyz
  1  'x, y, z'
loop_
 _atom_site_type_symbol
 _atom_site_label
 _atom_site_symmetry_multiplicity
 _atom_site_fract_x
 _atom_site_fract_y
 _atom_site_fract_z
 _atom_site_occupancy
  Te  Te0  1  0.50000000  0.50000000  -0.50000000  1.0
  Te  Te1  1  0.75000000  -0.25000000  0.75000000  1.0
  Te  Te2  1  0.12500000  0.12500000  1.62500000  1.0
  Te  Te3  1  0.12500000  0.62500000  0.12500000  1.0
  Te  Te4  1  0.62500000  0.12500000  1.12500000  1.0
  Te  Te5  1  0.12500000  0.12500000  0.12500000  1.0
  Pd  Pd6  1  -0.13282680  0.86717320  0.39848040  1.0
  Pd  Pd7  1  0.86717320  -0.60151960  0.86717320  1.0
  Pd  Pd8  1  -0.60151960  0.86717320  0.86717320  1.0
  Pd  Pd9  1  0.86717320  -0.13282680  0.86717320  1.0
  Pd  Pd10  1  0.38282680  0.38282680  -0.14848040  1.0
  Pd  Pd11  1  0.38282680  -0.14848040  0.38282680  1.0
  Pd  Pd12  1  -0.14848040  0.38282680  0.38282680  1.0
  Pd  Pd13  1  0.38282680  0.38282680  0.38282680  1.0
  Pd  Pd14  1  -0.24385291  0.75614709  0.24385291  1.0
  Pd  Pd15  1  0.24385291  0.75614709  0.24385291  1.0
  Pd  Pd16  1  -0.24385291  1.24385291  0.24385291  1.0
  Pd  Pd17  1  0.24385291  0.24385291  -0.24385291  1.0
  Pd  Pd18  1  0.75614709  0.24385291  0.75614709  1.0
  Pd  Pd19  1  0.24385291  0.75614709  -0.24385291  1.0
  Pd  Pd20  1  0.49385291  0.49385291  0.00614709  1.0
  Pd  Pd21  1  0.00614709  0.49385291  0.00614709  1.0
  Pd  Pd22  1  0.49385291  0.00614709  0.00614709  1.0
  Pd  Pd23  1  1.00614709  0.00614709  0.49385291  1.0
  Pd  Pd24  1  -0.50614709  1.00614709  0.49385291  1.0
  Pd  Pd25  1  1.00614709  -0.50614709  0.49385291  1.0
