# generated using pymatgen
data_BaV4O9
_symmetry_space_group_name_H-M   'P 1'
_cell_length_a   7.99071165
_cell_length_b   4.91063930
_cell_length_c   9.45677830
_cell_angle_alpha   90.00000000
_cell_angle_beta   111.58617394
_cell_angle_gamma   90.00000000
_symmetry_Int_Tables_number   1
_chemical_formula_structural   BaV4O9
_chemical_formula_sum   'Ba2 V8 O18'
_cell_volume   345.05373991
_cell_formula_units_Z   2
loop_
 _symmetry_equiv_pos_site_id
 _symmetry_equiv_pos_as_xyz
  1  'x, y, z'
loop_
 _atom_site_type_symbol
 _atom_site_label
 _atom_site_symmetry_multiplicity
 _atom_site_fract_x
 _atom_site_fract_y
 _atom_site_fract_z
 _atom_site_occupancy
  Ba  Ba0  1  0.50000000  0.66268473  0.25000000  1.0
  Ba  Ba1  1  0.50000000  0.33731527  0.75000000  1.0
  V  V2  1  0.94905855  0.75376714  0.05021596  1.0
  V  V3  1  0.94905855  0.24623286  0.55021596  1.0
  V  V4  1  0.05094145  0.75376714  0.44978404  1.0
  V  V5  1  0.05094145  0.24623286  0.94978404  1.0
  V  V6  1  0.80518112  0.24530135  0.15244886  1.0
  V  V7  1  0.80518112  0.75469865  0.65244886  1.0
  V  V8  1  0.19481888  0.24530135  0.34755114  1.0
  V  V9  1  0.19481888  0.75469865  0.84755114  1.0
  O  O10  1  0.91174420  0.41552425  0.35185567  1.0
  O  O11  1  0.91174420  0.58447575  0.85185567  1.0
  O  O12  1  0.08825580  0.41552425  0.14814433  1.0
  O  O13  1  0.08825580  0.58447575  0.64814433  1.0
  O  O14  1  0.82500952  0.90828058  0.47020636  1.0
  O  O15  1  0.82500952  0.09171942  0.97020636  1.0
  O  O16  1  0.17499048  0.90828058  0.02979364  1.0
  O  O17  1  0.17499048  0.09171942  0.52979364  1.0
  O  O18  1  0.74618917  0.57258283  0.06414841  1.0
  O  O19  1  0.74618917  0.42741717  0.56414841  1.0
  O  O20  1  0.25381083  0.57258283  0.43585159  1.0
  O  O21  1  0.25381083  0.42741717  0.93585159  1.0
  O  O22  1  0.38535580  0.86802922  0.84330923  1.0
  O  O23  1  0.38535580  0.13197078  0.34330923  1.0
  O  O24  1  0.61464420  0.86802922  0.65669077  1.0
  O  O25  1  0.61464420  0.13197078  0.15669077  1.0
  O  O26  1  0.00000000  0.95936194  0.25000000  1.0
  O  O27  1  0.00000000  0.04063806  0.75000000  1.0
