# generated using pymatgen
data_BaGaAu
_symmetry_space_group_name_H-M   'P 1'
_cell_length_a   7.03591758
_cell_length_b   7.03591758
_cell_length_c   7.03591758
_cell_angle_alpha   90.00000000
_cell_angle_beta   90.00000000
_cell_angle_gamma   90.00000000
_symmetry_Int_Tables_number   1
_chemical_formula_structural   BaGaAu
_chemical_formula_sum   'Ba4 Ga4 Au4'
_cell_volume   348.30702190
_cell_formula_units_Z   4
loop_
 _symmetry_equiv_pos_site_id
 _symmetry_equiv_pos_as_xyz
  1  'x, y, z'
loop_
 _atom_site_type_symbol
 _atom_site_label
 _atom_site_symmetry_multiplicity
 _atom_site_fract_x
 _atom_site_fract_y
 _atom_site_fract_z
 _atom_site_occupancy
  Ba  Ba0  1  0.88617051  0.38617051  0.11382949  1.0
  Ba  Ba1  1  0.38617051  0.11382949  0.88617051  1.0
  Ba  Ba2  1  0.11382949  0.88617051  0.38617051  1.0
  Ba  Ba3  1  0.61382949  0.61382949  0.61382949  1.0
  Ga  Ga4  1  0.58615850  0.08615850  0.41384150  1.0
  Ga  Ga5  1  0.08615850  0.41384150  0.58615850  1.0
  Ga  Ga6  1  0.41384150  0.58615850  0.08615850  1.0
  Ga  Ga7  1  0.91384150  0.91384150  0.91384150  1.0
  Au  Au8  1  0.16562500  0.66562500  0.83437500  1.0
  Au  Au9  1  0.66562500  0.83437500  0.16562500  1.0
  Au  Au10  1  0.83437500  0.16562500  0.66562500  1.0
  Au  Au11  1  0.33437500  0.33437500  0.33437500  1.0
