# generated using pymatgen
data_Ba5Sb4
_symmetry_space_group_name_H-M   'P 1'
_cell_length_a   9.13172377
_cell_length_b   17.98149172
_cell_length_c   9.17455400
_cell_angle_alpha   90.00000000
_cell_angle_beta   90.00000000
_cell_angle_gamma   90.00000000
_symmetry_Int_Tables_number   1
_chemical_formula_structural   Ba5Sb4
_chemical_formula_sum   'Ba20 Sb16'
_cell_volume   1506.48025595
_cell_formula_units_Z   4
loop_
 _symmetry_equiv_pos_site_id
 _symmetry_equiv_pos_as_xyz
  1  'x, y, z'
loop_
 _atom_site_type_symbol
 _atom_site_label
 _atom_site_symmetry_multiplicity
 _atom_site_fract_x
 _atom_site_fract_y
 _atom_site_fract_z
 _atom_site_occupancy
  Ba  Ba0  1  0.41905433  0.39620834  0.16449827  1.0
  Ba  Ba1  1  0.41905433  0.10379166  0.16449827  1.0
  Ba  Ba2  1  0.91905433  0.39620834  0.33550173  1.0
  Ba  Ba3  1  0.91905433  0.10379166  0.33550173  1.0
  Ba  Ba4  1  0.58094567  0.89620834  0.83550173  1.0
  Ba  Ba5  1  0.58094567  0.60379166  0.83550173  1.0
  Ba  Ba6  1  0.08094567  0.89620834  0.66449827  1.0
  Ba  Ba7  1  0.08094567  0.60379166  0.66449827  1.0
  Ba  Ba8  1  0.08235547  0.39602653  0.83603711  1.0
  Ba  Ba9  1  0.08235547  0.10397347  0.83603711  1.0
  Ba  Ba10  1  0.58235547  0.39602653  0.66396289  1.0
  Ba  Ba11  1  0.58235547  0.10397347  0.66396289  1.0
  Ba  Ba12  1  0.91764453  0.89602653  0.16396289  1.0
  Ba  Ba13  1  0.91764453  0.60397347  0.16396289  1.0
  Ba  Ba14  1  0.41764453  0.89602653  0.33603711  1.0
  Ba  Ba15  1  0.41764453  0.60397347  0.33603711  1.0
  Ba  Ba16  1  0.25052907  0.25000000  0.50029452  1.0
  Ba  Ba17  1  0.75052907  0.25000000  0.99970548  1.0
  Ba  Ba18  1  0.74947093  0.75000000  0.49970548  1.0
  Ba  Ba19  1  0.24947093  0.75000000  0.00029452  1.0
  Sb  Sb20  1  0.25035956  0.44805438  0.50048438  1.0
  Sb  Sb21  1  0.25035956  0.05194562  0.50048438  1.0
  Sb  Sb22  1  0.75035956  0.44805438  0.99951562  1.0
  Sb  Sb23  1  0.75035956  0.05194562  0.99951562  1.0
  Sb  Sb24  1  0.74964044  0.94805438  0.49951562  1.0
  Sb  Sb25  1  0.74964044  0.55194562  0.49951562  1.0
  Sb  Sb26  1  0.24964044  0.94805438  0.00048438  1.0
  Sb  Sb27  1  0.24964044  0.55194562  0.00048438  1.0
  Sb  Sb28  1  0.36396406  0.25000000  0.88734198  1.0
  Sb  Sb29  1  0.86396406  0.25000000  0.61265802  1.0
  Sb  Sb30  1  0.63603594  0.75000000  0.11265802  1.0
  Sb  Sb31  1  0.13603594  0.75000000  0.38734198  1.0
  Sb  Sb32  1  0.13727365  0.25000000  0.11340054  1.0
  Sb  Sb33  1  0.63727365  0.25000000  0.38659946  1.0
  Sb  Sb34  1  0.86272635  0.75000000  0.88659946  1.0
  Sb  Sb35  1  0.36272635  0.75000000  0.61340054  1.0
