# generated using pymatgen
data_Ba2(SnSb2)3
_symmetry_space_group_name_H-M   'P 1'
_cell_length_a   13.59020216
_cell_length_b   4.49343365
_cell_length_c   24.96437827
_cell_angle_alpha   90.00000000
_cell_angle_beta   90.00000000
_cell_angle_gamma   90.00000000
_symmetry_Int_Tables_number   1
_chemical_formula_structural   Ba2(SnSb2)3
_chemical_formula_sum   'Ba8 Sn12 Sb24'
_cell_volume   1524.49149314
_cell_formula_units_Z   4
loop_
 _symmetry_equiv_pos_site_id
 _symmetry_equiv_pos_as_xyz
  1  'x, y, z'
loop_
 _atom_site_type_symbol
 _atom_site_label
 _atom_site_symmetry_multiplicity
 _atom_site_fract_x
 _atom_site_fract_y
 _atom_site_fract_z
 _atom_site_occupancy
  Ba  Ba0  1  0.95158117  0.75000000  0.42122778  1.0
  Ba  Ba1  1  0.45158117  0.75000000  0.07877222  1.0
  Ba  Ba2  1  0.04841883  0.25000000  0.57877222  1.0
  Ba  Ba3  1  0.54841883  0.25000000  0.92122778  1.0
  Ba  Ba4  1  0.87110105  0.75000000  0.10840407  1.0
  Ba  Ba5  1  0.37110105  0.75000000  0.39159593  1.0
  Ba  Ba6  1  0.12889895  0.25000000  0.89159593  1.0
  Ba  Ba7  1  0.62889895  0.25000000  0.60840407  1.0
  Sn  Sn8  1  0.95963296  0.75000000  0.24997357  1.0
  Sn  Sn9  1  0.45963296  0.75000000  0.25002643  1.0
  Sn  Sn10  1  0.04036704  0.25000000  0.75002643  1.0
  Sn  Sn11  1  0.54036704  0.25000000  0.74997357  1.0
  Sn  Sn12  1  0.80372412  0.75000000  0.76551941  1.0
  Sn  Sn13  1  0.30372412  0.75000000  0.73448059  1.0
  Sn  Sn14  1  0.19627588  0.25000000  0.23448059  1.0
  Sn  Sn15  1  0.69627588  0.25000000  0.26551941  1.0
  Sn  Sn16  1  0.68064109  0.75000000  0.40134206  1.0
  Sn  Sn17  1  0.18064109  0.75000000  0.09865794  1.0
  Sn  Sn18  1  0.31935891  0.25000000  0.59865794  1.0
  Sn  Sn19  1  0.81935891  0.25000000  0.90134206  1.0
  Sb  Sb20  1  0.83873612  0.75000000  0.57864910  1.0
  Sb  Sb21  1  0.33873612  0.75000000  0.92135090  1.0
  Sb  Sb22  1  0.16126388  0.25000000  0.42135090  1.0
  Sb  Sb23  1  0.66126388  0.25000000  0.07864910  1.0
  Sb  Sb24  1  0.69883109  0.75000000  0.00302372  1.0
  Sb  Sb25  1  0.19883109  0.75000000  0.49697628  1.0
  Sb  Sb26  1  0.30116891  0.25000000  0.99697628  1.0
  Sb  Sb27  1  0.80116891  0.25000000  0.50302372  1.0
  Sb  Sb28  1  0.65272441  0.75000000  0.19633472  1.0
  Sb  Sb29  1  0.15272441  0.75000000  0.30366528  1.0
  Sb  Sb30  1  0.34727559  0.25000000  0.80366528  1.0
  Sb  Sb31  1  0.84727559  0.25000000  0.69633472  1.0
  Sb  Sb32  1  0.61483587  0.75000000  0.81561472  1.0
  Sb  Sb33  1  0.11483587  0.75000000  0.68438528  1.0
  Sb  Sb34  1  0.38516413  0.25000000  0.18438528  1.0
  Sb  Sb35  1  0.88516413  0.25000000  0.31561472  1.0
  Sb  Sb36  1  0.57048621  0.75000000  0.50269803  1.0
  Sb  Sb37  1  0.07048621  0.75000000  0.99730197  1.0
  Sb  Sb38  1  0.42951379  0.25000000  0.49730197  1.0
  Sb  Sb39  1  0.92951379  0.25000000  0.00269803  1.0
  Sb  Sb40  1  0.43456859  0.75000000  0.64474045  1.0
  Sb  Sb41  1  0.93456859  0.75000000  0.85525955  1.0
  Sb  Sb42  1  0.56543141  0.25000000  0.35525955  1.0
  Sb  Sb43  1  0.06543141  0.25000000  0.14474045  1.0
