# generated using pymatgen
data_KLaMnWO6
_symmetry_space_group_name_H-M   'P 1'
_cell_length_a   5.67353774
_cell_length_b   5.67353774
_cell_length_c   8.17544725
_cell_angle_alpha   90.00000000
_cell_angle_beta   90.00000000
_cell_angle_gamma   90.00000000
_symmetry_Int_Tables_number   1
_chemical_formula_structural   KLaMnWO6
_chemical_formula_sum   'K2 La2 Mn2 W2 O12'
_cell_volume   263.15972073
_cell_formula_units_Z   2
loop_
 _symmetry_equiv_pos_site_id
 _symmetry_equiv_pos_as_xyz
  1  'x, y, z'
loop_
 _atom_site_type_symbol
 _atom_site_label
 _atom_site_symmetry_multiplicity
 _atom_site_fract_x
 _atom_site_fract_y
 _atom_site_fract_z
 _atom_site_occupancy
  K  K0  1  0.00000000  0.00000000  0.50000000  1.0
  K  K1  1  0.50000000  0.50000000  0.50000000  1.0
  La  La2  1  0.00000000  0.00000000  0.00000000  1.0
  La  La3  1  0.50000000  0.50000000  0.00000000  1.0
  Mn  Mn4  1  0.50000000  0.00000000  0.74053197  1.0
  Mn  Mn5  1  0.00000000  0.50000000  0.25946803  1.0
  W  W6  1  0.50000000  0.00000000  0.25036156  1.0
  W  W7  1  0.00000000  0.50000000  0.74963844  1.0
  O  O8  1  0.73932898  0.23932898  0.22162434  1.0
  O  O9  1  0.73932898  0.76067102  0.22162434  1.0
  O  O10  1  0.23932898  0.73932898  0.77837566  1.0
  O  O11  1  0.23932898  0.26067102  0.77837566  1.0
  O  O12  1  0.76067102  0.73932898  0.77837566  1.0
  O  O13  1  0.76067102  0.26067102  0.77837566  1.0
  O  O14  1  0.26067102  0.23932898  0.22162434  1.0
  O  O15  1  0.26067102  0.76067102  0.22162434  1.0
  O  O16  1  0.50000000  0.00000000  0.00178817  1.0
  O  O17  1  0.00000000  0.50000000  -0.00178817  1.0
  O  O18  1  0.50000000  0.00000000  0.47918890  1.0
  O  O19  1  0.00000000  0.50000000  0.52081110  1.0
