# generated using pymatgen
data_NaZr2(PO4)3
_symmetry_space_group_name_H-M   'P 1'
_cell_length_a   9.23326971
_cell_length_b   9.23326971
_cell_length_c   9.23326971
_cell_angle_alpha   57.81202224
_cell_angle_beta   57.81202224
_cell_angle_gamma   57.81202224
_symmetry_Int_Tables_number   1
_chemical_formula_structural   NaZr2(PO4)3
_chemical_formula_sum   'Na2 Zr4 P6 O24'
_cell_volume   528.64649995
_cell_formula_units_Z   2
loop_
 _symmetry_equiv_pos_site_id
 _symmetry_equiv_pos_as_xyz
  1  'x, y, z'
loop_
 _atom_site_type_symbol
 _atom_site_label
 _atom_site_symmetry_multiplicity
 _atom_site_fract_x
 _atom_site_fract_y
 _atom_site_fract_z
 _atom_site_occupancy
  Na  Na0  1  1.00000000  0.00000000  -0.00000000  1.0
  Na  Na1  1  0.50000000  0.50000000  0.50000000  1.0
  Zr  Zr2  1  0.85483124  -0.14516876  -0.14516876  1.0
  Zr  Zr3  1  0.35483124  0.35483124  0.35483124  1.0
  Zr  Zr4  1  0.64516876  0.64516876  -0.35483124  1.0
  Zr  Zr5  1  1.14516876  0.14516876  0.14516876  1.0
  P  P6  1  0.45948029  0.75000000  0.04051971  1.0
  P  P7  1  0.95948029  -0.45948029  0.25000000  1.0
  P  P8  1  0.25000000  0.95948029  -0.45948029  1.0
  P  P9  1  0.75000000  1.04051971  -0.54051971  1.0
  P  P10  1  0.54051971  0.25000000  -0.04051971  1.0
  P  P11  1  1.04051971  0.45948029  -0.25000000  1.0
  O  O12  1  0.78974094  1.00393639  -0.37853326  1.0
  O  O13  1  1.28974094  0.12146674  -0.49606361  1.0
  O  O14  1  0.87853326  0.49606361  -0.28974094  1.0
  O  O15  1  0.37853326  0.21025906  -0.00393639  1.0
  O  O16  1  0.99606361  0.37853326  -0.78974094  1.0
  O  O17  1  0.49606361  0.71025906  -0.12146674  1.0
  O  O18  1  0.21025906  0.99606361  -0.62146674  1.0
  O  O19  1  0.71025906  0.87853326  -0.50393639  1.0
  O  O20  1  0.62146674  0.78974094  0.00393639  1.0
  O  O21  1  1.12146674  -0.49606361  0.28974094  1.0
  O  O22  1  0.50393639  0.28974094  0.12146674  1.0
  O  O23  1  1.00393639  0.62146674  -0.21025906  1.0
  O  O24  1  0.71930755  0.08304239  -0.06272127  1.0
  O  O25  1  1.21930755  0.43727873  -0.41695761  1.0
  O  O26  1  0.56272127  0.41695761  -0.21930755  1.0
  O  O27  1  1.06272127  0.28069245  -0.08304239  1.0
  O  O28  1  0.91695761  0.06272127  0.28069245  1.0
  O  O29  1  0.41695761  0.78069245  -0.43727873  1.0
  O  O30  1  1.28069245  -0.08304239  0.06272127  1.0
  O  O31  1  0.78069245  0.56272127  -0.58304239  1.0
  O  O32  1  0.93727873  -0.28069245  0.08304239  1.0
  O  O33  1  0.43727873  0.58304239  0.21930755  1.0
  O  O34  1  0.58304239  1.21930755  -0.56272127  1.0
  O  O35  1  1.08304239  -0.06272127  -0.28069245  1.0
