# generated using pymatgen
data_LiZnPO4
_symmetry_space_group_name_H-M   'P 1'
_cell_length_a   10.15405769
_cell_length_b   5.03723715
_cell_length_c   6.75716958
_cell_angle_alpha   90.00000000
_cell_angle_beta   90.00000000
_cell_angle_gamma   90.00000000
_symmetry_Int_Tables_number   1
_chemical_formula_structural   LiZnPO4
_chemical_formula_sum   'Li4 Zn4 P4 O16'
_cell_volume   345.61838991
_cell_formula_units_Z   4
loop_
 _symmetry_equiv_pos_site_id
 _symmetry_equiv_pos_as_xyz
  1  'x, y, z'
loop_
 _atom_site_type_symbol
 _atom_site_label
 _atom_site_symmetry_multiplicity
 _atom_site_fract_x
 _atom_site_fract_y
 _atom_site_fract_z
 _atom_site_occupancy
  Li  Li0  1  0.15459600  0.81058295  1.00018746  1.0
  Li  Li1  1  0.65459601  0.68941705  1.00018746  1.0
  Li  Li2  1  0.84540400  0.18941705  0.50018746  1.0
  Li  Li3  1  0.34540399  0.31058295  0.50018746  1.0
  Zn  Zn4  1  0.15419459  0.80906472  0.49926980  1.0
  Zn  Zn5  1  0.65419459  0.69093528  0.49926980  1.0
  Zn  Zn6  1  0.84580541  0.19093528  -0.00073020  1.0
  Zn  Zn7  1  0.34580541  0.30906472  -0.00073020  1.0
  P  P8  1  0.40465455  0.81050398  0.74951596  1.0
  P  P9  1  0.90465455  0.68949602  0.74951596  1.0
  P  P10  1  0.59534545  0.18949602  0.24951596  1.0
  P  P11  1  0.09534545  0.31050398  0.24951596  1.0
  O  O12  1  0.38356879  0.11791499  0.75081673  1.0
  O  O13  1  0.88356879  0.38208501  0.75081673  1.0
  O  O14  1  0.61643121  0.88208501  0.25081673  1.0
  O  O15  1  0.11643121  0.61791499  0.25081673  1.0
  O  O16  1  0.33979386  0.69458779  0.94037454  1.0
  O  O17  1  0.83979386  0.80541221  0.94037454  1.0
  O  O18  1  0.66020614  0.30541221  0.44037454  1.0
  O  O19  1  0.16020614  0.19458779  0.44037454  1.0
  O  O20  1  0.33851575  0.69391551  0.56013011  1.0
  O  O21  1  0.83851575  0.80608449  0.56013011  1.0
  O  O22  1  0.66148425  0.30608449  0.06013011  1.0
  O  O23  1  0.16148425  0.19391551  0.06013011  1.0
  O  O24  1  0.05410950  0.76073842  0.74760539  1.0
  O  O25  1  0.55410950  0.73926158  0.74760539  1.0
  O  O26  1  0.94589050  0.23926158  0.24760539  1.0
  O  O27  1  0.44589050  0.26073842  0.24760539  1.0
