# generated using pymatgen
data_CsCuAg2(CN)4
_symmetry_space_group_name_H-M   'P 1'
_cell_length_a   7.59160579
_cell_length_b   8.10230728
_cell_length_c   8.34227138
_cell_angle_alpha   90.00000000
_cell_angle_beta   103.77555242
_cell_angle_gamma   90.00000000
_symmetry_Int_Tables_number   1
_chemical_formula_structural   CsCuAg2(CN)4
_chemical_formula_sum   'Cs2 Cu2 Ag4 C8 N8'
_cell_volume   498.36947184
_cell_formula_units_Z   2
loop_
 _symmetry_equiv_pos_site_id
 _symmetry_equiv_pos_as_xyz
  1  'x, y, z'
loop_
 _atom_site_type_symbol
 _atom_site_label
 _atom_site_symmetry_multiplicity
 _atom_site_fract_x
 _atom_site_fract_y
 _atom_site_fract_z
 _atom_site_occupancy
  Cs  Cs0  1  0.50000000  0.75364791  0.25000000  1.0
  Cs  Cs1  1  0.50000000  0.24635209  0.75000000  1.0
  Cu  Cu2  1  0.50000000  0.74597166  0.75000000  1.0
  Cu  Cu3  1  0.50000000  0.25402834  0.25000000  1.0
  Ag  Ag4  1  0.00000000  0.00000000  0.00000000  1.0
  Ag  Ag5  1  -0.00000000  0.00000000  0.50000000  1.0
  Ag  Ag6  1  -0.00000000  0.58230739  0.25000000  1.0
  Ag  Ag7  1  -0.00000000  0.41769261  0.75000000  1.0
  C  C8  1  0.21122594  0.91880492  0.90523708  1.0
  C  C9  1  0.78877406  0.91880492  0.59476292  1.0
  C  C10  1  0.78877406  0.08119508  0.09476292  1.0
  C  C11  1  0.21122594  0.08119508  0.40523708  1.0
  C  C12  1  0.20590850  0.59868525  0.45961368  1.0
  C  C13  1  0.79409150  0.59868525  0.04038632  1.0
  C  C14  1  0.79409150  0.40131475  0.54038632  1.0
  C  C15  1  0.20590850  0.40131475  0.95961368  1.0
  N  N16  1  0.33142791  0.86906183  0.85268764  1.0
  N  N17  1  0.66857209  0.86906183  0.64731236  1.0
  N  N18  1  0.66857209  0.13093817  0.14731236  1.0
  N  N19  1  0.33142791  0.13093817  0.35268764  1.0
  N  N20  1  0.32695140  0.62361972  0.57401876  1.0
  N  N21  1  0.67304860  0.62361972  0.92598124  1.0
  N  N22  1  0.67304860  0.37638028  0.42598124  1.0
  N  N23  1  0.32695140  0.37638028  0.07401876  1.0
