# generated using pymatgen
data_Cl2
_symmetry_space_group_name_H-M   'P 1'
_cell_length_a   11.06003446
_cell_length_b   11.06003446
_cell_length_c   7.62765229
_cell_angle_alpha   90.00000000
_cell_angle_beta   90.00000000
_cell_angle_gamma   90.00000000
_symmetry_Int_Tables_number   1
_chemical_formula_structural   Cl2
_chemical_formula_sum   Cl16
_cell_volume   933.04770154
_cell_formula_units_Z   8
loop_
 _symmetry_equiv_pos_site_id
 _symmetry_equiv_pos_as_xyz
  1  'x, y, z'
loop_
 _atom_site_type_symbol
 _atom_site_label
 _atom_site_symmetry_multiplicity
 _atom_site_fract_x
 _atom_site_fract_y
 _atom_site_fract_z
 _atom_site_occupancy
  Cl  Cl0  1  0.67799109  0.43049423  0.68008643  1.0
  Cl  Cl1  1  0.67799109  0.56950577  0.18008643  1.0
  Cl  Cl2  1  0.17799109  0.06950577  0.31991357  1.0
  Cl  Cl3  1  0.17799109  0.93049423  0.81991357  1.0
  Cl  Cl4  1  0.32200891  0.56950577  0.68008643  1.0
  Cl  Cl5  1  0.32200891  0.43049423  0.18008643  1.0
  Cl  Cl6  1  0.82200891  0.93049423  0.31991357  1.0
  Cl  Cl7  1  0.82200891  0.06950577  0.81991357  1.0
  Cl  Cl8  1  0.43049423  0.32200891  0.31991357  1.0
  Cl  Cl9  1  0.56950577  0.32200891  0.81991357  1.0
  Cl  Cl10  1  0.06950577  0.82200891  0.68008643  1.0
  Cl  Cl11  1  0.93049423  0.82200891  0.18008643  1.0
  Cl  Cl12  1  0.56950577  0.67799109  0.31991357  1.0
  Cl  Cl13  1  0.43049423  0.67799109  0.81991357  1.0
  Cl  Cl14  1  0.93049423  0.17799109  0.68008643  1.0
  Cl  Cl15  1  0.06950577  0.17799109  0.18008643  1.0
