# generated using pymatgen
data_KPSe6
_symmetry_space_group_name_H-M   'P 1'
_cell_length_a   12.09008609
_cell_length_b   6.94857964
_cell_length_c   11.68883186
_cell_angle_alpha   90.00000000
_cell_angle_beta   90.00000000
_cell_angle_gamma   90.00000000
_symmetry_Int_Tables_number   1
_chemical_formula_structural   KPSe6
_chemical_formula_sum   'K4 P4 Se24'
_cell_volume   981.96621121
_cell_formula_units_Z   4
loop_
 _symmetry_equiv_pos_site_id
 _symmetry_equiv_pos_as_xyz
  1  'x, y, z'
loop_
 _atom_site_type_symbol
 _atom_site_label
 _atom_site_symmetry_multiplicity
 _atom_site_fract_x
 _atom_site_fract_y
 _atom_site_fract_z
 _atom_site_occupancy
  K  K0  1  0.12217286  0.65543180  0.70489874  1.0
  K  K1  1  0.62217286  0.34456820  0.70489874  1.0
  K  K2  1  0.87782714  0.34456820  0.20489874  1.0
  K  K3  1  0.37782714  0.65543180  0.20489874  1.0
  P  P4  1  0.33158730  0.27987264  0.53294064  1.0
  P  P5  1  0.83158730  0.72012736  0.53294064  1.0
  P  P6  1  0.66841270  0.72012736  0.03294064  1.0
  P  P7  1  0.16841270  0.27987264  0.03294064  1.0
  Se  Se8  1  0.37398512  0.58027328  0.56725648  1.0
  Se  Se9  1  0.87398512  0.41972672  0.56725648  1.0
  Se  Se10  1  0.62601488  0.41972672  0.06725648  1.0
  Se  Se11  1  0.12601488  0.58027328  0.06725648  1.0
  Se  Se12  1  0.36867977  0.43795696  0.82494056  1.0
  Se  Se13  1  0.86867977  0.56204304  0.82494056  1.0
  Se  Se14  1  0.63132023  0.56204304  0.32494056  1.0
  Se  Se15  1  0.13132023  0.43795696  0.32494056  1.0
  Se  Se16  1  0.35950730  0.07506346  0.67176243  1.0
  Se  Se17  1  0.85950730  0.92493654  0.67176243  1.0
  Se  Se18  1  0.64049270  0.92493654  0.17176243  1.0
  Se  Se19  1  0.14049270  0.07506346  0.17176243  1.0
  Se  Se20  1  0.14712950  0.24436745  0.49667462  1.0
  Se  Se21  1  0.64712950  0.75563255  0.49667462  1.0
  Se  Se22  1  0.85287050  0.75563255  -0.00332538  1.0
  Se  Se23  1  0.35287050  0.24436745  -0.00332538  1.0
  Se  Se24  1  0.08757263  0.18010941  0.86154570  1.0
  Se  Se25  1  0.58757263  0.81989059  0.86154570  1.0
  Se  Se26  1  0.91242737  0.81989059  0.36154570  1.0
  Se  Se27  1  0.41242737  0.18010941  0.36154570  1.0
  Se  Se28  1  0.89980971  0.24032701  0.90568084  1.0
  Se  Se29  1  0.39980971  0.75967299  0.90568084  1.0
  Se  Se30  1  0.10019029  0.75967299  0.40568084  1.0
  Se  Se31  1  0.60019029  0.24032701  0.40568084  1.0
