# generated using pymatgen
data_TiNi
_symmetry_space_group_name_H-M   'P 1'
_cell_length_a   7.21140184
_cell_length_b   7.21140184
_cell_length_c   7.21140184
_cell_angle_alpha   129.41027703
_cell_angle_beta   129.41027703
_cell_angle_gamma   74.35131038
_symmetry_Int_Tables_number   1
_chemical_formula_structural   TiNi
_chemical_formula_sum   'Ti8 Ni8'
_cell_volume   218.21256909
_cell_formula_units_Z   8
loop_
 _symmetry_equiv_pos_site_id
 _symmetry_equiv_pos_as_xyz
  1  'x, y, z'
loop_
 _atom_site_type_symbol
 _atom_site_label
 _atom_site_symmetry_multiplicity
 _atom_site_fract_x
 _atom_site_fract_y
 _atom_site_fract_z
 _atom_site_occupancy
  Ti  Ti0  1  0.72972661  0.72972661  1.00000000  1.0
  Ti  Ti1  1  0.27027339  0.27027339  -0.00000000  1.0
  Ti  Ti2  1  0.75000000  0.25000000  0.50000000  1.0
  Ti  Ti3  1  0.25000000  0.75000000  0.50000000  1.0
  Ti  Ti4  1  0.00000000  0.00000000  0.00000000  1.0
  Ti  Ti5  1  0.50000000  0.50000000  1.00000000  1.0
  Ti  Ti6  1  -0.00000000  0.50000000  0.50000000  1.0
  Ti  Ti7  1  0.50000000  -0.00000000  0.50000000  1.0
  Ni  Ni8  1  1.09880738  1.09880738  1.45379473  1.0
  Ni  Ni9  1  0.64501266  0.64501266  0.54620527  1.0
  Ni  Ni10  1  1.09880738  0.64501266  1.00000000  1.0
  Ni  Ni11  1  0.64501266  1.09880738  1.00000000  1.0
  Ni  Ni12  1  0.90119262  0.90119262  1.54620527  1.0
  Ni  Ni13  1  0.35498734  0.35498734  0.45379473  1.0
  Ni  Ni14  1  0.90119262  0.35498734  1.00000000  1.0
  Ni  Ni15  1  0.35498734  0.90119262  1.00000000  1.0
