# generated using pymatgen
data_Sr2CdWO6
_symmetry_space_group_name_H-M   'P 1'
_cell_length_a   5.77445591
_cell_length_b   5.93234833
_cell_length_c   10.03446674
_cell_angle_alpha   90.00000000
_cell_angle_beta   125.11188530
_cell_angle_gamma   90.00000000
_symmetry_Int_Tables_number   1
_chemical_formula_structural   Sr2CdWO6
_chemical_formula_sum   'Sr4 Cd2 W2 O12'
_cell_volume   281.19103221
_cell_formula_units_Z   2
loop_
 _symmetry_equiv_pos_site_id
 _symmetry_equiv_pos_as_xyz
  1  'x, y, z'
loop_
 _atom_site_type_symbol
 _atom_site_label
 _atom_site_symmetry_multiplicity
 _atom_site_fract_x
 _atom_site_fract_y
 _atom_site_fract_z
 _atom_site_occupancy
  Sr  Sr0  1  0.73761903  0.04707668  0.24792037  1.0
  Sr  Sr1  1  0.73761903  0.45292332  0.74792037  1.0
  Sr  Sr2  1  0.26238097  0.54707668  0.25207963  1.0
  Sr  Sr3  1  0.26238097  0.95292332  0.75207963  1.0
  Cd  Cd4  1  0.50000000  0.50000000  0.00000000  1.0
  Cd  Cd5  1  0.50000000  0.00000000  0.50000000  1.0
  W  W6  1  -0.00000000  0.50000000  0.50000000  1.0
  W  W7  1  -0.00000000  0.00000000  -0.00000000  1.0
  O  O8  1  0.85959230  0.46865339  0.27257515  1.0
  O  O9  1  0.85959230  0.03134661  0.77257515  1.0
  O  O10  1  0.14040770  0.96865339  0.22742485  1.0
  O  O11  1  0.14040770  0.53134661  0.72742485  1.0
  O  O12  1  0.76947328  0.76868047  0.44892807  1.0
  O  O13  1  0.76947328  0.73131953  0.94892807  1.0
  O  O14  1  0.23052672  0.26868047  0.05107193  1.0
  O  O15  1  0.23052672  0.23131953  0.55107193  1.0
  O  O16  1  0.68749263  0.31581206  0.45948272  1.0
  O  O17  1  0.68749263  0.18418794  0.95948272  1.0
  O  O18  1  0.31250737  0.81581206  0.04051728  1.0
  O  O19  1  0.31250737  0.68418794  0.54051728  1.0
