# generated using pymatgen
data_K2SnHgSe4
_symmetry_space_group_name_H-M   'P 1'
_cell_length_a   6.82591043
_cell_length_b   6.82591043
_cell_length_c   6.82591043
_cell_angle_alpha   105.89236778
_cell_angle_beta   105.89236778
_cell_angle_gamma   116.89377331
_symmetry_Int_Tables_number   1
_chemical_formula_structural   K2SnHgSe4
_chemical_formula_sum   'K2 Sn1 Hg1 Se4'
_cell_volume   241.70786582
_cell_formula_units_Z   1
loop_
 _symmetry_equiv_pos_site_id
 _symmetry_equiv_pos_as_xyz
  1  'x, y, z'
loop_
 _atom_site_type_symbol
 _atom_site_label
 _atom_site_symmetry_multiplicity
 _atom_site_fract_x
 _atom_site_fract_y
 _atom_site_fract_z
 _atom_site_occupancy
  K  K0  1  0.50000000  0.00000000  0.50000000  1.0
  K  K1  1  0.00000000  0.50000000  0.50000000  1.0
  Sn  Sn2  1  0.00000000  0.00000000  0.00000000  1.0
  Hg  Hg3  1  0.50000000  0.50000000  -0.00000000  1.0
  Se  Se4  1  1.06128359  1.06128359  0.65914922  1.0
  Se  Se5  1  0.93871641  1.59786563  1.00000000  1.0
  Se  Se6  1  1.59786563  0.93871641  1.00000000  1.0
  Se  Se7  1  0.40213437  0.40213437  0.34085078  1.0
