# generated using pymatgen
data_Li15Pd4
_symmetry_space_group_name_H-M   'P 1'
_cell_length_a   9.19617889
_cell_length_b   9.19617889
_cell_length_c   9.19617889
_cell_angle_alpha   109.47122063
_cell_angle_beta   109.47122063
_cell_angle_gamma   109.47122063
_symmetry_Int_Tables_number   1
_chemical_formula_structural   Li15Pd4
_chemical_formula_sum   'Li30 Pd8'
_cell_volume   598.68770765
_cell_formula_units_Z   2
loop_
 _symmetry_equiv_pos_site_id
 _symmetry_equiv_pos_as_xyz
  1  'x, y, z'
loop_
 _atom_site_type_symbol
 _atom_site_label
 _atom_site_symmetry_multiplicity
 _atom_site_fract_x
 _atom_site_fract_y
 _atom_site_fract_z
 _atom_site_occupancy
  Li  Li0  1  1.07997585  0.30490120  0.96307091  1.0
  Li  Li1  1  0.84183029  1.11690494  0.53692909  1.0
  Li  Li2  1  0.80490120  0.57997585  0.46307091  1.0
  Li  Li3  1  1.61690494  1.34183029  1.03692909  1.0
  Li  Li4  1  0.96307091  1.07997585  0.30490120  1.0
  Li  Li5  1  1.27507465  0.65816971  1.19509880  1.0
  Li  Li6  1  1.57997585  1.46307091  1.80490120  1.0
  Li  Li7  1  0.15816971  0.77507465  0.69509880  1.0
  Li  Li8  1  1.30490120  0.96307091  1.07997585  1.0
  Li  Li9  1  1.38309506  1.22492535  1.42002415  1.0
  Li  Li10  1  0.46307091  0.80490120  0.57997585  1.0
  Li  Li11  1  0.72492535  0.88309506  0.92002415  1.0
  Li  Li12  1  1.65816971  1.19509880  1.27507465  1.0
  Li  Li13  1  1.42002415  1.38309506  1.22492535  1.0
  Li  Li14  1  0.88309506  0.92002415  0.72492535  1.0
  Li  Li15  1  0.69509880  1.15816971  0.77507465  1.0
  Li  Li16  1  1.22492535  1.42002415  1.38309506  1.0
  Li  Li17  1  1.53692909  0.84183029  1.11690494  1.0
  Li  Li18  1  1.34183029  1.03692909  1.61690494  1.0
  Li  Li19  1  0.92002415  0.72492535  0.88309506  1.0
  Li  Li20  1  1.11690494  1.53692909  0.84183029  1.0
  Li  Li21  1  1.19509880  1.27507465  1.65816971  1.0
  Li  Li22  1  0.77507465  0.69509880  0.15816971  1.0
  Li  Li23  1  1.03692909  0.61690494  1.34183029  1.0
  Li  Li24  1  1.12500000  0.87500000  1.25000000  1.0
  Li  Li25  1  0.37500000  0.62500000  0.75000000  1.0
  Li  Li26  1  0.25000000  1.12500000  0.87500000  1.0
  Li  Li27  1  0.75000000  1.37500000  0.62500000  1.0
  Li  Li28  1  0.62500000  0.75000000  0.37500000  1.0
  Li  Li29  1  0.87500000  0.25000000  1.12500000  1.0
  Pd  Pd30  1  1.08831638  1.08831638  1.08831638  1.0
  Pd  Pd31  1  1.50000000  1.00000000  1.41168362  1.0
  Pd  Pd32  1  0.58831638  0.58831638  0.58831638  1.0
  Pd  Pd33  1  0.50000000  1.00000000  0.91168362  1.0
  Pd  Pd34  1  1.00000000  1.41168362  1.50000000  1.0
  Pd  Pd35  1  1.41168362  0.50000000  1.00000000  1.0
  Pd  Pd36  1  1.00000000  0.91168362  1.50000000  1.0
  Pd  Pd37  1  0.91168362  1.50000000  1.00000000  1.0
