# generated using pymatgen
data_K2IrCBr5O
_symmetry_space_group_name_H-M   'P 1'
_cell_length_a   14.74444552
_cell_length_b   10.89003437
_cell_length_c   7.45750601
_cell_angle_alpha   90.00000000
_cell_angle_beta   90.00000000
_cell_angle_gamma   90.00000000
_symmetry_Int_Tables_number   1
_chemical_formula_structural   K2IrCBr5O
_chemical_formula_sum   'K8 Ir4 C4 Br20 O4'
_cell_volume   1197.43323405
_cell_formula_units_Z   4
loop_
 _symmetry_equiv_pos_site_id
 _symmetry_equiv_pos_as_xyz
  1  'x, y, z'
loop_
 _atom_site_type_symbol
 _atom_site_label
 _atom_site_symmetry_multiplicity
 _atom_site_fract_x
 _atom_site_fract_y
 _atom_site_fract_z
 _atom_site_occupancy
  K  K0  1  0.65010401  0.49866993  0.15259801  1.0
  K  K1  1  0.65010401  1.00133007  0.15259801  1.0
  K  K2  1  0.15010401  0.49866993  0.34740199  1.0
  K  K3  1  0.15010401  1.00133007  0.34740199  1.0
  K  K4  1  0.34989599  -0.00133007  0.84740199  1.0
  K  K5  1  0.34989599  0.50133007  0.84740199  1.0
  K  K6  1  0.84989599  -0.00133007  0.65259801  1.0
  K  K7  1  0.84989599  0.50133007  0.65259801  1.0
  Ir  Ir8  1  0.88518663  0.25000000  0.19170973  1.0
  Ir  Ir9  1  0.38518663  0.25000000  0.30829027  1.0
  Ir  Ir10  1  0.11481337  0.75000000  0.80829027  1.0
  Ir  Ir11  1  0.61481337  0.75000000  0.69170973  1.0
  C  C12  1  0.97892769  0.25000000  0.03193545  1.0
  C  C13  1  0.47892769  0.25000000  0.46806455  1.0
  C  C14  1  0.02107231  0.75000000  0.96806455  1.0
  C  C15  1  0.52107231  0.75000000  0.53193545  1.0
  Br  Br16  1  0.88363230  0.48214542  0.19472422  1.0
  Br  Br17  1  0.88363230  0.01785458  0.19472422  1.0
  Br  Br18  1  0.38363230  0.48214542  0.30527578  1.0
  Br  Br19  1  0.38363230  0.01785458  0.30527578  1.0
  Br  Br20  1  0.11636770  0.98214542  0.80527578  1.0
  Br  Br21  1  0.11636770  0.51785458  0.80527578  1.0
  Br  Br22  1  0.61636770  0.98214542  0.69472422  1.0
  Br  Br23  1  0.61636770  0.51785458  0.69472422  1.0
  Br  Br24  1  0.99113362  0.25000000  0.45944221  1.0
  Br  Br25  1  0.49113362  0.25000000  0.04055779  1.0
  Br  Br26  1  0.00886638  0.75000000  0.54055779  1.0
  Br  Br27  1  0.50886638  0.75000000  0.95944221  1.0
  Br  Br28  1  0.77556321  0.25000000  0.92944813  1.0
  Br  Br29  1  0.27556321  0.25000000  0.57055187  1.0
  Br  Br30  1  0.22443679  0.75000000  0.07055187  1.0
  Br  Br31  1  0.72443679  0.75000000  0.42944813  1.0
  Br  Br32  1  0.74814560  0.25000000  0.40503342  1.0
  Br  Br33  1  0.24814560  0.25000000  0.09496658  1.0
  Br  Br34  1  0.25185440  0.75000000  0.59496658  1.0
  Br  Br35  1  0.75185440  0.75000000  0.90503342  1.0
  O  O36  1  0.53608400  0.25000000  0.57435817  1.0
  O  O37  1  0.03608400  0.25000000  0.92564183  1.0
  O  O38  1  0.46391600  0.75000000  0.42564183  1.0
  O  O39  1  0.96391600  0.75000000  0.07435817  1.0
