# generated using pymatgen
data_Lu2Sn5
_symmetry_space_group_name_H-M   'P 1'
_cell_length_a   4.36349080
_cell_length_b   4.40180109
_cell_length_c   18.88897324
_cell_angle_alpha   90.00000000
_cell_angle_beta   90.00000000
_cell_angle_gamma   90.00000000
_symmetry_Int_Tables_number   1
_chemical_formula_structural   Lu2Sn5
_chemical_formula_sum   'Lu4 Sn10'
_cell_volume   362.80463698
_cell_formula_units_Z   2
loop_
 _symmetry_equiv_pos_site_id
 _symmetry_equiv_pos_as_xyz
  1  'x, y, z'
loop_
 _atom_site_type_symbol
 _atom_site_label
 _atom_site_symmetry_multiplicity
 _atom_site_fract_x
 _atom_site_fract_y
 _atom_site_fract_z
 _atom_site_occupancy
  Lu  Lu0  1  0.00000000  0.50000000  0.70261448  1.0
  Lu  Lu1  1  0.50000000  0.00000000  0.29738552  1.0
  Lu  Lu2  1  0.00000000  0.00000000  0.12926279  1.0
  Lu  Lu3  1  0.50000000  0.50000000  0.87073721  1.0
  Sn  Sn4  1  0.00000000  0.50000000  0.00057992  1.0
  Sn  Sn5  1  0.50000000  0.00000000  0.99942008  1.0
  Sn  Sn6  1  0.00000000  0.50000000  0.26552826  1.0
  Sn  Sn7  1  0.50000000  0.00000000  0.73447174  1.0
  Sn  Sn8  1  0.00000000  0.00000000  0.42238571  1.0
  Sn  Sn9  1  0.50000000  0.50000000  0.57761429  1.0
  Sn  Sn10  1  0.00000000  0.00000000  0.57871549  1.0
  Sn  Sn11  1  0.50000000  0.50000000  0.42128451  1.0
  Sn  Sn12  1  0.00000000  0.00000000  0.84560408  1.0
  Sn  Sn13  1  0.50000000  0.50000000  0.15439592  1.0
