# generated using pymatgen
data_TlCl
_symmetry_space_group_name_H-M   'P 1'
_cell_length_a   9.23655079
_cell_length_b   9.23655079
_cell_length_c   9.23655079
_cell_angle_alpha   120.03136991
_cell_angle_beta   120.03136991
_cell_angle_gamma   89.94567431
_symmetry_Int_Tables_number   1
_chemical_formula_structural   TlCl
_chemical_formula_sum   'Tl8 Cl8'
_cell_volume   556.93984130
_cell_formula_units_Z   8
loop_
 _symmetry_equiv_pos_site_id
 _symmetry_equiv_pos_as_xyz
  1  'x, y, z'
loop_
 _atom_site_type_symbol
 _atom_site_label
 _atom_site_symmetry_multiplicity
 _atom_site_fract_x
 _atom_site_fract_y
 _atom_site_fract_z
 _atom_site_occupancy
  Tl  Tl0  1  0.37500000  0.62500000  0.75000000  1.0
  Tl  Tl1  1  0.87500000  0.62500000  1.25000000  1.0
  Tl  Tl2  1  0.37500000  1.12500000  0.75000000  1.0
  Tl  Tl3  1  0.37500000  0.62500000  0.25000000  1.0
  Tl  Tl4  1  0.87500000  0.12500000  0.75000000  1.0
  Tl  Tl5  1  0.37500000  0.12500000  0.25000000  1.0
  Tl  Tl6  1  0.87500000  0.62500000  0.75000000  1.0
  Tl  Tl7  1  0.87500000  1.12500000  1.25000000  1.0
  Cl  Cl8  1  1.12492271  0.87500249  1.74992546  1.0
  Cl  Cl9  1  0.62492297  0.87500274  1.24992546  1.0
  Cl  Cl10  1  1.12499751  0.87492297  1.24992023  1.0
  Cl  Cl11  1  1.12499726  1.37492271  1.74992023  1.0
  Cl  Cl12  1  0.12507703  0.37499726  0.25007454  1.0
  Cl  Cl13  1  0.62507729  0.37499751  0.75007454  1.0
  Cl  Cl14  1  0.62500274  0.87507729  0.75007977  1.0
  Cl  Cl15  1  0.62500249  0.37507703  0.25007977  1.0
