# generated using pymatgen
data_Ca4Ti3O10
_symmetry_space_group_name_H-M   'P 1'
_cell_length_a   13.93449329
_cell_length_b   13.93449329
_cell_length_c   13.93449329
_cell_angle_alpha   164.00008591
_cell_angle_beta   164.00008591
_cell_angle_gamma   22.70205935
_symmetry_Int_Tables_number   1
_chemical_formula_structural   Ca4Ti3O10
_chemical_formula_sum   'Ca4 Ti3 O10'
_cell_volume   205.52299488
_cell_formula_units_Z   1
loop_
 _symmetry_equiv_pos_site_id
 _symmetry_equiv_pos_as_xyz
  1  'x, y, z'
loop_
 _atom_site_type_symbol
 _atom_site_label
 _atom_site_symmetry_multiplicity
 _atom_site_fract_x
 _atom_site_fract_y
 _atom_site_fract_z
 _atom_site_occupancy
  Ca  Ca0  1  0.70319957  0.70319957  1.00000000  1.0
  Ca  Ca1  1  0.29680043  0.29680043  -0.00000000  1.0
  Ca  Ca2  1  0.56888687  0.56888687  1.00000000  1.0
  Ca  Ca3  1  0.43111313  0.43111313  -0.00000000  1.0
  Ti  Ti4  1  0.85626914  0.85626914  1.00000000  1.0
  Ti  Ti5  1  0.14373086  0.14373086  -0.00000000  1.0
  Ti  Ti6  1  0.00000000  0.00000000  0.00000000  1.0
  O  O7  1  0.35795798  0.85795798  0.50000000  1.0
  O  O8  1  0.64204202  0.14204202  0.50000000  1.0
  O  O9  1  0.85795798  0.35795798  0.50000000  1.0
  O  O10  1  0.14204202  0.64204202  0.50000000  1.0
  O  O11  1  0.92902079  0.92902079  1.00000000  1.0
  O  O12  1  0.07097921  0.07097921  -0.00000000  1.0
  O  O13  1  0.78571403  0.78571403  1.00000000  1.0
  O  O14  1  0.21428597  0.21428597  -0.00000000  1.0
  O  O15  1  0.50000000  0.00000000  0.50000000  1.0
  O  O16  1  0.00000000  0.50000000  0.50000000  1.0
