# generated using pymatgen
data_KCdCO3F
_symmetry_space_group_name_H-M   'P 1'
_cell_length_a   5.22659612
_cell_length_b   5.22659612
_cell_length_c   9.06613026
_cell_angle_alpha   90.00000000
_cell_angle_beta   90.00000000
_cell_angle_gamma   120.00000000
_symmetry_Int_Tables_number   1
_chemical_formula_structural   KCdCO3F
_chemical_formula_sum   'K2 Cd2 C2 O6 F2'
_cell_volume   214.48181183
_cell_formula_units_Z   2
loop_
 _symmetry_equiv_pos_site_id
 _symmetry_equiv_pos_as_xyz
  1  'x, y, z'
loop_
 _atom_site_type_symbol
 _atom_site_label
 _atom_site_symmetry_multiplicity
 _atom_site_fract_x
 _atom_site_fract_y
 _atom_site_fract_z
 _atom_site_occupancy
  K  K0  1  0.00000000  0.00000000  0.50000000  1.0
  K  K1  1  0.00000000  0.00000000  0.00000000  1.0
  Cd  Cd2  1  0.33333333  0.66666667  0.25000000  1.0
  Cd  Cd3  1  0.33333333  0.66666667  0.75000000  1.0
  C  C4  1  0.66666667  0.33333333  0.25000000  1.0
  C  C5  1  0.66666667  0.33333333  0.75000000  1.0
  O  O6  1  0.73494086  0.60859432  0.25000000  1.0
  O  O7  1  0.73494086  0.12634655  0.75000000  1.0
  O  O8  1  0.87365345  0.60859432  0.75000000  1.0
  O  O9  1  0.87365345  0.26505914  0.25000000  1.0
  O  O10  1  0.39140568  0.26505914  0.75000000  1.0
  O  O11  1  0.39140568  0.12634655  0.25000000  1.0
  F  F12  1  0.33333333  0.66666667  0.50000000  1.0
  F  F13  1  0.33333333  0.66666667  0.00000000  1.0
