# generated using pymatgen
data_CrH12(ClO2)3
_symmetry_space_group_name_H-M   'P 1'
_cell_length_a   6.86620934
_cell_length_b   6.86620934
_cell_length_c   11.84589436
_cell_angle_alpha   86.69055330
_cell_angle_beta   93.30944670
_cell_angle_gamma   117.15621578
_symmetry_Int_Tables_number   1
_chemical_formula_structural   CrH12(ClO2)3
_chemical_formula_sum   'Cr2 H24 Cl6 O12'
_cell_volume   495.77134227
_cell_formula_units_Z   2
loop_
 _symmetry_equiv_pos_site_id
 _symmetry_equiv_pos_as_xyz
  1  'x, y, z'
loop_
 _atom_site_type_symbol
 _atom_site_label
 _atom_site_symmetry_multiplicity
 _atom_site_fract_x
 _atom_site_fract_y
 _atom_site_fract_z
 _atom_site_occupancy
  Cr  Cr0  1  0.50000000  -0.00000000  0.00000000  1.0
  Cr  Cr1  1  1.00000000  0.50000000  0.50000000  1.0
  H  H2  1  0.68666185  -0.26043036  0.99039075  1.0
  H  H3  1  1.26043036  0.31333815  0.49039075  1.0
  H  H4  1  0.73956964  0.68666185  0.50960925  1.0
  H  H5  1  0.31333815  0.26043036  0.00960925  1.0
  H  H6  1  0.70091121  -0.14197007  0.86856390  1.0
  H  H7  1  1.14197007  0.29908879  0.36856390  1.0
  H  H8  1  0.85802993  0.70091121  0.63143610  1.0
  H  H9  1  0.29908879  0.14197007  0.13143610  1.0
  H  H10  1  0.84786682  0.14867040  0.63346970  1.0
  H  H11  1  0.85132960  0.15213318  0.13346970  1.0
  H  H12  1  1.14867040  0.84786682  0.86653030  1.0
  H  H13  1  0.15213318  -0.14867040  0.36653030  1.0
  H  H14  1  0.74389944  0.07490978  0.50914274  1.0
  H  H15  1  0.92509022  0.25610056  0.00914274  1.0
  H  H16  1  1.07490978  0.74389944  0.99085726  1.0
  H  H17  1  0.25610056  -0.07490978  0.49085726  1.0
  H  H18  1  0.49970503  0.20028559  0.58448033  1.0
  H  H19  1  0.79971441  0.50029497  0.08448033  1.0
  H  H20  1  1.20028559  0.49970503  0.91551967  1.0
  H  H21  1  0.50029497  -0.20028559  0.41551967  1.0
  H  H22  1  0.27146282  0.10675408  0.64187635  1.0
  H  H23  1  0.89324592  0.72853718  0.14187635  1.0
  H  H24  1  1.10675408  0.27146282  0.85812365  1.0
  H  H25  1  0.72853718  -0.10675408  0.35812365  1.0
  Cl  Cl26  1  0.57880379  0.21159414  0.83614578  1.0
  Cl  Cl27  1  0.78840586  0.42119621  0.33614578  1.0
  Cl  Cl28  1  1.21159414  0.57880379  0.66385422  1.0
  Cl  Cl29  1  0.42119621  -0.21159414  0.16385422  1.0
  Cl  Cl30  1  0.96149181  0.96149181  0.75000000  1.0
  Cl  Cl31  1  0.03850819  0.03850819  0.25000000  1.0
  O  O32  1  0.65856698  -0.14365499  0.43197480  1.0
  O  O33  1  1.14365499  0.34143302  0.93197480  1.0
  O  O34  1  0.85634501  0.65856698  0.06802520  1.0
  O  O35  1  0.34143302  0.14365499  0.56802520  1.0
  O  O36  1  0.61093686  -0.19664604  0.93667478  1.0
  O  O37  1  1.19664604  0.38906314  0.43667478  1.0
  O  O38  1  0.80335396  0.61093686  0.56332522  1.0
  O  O39  1  0.38906314  0.19664604  0.06332522  1.0
  O  O40  1  0.79188840  0.19756272  0.56396444  1.0
  O  O41  1  0.80243728  0.20811160  0.06396444  1.0
  O  O42  1  1.19756272  0.79188840  0.93603556  1.0
  O  O43  1  0.20811160  -0.19756272  0.43603556  1.0
