# generated using pymatgen
data_Nb4FeS8
_symmetry_space_group_name_H-M   'P 1'
_cell_length_a   6.68875707
_cell_length_b   6.68875707
_cell_length_c   12.13025397
_cell_angle_alpha   90.00000000
_cell_angle_beta   90.00000000
_cell_angle_gamma   120.00000000
_symmetry_Int_Tables_number   1
_chemical_formula_structural   Nb4FeS8
_chemical_formula_sum   'Nb8 Fe2 S16'
_cell_volume   469.99298061
_cell_formula_units_Z   2
loop_
 _symmetry_equiv_pos_site_id
 _symmetry_equiv_pos_as_xyz
  1  'x, y, z'
loop_
 _atom_site_type_symbol
 _atom_site_label
 _atom_site_symmetry_multiplicity
 _atom_site_fract_x
 _atom_site_fract_y
 _atom_site_fract_z
 _atom_site_occupancy
  Nb  Nb0  1  0.49416639  0.98835051  0.25000000  1.0
  Nb  Nb1  1  0.98835051  0.49418412  0.75000000  1.0
  Nb  Nb2  1  0.49418412  0.50583361  0.25000000  1.0
  Nb  Nb3  1  0.01164949  0.50581588  0.25000000  1.0
  Nb  Nb4  1  0.50583361  0.01164949  0.75000000  1.0
  Nb  Nb5  1  0.50581588  0.49416639  0.75000000  1.0
  Nb  Nb6  1  0.00000000  0.00000000  0.25000000  1.0
  Nb  Nb7  1  0.00000000  0.00000000  0.75000000  1.0
  Fe  Fe8  1  0.00000000  0.00000000  0.50000000  1.0
  Fe  Fe9  1  0.00000000  0.00000000  0.00000000  1.0
  S  S10  1  0.83290898  0.66578822  0.37881143  1.0
  S  S11  1  0.83290898  0.66578822  0.12118857  1.0
  S  S12  1  0.66578822  0.83287924  0.87881143  1.0
  S  S13  1  0.66578822  0.83287924  0.62118857  1.0
  S  S14  1  0.83287924  0.16709102  0.37881143  1.0
  S  S15  1  0.83287924  0.16709102  0.12118857  1.0
  S  S16  1  0.33421178  0.16712076  0.37881143  1.0
  S  S17  1  0.33421178  0.16712076  0.12118857  1.0
  S  S18  1  0.16709102  0.33421178  0.87881143  1.0
  S  S19  1  0.16709102  0.33421178  0.62118857  1.0
  S  S20  1  0.16712076  0.83290898  0.87881143  1.0
  S  S21  1  0.16712076  0.83290898  0.62118857  1.0
  S  S22  1  0.33333333  0.66666667  0.38189775  1.0
  S  S23  1  0.33333333  0.66666667  0.11810225  1.0
  S  S24  1  0.66666667  0.33333333  0.88189775  1.0
  S  S25  1  0.66666667  0.33333333  0.61810225  1.0
