# generated using pymatgen
data_Rb2Ti3(P2O9)2
_symmetry_space_group_name_H-M   'P 1'
_cell_length_a   5.32322258
_cell_length_b   16.93579821
_cell_length_c   8.76222973
_cell_angle_alpha   90.00000000
_cell_angle_beta   89.13686401
_cell_angle_gamma   90.00000000
_symmetry_Int_Tables_number   1
_chemical_formula_structural   Rb2Ti3(P2O9)2
_chemical_formula_sum   'Rb4 Ti6 P8 O36'
_cell_volume   789.85186884
_cell_formula_units_Z   2
loop_
 _symmetry_equiv_pos_site_id
 _symmetry_equiv_pos_as_xyz
  1  'x, y, z'
loop_
 _atom_site_type_symbol
 _atom_site_label
 _atom_site_symmetry_multiplicity
 _atom_site_fract_x
 _atom_site_fract_y
 _atom_site_fract_z
 _atom_site_occupancy
  O  O0  1  0.94507003  0.44421274  0.52002990  1.0
  O  O1  1  0.05492997  0.94421274  0.47997010  1.0
  O  O2  1  0.91905551  0.24006170  0.94633784  1.0
  O  O3  1  0.08094449  0.74006170  0.05366216  1.0
  O  O4  1  0.92719159  0.31380300  0.65778975  1.0
  O  O5  1  0.07280841  0.81380300  0.34221025  1.0
  O  O6  1  0.78368768  0.00835338  0.72295036  1.0
  O  O7  1  0.21631232  0.50835338  0.27704964  1.0
  O  O8  1  0.83266448  0.85700365  0.95267657  1.0
  O  O9  1  0.16733552  0.35700365  0.04732343  1.0
  O  O10  1  0.80758924  0.08585099  0.43299651  1.0
  O  O11  1  0.19241076  0.58585099  0.56700349  1.0
  O  O12  1  0.69255501  0.35844626  0.06700384  1.0
  O  O13  1  0.30744499  0.85844626  0.93299616  1.0
  O  O14  1  0.71670538  0.43590584  0.77718187  1.0
  O  O15  1  0.28329462  0.93590584  0.22281813  1.0
  O  O16  1  0.57296561  0.13045949  0.84222084  1.0
  O  O17  1  0.42703439  0.63045949  0.15777916  1.0
  O  O18  1  0.58101131  0.20421909  0.55361875  1.0
  O  O19  1  0.41898869  0.70421909  0.44638125  1.0
  O  O20  1  0.55493112  0.00005722  0.97996801  1.0
  O  O21  1  0.44506888  0.50005722  0.02003199  1.0
  O  O22  1  0.49294252  0.29496594  0.81561145  1.0
  O  O23  1  0.50705748  0.79496594  0.18438855  1.0
  O  O24  1  0.31561413  0.01737645  0.73330232  1.0
  O  O25  1  0.68438587  0.51737645  0.26669768  1.0
  O  O26  1  0.18478263  0.42687531  0.76652779  1.0
  O  O27  1  0.81521737  0.92687531  0.23347221  1.0
  O  O28  1  0.99284362  0.64930353  0.31554352  1.0
  O  O29  1  0.00715638  0.14930353  0.68445648  1.0
  O  O30  1  0.95901743  0.26772592  0.23151811  1.0
  O  O31  1  0.04098257  0.76772592  0.76848189  1.0
  O  O32  1  0.54111210  0.17655372  0.26841786  1.0
  O  O33  1  0.45888790  0.67655372  0.73158214  1.0
  O  O34  1  0.66723422  0.58727461  0.54745110  1.0
  O  O35  1  0.33276578  0.08727461  0.45254890  1.0
  Ti  Ti36  1  0.95026268  0.55691966  0.40290898  1.0
  Ti  Ti37  1  0.04973732  0.05691966  0.59709102  1.0
  Ti  Ti38  1  0.74993205  0.22214391  0.74999461  1.0
  Ti  Ti39  1  0.25006795  0.72214391  0.25000539  1.0
  Ti  Ti40  1  0.45043014  0.38739574  0.90293462  1.0
  Ti  Ti41  1  0.54956986  0.88739574  0.09706538  1.0
  Rb  Rb42  1  0.92255483  0.59724231  0.88069349  1.0
  Rb  Rb43  1  0.07744517  0.09724231  0.11930651  1.0
  Rb  Rb44  1  0.42270280  0.34710450  0.38067853  1.0
  Rb  Rb45  1  0.57729720  0.84710450  0.61932147  1.0
  P  P46  1  0.92931988  0.30485993  0.07204143  1.0
  P  P47  1  0.07068012  0.80485993  0.92795857  1.0
  P  P48  1  0.94256508  0.40487489  0.67765422  1.0
  P  P49  1  0.05743492  0.90487489  0.32234578  1.0
  P  P50  1  0.55766445  0.03938839  0.82233060  1.0
  P  P51  1  0.44233555  0.53938839  0.17766940  1.0
  P  P52  1  0.57079791  0.13942184  0.42790124  1.0
  P  P53  1  0.42920209  0.63942184  0.57209876  1.0
