# generated using pymatgen
data_As(ClF2)3
_symmetry_space_group_name_H-M   'P 1'
_cell_length_a   7.29876315
_cell_length_b   12.24470605
_cell_length_c   11.53383832
_cell_angle_alpha   90.00000000
_cell_angle_beta   124.83031456
_cell_angle_gamma   90.00000000
_symmetry_Int_Tables_number   1
_chemical_formula_structural   As(ClF2)3
_chemical_formula_sum   'As4 Cl12 F24'
_cell_volume   846.12354618
_cell_formula_units_Z   4
loop_
 _symmetry_equiv_pos_site_id
 _symmetry_equiv_pos_as_xyz
  1  'x, y, z'
loop_
 _atom_site_type_symbol
 _atom_site_label
 _atom_site_symmetry_multiplicity
 _atom_site_fract_x
 _atom_site_fract_y
 _atom_site_fract_z
 _atom_site_occupancy
  As  As0  1  0.61201874  0.79124905  0.82631594  1.0
  As  As1  1  0.38798126  0.29124905  0.67368406  1.0
  As  As2  1  0.38798126  0.20875095  0.17368406  1.0
  As  As3  1  0.61201874  0.70875095  0.32631594  1.0
  Cl  Cl4  1  0.06314224  0.58032958  0.73205515  1.0
  Cl  Cl5  1  0.93685776  0.08032958  0.76794485  1.0
  Cl  Cl6  1  0.93685776  0.41967042  0.26794485  1.0
  Cl  Cl7  1  0.06314224  0.91967042  0.23205515  1.0
  Cl  Cl8  1  0.25076514  0.59552845  0.94524251  1.0
  Cl  Cl9  1  0.74923486  0.09552845  0.55475749  1.0
  Cl  Cl10  1  0.74923486  0.40447155  0.05475749  1.0
  Cl  Cl11  1  0.25076514  0.90447155  0.44524251  1.0
  Cl  Cl12  1  0.81777367  0.47074559  0.67805236  1.0
  Cl  Cl13  1  0.18222633  0.97074559  0.82194764  1.0
  Cl  Cl14  1  0.18222633  0.52925441  0.32194764  1.0
  Cl  Cl15  1  0.81777367  0.02925441  0.17805236  1.0
  F  F16  1  0.73840173  0.68673661  0.95607133  1.0
  F  F17  1  0.26159827  0.18673661  0.54392867  1.0
  F  F18  1  0.26159827  0.31326339  0.04392867  1.0
  F  F19  1  0.73840173  0.81326339  0.45607133  1.0
  F  F20  1  0.83947464  0.88284859  0.93823989  1.0
  F  F21  1  0.16052536  0.38284859  0.56176011  1.0
  F  F22  1  0.16052536  0.11715141  0.06176011  1.0
  F  F23  1  0.83947464  0.61715141  0.43823989  1.0
  F  F24  1  0.74322718  0.74616747  0.74419635  1.0
  F  F25  1  0.25677282  0.24616747  0.75580365  1.0
  F  F26  1  0.25677282  0.25383253  0.25580365  1.0
  F  F27  1  0.74322718  0.75383253  0.24419635  1.0
  F  F28  1  0.47877264  0.90269661  0.69809904  1.0
  F  F29  1  0.52122736  0.40269661  0.80190096  1.0
  F  F30  1  0.52122736  0.09730339  0.30190096  1.0
  F  F31  1  0.47877264  0.59730339  0.19809904  1.0
  F  F32  1  0.47349401  0.84235226  0.90726244  1.0
  F  F33  1  0.52650599  0.34235226  0.59273756  1.0
  F  F34  1  0.52650599  0.15764774  0.09273756  1.0
  F  F35  1  0.47349401  0.65764774  0.40726244  1.0
  F  F36  1  0.37201441  0.70787164  0.71207174  1.0
  F  F37  1  0.62798559  0.20787164  0.78792826  1.0
  F  F38  1  0.62798559  0.29212836  0.28792826  1.0
  F  F39  1  0.37201441  0.79212836  0.21207174  1.0
