# generated using pymatgen
data_Li11Ge6
_symmetry_space_group_name_H-M   'P 1'
_cell_length_a   12.54663778
_cell_length_b   12.54663778
_cell_length_c   10.62152345
_cell_angle_alpha   90.00000000
_cell_angle_beta   90.00000000
_cell_angle_gamma   160.13615754
_symmetry_Int_Tables_number   1
_chemical_formula_structural   Li11Ge6
_chemical_formula_sum   'Li22 Ge12'
_cell_volume   568.12923327
_cell_formula_units_Z   2
loop_
 _symmetry_equiv_pos_site_id
 _symmetry_equiv_pos_as_xyz
  1  'x, y, z'
loop_
 _atom_site_type_symbol
 _atom_site_label
 _atom_site_symmetry_multiplicity
 _atom_site_fract_x
 _atom_site_fract_y
 _atom_site_fract_z
 _atom_site_occupancy
  Li  Li0  1  -0.74152019  0.74152019  0.39374776  1.0
  Li  Li1  1  -0.74152019  0.74152019  0.10625224  1.0
  Li  Li2  1  -0.25847981  1.25847981  0.89374776  1.0
  Li  Li3  1  -0.25847981  1.25847981  0.60625224  1.0
  Li  Li4  1  -0.96439140  0.96439140  0.38562906  1.0
  Li  Li5  1  -0.96439140  0.96439140  0.11437094  1.0
  Li  Li6  1  -0.03560860  1.03560860  0.88562906  1.0
  Li  Li7  1  -0.03560860  1.03560860  0.61437094  1.0
  Li  Li8  1  -0.58785453  0.58785453  0.50077080  1.0
  Li  Li9  1  -0.58785453  0.58785453  -0.00077080  1.0
  Li  Li10  1  -0.41214547  1.41214547  1.00077080  1.0
  Li  Li11  1  -0.41214547  1.41214547  0.49922920  1.0
  Li  Li12  1  -0.32073686  1.32073686  0.38128492  1.0
  Li  Li13  1  -0.32073686  1.32073686  0.11871508  1.0
  Li  Li14  1  -0.67926314  0.67926314  0.88128492  1.0
  Li  Li15  1  -0.67926314  0.67926314  0.61871508  1.0
  Li  Li16  1  -0.85942920  0.85942920  0.25000000  1.0
  Li  Li17  1  -0.14057080  1.14057080  0.75000000  1.0
  Li  Li18  1  -0.64218164  0.64218164  0.25000000  1.0
  Li  Li19  1  -0.35781836  1.35781836  0.75000000  1.0
  Li  Li20  1  -0.52455306  0.52455306  0.25000000  1.0
  Li  Li21  1  -0.47544694  1.47544694  0.75000000  1.0
  Ge  Ge22  1  -0.92520772  0.92520772  0.86602103  1.0
  Ge  Ge23  1  -0.92520772  0.92520772  0.63397897  1.0
  Ge  Ge24  1  -0.07479228  1.07479228  0.36602103  1.0
  Ge  Ge25  1  -0.07479228  1.07479228  0.13397897  1.0
  Ge  Ge26  1  -0.82914223  0.82914223  0.94737657  1.0
  Ge  Ge27  1  -0.82914223  0.82914223  0.55262343  1.0
  Ge  Ge28  1  -0.17085777  1.17085777  0.44737657  1.0
  Ge  Ge29  1  -0.17085777  1.17085777  0.05262343  1.0
  Ge  Ge30  1  -0.41817790  1.41817790  0.25000000  1.0
  Ge  Ge31  1  -0.58182210  0.58182210  0.75000000  1.0
  Ge  Ge32  1  -0.22844880  1.22844880  0.25000000  1.0
  Ge  Ge33  1  -0.77155120  0.77155120  0.75000000  1.0
