# generated using pymatgen
data_K2NaAl3F12
_symmetry_space_group_name_H-M   'P 1'
_cell_length_a   7.09980890
_cell_length_b   7.09866715
_cell_length_c   9.84665538
_cell_angle_alpha   90.00000000
_cell_angle_beta   90.50645119
_cell_angle_gamma   90.00000000
_symmetry_Int_Tables_number   1
_chemical_formula_structural   K2NaAl3F12
_chemical_formula_sum   'K4 Na2 Al6 F24'
_cell_volume   496.24397227
_cell_formula_units_Z   2
loop_
 _symmetry_equiv_pos_site_id
 _symmetry_equiv_pos_as_xyz
  1  'x, y, z'
loop_
 _atom_site_type_symbol
 _atom_site_label
 _atom_site_symmetry_multiplicity
 _atom_site_fract_x
 _atom_site_fract_y
 _atom_site_fract_z
 _atom_site_occupancy
  K  K0  1  0.96007700  0.75000000  0.35961408  1.0
  K  K1  1  0.03992300  0.25000000  0.64038592  1.0
  K  K2  1  0.51739075  0.75000000  0.10210551  1.0
  K  K3  1  0.48260925  0.25000000  0.89789449  1.0
  Na  Na4  1  0.29004261  0.75000000  0.75802390  1.0
  Na  Na5  1  0.70995739  0.25000000  0.24197610  1.0
  Al  Al6  1  0.80547436  0.75000000  0.72008140  1.0
  Al  Al7  1  0.19452564  0.25000000  0.27991860  1.0
  Al  Al8  1  0.50000000  0.00000000  0.50000000  1.0
  Al  Al9  1  0.50000000  0.50000000  0.50000000  1.0
  Al  Al10  1  0.00000000  0.00000000  0.00000000  1.0
  Al  Al11  1  0.00000000  0.50000000  0.00000000  1.0
  F  F12  1  0.91588557  0.93941054  0.82664150  1.0
  F  F13  1  0.91588557  0.56058946  0.82664150  1.0
  F  F14  1  0.08411443  0.43941054  0.17335850  1.0
  F  F15  1  0.08411443  0.06058946  0.17335850  1.0
  F  F16  1  0.70938936  0.93789924  0.60715875  1.0
  F  F17  1  0.70938936  0.56210076  0.60715875  1.0
  F  F18  1  0.29061064  0.43789924  0.39284125  1.0
  F  F19  1  0.29061064  0.06210076  0.39284125  1.0
  F  F20  1  0.63501627  0.96091955  0.35064280  1.0
  F  F21  1  0.63501627  0.53908045  0.35064280  1.0
  F  F22  1  0.36498373  0.46091955  0.64935720  1.0
  F  F23  1  0.36498373  0.03908045  0.64935720  1.0
  F  F24  1  0.23608843  0.95740549  0.94811452  1.0
  F  F25  1  0.23608843  0.54259451  0.94811452  1.0
  F  F26  1  0.76391157  0.45740549  0.05188548  1.0
  F  F27  1  0.76391157  0.04259451  0.05188548  1.0
  F  F28  1  0.01538810  0.75000000  0.62215195  1.0
  F  F29  1  0.98461190  0.25000000  0.37784805  1.0
  F  F30  1  0.97592532  0.75000000  0.05790512  1.0
  F  F31  1  0.02407468  0.25000000  0.94209488  1.0
  F  F32  1  0.60313873  0.75000000  0.82263241  1.0
  F  F33  1  0.39686127  0.25000000  0.17736759  1.0
  F  F34  1  0.42147973  0.75000000  0.50008132  1.0
  F  F35  1  0.57852027  0.25000000  0.49991868  1.0
