# generated using pymatgen
data_W18O49
_symmetry_space_group_name_H-M   'P 1'
_cell_length_a   14.18991139
_cell_length_b   3.81895497
_cell_length_c   17.88600743
_cell_angle_alpha   90.00000000
_cell_angle_beta   110.63261554
_cell_angle_gamma   90.00000000
_symmetry_Int_Tables_number   1
_chemical_formula_structural   W18O49
_chemical_formula_sum   'W18 O49'
_cell_volume   907.08522830
_cell_formula_units_Z   1
loop_
 _symmetry_equiv_pos_site_id
 _symmetry_equiv_pos_as_xyz
  1  'x, y, z'
loop_
 _atom_site_type_symbol
 _atom_site_label
 _atom_site_symmetry_multiplicity
 _atom_site_fract_x
 _atom_site_fract_y
 _atom_site_fract_z
 _atom_site_occupancy
  W  W0  1  0.97578605  -0.00000000  0.72409239  1.0
  W  W1  1  0.02421395  -0.00000000  0.27590761  1.0
  W  W2  1  0.92921136  -0.00000000  0.92742607  1.0
  W  W3  1  0.07078864  -0.00000000  0.07257393  1.0
  W  W4  1  0.87563916  -0.00000000  0.41363116  1.0
  W  W5  1  0.12436084  -0.00000000  0.58636884  1.0
  W  W6  1  0.75414144  -0.00000000  0.74423553  1.0
  W  W7  1  0.24585856  -0.00000000  0.25576447  1.0
  W  W8  1  0.71555675  -0.00000000  0.54706850  1.0
  W  W9  1  0.28444325  -0.00000000  0.45293150  1.0
  W  W10  1  0.63211735  0.00000000  0.87269640  1.0
  W  W11  1  0.36788265  0.00000000  0.12730360  1.0
  W  W12  1  0.50601192  -0.00000000  0.64200976  1.0
  W  W13  1  0.49398808  -0.00000000  0.35799024  1.0
  W  W14  1  0.35289882  -0.00000000  0.77859227  1.0
  W  W15  1  0.64710118  -0.00000000  0.22140773  1.0
  W  W16  1  0.20064731  0.00000000  0.91341834  1.0
  W  W17  1  0.79935269  0.00000000  0.08658166  1.0
  O  O18  1  0.96794751  0.50000000  0.72272205  1.0
  O  O19  1  0.03205249  0.50000000  0.27727795  1.0
  O  O20  1  0.92716426  0.50000000  0.92446356  1.0
  O  O21  1  0.07283574  0.50000000  0.07553644  1.0
  O  O22  1  0.87270066  0.50000000  0.41361440  1.0
  O  O23  1  0.12729934  0.50000000  0.58638560  1.0
  O  O24  1  0.75421730  0.50000000  0.74328885  1.0
  O  O25  1  0.24578270  0.50000000  0.25671115  1.0
  O  O26  1  0.71570494  0.50000000  0.55122085  1.0
  O  O27  1  0.28429506  0.50000000  0.44877915  1.0
  O  O28  1  0.63481640  0.50000000  0.87037524  1.0
  O  O29  1  0.36518360  0.50000000  0.12962476  1.0
  O  O30  1  0.51269694  0.50000000  0.63956288  1.0
  O  O31  1  0.48730306  0.50000000  0.36043712  1.0
  O  O32  1  0.35708677  0.50000000  0.78059635  1.0
  O  O33  1  0.64291323  0.50000000  0.21940365  1.0
  O  O34  1  0.19714219  0.50000000  0.91638984  1.0
  O  O35  1  0.80285781  0.50000000  0.08361016  1.0
  O  O36  1  0.96395753  0.00000000  0.35025109  1.0
  O  O37  1  0.03604247  0.00000000  0.64974891  1.0
  O  O38  1  0.90839460  -0.00000000  0.18730718  1.0
  O  O39  1  0.09160540  -0.00000000  0.81269282  1.0
  O  O40  1  0.90281723  0.00000000  0.80635022  1.0
  O  O41  1  0.09718277  0.00000000  0.19364978  1.0
  O  O42  1  0.82477657  0.00000000  0.65924706  1.0
  O  O43  1  0.17522343  0.00000000  0.34075294  1.0
  O  O44  1  0.79426953  0.00000000  0.48471307  1.0
  O  O45  1  0.20573047  0.00000000  0.51528693  1.0
  O  O46  1  0.77547575  -0.00000000  0.86406501  1.0
  O  O47  1  0.22452425  -0.00000000  0.13593499  1.0
  O  O48  1  0.76509298  0.00000000  0.31278723  1.0
  O  O49  1  0.23490702  0.00000000  0.68721277  1.0
  O  O50  1  0.69583005  0.00000000  0.98260229  1.0
  O  O51  1  0.30416995  0.00000000  0.01739771  1.0
  O  O52  1  0.64516522  -0.00000000  0.63139328  1.0
  O  O53  1  0.35483478  -0.00000000  0.36860672  1.0
  O  O54  1  0.61806927  0.00000000  0.75535056  1.0
  O  O55  1  0.38193073  0.00000000  0.24464944  1.0
  O  O56  1  0.58810774  -0.00000000  0.46434056  1.0
  O  O57  1  0.41189226  -0.00000000  0.53565944  1.0
  O  O58  1  0.49549167  0.00000000  0.85270664  1.0
  O  O59  1  0.50450833  0.00000000  0.14729336  1.0
  O  O60  1  0.41895294  0.00000000  0.69472420  1.0
  O  O61  1  0.58104706  0.00000000  0.30527580  1.0
  O  O62  1  0.29054518  0.00000000  0.85750005  1.0
  O  O63  1  0.70945482  0.00000000  0.14249995  1.0
  O  O64  1  0.08381418  0.00000000  0.96315284  1.0
  O  O65  1  0.91618582  0.00000000  0.03684716  1.0
  O  O66  1  -0.00000000  0.00000000  0.50000000  1.0
