# generated using pymatgen
data_Rb3CoNCl4O3
_symmetry_space_group_name_H-M   'P 1'
_cell_length_a   9.69191095
_cell_length_b   10.20991676
_cell_length_c   12.73374994
_cell_angle_alpha   90.00000000
_cell_angle_beta   90.00000000
_cell_angle_gamma   90.00000000
_symmetry_Int_Tables_number   1
_chemical_formula_structural   Rb3CoNCl4O3
_chemical_formula_sum   'Rb12 Co4 N4 Cl16 O12'
_cell_volume   1260.05045005
_cell_formula_units_Z   4
loop_
 _symmetry_equiv_pos_site_id
 _symmetry_equiv_pos_as_xyz
  1  'x, y, z'
loop_
 _atom_site_type_symbol
 _atom_site_label
 _atom_site_symmetry_multiplicity
 _atom_site_fract_x
 _atom_site_fract_y
 _atom_site_fract_z
 _atom_site_occupancy
  Rb  Rb0  1  0.11866725  0.49505172  0.81875952  1.0
  Rb  Rb1  1  0.11866725  0.00494828  0.81875952  1.0
  Rb  Rb2  1  0.61866725  0.49505172  0.68124048  1.0
  Rb  Rb3  1  0.61866725  0.00494828  0.68124048  1.0
  Rb  Rb4  1  0.88133275  0.99505172  0.18124048  1.0
  Rb  Rb5  1  0.88133275  0.50494828  0.18124048  1.0
  Rb  Rb6  1  0.38133275  0.99505172  0.31875952  1.0
  Rb  Rb7  1  0.38133275  0.50494828  0.31875952  1.0
  Rb  Rb8  1  0.07890362  0.75000000  0.53409707  1.0
  Rb  Rb9  1  0.57890362  0.75000000  0.96590293  1.0
  Rb  Rb10  1  0.92109638  0.25000000  0.46590293  1.0
  Rb  Rb11  1  0.42109638  0.25000000  0.03409707  1.0
  Co  Co12  1  0.18264471  0.75000000  0.09352918  1.0
  Co  Co13  1  0.68264471  0.75000000  0.40647082  1.0
  Co  Co14  1  0.81735529  0.25000000  0.90647082  1.0
  Co  Co15  1  0.31735529  0.25000000  0.59352918  1.0
  N  N16  1  0.34008757  0.75000000  0.77122329  1.0
  N  N17  1  0.84008757  0.75000000  0.72877671  1.0
  N  N18  1  0.65991243  0.25000000  0.22877671  1.0
  N  N19  1  0.15991243  0.25000000  0.27122329  1.0
  Cl  Cl20  1  0.30236390  0.93299473  0.05390247  1.0
  Cl  Cl21  1  0.30236390  0.56700527  0.05390247  1.0
  Cl  Cl22  1  0.80236390  0.93299473  0.44609753  1.0
  Cl  Cl23  1  0.80236390  0.56700527  0.44609753  1.0
  Cl  Cl24  1  0.69763610  0.43299473  0.94609753  1.0
  Cl  Cl25  1  0.69763610  0.06700527  0.94609753  1.0
  Cl  Cl26  1  0.19763610  0.43299473  0.55390247  1.0
  Cl  Cl27  1  0.19763610  0.06700527  0.55390247  1.0
  Cl  Cl28  1  0.48029788  0.75000000  0.49564030  1.0
  Cl  Cl29  1  0.98029788  0.75000000  1.00435970  1.0
  Cl  Cl30  1  0.51970212  0.25000000  0.50435970  1.0
  Cl  Cl31  1  0.01970212  0.25000000  -0.00435970  1.0
  Cl  Cl32  1  0.13425882  0.75000000  0.26842233  1.0
  Cl  Cl33  1  0.63425882  0.75000000  0.23157767  1.0
  Cl  Cl34  1  0.86574118  0.25000000  0.73157767  1.0
  Cl  Cl35  1  0.36574118  0.25000000  0.76842233  1.0
  O  O36  1  0.40002265  0.85742097  0.78957452  1.0
  O  O37  1  0.40002265  0.64257903  0.78957452  1.0
  O  O38  1  0.90002265  0.85742097  0.71042548  1.0
  O  O39  1  0.90002265  0.64257903  0.71042548  1.0
  O  O40  1  0.59997735  0.35742097  0.21042548  1.0
  O  O41  1  0.59997735  0.14257903  0.21042548  1.0
  O  O42  1  0.09997735  0.35742097  0.28957452  1.0
  O  O43  1  0.09997735  0.14257903  0.28957452  1.0
  O  O44  1  0.21732783  0.75000000  0.73710046  1.0
  O  O45  1  0.71732783  0.75000000  0.76289954  1.0
  O  O46  1  0.78267217  0.25000000  0.26289954  1.0
  O  O47  1  0.28267217  0.25000000  0.23710046  1.0
