# generated using pymatgen
data_SrH2(CO2)2
_symmetry_space_group_name_H-M   'P 1'
_cell_length_a   7.01684335
_cell_length_b   7.38067923
_cell_length_c   8.91242694
_cell_angle_alpha   90.00000000
_cell_angle_beta   90.00000000
_cell_angle_gamma   90.00000000
_symmetry_Int_Tables_number   1
_chemical_formula_structural   SrH2(CO2)2
_chemical_formula_sum   'Sr4 H8 C8 O16'
_cell_volume   461.56630227
_cell_formula_units_Z   4
loop_
 _symmetry_equiv_pos_site_id
 _symmetry_equiv_pos_as_xyz
  1  'x, y, z'
loop_
 _atom_site_type_symbol
 _atom_site_label
 _atom_site_symmetry_multiplicity
 _atom_site_fract_x
 _atom_site_fract_y
 _atom_site_fract_z
 _atom_site_occupancy
  Sr  Sr0  1  0.00113082  0.23933561  0.66694685  1.0
  Sr  Sr1  1  0.49886918  0.76066439  0.16694685  1.0
  Sr  Sr2  1  0.50113082  0.26066439  0.33305315  1.0
  Sr  Sr3  1  0.99886918  0.73933561  0.83305315  1.0
  H  H4  1  0.52181255  0.50249170  0.71082243  1.0
  H  H5  1  0.97818745  0.49750830  0.21082243  1.0
  H  H6  1  0.02181255  -0.00249170  0.28917757  1.0
  H  H7  1  0.47818745  1.00249170  0.78917757  1.0
  H  H8  1  0.70673799  0.20805890  0.99061322  1.0
  H  H9  1  0.79326201  0.79194110  0.49061322  1.0
  H  H10  1  0.20673799  0.29194110  0.00938678  1.0
  H  H11  1  0.29326201  0.70805890  0.50938678  1.0
  C  C12  1  0.37931826  0.44214714  0.69126622  1.0
  C  C13  1  0.12068174  0.55785286  0.19126622  1.0
  C  C14  1  0.87931826  0.05785286  0.30873378  1.0
  C  C15  1  0.62068174  0.94214714  0.80873378  1.0
  C  C16  1  0.73075115  0.35670514  0.99359732  1.0
  C  C17  1  0.76924885  0.64329486  0.49359732  1.0
  C  C18  1  0.23075115  0.14329486  0.00640268  1.0
  C  C19  1  0.26924885  0.85670514  0.50640268  1.0
  O  O20  1  0.84501499  0.42106234  0.89761652  1.0
  O  O21  1  0.65498501  0.57893766  0.39761652  1.0
  O  O22  1  0.34501499  0.07893766  0.10238348  1.0
  O  O23  1  0.15498501  0.92106234  0.60238348  1.0
  O  O24  1  0.85759736  0.55645502  0.59480937  1.0
  O  O25  1  0.64240264  0.44354498  0.09480937  1.0
  O  O26  1  0.35759736  0.94354498  0.40519063  1.0
  O  O27  1  0.14240264  0.05645502  0.90519063  1.0
  O  O28  1  0.86389378  0.18306742  0.40552042  1.0
  O  O29  1  0.63610622  0.81693258  0.90552042  1.0
  O  O30  1  0.36389378  0.31693258  0.59447958  1.0
  O  O31  1  0.13610622  0.68306742  0.09447958  1.0
  O  O32  1  0.75935081  -0.00002422  0.73114398  1.0
  O  O33  1  0.74064919  1.00002422  0.23114398  1.0
  O  O34  1  0.25935081  0.50002422  0.26885602  1.0
  O  O35  1  0.24064919  0.49997578  0.76885602  1.0
