# generated using pymatgen
data_Na2ZnSiO4
_symmetry_space_group_name_H-M   'P 1'
_cell_length_a   5.33577833
_cell_length_b   5.53837275
_cell_length_c   8.82476755
_cell_angle_alpha   90.00000000
_cell_angle_beta   126.90804694
_cell_angle_gamma   90.00000000
_symmetry_Int_Tables_number   1
_chemical_formula_structural   Na2ZnSiO4
_chemical_formula_sum   'Na4 Zn2 Si2 O8'
_cell_volume   208.52407161
_cell_formula_units_Z   2
loop_
 _symmetry_equiv_pos_site_id
 _symmetry_equiv_pos_as_xyz
  1  'x, y, z'
loop_
 _atom_site_type_symbol
 _atom_site_label
 _atom_site_symmetry_multiplicity
 _atom_site_fract_x
 _atom_site_fract_y
 _atom_site_fract_z
 _atom_site_occupancy
  Na  Na0  1  0.49461798  0.18151072  0.06159812  1.0
  Na  Na1  1  0.49461798  0.81848928  0.56159812  1.0
  Na  Na2  1  0.24396792  0.32738483  0.30649996  1.0
  Na  Na3  1  0.24396792  0.67261517  0.80649996  1.0
  Zn  Zn4  1  0.98132303  0.81151478  0.05612996  1.0
  Zn  Zn5  1  0.98132303  0.18848522  0.55612996  1.0
  Si  Si6  1  0.72955474  0.68832671  0.30848312  1.0
  Si  Si7  1  0.72955474  0.31167329  0.80848312  1.0
  O  O8  1  0.00261299  0.84288933  0.50022767  1.0
  O  O9  1  0.00261299  0.15711067  0.00022767  1.0
  O  O10  1  0.83566533  0.40030166  0.33595190  1.0
  O  O11  1  0.83566533  0.59969834  0.83595190  1.0
  O  O12  1  0.67566968  0.79025778  0.11474318  1.0
  O  O13  1  0.67566968  0.20974222  0.61474318  1.0
  O  O14  1  0.39568834  0.71152240  0.28126610  1.0
  O  O15  1  0.39568834  0.28847760  0.78126610  1.0
