# generated using pymatgen
data_Ge3Sb2O9
_symmetry_space_group_name_H-M   'P 1'
_cell_length_a   7.20328910
_cell_length_b   7.20328910
_cell_length_c   10.07187641
_cell_angle_alpha   90.00000000
_cell_angle_beta   90.00000000
_cell_angle_gamma   120.00000000
_symmetry_Int_Tables_number   1
_chemical_formula_structural   Ge3Sb2O9
_chemical_formula_sum   'Ge6 Sb4 O18'
_cell_volume   452.58766214
_cell_formula_units_Z   2
loop_
 _symmetry_equiv_pos_site_id
 _symmetry_equiv_pos_as_xyz
  1  'x, y, z'
loop_
 _atom_site_type_symbol
 _atom_site_label
 _atom_site_symmetry_multiplicity
 _atom_site_fract_x
 _atom_site_fract_y
 _atom_site_fract_z
 _atom_site_occupancy
  Ge  Ge0  1  0.79123046  0.71345664  0.25000000  1.0
  Ge  Ge1  1  0.71345664  0.92222618  0.75000000  1.0
  Ge  Ge2  1  0.92222618  0.20876954  0.25000000  1.0
  Ge  Ge3  1  0.28654336  0.07777382  0.25000000  1.0
  Ge  Ge4  1  0.20876954  0.28654336  0.75000000  1.0
  Ge  Ge5  1  0.07777382  0.79123046  0.75000000  1.0
  Sb  Sb6  1  0.33333333  0.66666667  0.49722169  1.0
  Sb  Sb7  1  0.33333333  0.66666667  0.00277831  1.0
  Sb  Sb8  1  0.66666667  0.33333333  0.99722169  1.0
  Sb  Sb9  1  0.66666667  0.33333333  0.50277831  1.0
  O  O10  1  0.66472782  0.56985808  0.39539299  1.0
  O  O11  1  0.66472782  0.56985808  0.10460701  1.0
  O  O12  1  0.56985808  0.90513026  0.89539299  1.0
  O  O13  1  0.56985808  0.90513026  0.60460701  1.0
  O  O14  1  0.90513026  0.33527218  0.39539299  1.0
  O  O15  1  0.90513026  0.33527218  0.10460701  1.0
  O  O16  1  0.43014192  0.09486974  0.39539299  1.0
  O  O17  1  0.43014192  0.09486974  0.10460701  1.0
  O  O18  1  0.33527218  0.43014192  0.89539299  1.0
  O  O19  1  0.33527218  0.43014192  0.60460701  1.0
  O  O20  1  0.09486974  0.66472782  0.89539299  1.0
  O  O21  1  0.09486974  0.66472782  0.60460701  1.0
  O  O22  1  0.07081056  0.80720140  0.25000000  1.0
  O  O23  1  0.80720140  0.73639084  0.75000000  1.0
  O  O24  1  0.73639084  0.92918944  0.25000000  1.0
  O  O25  1  0.19279860  0.26360916  0.25000000  1.0
  O  O26  1  0.92918944  0.19279860  0.75000000  1.0
  O  O27  1  0.26360916  0.07081056  0.75000000  1.0
