# generated using pymatgen
data_RbCN5O2
_symmetry_space_group_name_H-M   'P 1'
_cell_length_a   6.59432836
_cell_length_b   6.59432836
_cell_length_c   9.03011597
_cell_angle_alpha   85.65565569
_cell_angle_beta   94.34434431
_cell_angle_gamma   131.66705376
_symmetry_Int_Tables_number   1
_chemical_formula_structural   RbCN5O2
_chemical_formula_sum   'Rb2 C2 N10 O4'
_cell_volume   292.32432042
_cell_formula_units_Z   2
loop_
 _symmetry_equiv_pos_site_id
 _symmetry_equiv_pos_as_xyz
  1  'x, y, z'
loop_
 _atom_site_type_symbol
 _atom_site_label
 _atom_site_symmetry_multiplicity
 _atom_site_fract_x
 _atom_site_fract_y
 _atom_site_fract_z
 _atom_site_occupancy
  Rb  Rb0  1  0.87671438  0.28174276  0.57142860  1.0
  Rb  Rb1  1  0.71825724  0.12328562  0.07142860  1.0
  C  C2  1  0.28023250  0.18423385  0.29280833  1.0
  C  C3  1  0.81576615  0.71976750  0.79280833  1.0
  N  N4  1  0.36069674  0.04733509  0.33478738  1.0
  N  N5  1  0.95266491  0.63930326  0.83478738  1.0
  N  N6  1  1.16312052  0.84481195  0.42116899  1.0
  N  N7  1  0.15518805  -0.16312052  0.92116899  1.0
  N  N8  1  0.97305659  0.86253791  0.42967936  1.0
  N  N9  1  0.13746209  0.02694341  0.92967936  1.0
  N  N10  1  1.04284747  0.07650064  0.34856274  1.0
  N  N11  1  0.92349936  -0.04284747  0.84856274  1.0
  N  N12  1  0.43234839  0.42280592  0.19731001  1.0
  N  N13  1  0.57719408  0.56765161  0.69731001  1.0
  O  O14  1  1.33619203  0.53145844  0.16572462  1.0
  O  O15  1  0.46854156  -0.33619203  0.66572462  1.0
  O  O16  1  0.65012740  0.50830947  0.15202998  1.0
  O  O17  1  0.49169053  0.34987260  0.65202998  1.0
