# generated using pymatgen
data_Sr(InAu)2
_symmetry_space_group_name_H-M   'P 1'
_cell_length_a   8.68958624
_cell_length_b   4.70028225
_cell_length_c   12.52914928
_cell_angle_alpha   90.00000000
_cell_angle_beta   90.00000000
_cell_angle_gamma   90.00000000
_symmetry_Int_Tables_number   1
_chemical_formula_structural   Sr(InAu)2
_chemical_formula_sum   'Sr4 In8 Au8'
_cell_volume   511.73440776
_cell_formula_units_Z   4
loop_
 _symmetry_equiv_pos_site_id
 _symmetry_equiv_pos_as_xyz
  1  'x, y, z'
loop_
 _atom_site_type_symbol
 _atom_site_label
 _atom_site_symmetry_multiplicity
 _atom_site_fract_x
 _atom_site_fract_y
 _atom_site_fract_z
 _atom_site_occupancy
  Sr  Sr0  1  0.70963196  0.75000000  0.33316255  1.0
  Sr  Sr1  1  0.20963196  0.75000000  0.16683745  1.0
  Sr  Sr2  1  0.29036804  0.25000000  0.66683745  1.0
  Sr  Sr3  1  0.79036804  0.25000000  0.83316255  1.0
  In  In4  1  0.65339974  0.75000000  0.63964321  1.0
  In  In5  1  0.15339974  0.75000000  0.86035679  1.0
  In  In6  1  0.34660026  0.25000000  0.36035679  1.0
  In  In7  1  0.84660026  0.25000000  0.13964321  1.0
  In  In8  1  0.59485582  0.75000000  0.05311690  1.0
  In  In9  1  0.09485582  0.75000000  0.44688310  1.0
  In  In10  1  0.40514418  0.25000000  0.94688310  1.0
  In  In11  1  0.90514418  0.25000000  0.55311690  1.0
  Au  Au12  1  0.99230399  0.75000000  0.66909458  1.0
  Au  Au13  1  0.49230399  0.75000000  0.83090542  1.0
  Au  Au14  1  0.00769601  0.25000000  0.33090542  1.0
  Au  Au15  1  0.50769601  0.25000000  0.16909458  1.0
  Au  Au16  1  0.90615732  0.75000000  0.01543502  1.0
  Au  Au17  1  0.40615732  0.75000000  0.48456498  1.0
  Au  Au18  1  0.09384268  0.25000000  0.98456498  1.0
  Au  Au19  1  0.59384268  0.25000000  0.51543502  1.0
