# generated using pymatgen
data_Y(Ni2B)6
_symmetry_space_group_name_H-M   'P 1'
_cell_length_a   6.03517903
_cell_length_b   6.03517903
_cell_length_c   10.98763238
_cell_angle_alpha   90.00000000
_cell_angle_beta   90.00000000
_cell_angle_gamma   75.25079749
_symmetry_Int_Tables_number   1
_chemical_formula_structural   Y(Ni2B)6
_chemical_formula_sum   'Y2 Ni24 B12'
_cell_volume   387.01975429
_cell_formula_units_Z   2
loop_
 _symmetry_equiv_pos_site_id
 _symmetry_equiv_pos_as_xyz
  1  'x, y, z'
loop_
 _atom_site_type_symbol
 _atom_site_label
 _atom_site_symmetry_multiplicity
 _atom_site_fract_x
 _atom_site_fract_y
 _atom_site_fract_z
 _atom_site_occupancy
  Y  Y0  1  -0.33332771  1.33332771  0.35801841  1.0
  Y  Y1  1  0.33332771  0.66667229  0.85801841  1.0
  Ni  Ni2  1  0.04396108  0.69447196  0.09533635  1.0
  Ni  Ni3  1  -0.30552804  1.04396108  0.59533635  1.0
  Ni  Ni4  1  0.30552804  0.95603892  0.09533635  1.0
  Ni  Ni5  1  -0.04396108  1.30552804  0.59533635  1.0
  Ni  Ni6  1  0.13193130  0.50288286  0.29935522  1.0
  Ni  Ni7  1  -0.49711714  1.13193130  0.79935522  1.0
  Ni  Ni8  1  0.49711714  0.86806870  0.29935522  1.0
  Ni  Ni9  1  -0.13193130  1.49711714  0.79935522  1.0
  Ni  Ni10  1  -0.15763496  1.77044014  0.42969944  1.0
  Ni  Ni11  1  0.77044014  0.84236504  0.92969944  1.0
  Ni  Ni12  1  -0.77044014  1.15763496  0.42969944  1.0
  Ni  Ni13  1  0.15763496  0.22955986  0.92969944  1.0
  Ni  Ni14  1  -0.35411243  1.61778697  0.11771193  1.0
  Ni  Ni15  1  0.61778697  0.64588757  0.61771193  1.0
  Ni  Ni16  1  -0.61778697  1.35411243  0.11771193  1.0
  Ni  Ni17  1  0.35411243  0.38221303  0.61771193  1.0
  Ni  Ni18  1  -0.02559895  1.28766838  0.13837163  1.0
  Ni  Ni19  1  0.28766838  0.97440105  0.63837163  1.0
  Ni  Ni20  1  -0.28766838  1.02559895  0.13837163  1.0
  Ni  Ni21  1  0.02559895  0.71233162  0.63837163  1.0
  Ni  Ni22  1  0.06698914  0.93301086  0.28011597  1.0
  Ni  Ni23  1  -0.06698914  1.06698914  0.78011597  1.0
  Ni  Ni24  1  0.28191446  0.71808554  0.46141550  1.0
  Ni  Ni25  1  -0.28191446  1.28191446  0.96141550  1.0
  B  B26  1  0.09953198  0.48772659  0.48452385  1.0
  B  B27  1  -0.51227341  1.09953198  0.98452385  1.0
  B  B28  1  0.51227341  0.90046802  0.48452385  1.0
  B  B29  1  -0.09953198  1.51227341  0.98452385  1.0
  B  B30  1  -0.17253682  1.74163657  0.24681274  1.0
  B  B31  1  0.74163657  0.82746318  0.74681274  1.0
  B  B32  1  -0.74163657  1.17253682  0.24681274  1.0
  B  B33  1  0.17253682  0.25836343  0.74681274  1.0
  B  B34  1  -0.01269017  1.01269017  0.01792599  1.0
  B  B35  1  0.01269017  0.98730983  0.51792599  1.0
  B  B36  1  0.33665448  0.66334552  0.19990184  1.0
  B  B37  1  -0.33665448  1.33665448  0.69990184  1.0
