# generated using pymatgen
data_KSc3Cr2(H3O7)2
_symmetry_space_group_name_H-M   'P 1'
_cell_length_a   7.50626752
_cell_length_b   7.50626752
_cell_length_c   7.50626752
_cell_angle_alpha   62.81184261
_cell_angle_beta   62.81184261
_cell_angle_gamma   62.81184262
_symmetry_Int_Tables_number   1
_chemical_formula_structural   KSc3Cr2(H3O7)2
_chemical_formula_sum   'K1 Sc3 Cr2 H6 O14'
_cell_volume   317.75480640
_cell_formula_units_Z   1
loop_
 _symmetry_equiv_pos_site_id
 _symmetry_equiv_pos_as_xyz
  1  'x, y, z'
loop_
 _atom_site_type_symbol
 _atom_site_label
 _atom_site_symmetry_multiplicity
 _atom_site_fract_x
 _atom_site_fract_y
 _atom_site_fract_z
 _atom_site_occupancy
  K  K0  1  0.50000000  0.50000000  -0.50000000  1.0
  Sc  Sc1  1  0.50000000  1.00000000  -0.50000000  1.0
  Sc  Sc2  1  0.50000000  -0.50000000  0.00000000  1.0
  Sc  Sc3  1  -0.00000000  0.50000000  -0.50000000  1.0
  Cr  Cr4  1  0.81225321  0.81225321  -0.18774679  1.0
  Cr  Cr5  1  1.18774679  1.18774679  0.18774679  1.0
  H  H6  1  0.19129518  0.19129518  -0.22757866  1.0
  H  H7  1  0.19129518  0.77242134  -0.80870482  1.0
  H  H8  1  1.22757866  -0.19129518  -0.19129518  1.0
  H  H9  1  0.80870482  0.22757866  -0.19129518  1.0
  H  H10  1  0.80870482  -0.19129518  0.22757866  1.0
  H  H11  1  0.77242134  0.19129518  -0.80870482  1.0
  O  O12  1  0.23631668  0.23631668  -0.38231118  1.0
  O  O13  1  0.23631668  0.61768882  -0.76368332  1.0
  O  O14  1  0.38231118  0.76368332  -0.23631668  1.0
  O  O15  1  0.76368332  0.38231118  -0.23631668  1.0
  O  O16  1  0.76368332  0.76368332  -0.61768882  1.0
  O  O17  1  0.61768882  0.23631668  -0.76368332  1.0
  O  O18  1  0.33540517  0.33540517  -0.00815746  1.0
  O  O19  1  0.33540517  0.99184254  -0.66459483  1.0
  O  O20  1  1.00815746  -0.33540517  -0.33540517  1.0
  O  O21  1  0.66459483  0.00815746  -0.33540517  1.0
  O  O22  1  0.66459483  -0.33540517  0.00815746  1.0
  O  O23  1  0.99184254  0.33540517  -0.66459483  1.0
  O  O24  1  0.90292820  0.90292820  -0.09707180  1.0
  O  O25  1  1.09707180  1.09707180  0.09707180  1.0
