# generated using pymatgen
data_AlBi2Se2BrCl4
_symmetry_space_group_name_H-M   'P 1'
_cell_length_a   7.08484140
_cell_length_b   11.61947615
_cell_length_c   8.34946630
_cell_angle_alpha   69.15466155
_cell_angle_beta   72.85730063
_cell_angle_gamma   73.19551691
_symmetry_Int_Tables_number   1
_chemical_formula_structural   AlBi2Se2BrCl4
_chemical_formula_sum   'Al2 Bi4 Se4 Br2 Cl8'
_cell_volume   600.61546823
_cell_formula_units_Z   2
loop_
 _symmetry_equiv_pos_site_id
 _symmetry_equiv_pos_as_xyz
  1  'x, y, z'
loop_
 _atom_site_type_symbol
 _atom_site_label
 _atom_site_symmetry_multiplicity
 _atom_site_fract_x
 _atom_site_fract_y
 _atom_site_fract_z
 _atom_site_occupancy
  Al  Al0  1  -0.83157009  -0.54326231  -0.76889255  1.0
  Al  Al1  1  -0.16842991  -0.45673769  -0.23110745  1.0
  Bi  Bi2  1  -0.71996812  -0.88179304  -0.87571972  1.0
  Bi  Bi3  1  -0.28003188  -0.11820696  -0.12428028  1.0
  Bi  Bi4  1  -0.72016362  -0.87175856  -0.38658172  1.0
  Bi  Bi5  1  -0.27983638  -0.12824144  -0.61341828  1.0
  Se  Se6  1  -0.44926015  -0.85820304  -0.20630012  1.0
  Se  Se7  1  -0.55073985  -0.14179696  -0.79369988  1.0
  Se  Se8  1  -0.43943887  -0.86840018  -0.70697607  1.0
  Se  Se9  1  -0.56056113  -0.13159982  -0.29302393  1.0
  Br  Br10  1  0.00000000  -0.00000000  -0.50000000  1.0
  Br  Br11  1  0.00000000  0.00000000  0.00000000  1.0
  Cl  Cl12  1  -0.94761659  -0.34304016  -0.84040336  1.0
  Cl  Cl13  1  -0.05238341  -0.65695984  -0.15959664  1.0
  Cl  Cl14  1  -0.95223927  -0.33528067  -0.35193205  1.0
  Cl  Cl15  1  -0.04776073  -0.66471933  -0.64806795  1.0
  Cl  Cl16  1  -0.64821713  -0.59243283  -0.57738810  1.0
  Cl  Cl17  1  -0.35178287  -0.40756717  -0.42261190  1.0
  Cl  Cl18  1  -0.33620306  -0.40217430  -0.99650948  1.0
  Cl  Cl19  1  -0.66379694  -0.59782570  -0.00349052  1.0
