# generated using pymatgen
data_K2Cd(C2O5)2
_symmetry_space_group_name_H-M   'P 1'
_cell_length_a   9.47890274
_cell_length_b   8.87098431
_cell_length_c   11.76438998
_cell_angle_alpha   52.43670275
_cell_angle_beta   47.88862249
_cell_angle_gamma   79.67467476
_symmetry_Int_Tables_number   1
_chemical_formula_structural   K2Cd(C2O5)2
_chemical_formula_sum   'K4 Cd2 C8 O20'
_cell_volume   535.55292841
_cell_formula_units_Z   2
loop_
 _symmetry_equiv_pos_site_id
 _symmetry_equiv_pos_as_xyz
  1  'x, y, z'
loop_
 _atom_site_type_symbol
 _atom_site_label
 _atom_site_symmetry_multiplicity
 _atom_site_fract_x
 _atom_site_fract_y
 _atom_site_fract_z
 _atom_site_occupancy
  C  C0  1  0.23046027  0.21194573  0.54833414  1.0
  C  C1  1  0.70166586  0.24074014  0.01953973  1.0
  C  C2  1  0.21194573  0.23046027  0.00925986  1.0
  C  C3  1  0.24074014  0.70166586  0.03805427  1.0
  C  C4  1  0.07908822  -0.00928693  0.69030853  1.0
  C  C5  1  0.55969147  0.01010983  0.17091178  1.0
  C  C6  1  -0.00928693  0.07908822  0.23989017  1.0
  C  C7  1  0.01010983  0.55969147  0.25928693  1.0
  O  O8  1  0.24550961  0.24618294  0.62987622  1.0
  O  O9  1  0.62012378  0.37156877  0.00449039  1.0
  O  O10  1  0.24618294  0.24550961  -0.12156877  1.0
  O  O11  1  0.37156877  0.62012378  0.00381706  1.0
  O  O12  1  0.32889295  0.33583106  0.36165478  1.0
  O  O13  1  0.88834522  0.27637879  -0.07889295  1.0
  O  O14  1  0.33583106  0.32889295  -0.02637879  1.0
  O  O15  1  0.27637879  0.88834522  -0.08583106  1.0
  O  O16  1  0.06153177  -0.04632944  0.61206957  1.0
  O  O17  1  0.63793043  -0.12272810  0.18846823  1.0
  O  O18  1  -0.04632944  0.06153177  0.37272810  1.0
  O  O19  1  -0.12272810  0.63793043  0.29632944  1.0
  O  O20  1  0.91477244  0.52486517  0.03314678  1.0
  O  O21  1  1.21685322  0.72278439  -0.66477244  1.0
  O  O22  1  0.52486517  0.91477244  -0.47278439  1.0
  O  O23  1  0.72278439  1.21685322  -0.27486517  1.0
  O  O24  1  0.37218925  -0.02419119  0.26564432  1.0
  O  O25  1  -0.02419119  0.37218925  0.38635762  1.0
  O  O26  1  0.86364238  0.98435568  -0.72580881  1.0
  O  O27  1  0.98435568  0.86364238  -0.12218925  1.0
  K  K28  1  0.60505129  0.72996665  0.02608868  1.0
  K  K29  1  1.22391132  0.61110663  -0.35505129  1.0
  K  K30  1  0.72996665  0.60505129  -0.36110663  1.0
  K  K31  1  0.61110663  1.22391132  -0.47996665  1.0
  Cd  Cd32  1  0.99592022  -0.00407978  0.00407978  1.0
  Cd  Cd33  1  0.24592022  0.24592022  0.25407978  1.0
