# generated using pymatgen
data_K2GeF6
_symmetry_space_group_name_H-M   'P 1'
_cell_length_a   5.86704787
_cell_length_b   5.86704787
_cell_length_c   9.58853903
_cell_angle_alpha   90.00000000
_cell_angle_beta   90.00000000
_cell_angle_gamma   120.00000000
_symmetry_Int_Tables_number   1
_chemical_formula_structural   K2GeF6
_chemical_formula_sum   'K4 Ge2 F12'
_cell_volume   285.83956094
_cell_formula_units_Z   2
loop_
 _symmetry_equiv_pos_site_id
 _symmetry_equiv_pos_as_xyz
  1  'x, y, z'
loop_
 _atom_site_type_symbol
 _atom_site_label
 _atom_site_symmetry_multiplicity
 _atom_site_fract_x
 _atom_site_fract_y
 _atom_site_fract_z
 _atom_site_occupancy
  K  K0  1  0.33333333  0.66666667  0.26083035  1.0
  K  K1  1  0.66666667  0.33333333  0.76083035  1.0
  K  K2  1  0.00000000  0.00000000  -0.01690833  1.0
  K  K3  1  0.00000000  0.00000000  0.48309167  1.0
  Ge  Ge4  1  0.33333333  0.66666667  0.64782778  1.0
  Ge  Ge5  1  0.66666667  0.33333333  0.14782778  1.0
  F  F6  1  0.95955038  0.47977519  0.03567600  1.0
  F  F7  1  0.47977519  0.95955038  0.53567600  1.0
  F  F8  1  0.47977519  0.52022481  0.53567600  1.0
  F  F9  1  0.52022481  0.47977519  0.03567600  1.0
  F  F10  1  0.52022481  0.04044962  0.03567600  1.0
  F  F11  1  0.04044962  0.52022481  0.53567600  1.0
  F  F12  1  0.36638031  0.18319015  0.25374073  1.0
  F  F13  1  0.18319015  0.36638031  0.75374073  1.0
  F  F14  1  0.18319015  0.81680985  0.75374073  1.0
  F  F15  1  0.81680985  0.18319015  0.25374073  1.0
  F  F16  1  0.81680985  0.63361969  0.25374073  1.0
  F  F17  1  0.63361969  0.81680985  0.75374073  1.0
