# generated using pymatgen
data_B2Ru
_symmetry_space_group_name_H-M   'P 1'
_cell_length_a   2.87405413
_cell_length_b   4.65192064
_cell_length_c   4.04823514
_cell_angle_alpha   90.00000000
_cell_angle_beta   90.00000000
_cell_angle_gamma   90.00000000
_symmetry_Int_Tables_number   1
_chemical_formula_structural   B2Ru
_chemical_formula_sum   'B4 Ru2'
_cell_volume   54.12438470
_cell_formula_units_Z   2
loop_
 _symmetry_equiv_pos_site_id
 _symmetry_equiv_pos_as_xyz
  1  'x, y, z'
loop_
 _atom_site_type_symbol
 _atom_site_label
 _atom_site_symmetry_multiplicity
 _atom_site_fract_x
 _atom_site_fract_y
 _atom_site_fract_z
 _atom_site_occupancy
  B  B0  1  0.50000000  0.69577378  0.13641319  1.0
  B  B1  1  0.50000000  0.30422622  0.13641319  1.0
  B  B2  1  0.00000000  0.19577378  0.86358681  1.0
  B  B3  1  0.00000000  0.80422622  0.86358681  1.0
  Ru  Ru4  1  0.50000000  0.50000000  0.65200660  1.0
  Ru  Ru5  1  0.00000000  0.00000000  0.34799340  1.0
