# generated using pymatgen
data_CClF3
_symmetry_space_group_name_H-M   'P 1'
_cell_length_a   6.51759717
_cell_length_b   6.51759717
_cell_length_c   5.21834109
_cell_angle_alpha   90.00000000
_cell_angle_beta   90.00000000
_cell_angle_gamma   104.15230920
_symmetry_Int_Tables_number   1
_chemical_formula_structural   CClF3
_chemical_formula_sum   'C2 Cl2 F6'
_cell_volume   214.94242002
_cell_formula_units_Z   2
loop_
 _symmetry_equiv_pos_site_id
 _symmetry_equiv_pos_as_xyz
  1  'x, y, z'
loop_
 _atom_site_type_symbol
 _atom_site_label
 _atom_site_symmetry_multiplicity
 _atom_site_fract_x
 _atom_site_fract_y
 _atom_site_fract_z
 _atom_site_occupancy
  C  C0  1  0.30724725  0.69275275  -0.00179791  1.0
  C  C1  1  -0.30724725  1.30724725  0.49820209  1.0
  Cl  Cl2  1  0.14064991  0.85935009  0.91639713  1.0
  Cl  Cl3  1  -0.14064991  1.14064991  0.41639713  1.0
  F  F4  1  0.32214929  0.67785071  0.25507663  1.0
  F  F5  1  -0.32214929  1.32214929  0.75507663  1.0
  F  F6  1  0.23006370  0.49669564  0.90241207  1.0
  F  F7  1  0.50330436  0.76993630  0.90241207  1.0
  F  F8  1  -0.23006370  1.50330436  0.40241207  1.0
  F  F9  1  -0.50330436  1.23006370  0.40241207  1.0
