# generated using pymatgen
data_Rb3Te(PO7)2
_symmetry_space_group_name_H-M   'P 1'
_cell_length_a   8.95907210
_cell_length_b   7.13671682
_cell_length_c   12.02827180
_cell_angle_alpha   90.00000000
_cell_angle_beta   93.34284635
_cell_angle_gamma   90.00000000
_symmetry_Int_Tables_number   1
_chemical_formula_structural   Rb3Te(PO7)2
_chemical_formula_sum   'Rb6 Te2 P4 O28'
_cell_volume   767.75940289
_cell_formula_units_Z   2
loop_
 _symmetry_equiv_pos_site_id
 _symmetry_equiv_pos_as_xyz
  1  'x, y, z'
loop_
 _atom_site_type_symbol
 _atom_site_label
 _atom_site_symmetry_multiplicity
 _atom_site_fract_x
 _atom_site_fract_y
 _atom_site_fract_z
 _atom_site_occupancy
  Rb  Rb0  1  0.79592614  0.48248125  0.17334053  1.0
  Rb  Rb1  1  0.79592614  0.01751875  0.67334053  1.0
  Rb  Rb2  1  0.20407386  0.98248125  0.32665947  1.0
  Rb  Rb3  1  0.20407386  0.51751875  0.82665947  1.0
  Rb  Rb4  1  0.50000000  0.50000000  0.50000000  1.0
  Rb  Rb5  1  0.50000000  0.00000000  -0.00000000  1.0
  Te  Te6  1  -0.00000000  0.50000000  0.50000000  1.0
  Te  Te7  1  0.00000000  0.00000000  0.00000000  1.0
  P  P8  1  0.66547136  0.99624830  0.34397810  1.0
  P  P9  1  0.66547136  0.50375170  0.84397810  1.0
  P  P10  1  0.33452864  0.49624830  0.15602190  1.0
  P  P11  1  0.33452864  0.00375170  0.65602190  1.0
  O  O12  1  0.98784989  0.13679069  0.14185648  1.0
  O  O13  1  0.98784989  0.36320931  0.64185648  1.0
  O  O14  1  0.01215011  0.63679069  0.35814352  1.0
  O  O15  1  0.01215011  0.86320931  0.85814352  1.0
  O  O16  1  0.84625338  0.85621950  0.07514071  1.0
  O  O17  1  0.84625338  0.64378050  0.57514071  1.0
  O  O18  1  0.15374662  0.35621950  0.42485929  1.0
  O  O19  1  0.15374662  0.14378050  0.92485929  1.0
  O  O20  1  0.80899949  0.38853671  0.44137525  1.0
  O  O21  1  0.80899949  0.11146329  0.94137525  1.0
  O  O22  1  0.19100051  0.88853671  0.05862475  1.0
  O  O23  1  0.19100051  0.61146329  0.55862475  1.0
  O  O24  1  0.81023574  0.00923666  0.42083712  1.0
  O  O25  1  0.81023574  0.49076334  0.92083712  1.0
  O  O26  1  0.18976426  0.50923666  0.07916288  1.0
  O  O27  1  0.18976426  0.99076334  0.57916288  1.0
  O  O28  1  0.67162600  0.10408864  0.23220348  1.0
  O  O29  1  0.67162600  0.39591136  0.73220348  1.0
  O  O30  1  0.32837400  0.60408864  0.26779652  1.0
  O  O31  1  0.32837400  0.89591136  0.76779652  1.0
  O  O32  1  0.52741945  0.09160915  0.39162738  1.0
  O  O33  1  0.52741945  0.40839085  0.89162738  1.0
  O  O34  1  0.47258055  0.59160915  0.10837262  1.0
  O  O35  1  0.47258055  0.90839085  0.60837262  1.0
  O  O36  1  0.35057412  0.28130742  0.16989122  1.0
  O  O37  1  0.35057412  0.21869258  0.66989122  1.0
  O  O38  1  0.64942588  0.78130742  0.33010878  1.0
  O  O39  1  0.64942588  0.71869258  0.83010878  1.0
