# generated using pymatgen
data_Ca9Zn4Bi9
_symmetry_space_group_name_H-M   'P 1'
_cell_length_a   12.71862874
_cell_length_b   22.14367099
_cell_length_c   4.67948813
_cell_angle_alpha   90.00000000
_cell_angle_beta   90.00000000
_cell_angle_gamma   90.00000000
_symmetry_Int_Tables_number   1
_chemical_formula_structural   Ca9Zn4Bi9
_chemical_formula_sum   'Ca18 Zn8 Bi18'
_cell_volume   1317.91760802
_cell_formula_units_Z   2
loop_
 _symmetry_equiv_pos_site_id
 _symmetry_equiv_pos_as_xyz
  1  'x, y, z'
loop_
 _atom_site_type_symbol
 _atom_site_label
 _atom_site_symmetry_multiplicity
 _atom_site_fract_x
 _atom_site_fract_y
 _atom_site_fract_z
 _atom_site_occupancy
  Ca  Ca0  1  0.42465814  0.91195327  0.50000000  1.0
  Ca  Ca1  1  0.92465814  0.58804673  0.50000000  1.0
  Ca  Ca2  1  0.57534186  0.08804673  0.50000000  1.0
  Ca  Ca3  1  0.07534186  0.41195327  0.50000000  1.0
  Ca  Ca4  1  0.36999302  0.73440111  0.50000000  1.0
  Ca  Ca5  1  0.86999302  0.76559889  0.50000000  1.0
  Ca  Ca6  1  0.63000698  0.26559889  0.50000000  1.0
  Ca  Ca7  1  0.13000698  0.23440111  0.50000000  1.0
  Ca  Ca8  1  0.12827429  0.86282911  0.50000000  1.0
  Ca  Ca9  1  0.62827429  0.63717089  0.50000000  1.0
  Ca  Ca10  1  0.87172571  0.13717089  0.50000000  1.0
  Ca  Ca11  1  0.37172571  0.36282911  0.50000000  1.0
  Ca  Ca12  1  0.20085008  0.60145801  -0.00000000  1.0
  Ca  Ca13  1  0.70085008  0.89854199  0.00000000  1.0
  Ca  Ca14  1  0.79914992  0.39854199  -0.00000000  1.0
  Ca  Ca15  1  0.29914992  0.10145801  0.00000000  1.0
  Ca  Ca16  1  0.50000000  0.50000000  0.00000000  1.0
  Ca  Ca17  1  0.00000000  0.00000000  0.00000000  1.0
  Zn  Zn18  1  0.26836041  0.95364327  0.00000000  1.0
  Zn  Zn19  1  0.76836041  0.54635673  -0.00000000  1.0
  Zn  Zn20  1  0.73163959  0.04635673  0.00000000  1.0
  Zn  Zn21  1  0.23163959  0.45364327  -0.00000000  1.0
  Zn  Zn22  1  0.10843135  0.76365297  -0.00000000  1.0
  Zn  Zn23  1  0.60843135  0.73634703  -0.00000000  1.0
  Zn  Zn24  1  0.89156865  0.23634703  -0.00000000  1.0
  Zn  Zn25  1  0.39156865  0.26365297  -0.00000000  1.0
  Bi  Bi26  1  0.31040572  0.51049652  0.50000000  1.0
  Bi  Bi27  1  0.81040572  0.98950348  0.50000000  1.0
  Bi  Bi28  1  0.68959428  0.48950348  0.50000000  1.0
  Bi  Bi29  1  0.18959428  0.01049652  0.50000000  1.0
  Bi  Bi30  1  0.10940754  0.69364539  0.50000000  1.0
  Bi  Bi31  1  0.60940754  0.80635461  0.50000000  1.0
  Bi  Bi32  1  0.89059246  0.30635461  0.50000000  1.0
  Bi  Bi33  1  0.39059246  0.19364539  0.50000000  1.0
  Bi  Bi34  1  0.45046142  0.64445673  0.00000000  1.0
  Bi  Bi35  1  0.95046142  0.85554327  -0.00000000  1.0
  Bi  Bi36  1  0.54953858  0.35554327  -0.00000000  1.0
  Bi  Bi37  1  0.04953858  0.14445673  -0.00000000  1.0
  Bi  Bi38  1  0.30628547  0.82992241  -0.00000000  1.0
  Bi  Bi39  1  0.80628547  0.67007759  0.00000000  1.0
  Bi  Bi40  1  0.69371453  0.17007759  -0.00000000  1.0
  Bi  Bi41  1  0.19371453  0.32992241  0.00000000  1.0
  Bi  Bi42  1  0.50000000  0.00000000  0.00000000  1.0
  Bi  Bi43  1  0.00000000  0.50000000  -0.00000000  1.0
