# generated using pymatgen
data_K3Y(BO3)2
_symmetry_space_group_name_H-M   'P 1'
_cell_length_a   6.89758908
_cell_length_b   9.40824515
_cell_length_c   5.56825162
_cell_angle_alpha   90.00000000
_cell_angle_beta   90.00000000
_cell_angle_gamma   90.00000000
_symmetry_Int_Tables_number   1
_chemical_formula_structural   K3Y(BO3)2
_chemical_formula_sum   'K6 Y2 B4 O12'
_cell_volume   361.34728415
_cell_formula_units_Z   2
loop_
 _symmetry_equiv_pos_site_id
 _symmetry_equiv_pos_as_xyz
  1  'x, y, z'
loop_
 _atom_site_type_symbol
 _atom_site_label
 _atom_site_symmetry_multiplicity
 _atom_site_fract_x
 _atom_site_fract_y
 _atom_site_fract_z
 _atom_site_occupancy
  K  K0  1  0.22805311  0.16743145  0.50000000  1.0
  K  K1  1  0.72805311  0.33256855  0.00000000  1.0
  K  K2  1  0.77194689  0.83256855  0.50000000  1.0
  K  K3  1  0.27194689  0.66743145  0.00000000  1.0
  K  K4  1  0.50000000  0.00000000  0.00000000  1.0
  K  K5  1  0.00000000  0.50000000  0.50000000  1.0
  Y  Y6  1  0.50000000  0.50000000  0.50000000  1.0
  Y  Y7  1  0.00000000  0.00000000  0.00000000  1.0
  B  B8  1  0.23576452  0.83355144  0.50000000  1.0
  B  B9  1  0.73576452  0.66644856  0.00000000  1.0
  B  B10  1  0.76423548  0.16644856  0.50000000  1.0
  B  B11  1  0.26423548  0.33355144  0.00000000  1.0
  O  O12  1  0.19864320  0.90266429  0.28351135  1.0
  O  O13  1  0.19864320  0.90266429  0.71648865  1.0
  O  O14  1  0.69864320  0.59733571  0.78351135  1.0
  O  O15  1  0.69864320  0.59733571  0.21648865  1.0
  O  O16  1  0.80135680  0.09733571  0.28351135  1.0
  O  O17  1  0.80135680  0.09733571  0.71648865  1.0
  O  O18  1  0.30135680  0.40266429  0.78351135  1.0
  O  O19  1  0.30135680  0.40266429  0.21648865  1.0
  O  O20  1  0.30788372  0.69525179  0.50000000  1.0
  O  O21  1  0.80788372  0.80474821  0.00000000  1.0
  O  O22  1  0.69211628  0.30474821  0.50000000  1.0
  O  O23  1  0.19211628  0.19525179  0.00000000  1.0
