# generated using pymatgen
data_BaReH9
_symmetry_space_group_name_H-M   'P 1'
_cell_length_a   4.82873451
_cell_length_b   4.82873451
_cell_length_c   4.82873451
_cell_angle_alpha   96.00057332
_cell_angle_beta   96.00057332
_cell_angle_gamma   96.00057332
_symmetry_Int_Tables_number   1
_chemical_formula_structural   BaReH9
_chemical_formula_sum   'Ba1 Re1 H9'
_cell_volume   110.59817452
_cell_formula_units_Z   1
loop_
 _symmetry_equiv_pos_site_id
 _symmetry_equiv_pos_as_xyz
  1  'x, y, z'
loop_
 _atom_site_type_symbol
 _atom_site_label
 _atom_site_symmetry_multiplicity
 _atom_site_fract_x
 _atom_site_fract_y
 _atom_site_fract_z
 _atom_site_occupancy
  Ba  Ba0  1  0.00000000  0.00000000  0.00000000  1.0
  Re  Re1  1  0.50000000  0.50000000  0.50000000  1.0
  H  H2  1  0.73350533  0.50000000  0.26649467  1.0
  H  H3  1  1.26649467  -0.26649467  0.50000000  1.0
  H  H4  1  0.50000000  1.26649467  -0.26649467  1.0
  H  H5  1  0.82310194  1.48702136  -0.32389632  1.0
  H  H6  1  1.17689806  0.32389632  -0.48702136  1.0
  H  H7  1  0.67610368  0.82310194  0.48702136  1.0
  H  H8  1  0.51297864  0.17689806  0.32389632  1.0
  H  H9  1  1.48702136  0.67610368  -0.17689806  1.0
  H  H10  1  1.32389632  -0.48702136  0.17689806  1.0
