# generated using pymatgen
data_Li2Ga
_symmetry_space_group_name_H-M   'P 1'
_cell_length_a   5.25079188
_cell_length_b   5.25079188
_cell_length_c   4.34543424
_cell_angle_alpha   90.00000000
_cell_angle_beta   90.00000000
_cell_angle_gamma   129.27120419
_symmetry_Int_Tables_number   1
_chemical_formula_structural   Li2Ga
_chemical_formula_sum   'Li4 Ga2'
_cell_volume   92.74972767
_cell_formula_units_Z   2
loop_
 _symmetry_equiv_pos_site_id
 _symmetry_equiv_pos_as_xyz
  1  'x, y, z'
loop_
 _atom_site_type_symbol
 _atom_site_label
 _atom_site_symmetry_multiplicity
 _atom_site_fract_x
 _atom_site_fract_y
 _atom_site_fract_z
 _atom_site_occupancy
  Li  Li0  1  0.41329421  0.58670579  0.75000000  1.0
  Li  Li1  1  -0.41329421  0.41329421  0.25000000  1.0
  Li  Li2  1  -0.24102712  0.24102712  0.75000000  1.0
  Li  Li3  1  0.24102712  0.75897288  0.25000000  1.0
  Ga  Ga4  1  0.07903095  0.92096905  0.75000000  1.0
  Ga  Ga5  1  -0.07903095  0.07903095  0.25000000  1.0
