# generated using pymatgen
data_LiCaP
_symmetry_space_group_name_H-M   'P 1'
_cell_length_a   7.06324623
_cell_length_b   4.18542485
_cell_length_c   7.76221113
_cell_angle_alpha   90.00000000
_cell_angle_beta   90.00000000
_cell_angle_gamma   90.00000000
_symmetry_Int_Tables_number   1
_chemical_formula_structural   LiCaP
_chemical_formula_sum   'Li4 Ca4 P4'
_cell_volume   229.47181252
_cell_formula_units_Z   4
loop_
 _symmetry_equiv_pos_site_id
 _symmetry_equiv_pos_as_xyz
  1  'x, y, z'
loop_
 _atom_site_type_symbol
 _atom_site_label
 _atom_site_symmetry_multiplicity
 _atom_site_fract_x
 _atom_site_fract_y
 _atom_site_fract_z
 _atom_site_occupancy
  Li  Li0  1  0.85478928  0.75000000  0.06626103  1.0
  Li  Li1  1  0.35478928  0.75000000  0.43373897  1.0
  Li  Li2  1  0.14521072  0.25000000  0.93373897  1.0
  Li  Li3  1  0.64521072  0.25000000  0.56626103  1.0
  Ca  Ca4  1  0.98342315  0.75000000  0.69468248  1.0
  Ca  Ca5  1  0.48342315  0.75000000  0.80531752  1.0
  Ca  Ca6  1  0.01657685  0.25000000  0.30531752  1.0
  Ca  Ca7  1  0.51657685  0.25000000  0.19468248  1.0
  P  P8  1  0.73141941  0.75000000  0.39511487  1.0
  P  P9  1  0.23141941  0.75000000  0.10488513  1.0
  P  P10  1  0.26858059  0.25000000  0.60488513  1.0
  P  P11  1  0.76858059  0.25000000  0.89511487  1.0
