# generated using pymatgen
data_CrF4
_symmetry_space_group_name_H-M   'P 1'
_cell_length_a   9.47022636
_cell_length_b   9.47022636
_cell_length_c   7.34062163
_cell_angle_alpha   79.86352578
_cell_angle_beta   100.13647422
_cell_angle_gamma   113.01744091
_symmetry_Int_Tables_number   1
_chemical_formula_structural   CrF4
_chemical_formula_sum   'Cr8 F32'
_cell_volume   592.28551212
_cell_formula_units_Z   8
loop_
 _symmetry_equiv_pos_site_id
 _symmetry_equiv_pos_as_xyz
  1  'x, y, z'
loop_
 _atom_site_type_symbol
 _atom_site_label
 _atom_site_symmetry_multiplicity
 _atom_site_fract_x
 _atom_site_fract_y
 _atom_site_fract_z
 _atom_site_occupancy
  Cr  Cr0  1  1.82252951  0.17388834  0.40329805  1.0
  Cr  Cr1  1  0.82611166  -0.82252951  0.90329805  1.0
  Cr  Cr2  1  1.17388834  0.82252951  0.09670195  1.0
  Cr  Cr3  1  0.17747049  -0.17388834  0.59670195  1.0
  Cr  Cr4  1  1.24823510  0.24510540  0.49799464  1.0
  Cr  Cr5  1  0.75489460  -0.24823510  0.99799464  1.0
  Cr  Cr6  1  1.24510540  0.24823510  0.00200536  1.0
  Cr  Cr7  1  0.75176490  -0.24510540  0.50200536  1.0
  F  F8  1  0.83785186  -0.02680758  0.40735009  1.0
  F  F9  1  1.02680758  0.16214814  0.90735009  1.0
  F  F10  1  0.97319242  -0.16214814  0.09264991  1.0
  F  F11  1  1.16214814  0.02680758  0.59264991  1.0
  F  F12  1  0.77311468  -0.03956432  1.00447615  1.0
  F  F13  1  1.03956432  0.22688532  0.50447615  1.0
  F  F14  1  0.96043568  -0.22688532  0.49552385  1.0
  F  F15  1  1.22688532  0.03956432  -0.00447615  1.0
  F  F16  1  0.57553839  -0.22893169  0.48975472  1.0
  F  F17  1  1.22893169  0.42446161  0.98975472  1.0
  F  F18  1  0.77106831  -0.42446161  0.01024528  1.0
  F  F19  1  1.42446161  0.22893169  0.51024528  1.0
  F  F20  1  0.36140071  -0.15798343  0.09225387  1.0
  F  F21  1  1.15798343  0.63859929  0.59225387  1.0
  F  F22  1  0.84201657  -0.63859929  0.40774613  1.0
  F  F23  1  1.63859929  0.15798343  0.90774613  1.0
  F  F24  1  1.63028136  0.09500008  0.32033491  1.0
  F  F25  1  0.90499992  -0.63028136  0.82033491  1.0
  F  F26  1  1.09500008  0.63028136  0.17966509  1.0
  F  F27  1  0.36971864  -0.09500008  0.67966509  1.0
  F  F28  1  0.22577884  -0.11375422  0.34345787  1.0
  F  F29  1  1.11375422  0.77422116  0.84345787  1.0
  F  F30  1  0.88624578  -0.77422116  0.15654213  1.0
  F  F31  1  1.77422116  0.11375422  0.65654213  1.0
  F  F32  1  1.29877022  0.43794511  0.41517289  1.0
  F  F33  1  0.56205489  -0.29877022  0.91517289  1.0
  F  F34  1  1.43794511  0.29877022  0.08482711  1.0
  F  F35  1  0.70122978  -0.43794511  0.58482711  1.0
  F  F36  1  0.70413608  -0.29586392  0.25000000  1.0
  F  F37  1  1.29586392  0.29586392  0.75000000  1.0
  F  F38  1  1.18666798  0.18666798  0.25000000  1.0
  F  F39  1  0.81333202  -0.18666798  0.75000000  1.0
