# generated using pymatgen
data_Lu2B6Rh
_symmetry_space_group_name_H-M   'P 1'
_cell_length_a   9.06640052
_cell_length_b   11.39101932
_cell_length_c   3.57338365
_cell_angle_alpha   90.00000000
_cell_angle_beta   90.00000000
_cell_angle_gamma   90.00000000
_symmetry_Int_Tables_number   1
_chemical_formula_structural   Lu2B6Rh
_chemical_formula_sum   'Lu8 B24 Rh4'
_cell_volume   369.04313909
_cell_formula_units_Z   4
loop_
 _symmetry_equiv_pos_site_id
 _symmetry_equiv_pos_as_xyz
  1  'x, y, z'
loop_
 _atom_site_type_symbol
 _atom_site_label
 _atom_site_symmetry_multiplicity
 _atom_site_fract_x
 _atom_site_fract_y
 _atom_site_fract_z
 _atom_site_occupancy
  Lu  Lu0  1  0.17891587  0.91366936  0.50000000  1.0
  Lu  Lu1  1  0.67891587  0.58633064  0.50000000  1.0
  Lu  Lu2  1  0.82108413  0.08633064  0.50000000  1.0
  Lu  Lu3  1  0.32108413  0.41366936  0.50000000  1.0
  Lu  Lu4  1  0.05583874  0.62627380  0.50000000  1.0
  Lu  Lu5  1  0.55583874  0.87372620  0.50000000  1.0
  Lu  Lu6  1  0.94416126  0.37372620  0.50000000  1.0
  Lu  Lu7  1  0.44416126  0.12627380  0.50000000  1.0
  B  B8  1  0.20530357  0.73648945  0.00000000  1.0
  B  B9  1  0.70530357  0.76351055  0.00000000  1.0
  B  B10  1  0.79469643  0.26351055  0.00000000  1.0
  B  B11  1  0.29469643  0.23648945  0.00000000  1.0
  B  B12  1  0.44679117  0.56500215  0.00000000  1.0
  B  B13  1  0.94679117  0.93499785  0.00000000  1.0
  B  B14  1  0.55320883  0.43499785  0.00000000  1.0
  B  B15  1  0.05320883  0.06500215  0.00000000  1.0
  B  B16  1  0.39251151  0.97071949  0.00000000  1.0
  B  B17  1  0.89251151  0.52928051  0.00000000  1.0
  B  B18  1  0.60748849  0.02928051  0.00000000  1.0
  B  B19  1  0.10748849  0.47071949  0.00000000  1.0
  B  B20  1  0.36761217  0.81677866  0.00000000  1.0
  B  B21  1  0.86761217  0.68322134  0.00000000  1.0
  B  B22  1  0.63238783  0.18322134  0.00000000  1.0
  B  B23  1  0.13238783  0.31677866  0.00000000  1.0
  B  B24  1  0.24986434  0.57917028  0.00000000  1.0
  B  B25  1  0.74986434  0.92082972  0.00000000  1.0
  B  B26  1  0.75013566  0.42082972  0.00000000  1.0
  B  B27  1  0.25013566  0.07917028  0.00000000  1.0
  B  B28  1  0.01890189  0.78728633  0.00000000  1.0
  B  B29  1  0.51890189  0.71271367  0.00000000  1.0
  B  B30  1  0.98109811  0.21271367  0.00000000  1.0
  B  B31  1  0.48109811  0.28728633  0.00000000  1.0
  Rh  Rh32  1  0.36068783  0.67912546  0.50000000  1.0
  Rh  Rh33  1  0.86068783  0.82087454  0.50000000  1.0
  Rh  Rh34  1  0.63931217  0.32087454  0.50000000  1.0
  Rh  Rh35  1  0.13931217  0.17912546  0.50000000  1.0
