# generated using pymatgen
data_Ba3In2Cl2O5
_symmetry_space_group_name_H-M   'P 1'
_cell_length_a   13.11014452
_cell_length_b   13.11014452
_cell_length_c   13.11014452
_cell_angle_alpha   161.14078594
_cell_angle_beta   161.14078594
_cell_angle_gamma   26.79420725
_symmetry_Int_Tables_number   1
_chemical_formula_structural   Ba3In2Cl2O5
_chemical_formula_sum   'Ba3 In2 Cl2 O5'
_cell_volume   235.35192529
_cell_formula_units_Z   1
loop_
 _symmetry_equiv_pos_site_id
 _symmetry_equiv_pos_as_xyz
  1  'x, y, z'
loop_
 _atom_site_type_symbol
 _atom_site_label
 _atom_site_symmetry_multiplicity
 _atom_site_fract_x
 _atom_site_fract_y
 _atom_site_fract_z
 _atom_site_occupancy
  Ba  Ba0  1  0.66049191  0.66049191  1.00000000  1.0
  Ba  Ba1  1  0.33950809  0.33950809  0.00000000  1.0
  Ba  Ba2  1  0.50000000  0.50000000  1.00000000  1.0
  In  In3  1  0.91777179  0.91777179  1.00000000  1.0
  In  In4  1  0.08222821  0.08222821  0.00000000  1.0
  Cl  Cl5  1  0.79557992  0.79557992  1.00000000  1.0
  Cl  Cl6  1  0.20442008  0.20442008  0.00000000  1.0
  O  O7  1  0.40612396  0.90612396  0.50000000  1.0
  O  O8  1  0.59387604  0.09387604  0.50000000  1.0
  O  O9  1  0.90612396  0.40612396  0.50000000  1.0
  O  O10  1  0.09387604  0.59387604  0.50000000  1.0
  O  O11  1  0.00000000  0.00000000  0.00000000  1.0
