# generated using pymatgen
data_GdCoSi
_symmetry_space_group_name_H-M   'P 1'
_cell_length_a   4.09944753
_cell_length_b   4.09944753
_cell_length_c   6.56416577
_cell_angle_alpha   90.00000000
_cell_angle_beta   90.00000000
_cell_angle_gamma   90.00000000
_symmetry_Int_Tables_number   1
_chemical_formula_structural   GdCoSi
_chemical_formula_sum   'Gd2 Co2 Si2'
_cell_volume   110.31389137
_cell_formula_units_Z   2
loop_
 _symmetry_equiv_pos_site_id
 _symmetry_equiv_pos_as_xyz
  1  'x, y, z'
loop_
 _atom_site_type_symbol
 _atom_site_label
 _atom_site_symmetry_multiplicity
 _atom_site_fract_x
 _atom_site_fract_y
 _atom_site_fract_z
 _atom_site_occupancy
  Gd  Gd0  1  0.00000000  0.00000000  0.00000000  1.0
  Gd  Gd1  1  0.50000000  0.50000000  0.00000000  1.0
  Co  Co2  1  0.50000000  0.00000000  0.32847407  1.0
  Co  Co3  1  0.00000000  0.50000000  0.67152593  1.0
  Si  Si4  1  0.50000000  0.00000000  0.66513240  1.0
  Si  Si5  1  0.00000000  0.50000000  0.33486760  1.0
