# generated using pymatgen
data_SrTiO3
_symmetry_space_group_name_H-M   'P 1'
_cell_length_a   5.56668811
_cell_length_b   5.56668811
_cell_length_c   5.56668811
_cell_angle_alpha   120.13673270
_cell_angle_beta   120.13673270
_cell_angle_gamma   89.76333472
_symmetry_Int_Tables_number   1
_chemical_formula_structural   SrTiO3
_chemical_formula_sum   'Sr2 Ti2 O6'
_cell_volume   121.72314479
_cell_formula_units_Z   2
loop_
 _symmetry_equiv_pos_site_id
 _symmetry_equiv_pos_as_xyz
  1  'x, y, z'
loop_
 _atom_site_type_symbol
 _atom_site_label
 _atom_site_symmetry_multiplicity
 _atom_site_fract_x
 _atom_site_fract_y
 _atom_site_fract_z
 _atom_site_occupancy
  Sr  Sr0  1  0.75000000  0.25000000  0.50000000  1.0
  Sr  Sr1  1  0.25000000  0.75000000  0.50000000  1.0
  Ti  Ti2  1  0.50000000  0.50000000  0.00000000  1.0
  Ti  Ti3  1  0.00000000  0.00000000  0.00000000  1.0
  O  O4  1  0.77182501  0.27182501  1.04365002  1.0
  O  O5  1  0.72817499  0.77182501  0.50000000  1.0
  O  O6  1  0.27182501  0.22817499  0.50000000  1.0
  O  O7  1  1.22817499  0.72817499  0.95634998  1.0
  O  O8  1  0.25000000  0.25000000  0.00000000  1.0
  O  O9  1  0.75000000  0.75000000  0.00000000  1.0
