# generated using pymatgen
data_Ba7Ga4As9
_symmetry_space_group_name_H-M   'P 1'
_cell_length_a   10.27307223
_cell_length_b   17.30939732
_cell_length_c   6.86044056
_cell_angle_alpha   90.00000000
_cell_angle_beta   90.00000000
_cell_angle_gamma   90.00000000
_symmetry_Int_Tables_number   1
_chemical_formula_structural   Ba7Ga4As9
_chemical_formula_sum   'Ba14 Ga8 As18'
_cell_volume   1219.92826693
_cell_formula_units_Z   2
loop_
 _symmetry_equiv_pos_site_id
 _symmetry_equiv_pos_as_xyz
  1  'x, y, z'
loop_
 _atom_site_type_symbol
 _atom_site_label
 _atom_site_symmetry_multiplicity
 _atom_site_fract_x
 _atom_site_fract_y
 _atom_site_fract_z
 _atom_site_occupancy
  Ba  Ba0  1  0.50000000  0.78215981  0.45169270  1.0
  Ba  Ba1  1  0.50000000  0.21784019  0.45169270  1.0
  Ba  Ba2  1  0.00000000  0.71784019  0.54830730  1.0
  Ba  Ba3  1  0.00000000  0.28215981  0.54830730  1.0
  Ba  Ba4  1  0.27707411  0.87502951  0.94679991  1.0
  Ba  Ba5  1  0.72292589  0.87502951  0.94679991  1.0
  Ba  Ba6  1  0.27707411  0.12497049  0.94679991  1.0
  Ba  Ba7  1  0.72292589  0.12497049  0.94679991  1.0
  Ba  Ba8  1  0.22292589  0.62497049  0.05320009  1.0
  Ba  Ba9  1  0.77707411  0.62497049  0.05320009  1.0
  Ba  Ba10  1  0.22292589  0.37502951  0.05320009  1.0
  Ba  Ba11  1  0.77707411  0.37502951  0.05320009  1.0
  Ba  Ba12  1  0.50000000  0.50000000  0.41137709  1.0
  Ba  Ba13  1  0.00000000  0.00000000  0.58862291  1.0
  Ga  Ga14  1  0.50000000  0.37586295  0.76673907  1.0
  Ga  Ga15  1  0.50000000  0.62413705  0.76673907  1.0
  Ga  Ga16  1  0.00000000  0.12413705  0.23326093  1.0
  Ga  Ga17  1  0.00000000  0.87586295  0.23326093  1.0
  Ga  Ga18  1  0.82431992  0.50000000  0.56915811  1.0
  Ga  Ga19  1  0.17568008  0.50000000  0.56915811  1.0
  Ga  Ga20  1  0.67568008  0.00000000  0.43084189  1.0
  Ga  Ga21  1  0.32431992  0.00000000  0.43084189  1.0
  As  As22  1  0.28989550  0.37124342  0.55834474  1.0
  As  As23  1  0.71010450  0.37124342  0.55834474  1.0
  As  As24  1  0.28989550  0.62875658  0.55834474  1.0
  As  As25  1  0.71010450  0.62875658  0.55834474  1.0
  As  As26  1  0.21010450  0.12875658  0.44165526  1.0
  As  As27  1  0.78989550  0.12875658  0.44165526  1.0
  As  As28  1  0.21010450  0.87124342  0.44165526  1.0
  As  As29  1  0.78989550  0.87124342  0.44165526  1.0
  As  As30  1  0.50000000  0.26171875  0.97999685  1.0
  As  As31  1  0.50000000  0.73828125  0.97999685  1.0
  As  As32  1  0.00000000  0.23828125  0.02000315  1.0
  As  As33  1  0.00000000  0.76171875  0.02000315  1.0
  As  As34  1  0.50000000  0.00000000  0.70117869  1.0
  As  As35  1  0.00000000  0.50000000  0.29882131  1.0
  As  As36  1  0.50000000  0.00000000  0.15995187  1.0
  As  As37  1  0.00000000  0.50000000  0.84004813  1.0
  As  As38  1  0.50000000  0.50000000  0.95715581  1.0
  As  As39  1  0.00000000  0.00000000  0.04284419  1.0
