# generated using pymatgen
data_Si4MoPt3
_symmetry_space_group_name_H-M   'P 1'
_cell_length_a   5.56444851
_cell_length_b   3.51469547
_cell_length_c   24.57631736
_cell_angle_alpha   90.00000000
_cell_angle_beta   90.00000000
_cell_angle_gamma   90.00000000
_symmetry_Int_Tables_number   1
_chemical_formula_structural   Si4MoPt3
_chemical_formula_sum   'Si16 Mo4 Pt12'
_cell_volume   480.64744375
_cell_formula_units_Z   4
loop_
 _symmetry_equiv_pos_site_id
 _symmetry_equiv_pos_as_xyz
  1  'x, y, z'
loop_
 _atom_site_type_symbol
 _atom_site_label
 _atom_site_symmetry_multiplicity
 _atom_site_fract_x
 _atom_site_fract_y
 _atom_site_fract_z
 _atom_site_occupancy
  Si  Si0  1  0.66944918  0.75000000  0.77397205  1.0
  Si  Si1  1  0.16944918  0.75000000  0.72602795  1.0
  Si  Si2  1  0.33055082  0.25000000  0.22602795  1.0
  Si  Si3  1  0.83055082  0.25000000  0.27397205  1.0
  Si  Si4  1  0.67944574  0.75000000  0.01950441  1.0
  Si  Si5  1  0.17944574  0.75000000  0.48049559  1.0
  Si  Si6  1  0.32055426  0.25000000  0.98049559  1.0
  Si  Si7  1  0.82055426  0.25000000  0.51950441  1.0
  Si  Si8  1  0.68005897  0.75000000  0.64595461  1.0
  Si  Si9  1  0.18005897  0.75000000  0.85404539  1.0
  Si  Si10  1  0.31994103  0.25000000  0.35404539  1.0
  Si  Si11  1  0.81994103  0.25000000  0.14595461  1.0
  Si  Si12  1  0.66030000  0.75000000  0.39018491  1.0
  Si  Si13  1  0.16030000  0.75000000  0.10981509  1.0
  Si  Si14  1  0.33970000  0.25000000  0.60981509  1.0
  Si  Si15  1  0.83970000  0.25000000  0.89018491  1.0
  Mo  Mo16  1  0.50425314  0.75000000  0.28985861  1.0
  Mo  Mo17  1  0.00425314  0.75000000  0.21014139  1.0
  Mo  Mo18  1  0.49574686  0.25000000  0.71014139  1.0
  Mo  Mo19  1  0.99574686  0.25000000  0.78985861  1.0
  Pt  Pt20  1  0.00336047  0.75000000  0.33008479  1.0
  Pt  Pt21  1  0.50336047  0.75000000  0.16991521  1.0
  Pt  Pt22  1  0.99663953  0.25000000  0.66991521  1.0
  Pt  Pt23  1  0.49663953  0.25000000  0.83008479  1.0
  Pt  Pt24  1  0.99722798  0.75000000  0.57457349  1.0
  Pt  Pt25  1  0.49722798  0.75000000  0.92542651  1.0
  Pt  Pt26  1  0.00277202  0.25000000  0.42542651  1.0
  Pt  Pt27  1  0.50277202  0.25000000  0.07457349  1.0
  Pt  Pt28  1  0.49689341  0.75000000  0.54834384  1.0
  Pt  Pt29  1  0.99689341  0.75000000  0.95165616  1.0
  Pt  Pt30  1  0.50310659  0.25000000  0.45165616  1.0
  Pt  Pt31  1  0.00310659  0.25000000  0.04834384  1.0
