# generated using pymatgen
data_Rh2O3
_symmetry_space_group_name_H-M   'P 1'
_cell_length_a   5.54909292
_cell_length_b   5.54909292
_cell_length_c   5.54909292
_cell_angle_alpha   55.63503900
_cell_angle_beta   55.63503900
_cell_angle_gamma   55.63503900
_symmetry_Int_Tables_number   1
_chemical_formula_structural   Rh2O3
_chemical_formula_sum   'Rh4 O6'
_cell_volume   108.58551209
_cell_formula_units_Z   2
loop_
 _symmetry_equiv_pos_site_id
 _symmetry_equiv_pos_as_xyz
  1  'x, y, z'
loop_
 _atom_site_type_symbol
 _atom_site_label
 _atom_site_symmetry_multiplicity
 _atom_site_fract_x
 _atom_site_fract_y
 _atom_site_fract_z
 _atom_site_occupancy
  Rh  Rh0  1  0.84928697  -0.15071303  -0.15071303  1.0
  Rh  Rh1  1  0.34928697  0.34928697  0.34928697  1.0
  Rh  Rh2  1  0.65071303  0.65071303  -0.34928697  1.0
  Rh  Rh3  1  1.15071303  0.15071303  0.15071303  1.0
  O  O4  1  0.45025359  0.75000000  0.04974641  1.0
  O  O5  1  0.95025359  -0.45025359  0.25000000  1.0
  O  O6  1  0.25000000  0.95025359  -0.45025359  1.0
  O  O7  1  0.75000000  1.04974641  -0.54974641  1.0
  O  O8  1  0.54974641  0.25000000  -0.04974641  1.0
  O  O9  1  1.04974641  0.45025359  -0.25000000  1.0
