# generated using pymatgen
data_KAuSe5
_symmetry_space_group_name_H-M   'P 1'
_cell_length_a   11.13622628
_cell_length_b   11.13622628
_cell_length_c   11.13622628
_cell_angle_alpha   130.74122012
_cell_angle_beta   118.43854385
_cell_angle_gamma   82.59630708
_symmetry_Int_Tables_number   1
_chemical_formula_structural   KAuSe5
_chemical_formula_sum   'K4 Au4 Se20'
_cell_volume   885.14185570
_cell_formula_units_Z   4
loop_
 _symmetry_equiv_pos_site_id
 _symmetry_equiv_pos_as_xyz
  1  'x, y, z'
loop_
 _atom_site_type_symbol
 _atom_site_label
 _atom_site_symmetry_multiplicity
 _atom_site_fract_x
 _atom_site_fract_y
 _atom_site_fract_z
 _atom_site_occupancy
  K  K0  1  0.50000000  0.50000000  -0.00000000  1.0
  K  K1  1  1.00000000  1.00000000  1.00000000  1.0
  K  K2  1  1.25000000  0.75000000  0.50000000  1.0
  K  K3  1  0.75000000  0.25000000  0.50000000  1.0
  Au  Au4  1  1.11942870  1.25000000  0.86942870  1.0
  Au  Au5  1  0.61942870  0.75000000  0.86942870  1.0
  Au  Au6  1  0.88057130  0.75000000  1.13057130  1.0
  Au  Au7  1  1.38057130  1.25000000  1.13057130  1.0
  Se  Se8  1  1.21984500  1.14436833  0.67467176  1.0
  Se  Se9  1  0.53030344  0.45482677  0.67467176  1.0
  Se  Se10  1  0.96969656  0.64436833  0.92452333  1.0
  Se  Se11  1  1.28015500  0.95482677  0.92452333  1.0
  Se  Se12  1  0.71984500  1.04517323  1.07547667  1.0
  Se  Se13  1  1.03030344  1.35563167  1.07547667  1.0
  Se  Se14  1  1.46969656  1.54517323  1.32532824  1.0
  Se  Se15  1  0.78015500  0.85563167  1.32532824  1.0
  Se  Se16  1  1.05925473  1.15516776  1.44532277  1.0
  Se  Se17  1  1.29015501  1.38606804  1.44532277  1.0
  Se  Se18  1  1.20984499  0.65516776  1.09591303  1.0
  Se  Se19  1  1.44074527  0.88606804  1.09591303  1.0
  Se  Se20  1  0.55925473  1.11393196  0.90408697  1.0
  Se  Se21  1  0.79015501  1.34483224  0.90408697  1.0
  Se  Se22  1  0.70984499  0.61393196  0.55467723  1.0
  Se  Se23  1  0.94074527  0.84483224  0.55467723  1.0
  Se  Se24  1  1.14503115  1.41630029  1.56133144  1.0
  Se  Se25  1  1.35496885  0.91630029  1.27126914  1.0
  Se  Se26  1  0.64503115  1.08369971  0.72873086  1.0
  Se  Se27  1  0.85496885  0.58369971  0.43866856  1.0
