# generated using pymatgen
data_Eu(ScSe2)2
_symmetry_space_group_name_H-M   'P 1'
_cell_length_a   12.14403074
_cell_length_b   3.93992890
_cell_length_c   14.25511262
_cell_angle_alpha   90.00000000
_cell_angle_beta   90.00000000
_cell_angle_gamma   90.00000000
_symmetry_Int_Tables_number   1
_chemical_formula_structural   Eu(ScSe2)2
_chemical_formula_sum   'Eu4 Sc8 Se16'
_cell_volume   682.05892328
_cell_formula_units_Z   4
loop_
 _symmetry_equiv_pos_site_id
 _symmetry_equiv_pos_as_xyz
  1  'x, y, z'
loop_
 _atom_site_type_symbol
 _atom_site_label
 _atom_site_symmetry_multiplicity
 _atom_site_fract_x
 _atom_site_fract_y
 _atom_site_fract_z
 _atom_site_occupancy
  Eu  Eu0  1  0.76134326  0.75000000  0.66955957  1.0
  Eu  Eu1  1  0.26134326  0.75000000  0.83044043  1.0
  Eu  Eu2  1  0.23865674  0.25000000  0.33044043  1.0
  Eu  Eu3  1  0.73865674  0.25000000  0.16955957  1.0
  Sc  Sc4  1  0.91624748  0.75000000  0.40436021  1.0
  Sc  Sc5  1  0.41624748  0.75000000  0.09563979  1.0
  Sc  Sc6  1  0.08375252  0.25000000  0.59563979  1.0
  Sc  Sc7  1  0.58375252  0.25000000  0.90436021  1.0
  Sc  Sc8  1  0.44364591  0.75000000  0.61139265  1.0
  Sc  Sc9  1  0.94364591  0.75000000  0.88860735  1.0
  Sc  Sc10  1  0.55635409  0.25000000  0.38860735  1.0
  Sc  Sc11  1  0.05635409  0.25000000  0.11139265  1.0
  Se  Se12  1  0.90701757  0.75000000  0.07506887  1.0
  Se  Se13  1  0.40701757  0.75000000  0.42493113  1.0
  Se  Se14  1  0.09298243  0.25000000  0.92493113  1.0
  Se  Se15  1  0.59298243  0.25000000  0.57506887  1.0
  Se  Se16  1  0.70279894  0.75000000  0.33508125  1.0
  Se  Se17  1  0.20279894  0.75000000  0.16491875  1.0
  Se  Se18  1  0.29720106  0.25000000  0.66491875  1.0
  Se  Se19  1  0.79720106  0.25000000  0.83508125  1.0
  Se  Se20  1  0.62655678  0.75000000  0.03210431  1.0
  Se  Se21  1  0.12655678  0.75000000  0.46789569  1.0
  Se  Se22  1  0.37344322  0.25000000  0.96789569  1.0
  Se  Se23  1  0.87344322  0.25000000  0.53210431  1.0
  Se  Se24  1  0.53074818  0.75000000  0.78532717  1.0
  Se  Se25  1  0.03074818  0.75000000  0.71467283  1.0
  Se  Se26  1  0.46925182  0.25000000  0.21467283  1.0
  Se  Se27  1  0.96925182  0.25000000  0.28532717  1.0
