# generated using pymatgen
data_Sr(Li2P)2
_symmetry_space_group_name_H-M   'P 1'
_cell_length_a   8.22201953
_cell_length_b   8.22201953
_cell_length_c   8.22201953
_cell_angle_alpha   30.20083343
_cell_angle_beta   30.20083343
_cell_angle_gamma   30.20083343
_symmetry_Int_Tables_number   1
_chemical_formula_structural   Sr(Li2P)2
_chemical_formula_sum   'Sr1 Li4 P2'
_cell_volume   124.61897380
_cell_formula_units_Z   1
loop_
 _symmetry_equiv_pos_site_id
 _symmetry_equiv_pos_as_xyz
  1  'x, y, z'
loop_
 _atom_site_type_symbol
 _atom_site_label
 _atom_site_symmetry_multiplicity
 _atom_site_fract_x
 _atom_site_fract_y
 _atom_site_fract_z
 _atom_site_occupancy
  Sr  Sr0  1  0.00000000  0.00000000  0.00000000  1.0
  Li  Li1  1  0.86215140  0.86215140  0.86215140  1.0
  Li  Li2  1  1.13784860  1.13784860  0.13784860  1.0
  Li  Li3  1  1.56947194  0.56947194  0.56947194  1.0
  Li  Li4  1  1.43052806  0.43052806  0.43052806  1.0
  P  P5  1  0.75424689  0.75424689  0.75424689  1.0
  P  P6  1  1.24575311  1.24575311  0.24575311  1.0
