# generated using pymatgen
data_TlPO4
_symmetry_space_group_name_H-M   'P 1'
_cell_length_a   4.97318112
_cell_length_b   4.97318112
_cell_length_c   7.26120584
_cell_angle_alpha   90.00000000
_cell_angle_beta   90.00000000
_cell_angle_gamma   112.71445730
_symmetry_Int_Tables_number   1
_chemical_formula_structural   TlPO4
_chemical_formula_sum   'Tl2 P2 O8'
_cell_volume   165.65927286
_cell_formula_units_Z   2
loop_
 _symmetry_equiv_pos_site_id
 _symmetry_equiv_pos_as_xyz
  1  'x, y, z'
loop_
 _atom_site_type_symbol
 _atom_site_label
 _atom_site_symmetry_multiplicity
 _atom_site_fract_x
 _atom_site_fract_y
 _atom_site_fract_z
 _atom_site_occupancy
  Tl  Tl0  1  0.00000000  0.00000000  0.50000000  1.0
  Tl  Tl1  1  0.00000000  0.00000000  0.00000000  1.0
  P  P2  1  0.35026267  0.64973733  0.25000000  1.0
  P  P3  1  -0.35026267  1.35026267  0.75000000  1.0
  O  O4  1  0.22914031  0.30508199  0.25000000  1.0
  O  O5  1  -0.69491801  1.22914031  0.75000000  1.0
  O  O6  1  0.69491801  0.77085969  0.25000000  1.0
  O  O7  1  -0.22914031  1.69491801  0.75000000  1.0
  O  O8  1  0.25453669  0.74546331  0.43242195  1.0
  O  O9  1  0.25453669  0.74546331  0.06757805  1.0
  O  O10  1  -0.25453669  1.25453669  0.93242195  1.0
  O  O11  1  -0.25453669  1.25453669  0.56757805  1.0
