# generated using pymatgen
data_Be4Si2H2O9
_symmetry_space_group_name_H-M   'P 1'
_cell_length_a   8.87946933
_cell_length_b   8.87946933
_cell_length_c   4.61517745
_cell_angle_alpha   90.00000000
_cell_angle_beta   90.00000000
_cell_angle_gamma   120.63482358
_symmetry_Int_Tables_number   1
_chemical_formula_structural   Be4Si2H2O9
_chemical_formula_sum   'Be8 Si4 H4 O18'
_cell_volume   313.09722803
_cell_formula_units_Z   2
loop_
 _symmetry_equiv_pos_site_id
 _symmetry_equiv_pos_as_xyz
  1  'x, y, z'
loop_
 _atom_site_type_symbol
 _atom_site_label
 _atom_site_symmetry_multiplicity
 _atom_site_fract_x
 _atom_site_fract_y
 _atom_site_fract_z
 _atom_site_occupancy
  Be  Be0  1  -0.12060566  0.77447005  0.56324400  1.0
  Be  Be1  1  0.77447005  0.87939434  0.06324400  1.0
  Be  Be2  1  0.22552995  1.12060566  0.56324400  1.0
  Be  Be3  1  0.12060566  0.22552995  0.06324400  1.0
  Be  Be4  1  -0.10574221  0.45427151  0.55773220  1.0
  Be  Be5  1  0.45427151  0.89425779  0.05773220  1.0
  Be  Be6  1  0.54572849  1.10574221  0.55773220  1.0
  Be  Be7  1  0.10574221  0.54572849  0.05773220  1.0
  Si  Si8  1  0.20991693  0.43894919  0.55957766  1.0
  Si  Si9  1  0.43894919  1.20991693  0.05957766  1.0
  Si  Si10  1  0.56105081  0.79008307  0.55957766  1.0
  Si  Si11  1  -0.20991693  0.56105081  0.05957766  1.0
  H  H12  1  0.13218901  0.86781099  0.36245918  1.0
  H  H13  1  -0.13218901  0.13218901  0.86245918  1.0
  H  H14  1  0.20080516  0.79919484  0.84930288  1.0
  H  H15  1  -0.20080516  0.20080516  0.34930288  1.0
  O  O16  1  -0.16833946  0.74689595  0.91147371  1.0
  O  O17  1  0.74689595  0.83166054  0.41147371  1.0
  O  O18  1  0.25310405  1.16833946  0.91147371  1.0
  O  O19  1  0.16833946  0.25310405  0.41147371  1.0
  O  O20  1  0.16303537  0.41255325  0.90691260  1.0
  O  O21  1  0.41255325  1.16303537  0.40691260  1.0
  O  O22  1  0.58744675  0.83696463  0.90691260  1.0
  O  O23  1  -0.16303537  0.58744675  0.40691260  1.0
  O  O24  1  -0.08201830  0.49982896  0.90590413  1.0
  O  O25  1  0.49982896  0.91798170  0.40590413  1.0
  O  O26  1  0.50017104  1.08201830  0.90590413  1.0
  O  O27  1  0.08201830  0.50017104  0.40590413  1.0
  O  O28  1  0.08713377  0.91286623  0.51037559  1.0
  O  O29  1  -0.08713377  0.08713377  0.01037559  1.0
  O  O30  1  0.24564784  0.75435216  0.99843337  1.0
  O  O31  1  -0.24564784  0.24564784  0.49843337  1.0
  O  O32  1  0.41435073  0.58564927  0.50054037  1.0
  O  O33  1  -0.41435073  0.41435073  0.00054037  1.0
