# generated using pymatgen
data_Ca6Te3N2
_symmetry_space_group_name_H-M   'P 1'
_cell_length_a   8.23605702
_cell_length_b   8.23605702
_cell_length_c   8.23605702
_cell_angle_alpha   94.37591676
_cell_angle_beta   94.37591676
_cell_angle_gamma   94.37591677
_symmetry_Int_Tables_number   1
_chemical_formula_structural   Ca6Te3N2
_chemical_formula_sum   'Ca12 Te6 N4'
_cell_volume   553.52292512
_cell_formula_units_Z   2
loop_
 _symmetry_equiv_pos_site_id
 _symmetry_equiv_pos_as_xyz
  1  'x, y, z'
loop_
 _atom_site_type_symbol
 _atom_site_label
 _atom_site_symmetry_multiplicity
 _atom_site_fract_x
 _atom_site_fract_y
 _atom_site_fract_z
 _atom_site_occupancy
  Ca  Ca0  1  0.51787209  1.22188001  -0.59614450  1.0
  Ca  Ca1  1  1.22188001  0.40385550  -0.48212791  1.0
  Ca  Ca2  1  0.40385550  0.51787209  0.22188001  1.0
  Ca  Ca3  1  1.01787209  0.90385550  -0.27811999  1.0
  Ca  Ca4  1  0.90385550  0.72188001  0.01787209  1.0
  Ca  Ca5  1  0.72188001  1.01787209  -0.09614450  1.0
  Ca  Ca6  1  1.48212791  -0.22188001  0.59614450  1.0
  Ca  Ca7  1  0.77811999  0.59614450  0.48212791  1.0
  Ca  Ca8  1  1.59614450  0.48212791  -0.22188001  1.0
  Ca  Ca9  1  0.98212791  0.09614450  0.27811999  1.0
  Ca  Ca10  1  1.09614450  0.27811999  -0.01787209  1.0
  Ca  Ca11  1  1.27811999  -0.01787209  0.09614450  1.0
  Te  Te12  1  1.37541335  0.12458665  -0.25000000  1.0
  Te  Te13  1  1.12458665  -0.25000000  0.37541335  1.0
  Te  Te14  1  0.75000000  0.37541335  0.12458665  1.0
  Te  Te15  1  0.87541335  1.25000000  -0.37541335  1.0
  Te  Te16  1  1.25000000  0.62458665  -0.12458665  1.0
  Te  Te17  1  0.62458665  0.87541335  0.25000000  1.0
  N  N18  1  0.50000000  0.50000000  0.50000000  1.0
  N  N19  1  0.00000000  0.00000000  0.00000000  1.0
  N  N20  1  0.25000000  0.25000000  0.25000000  1.0
  N  N21  1  0.75000000  0.75000000  0.75000000  1.0
