# generated using pymatgen
data_NiTePd
_symmetry_space_group_name_H-M   'P 1'
_cell_length_a   8.47878758
_cell_length_b   3.81815421
_cell_length_c   6.36996823
_cell_angle_alpha   90.00000000
_cell_angle_beta   90.00000000
_cell_angle_gamma   90.00000000
_symmetry_Int_Tables_number   1
_chemical_formula_structural   NiTePd
_chemical_formula_sum   'Ni4 Te4 Pd4'
_cell_volume   206.21701063
_cell_formula_units_Z   4
loop_
 _symmetry_equiv_pos_site_id
 _symmetry_equiv_pos_as_xyz
  1  'x, y, z'
loop_
 _atom_site_type_symbol
 _atom_site_label
 _atom_site_symmetry_multiplicity
 _atom_site_fract_x
 _atom_site_fract_y
 _atom_site_fract_z
 _atom_site_occupancy
  Ni  Ni0  1  0.39589487  0.75000000  0.51062940  1.0
  Ni  Ni1  1  0.89589487  0.75000000  0.98937060  1.0
  Ni  Ni2  1  0.60410513  0.25000000  0.48937060  1.0
  Ni  Ni3  1  0.10410513  0.25000000  0.01062940  1.0
  Te  Te4  1  0.15746811  0.75000000  0.75932173  1.0
  Te  Te5  1  0.65746811  0.75000000  0.74067827  1.0
  Te  Te6  1  0.84253189  0.25000000  0.24067827  1.0
  Te  Te7  1  0.34253189  0.25000000  0.25932173  1.0
  Pd  Pd8  1  0.08611309  0.75000000  0.34529703  1.0
  Pd  Pd9  1  0.58611309  0.75000000  0.15470297  1.0
  Pd  Pd10  1  0.91388691  0.25000000  0.65470297  1.0
  Pd  Pd11  1  0.41388691  0.25000000  0.84529703  1.0
