# generated using pymatgen
data_Ca5W(N2O)2
_symmetry_space_group_name_H-M   'P 1'
_cell_length_a   6.12831427
_cell_length_b   6.76511256
_cell_length_c   8.48771636
_cell_angle_alpha   90.00000000
_cell_angle_beta   90.87598113
_cell_angle_gamma   90.00000000
_symmetry_Int_Tables_number   1
_chemical_formula_structural   Ca5W(N2O)2
_chemical_formula_sum   'Ca10 W2 N8 O4'
_cell_volume   351.84886459
_cell_formula_units_Z   2
loop_
 _symmetry_equiv_pos_site_id
 _symmetry_equiv_pos_as_xyz
  1  'x, y, z'
loop_
 _atom_site_type_symbol
 _atom_site_label
 _atom_site_symmetry_multiplicity
 _atom_site_fract_x
 _atom_site_fract_y
 _atom_site_fract_z
 _atom_site_occupancy
  Ca  Ca0  1  0.76874020  1.01032583  0.16628121  1.0
  Ca  Ca1  1  0.76874020  0.48967417  0.16628121  1.0
  Ca  Ca2  1  0.23125980  0.51032583  0.83371879  1.0
  Ca  Ca3  1  0.23125980  -0.01032583  0.83371879  1.0
  Ca  Ca4  1  0.99774306  0.75000000  0.48410692  1.0
  Ca  Ca5  1  0.00225694  0.25000000  0.51589308  1.0
  Ca  Ca6  1  0.30571797  0.75000000  0.16977330  1.0
  Ca  Ca7  1  0.69428203  0.25000000  0.83022670  1.0
  Ca  Ca8  1  0.50000000  0.00000000  0.50000000  1.0
  Ca  Ca9  1  0.50000000  0.50000000  0.50000000  1.0
  W  W10  1  0.78218214  0.75000000  0.82329907  1.0
  W  W11  1  0.21781786  0.25000000  0.17670093  1.0
  N  N12  1  0.83387136  0.97447321  0.69156526  1.0
  N  N13  1  0.83387136  0.52552679  0.69156526  1.0
  N  N14  1  0.16612864  0.47447321  0.30843474  1.0
  N  N15  1  0.16612864  0.02552679  0.30843474  1.0
  N  N16  1  1.00529237  0.75000000  0.97526716  1.0
  N  N17  1  -0.00529237  0.25000000  0.02473284  1.0
  N  N18  1  0.52841446  0.75000000  0.94510377  1.0
  N  N19  1  0.47158554  0.25000000  0.05489623  1.0
  O  O20  1  0.65280111  0.75000000  0.32877948  1.0
  O  O21  1  0.34719889  0.25000000  0.67122052  1.0
  O  O22  1  0.30603460  0.75000000  0.62678111  1.0
  O  O23  1  0.69396540  0.25000000  0.37321889  1.0
