# generated using pymatgen
data_Ti2P3PbO12
_symmetry_space_group_name_H-M   'P 1'
_cell_length_a   9.11847650
_cell_length_b   9.11847650
_cell_length_c   9.11847650
_cell_angle_alpha   56.80703654
_cell_angle_beta   56.80703654
_cell_angle_gamma   56.80703654
_symmetry_Int_Tables_number   1
_chemical_formula_structural   Ti2P3PbO12
_chemical_formula_sum   'Ti4 P6 Pb2 O24'
_cell_volume   496.60055537
_cell_formula_units_Z   2
loop_
 _symmetry_equiv_pos_site_id
 _symmetry_equiv_pos_as_xyz
  1  'x, y, z'
loop_
 _atom_site_type_symbol
 _atom_site_label
 _atom_site_symmetry_multiplicity
 _atom_site_fract_x
 _atom_site_fract_y
 _atom_site_fract_z
 _atom_site_occupancy
  Ti  Ti0  1  0.85018647  -0.14981353  -0.14981353  1.0
  Ti  Ti1  1  0.35018647  0.35018647  0.35018647  1.0
  Ti  Ti2  1  0.64981353  0.64981353  -0.35018647  1.0
  Ti  Ti3  1  1.14981353  0.14981353  0.14981353  1.0
  P  P4  1  0.46299638  0.75000000  0.03700362  1.0
  P  P5  1  0.96299638  -0.46299638  0.25000000  1.0
  P  P6  1  0.25000000  0.96299638  -0.46299638  1.0
  P  P7  1  0.75000000  1.03700362  -0.53700362  1.0
  P  P8  1  0.53700362  0.25000000  -0.03700362  1.0
  P  P9  1  1.03700362  0.46299638  -0.25000000  1.0
  Pb  Pb10  1  1.00000000  -0.00000000  0.00000000  1.0
  Pb  Pb11  1  0.50000000  0.50000000  0.50000000  1.0
  O  O12  1  0.77643865  1.00877634  -0.36804084  1.0
  O  O13  1  1.27643865  0.13195916  -0.49122366  1.0
  O  O14  1  0.86804084  0.49122366  -0.27643865  1.0
  O  O15  1  0.36804084  0.22356135  -0.00877634  1.0
  O  O16  1  0.99122366  0.36804084  -0.77643865  1.0
  O  O17  1  0.49122366  0.72356135  -0.13195916  1.0
  O  O18  1  0.22356135  0.99122366  -0.63195916  1.0
  O  O19  1  0.72356135  0.86804084  -0.50877634  1.0
  O  O20  1  0.63195916  0.77643865  0.00877634  1.0
  O  O21  1  1.13195916  -0.49122366  0.27643865  1.0
  O  O22  1  0.50877634  0.27643865  0.13195916  1.0
  O  O23  1  1.00877634  0.63195916  -0.22356135  1.0
  O  O24  1  0.71681505  0.07487976  -0.06349460  1.0
  O  O25  1  1.21681505  0.43650540  -0.42512024  1.0
  O  O26  1  0.56349460  0.42512024  -0.21681505  1.0
  O  O27  1  1.06349460  0.28318495  -0.07487976  1.0
  O  O28  1  0.92512024  0.06349460  0.28318495  1.0
  O  O29  1  0.42512024  0.78318495  -0.43650540  1.0
  O  O30  1  1.28318495  -0.07487976  0.06349460  1.0
  O  O31  1  0.78318495  0.56349460  -0.57487976  1.0
  O  O32  1  0.93650540  -0.28318495  0.07487976  1.0
  O  O33  1  0.43650540  0.57487976  0.21681505  1.0
  O  O34  1  0.57487976  1.21681505  -0.56349460  1.0
  O  O35  1  1.07487976  -0.06349460  -0.28318495  1.0
