# generated using pymatgen
data_Na5CuS4(NO6)2
_symmetry_space_group_name_H-M   'P 1'
_cell_length_a   11.41683408
_cell_length_b   11.41683408
_cell_length_c   5.49069673
_cell_angle_alpha   90.00000000
_cell_angle_beta   90.00000000
_cell_angle_gamma   90.00000000
_symmetry_Int_Tables_number   1
_chemical_formula_structural   Na5CuS4(NO6)2
_chemical_formula_sum   'Na10 Cu2 S8 N4 O24'
_cell_volume   715.67992610
_cell_formula_units_Z   2
loop_
 _symmetry_equiv_pos_site_id
 _symmetry_equiv_pos_as_xyz
  1  'x, y, z'
loop_
 _atom_site_type_symbol
 _atom_site_label
 _atom_site_symmetry_multiplicity
 _atom_site_fract_x
 _atom_site_fract_y
 _atom_site_fract_z
 _atom_site_occupancy
  Na  Na0  1  0.73300979  0.80591689  0.20527666  1.0
  Na  Na1  1  0.80591689  0.26699021  0.79472334  1.0
  Na  Na2  1  0.26699021  0.19408311  0.20527666  1.0
  Na  Na3  1  0.19408311  0.73300979  0.79472334  1.0
  Na  Na4  1  0.23572097  0.49098435  0.26100106  1.0
  Na  Na5  1  0.49098435  0.76427903  0.73899894  1.0
  Na  Na6  1  0.76427903  0.50901565  0.26100106  1.0
  Na  Na7  1  0.50901565  0.23572097  0.73899894  1.0
  Na  Na8  1  0.50000000  0.00000000  0.20197615  1.0
  Na  Na9  1  0.00000000  0.50000000  0.79802385  1.0
  Cu  Cu10  1  0.00000000  0.00000000  0.50000000  1.0
  Cu  Cu11  1  0.00000000  0.00000000  0.00000000  1.0
  S  S12  1  0.09224668  0.86267186  0.24938706  1.0
  S  S13  1  0.86267186  0.90775332  0.75061294  1.0
  S  S14  1  0.90775332  0.13732814  0.24938706  1.0
  S  S15  1  0.13732814  0.09224668  0.75061294  1.0
  S  S16  1  0.02260966  0.69402405  0.28491117  1.0
  S  S17  1  0.69402405  0.97739034  0.71508883  1.0
  S  S18  1  0.97739034  0.30597595  0.28491117  1.0
  S  S19  1  0.30597595  0.02260966  0.71508883  1.0
  N  N20  1  0.39472052  0.70162402  0.25426384  1.0
  N  N21  1  0.70162402  0.60527948  0.74573616  1.0
  N  N22  1  0.60527948  0.29837598  0.25426384  1.0
  N  N23  1  0.29837598  0.39472052  0.74573616  1.0
  O  O24  1  0.46538718  0.78569765  0.27272722  1.0
  O  O25  1  0.78569765  0.53461282  0.72727278  1.0
  O  O26  1  0.53461282  0.21430235  0.27272722  1.0
  O  O27  1  0.21430235  0.46538718  0.72727278  1.0
  O  O28  1  0.36554333  0.66285901  0.04692573  1.0
  O  O29  1  0.66285901  0.63445667  0.95307427  1.0
  O  O30  1  0.63445667  0.33714099  0.04692573  1.0
  O  O31  1  0.33714099  0.36554333  0.95307427  1.0
  O  O32  1  0.35388600  0.65379419  0.44412631  1.0
  O  O33  1  0.65379419  0.64611400  0.55587369  1.0
  O  O34  1  0.64611400  0.34620581  0.44412631  1.0
  O  O35  1  0.34620581  0.35388600  0.55587369  1.0
  O  O36  1  0.05259423  0.65395665  0.53494977  1.0
  O  O37  1  0.65395665  0.94740577  0.46505023  1.0
  O  O38  1  0.94740577  0.34604335  0.53494977  1.0
  O  O39  1  0.34604335  0.05259423  0.46505023  1.0
  O  O40  1  0.08765290  0.62190177  0.10067375  1.0
  O  O41  1  0.62190177  0.91234710  0.89932625  1.0
  O  O42  1  0.91234710  0.37809823  0.10067375  1.0
  O  O43  1  0.37809823  0.08765290  0.89932625  1.0
  O  O44  1  0.10496616  0.31169457  0.23875084  1.0
  O  O45  1  0.31169457  0.89503384  0.76124916  1.0
  O  O46  1  0.89503384  0.68830543  0.23875084  1.0
  O  O47  1  0.68830543  0.10496616  0.76124916  1.0
