# generated using pymatgen
data_Sr2SnS3F2
_symmetry_space_group_name_H-M   'P 1'
_cell_length_a   6.02756226
_cell_length_b   19.04387226
_cell_length_c   6.02957825
_cell_angle_alpha   90.00000000
_cell_angle_beta   90.00000000
_cell_angle_gamma   90.00000000
_symmetry_Int_Tables_number   1
_chemical_formula_structural   Sr2SnS3F2
_chemical_formula_sum   'Sr8 Sn4 S12 F8'
_cell_volume   692.12398647
_cell_formula_units_Z   4
loop_
 _symmetry_equiv_pos_site_id
 _symmetry_equiv_pos_as_xyz
  1  'x, y, z'
loop_
 _atom_site_type_symbol
 _atom_site_label
 _atom_site_symmetry_multiplicity
 _atom_site_fract_x
 _atom_site_fract_y
 _atom_site_fract_z
 _atom_site_occupancy
  Sr  Sr0  1  0.24684830  0.42660251  0.50234555  1.0
  Sr  Sr1  1  0.24684830  0.07339749  0.50234555  1.0
  Sr  Sr2  1  0.74684830  0.42660251  -0.00234555  1.0
  Sr  Sr3  1  0.74684830  0.07339749  -0.00234555  1.0
  Sr  Sr4  1  0.75315170  0.92660251  0.49765445  1.0
  Sr  Sr5  1  0.75315170  0.57339749  0.49765445  1.0
  Sr  Sr6  1  0.25315170  0.92660251  1.00234555  1.0
  Sr  Sr7  1  0.25315170  0.57339749  1.00234555  1.0
  Sn  Sn8  1  0.34353116  0.25000000  0.92589547  1.0
  Sn  Sn9  1  0.84353116  0.25000000  0.57410453  1.0
  Sn  Sn10  1  0.65646884  0.75000000  0.07410453  1.0
  Sn  Sn11  1  0.15646884  0.75000000  0.42589547  1.0
  S  S12  1  0.24312447  0.36733673  1.01392818  1.0
  S  S13  1  0.24312447  0.13266327  1.01392818  1.0
  S  S14  1  0.74312447  0.36733673  0.48607182  1.0
  S  S15  1  0.74312447  0.13266327  0.48607182  1.0
  S  S16  1  0.75687553  0.86733673  -0.01392818  1.0
  S  S17  1  0.75687553  0.63266327  -0.01392818  1.0
  S  S18  1  0.25687553  0.86733673  0.51392818  1.0
  S  S19  1  0.25687553  0.63266327  0.51392818  1.0
  S  S20  1  0.25124621  0.25000000  0.52320380  1.0
  S  S21  1  0.75124621  0.25000000  -0.02320380  1.0
  S  S22  1  0.74875379  0.75000000  0.47679620  1.0
  S  S23  1  0.24875379  0.75000000  1.02320380  1.0
  F  F24  1  0.49899175  -0.00021125  0.74755133  1.0
  F  F25  1  0.49899175  0.50021125  0.74755133  1.0
  F  F26  1  0.99899175  -0.00021125  0.75244867  1.0
  F  F27  1  0.99899175  0.50021125  0.75244867  1.0
  F  F28  1  0.50100825  0.49978875  0.25244867  1.0
  F  F29  1  0.50100825  1.00021125  0.25244867  1.0
  F  F30  1  0.00100825  0.49978875  0.24755133  1.0
  F  F31  1  0.00100825  1.00021125  0.24755133  1.0
