# generated using pymatgen
data_SnPS3
_symmetry_space_group_name_H-M   'P 1'
_cell_length_a   7.00915713
_cell_length_b   7.00915713
_cell_length_c   7.76625493
_cell_angle_alpha   82.46756159
_cell_angle_beta   97.53243841
_cell_angle_gamma   54.07710275
_symmetry_Int_Tables_number   1
_chemical_formula_structural   SnPS3
_chemical_formula_sum   'Sn2 P2 S6'
_cell_volume   295.85104050
_cell_formula_units_Z   2
loop_
 _symmetry_equiv_pos_site_id
 _symmetry_equiv_pos_as_xyz
  1  'x, y, z'
loop_
 _atom_site_type_symbol
 _atom_site_label
 _atom_site_symmetry_multiplicity
 _atom_site_fract_x
 _atom_site_fract_y
 _atom_site_fract_z
 _atom_site_occupancy
  Sn  Sn0  1  0.83917390  -0.16082610  0.00000000  1.0
  Sn  Sn1  1  1.16082610  0.16082610  0.00000000  1.0
  P  P2  1  0.44886730  -0.44886730  0.84840726  1.0
  P  P3  1  0.55113270  -0.55113270  0.15159274  1.0
  S  S4  1  0.41505517  -0.14178483  0.76240615  1.0
  S  S5  1  1.14178483  0.58494483  0.76240615  1.0
  S  S6  1  0.85821517  -0.58494483  0.23759385  1.0
  S  S7  1  1.58494483  0.14178483  0.23759385  1.0
  S  S8  1  0.74345416  -0.74345416  0.78159909  1.0
  S  S9  1  0.25654584  -0.25654584  0.21840091  1.0
