# generated using pymatgen
data_Ni6Mo2P3
_symmetry_space_group_name_H-M   'P 1'
_cell_length_a   3.53523192
_cell_length_b   12.91334219
_cell_length_c   5.68948361
_cell_angle_alpha   90.00000000
_cell_angle_beta   90.00000000
_cell_angle_gamma   90.00000000
_symmetry_Int_Tables_number   1
_chemical_formula_structural   Ni6Mo2P3
_chemical_formula_sum   'Ni12 Mo4 P6'
_cell_volume   259.73436855
_cell_formula_units_Z   2
loop_
 _symmetry_equiv_pos_site_id
 _symmetry_equiv_pos_as_xyz
  1  'x, y, z'
loop_
 _atom_site_type_symbol
 _atom_site_label
 _atom_site_symmetry_multiplicity
 _atom_site_fract_x
 _atom_site_fract_y
 _atom_site_fract_z
 _atom_site_occupancy
  Ni  Ni0  1  0.50000000  0.71046572  0.13664445  1.0
  Ni  Ni1  1  0.50000000  0.28953428  0.13664445  1.0
  Ni  Ni2  1  0.00000000  0.21046572  0.86335555  1.0
  Ni  Ni3  1  0.00000000  0.78953428  0.86335555  1.0
  Ni  Ni4  1  0.50000000  0.09861011  0.05008105  1.0
  Ni  Ni5  1  0.50000000  0.90138989  0.05008105  1.0
  Ni  Ni6  1  0.00000000  0.59861011  0.94991895  1.0
  Ni  Ni7  1  0.00000000  0.40138989  0.94991895  1.0
  Ni  Ni8  1  0.50000000  0.00000000  0.44166868  1.0
  Ni  Ni9  1  0.00000000  0.50000000  0.55833132  1.0
  Ni  Ni10  1  0.50000000  0.50000000  0.22571412  1.0
  Ni  Ni11  1  0.00000000  0.00000000  0.77428588  1.0
  Mo  Mo12  1  0.50000000  0.66781344  0.61532910  1.0
  Mo  Mo13  1  0.50000000  0.33218656  0.61532910  1.0
  Mo  Mo14  1  0.00000000  0.16781344  0.38467090  1.0
  Mo  Mo15  1  0.00000000  0.83218656  0.38467090  1.0
  P  P16  1  0.50000000  0.13867983  0.67685641  1.0
  P  P17  1  0.50000000  0.86132017  0.67685641  1.0
  P  P18  1  0.00000000  0.63867983  0.32314359  1.0
  P  P19  1  0.00000000  0.36132017  0.32314359  1.0
  P  P20  1  0.50000000  0.50000000  0.82391390  1.0
  P  P21  1  0.00000000  0.00000000  0.17608610  1.0
