# generated using pymatgen
data_NbVP
_symmetry_space_group_name_H-M   'P 1'
_cell_length_a   6.42001739
_cell_length_b   3.40931378
_cell_length_c   7.70985811
_cell_angle_alpha   90.00000000
_cell_angle_beta   90.00000000
_cell_angle_gamma   90.00000000
_symmetry_Int_Tables_number   1
_chemical_formula_structural   NbVP
_chemical_formula_sum   'Nb4 V4 P4'
_cell_volume   168.75224652
_cell_formula_units_Z   4
loop_
 _symmetry_equiv_pos_site_id
 _symmetry_equiv_pos_as_xyz
  1  'x, y, z'
loop_
 _atom_site_type_symbol
 _atom_site_label
 _atom_site_symmetry_multiplicity
 _atom_site_fract_x
 _atom_site_fract_y
 _atom_site_fract_z
 _atom_site_occupancy
  Nb  Nb0  1  0.96220017  0.75000000  0.66825088  1.0
  Nb  Nb1  1  0.46220017  0.75000000  0.83174912  1.0
  Nb  Nb2  1  0.03779983  0.25000000  0.33174912  1.0
  Nb  Nb3  1  0.53779983  0.25000000  0.16825088  1.0
  V  V4  1  0.86343612  0.75000000  0.05761374  1.0
  V  V5  1  0.36343612  0.75000000  0.44238626  1.0
  V  V6  1  0.13656388  0.25000000  0.94238626  1.0
  V  V7  1  0.63656388  0.25000000  0.55761374  1.0
  P  P8  1  0.73900549  0.75000000  0.36052727  1.0
  P  P9  1  0.23900549  0.75000000  0.13947273  1.0
  P  P10  1  0.26099451  0.25000000  0.63947273  1.0
  P  P11  1  0.76099451  0.25000000  0.86052727  1.0
