# generated using pymatgen
data_Rb(WCl3)3
_symmetry_space_group_name_H-M   'P 1'
_cell_length_a   9.56655065
_cell_length_b   9.56655065
_cell_length_c   8.54322219
_cell_angle_alpha   90.00000000
_cell_angle_beta   90.00000000
_cell_angle_gamma   120.00000000
_symmetry_Int_Tables_number   1
_chemical_formula_structural   Rb(WCl3)3
_chemical_formula_sum   'Rb2 W6 Cl18'
_cell_volume   677.11601261
_cell_formula_units_Z   2
loop_
 _symmetry_equiv_pos_site_id
 _symmetry_equiv_pos_as_xyz
  1  'x, y, z'
loop_
 _atom_site_type_symbol
 _atom_site_label
 _atom_site_symmetry_multiplicity
 _atom_site_fract_x
 _atom_site_fract_y
 _atom_site_fract_z
 _atom_site_occupancy
  Rb  Rb0  1  0.33333333  0.66666667  0.49951542  1.0
  Rb  Rb1  1  0.66666667  0.33333333  0.50048458  1.0
  W  W2  1  0.81994762  0.81991383  0.12252182  1.0
  W  W3  1  0.81991383  0.99996622  0.87747818  1.0
  W  W4  1  0.99996622  0.18005238  0.12252182  1.0
  W  W5  1  0.18008617  0.00003378  0.12252182  1.0
  W  W6  1  0.18005238  0.18008617  0.87747818  1.0
  W  W7  1  0.00003378  0.81994762  0.87747818  1.0
  Cl  Cl8  1  0.20965412  0.79046489  1.00000747  1.0
  Cl  Cl9  1  0.79046489  0.58081077  -0.00000747  1.0
  Cl  Cl10  1  0.58081077  0.79034588  1.00000747  1.0
  Cl  Cl11  1  0.20953511  0.41918923  1.00000747  1.0
  Cl  Cl12  1  0.79034588  0.20953511  -0.00000747  1.0
  Cl  Cl13  1  0.41918923  0.20965412  -0.00000747  1.0
  Cl  Cl14  1  0.00002362  0.80133200  0.31312045  1.0
  Cl  Cl15  1  0.80133200  0.80130837  0.68687955  1.0
  Cl  Cl16  1  0.80130837  0.99997638  0.31312045  1.0
  Cl  Cl17  1  0.19866800  0.19869163  0.31312045  1.0
  Cl  Cl18  1  0.99997638  0.19866800  0.68687955  1.0
  Cl  Cl19  1  0.19869163  0.00002362  0.68687955  1.0
  Cl  Cl20  1  0.61086790  0.61073886  0.29932196  1.0
  Cl  Cl21  1  0.61073886  0.99987095  0.70067804  1.0
  Cl  Cl22  1  0.99987095  0.38913210  0.29932196  1.0
  Cl  Cl23  1  0.38926114  0.00012905  0.29932196  1.0
  Cl  Cl24  1  0.38913210  0.38926114  0.70067804  1.0
  Cl  Cl25  1  0.00012905  0.61086790  0.70067804  1.0
