# generated using pymatgen
data_YPb2
_symmetry_space_group_name_H-M   'P 1'
_cell_length_a   8.63336893
_cell_length_b   8.63336893
_cell_length_c   4.54479951
_cell_angle_alpha   90.00000000
_cell_angle_beta   90.00000000
_cell_angle_gamma   149.27908163
_symmetry_Int_Tables_number   1
_chemical_formula_structural   YPb2
_chemical_formula_sum   'Y2 Pb4'
_cell_volume   173.05116124
_cell_formula_units_Z   2
loop_
 _symmetry_equiv_pos_site_id
 _symmetry_equiv_pos_as_xyz
  1  'x, y, z'
loop_
 _atom_site_type_symbol
 _atom_site_label
 _atom_site_symmetry_multiplicity
 _atom_site_fract_x
 _atom_site_fract_y
 _atom_site_fract_z
 _atom_site_occupancy
  Y  Y0  1  0.40521174  0.59478826  0.75000000  1.0
  Y  Y1  1  -0.40521174  0.40521174  0.25000000  1.0
  Pb  Pb2  1  0.06856011  0.93143989  0.75000000  1.0
  Pb  Pb3  1  -0.06856011  0.06856011  0.25000000  1.0
  Pb  Pb4  1  -0.24932596  0.24932596  0.75000000  1.0
  Pb  Pb5  1  0.24932596  0.75067404  0.25000000  1.0
