# generated using pymatgen
data_NdTiCrO5
_symmetry_space_group_name_H-M   'P 1'
_cell_length_a   7.40545061
_cell_length_b   8.84034865
_cell_length_c   5.88361170
_cell_angle_alpha   90.00000000
_cell_angle_beta   90.00000000
_cell_angle_gamma   90.00000000
_symmetry_Int_Tables_number   1
_chemical_formula_structural   NdTiCrO5
_chemical_formula_sum   'Nd4 Ti4 Cr4 O20'
_cell_volume   385.18102603
_cell_formula_units_Z   4
loop_
 _symmetry_equiv_pos_site_id
 _symmetry_equiv_pos_as_xyz
  1  'x, y, z'
loop_
 _atom_site_type_symbol
 _atom_site_label
 _atom_site_symmetry_multiplicity
 _atom_site_fract_x
 _atom_site_fract_y
 _atom_site_fract_z
 _atom_site_occupancy
  Nd  Nd0  1  0.63315378  0.32762800  0.00000000  1.0
  Nd  Nd1  1  0.36684622  0.67237200  0.00000000  1.0
  Nd  Nd2  1  0.13315378  0.17237200  -0.00000000  1.0
  Nd  Nd3  1  0.86684622  0.82762800  -0.00000000  1.0
  Ti  Ti4  1  0.50000000  0.00000000  0.25198943  1.0
  Ti  Ti5  1  0.00000000  0.50000000  0.74801057  1.0
  Ti  Ti6  1  0.50000000  0.00000000  0.74801057  1.0
  Ti  Ti7  1  0.00000000  0.50000000  0.25198943  1.0
  Cr  Cr8  1  0.60154182  0.64285615  0.50000000  1.0
  Cr  Cr9  1  0.39845818  0.35714385  0.50000000  1.0
  Cr  Cr10  1  0.10154182  0.85714385  0.50000000  1.0
  Cr  Cr11  1  0.89845818  0.14285615  0.50000000  1.0
  O  O12  1  0.60123550  0.79288869  0.25169243  1.0
  O  O13  1  0.39876450  0.20711131  0.25169243  1.0
  O  O14  1  0.10123550  0.70711131  0.74830757  1.0
  O  O15  1  0.89876450  0.29288869  0.74830757  1.0
  O  O16  1  0.39876450  0.20711131  0.74830757  1.0
  O  O17  1  0.60123550  0.79288869  0.74830757  1.0
  O  O18  1  0.89876450  0.29288869  0.25169243  1.0
  O  O19  1  0.10123550  0.70711131  0.25169243  1.0
  O  O20  1  0.66334247  0.05308976  0.00000000  1.0
  O  O21  1  0.33665753  0.94691024  0.00000000  1.0
  O  O22  1  0.16334247  0.44691024  0.00000000  1.0
  O  O23  1  0.83665753  0.55308976  0.00000000  1.0
  O  O24  1  0.66239679  0.06621665  0.50000000  1.0
  O  O25  1  0.33760321  0.93378335  0.50000000  1.0
  O  O26  1  0.16239679  0.43378335  0.50000000  1.0
  O  O27  1  0.83760321  0.56621665  0.50000000  1.0
  O  O28  1  0.50000000  0.50000000  0.28012678  1.0
  O  O29  1  0.00000000  0.00000000  0.71987322  1.0
  O  O30  1  0.50000000  0.50000000  0.71987322  1.0
  O  O31  1  0.00000000  0.00000000  0.28012678  1.0
