# generated using pymatgen
data_Ge2Pt3
_symmetry_space_group_name_H-M   'P 1'
_cell_length_a   12.36524131
_cell_length_b   7.63545806
_cell_length_c   6.97058802
_cell_angle_alpha   90.00000000
_cell_angle_beta   90.00000000
_cell_angle_gamma   90.00000000
_symmetry_Int_Tables_number   1
_chemical_formula_structural   Ge2Pt3
_chemical_formula_sum   'Ge16 Pt24'
_cell_volume   658.12305906
_cell_formula_units_Z   8
loop_
 _symmetry_equiv_pos_site_id
 _symmetry_equiv_pos_as_xyz
  1  'x, y, z'
loop_
 _atom_site_type_symbol
 _atom_site_label
 _atom_site_symmetry_multiplicity
 _atom_site_fract_x
 _atom_site_fract_y
 _atom_site_fract_z
 _atom_site_occupancy
  Ge  Ge0  1  0.75436182  0.47319845  0.37439985  1.0
  Ge  Ge1  1  0.75436182  0.02680155  0.37439985  1.0
  Ge  Ge2  1  0.25436182  0.47319845  0.12560015  1.0
  Ge  Ge3  1  0.25436182  0.02680155  0.12560015  1.0
  Ge  Ge4  1  0.24563818  0.97319845  0.62560015  1.0
  Ge  Ge5  1  0.24563818  0.52680155  0.62560015  1.0
  Ge  Ge6  1  0.74563818  0.97319845  0.87439985  1.0
  Ge  Ge7  1  0.74563818  0.52680155  0.87439985  1.0
  Ge  Ge8  1  0.99386665  0.25000000  0.62716686  1.0
  Ge  Ge9  1  0.49386665  0.25000000  0.87283314  1.0
  Ge  Ge10  1  0.00613335  0.75000000  0.37283314  1.0
  Ge  Ge11  1  0.50613335  0.75000000  0.12716686  1.0
  Ge  Ge12  1  0.99047592  0.25000000  0.12099889  1.0
  Ge  Ge13  1  0.49047592  0.25000000  0.37900111  1.0
  Ge  Ge14  1  0.00952408  0.75000000  0.87900111  1.0
  Ge  Ge15  1  0.50952408  0.75000000  0.62099889  1.0
  Pt  Pt16  1  0.78436114  0.25000000  0.65424179  1.0
  Pt  Pt17  1  0.28436114  0.25000000  0.84575821  1.0
  Pt  Pt18  1  0.21563886  0.75000000  0.34575821  1.0
  Pt  Pt19  1  0.71563886  0.75000000  0.15424179  1.0
  Pt  Pt20  1  0.90885096  0.94155794  0.12346349  1.0
  Pt  Pt21  1  0.90885096  0.55844206  0.12346349  1.0
  Pt  Pt22  1  0.40885096  0.94155794  0.37653651  1.0
  Pt  Pt23  1  0.40885096  0.55844206  0.37653651  1.0
  Pt  Pt24  1  0.09114904  0.44155794  0.87653651  1.0
  Pt  Pt25  1  0.09114904  0.05844206  0.87653651  1.0
  Pt  Pt26  1  0.59114904  0.44155794  0.62346349  1.0
  Pt  Pt27  1  0.59114904  0.05844206  0.62346349  1.0
  Pt  Pt28  1  0.58840487  0.44057771  0.12825053  1.0
  Pt  Pt29  1  0.58840487  0.05942229  0.12825053  1.0
  Pt  Pt30  1  0.08840487  0.44057771  0.37174947  1.0
  Pt  Pt31  1  0.08840487  0.05942229  0.37174947  1.0
  Pt  Pt32  1  0.41159513  0.94057771  0.87174947  1.0
  Pt  Pt33  1  0.41159513  0.55942229  0.87174947  1.0
  Pt  Pt34  1  0.91159513  0.94057771  0.62825053  1.0
  Pt  Pt35  1  0.91159513  0.55942229  0.62825053  1.0
  Pt  Pt36  1  0.78226676  0.25000000  0.09026107  1.0
  Pt  Pt37  1  0.28226676  0.25000000  0.40973893  1.0
  Pt  Pt38  1  0.21773324  0.75000000  0.90973893  1.0
  Pt  Pt39  1  0.71773324  0.75000000  0.59026107  1.0
