# generated using pymatgen
data_ZnBP2H4NO8
_symmetry_space_group_name_H-M   'P 1'
_cell_length_a   7.52123936
_cell_length_b   7.91936264
_cell_length_c   7.73064051
_cell_angle_alpha   61.04190617
_cell_angle_beta   65.24314309
_cell_angle_gamma   77.05267937
_symmetry_Int_Tables_number   1
_chemical_formula_structural   ZnBP2H4NO8
_chemical_formula_sum   'Zn2 B2 P4 H8 N2 O16'
_cell_volume   365.73333838
_cell_formula_units_Z   2
loop_
 _symmetry_equiv_pos_site_id
 _symmetry_equiv_pos_as_xyz
  1  'x, y, z'
loop_
 _atom_site_type_symbol
 _atom_site_label
 _atom_site_symmetry_multiplicity
 _atom_site_fract_x
 _atom_site_fract_y
 _atom_site_fract_z
 _atom_site_occupancy
  Zn  Zn0  1  0.80598615  0.54538166  0.24775543  1.0
  Zn  Zn1  1  0.19401385  0.45461834  0.75224457  1.0
  B  B2  1  0.30233793  1.00336316  0.41663089  1.0
  B  B3  1  0.69766207  -0.00336316  0.58336911  1.0
  P  P4  1  0.97595202  0.83238312  0.77126874  1.0
  P  P5  1  0.02404798  0.16761688  0.22873126  1.0
  P  P6  1  0.53706468  0.70263202  0.58805017  1.0
  P  P7  1  0.46293532  0.29736798  0.41194983  1.0
  H  H8  1  0.85042893  0.23318763  0.93126824  1.0
  H  H9  1  0.14957107  0.76681237  0.06873176  1.0
  H  H10  1  0.74129579  0.38209037  0.75147035  1.0
  H  H11  1  0.25870421  0.61790963  0.24852965  1.0
  H  H12  1  0.73367198  0.14203038  0.84849120  1.0
  H  H13  1  0.26632802  0.85796962  0.15150880  1.0
  H  H14  1  0.60482962  0.25162944  1.00950379  1.0
  H  H15  1  0.39517038  0.74837056  -0.00950379  1.0
  N  N16  1  0.73198595  0.25211554  0.88550889  1.0
  N  N17  1  0.26801405  0.74788446  0.11449111  1.0
  O  O18  1  0.99456302  0.66614819  0.71772502  1.0
  O  O19  1  0.00543698  0.33385181  0.28227498  1.0
  O  O20  1  0.94647158  0.77585070  1.00224852  1.0
  O  O21  1  0.05352842  0.22414930  -0.00224852  1.0
  O  O22  1  0.79097126  0.96686546  0.73181636  1.0
  O  O23  1  0.20902874  0.03313454  0.26818364  1.0
  O  O24  1  0.72383124  0.60410695  0.48858027  1.0
  O  O25  1  0.27616876  0.39589305  0.51141973  1.0
  O  O26  1  0.58496814  0.82296332  0.67558421  1.0
  O  O27  1  0.41503186  0.17703668  0.32441579  1.0
  O  O28  1  0.44456692  0.83934593  0.41396221  1.0
  O  O29  1  0.55543308  0.16065407  0.58603779  1.0
  O  O30  1  0.38941383  0.55331902  0.78352313  1.0
  O  O31  1  0.61058617  0.44668098  0.21647687  1.0
  O  O32  1  0.16010994  0.96593930  0.63068463  1.0
  O  O33  1  0.83989006  0.03406070  0.36931537  1.0
