# generated using pymatgen
data_CdAu3
_symmetry_space_group_name_H-M   'P 1'
_cell_length_a   8.91781637
_cell_length_b   8.91781637
_cell_length_c   8.91781637
_cell_angle_alpha   152.83201871
_cell_angle_beta   152.83201871
_cell_angle_gamma   38.79950754
_symmetry_Int_Tables_number   1
_chemical_formula_structural   CdAu3
_chemical_formula_sum   'Cd2 Au6'
_cell_volume   147.60717786
_cell_formula_units_Z   2
loop_
 _symmetry_equiv_pos_site_id
 _symmetry_equiv_pos_as_xyz
  1  'x, y, z'
loop_
 _atom_site_type_symbol
 _atom_site_label
 _atom_site_symmetry_multiplicity
 _atom_site_fract_x
 _atom_site_fract_y
 _atom_site_fract_z
 _atom_site_occupancy
  Cd  Cd0  1  0.87304882  0.87304882  1.00000000  1.0
  Cd  Cd1  1  0.12695118  0.12695118  -0.00000000  1.0
  Au  Au2  1  0.50000000  0.00000000  0.50000000  1.0
  Au  Au3  1  -0.00000000  0.50000000  0.50000000  1.0
  Au  Au4  1  0.62276153  0.62276153  1.00000000  1.0
  Au  Au5  1  0.37723847  0.37723847  -0.00000000  1.0
  Au  Au6  1  0.25000000  0.75000000  0.50000000  1.0
  Au  Au7  1  0.75000000  0.25000000  0.50000000  1.0
