# generated using pymatgen
data_KNa(BH4)2
_symmetry_space_group_name_H-M   'P 1'
_cell_length_a   7.86908981
_cell_length_b   7.86908981
_cell_length_c   7.86908981
_cell_angle_alpha   33.52229110
_cell_angle_beta   33.52229110
_cell_angle_gamma   33.52229110
_symmetry_Int_Tables_number   1
_chemical_formula_structural   KNa(BH4)2
_chemical_formula_sum   'K1 Na1 B2 H8'
_cell_volume   132.36731795
_cell_formula_units_Z   1
loop_
 _symmetry_equiv_pos_site_id
 _symmetry_equiv_pos_as_xyz
  1  'x, y, z'
loop_
 _atom_site_type_symbol
 _atom_site_label
 _atom_site_symmetry_multiplicity
 _atom_site_fract_x
 _atom_site_fract_y
 _atom_site_fract_z
 _atom_site_occupancy
  K  K0  1  0.50000000  0.50000000  -0.50000000  1.0
  Na  Na1  1  0.00000000  0.00000000  0.00000000  1.0
  B  B2  1  0.25522865  0.25522865  0.25522865  1.0
  B  B3  1  0.74477135  -0.25522865  -0.25522865  1.0
  H  H4  1  0.36461253  0.47037812  -0.01496142  1.0
  H  H5  1  0.47037812  0.98503858  -0.63538747  1.0
  H  H6  1  0.98503858  0.36461253  -0.52962188  1.0
  H  H7  1  0.63538747  -0.47037812  0.01496142  1.0
  H  H8  1  0.52962188  0.01496142  -0.36461253  1.0
  H  H9  1  1.01496142  -0.36461253  -0.47037812  1.0
  H  H10  1  0.19995274  0.19995274  0.19995274  1.0
  H  H11  1  0.80004726  -0.19995274  -0.19995274  1.0
