# generated using pymatgen
data_Rb(AsRu)2
_symmetry_space_group_name_H-M   'P 1'
_cell_length_a   7.54426283
_cell_length_b   7.54426283
_cell_length_c   7.54426283
_cell_angle_alpha   148.49896238
_cell_angle_beta   148.49896238
_cell_angle_gamma   45.14933368
_symmetry_Int_Tables_number   1
_chemical_formula_structural   Rb(AsRu)2
_chemical_formula_sum   'Rb1 As2 Ru2'
_cell_volume   116.86054944
_cell_formula_units_Z   1
loop_
 _symmetry_equiv_pos_site_id
 _symmetry_equiv_pos_as_xyz
  1  'x, y, z'
loop_
 _atom_site_type_symbol
 _atom_site_label
 _atom_site_symmetry_multiplicity
 _atom_site_fract_x
 _atom_site_fract_y
 _atom_site_fract_z
 _atom_site_occupancy
  Rb  Rb0  1  0.00000000  0.00000000  0.00000000  1.0
  As  As1  1  0.65465404  0.65465404  1.00000000  1.0
  As  As2  1  0.34534596  0.34534596  0.00000000  1.0
  Ru  Ru3  1  0.25000000  0.75000000  0.50000000  1.0
  Ru  Ru4  1  0.75000000  0.25000000  0.50000000  1.0
