# generated using pymatgen
data_Sr(BiPd)2
_symmetry_space_group_name_H-M   'P 1'
_cell_length_a   4.97885249
_cell_length_b   4.82273388
_cell_length_c   10.88870363
_cell_angle_alpha   90.00000000
_cell_angle_beta   92.12143352
_cell_angle_gamma   90.00000000
_symmetry_Int_Tables_number   1
_chemical_formula_structural   Sr(BiPd)2
_chemical_formula_sum   'Sr2 Bi4 Pd4'
_cell_volume   261.27687547
_cell_formula_units_Z   2
loop_
 _symmetry_equiv_pos_site_id
 _symmetry_equiv_pos_as_xyz
  1  'x, y, z'
loop_
 _atom_site_type_symbol
 _atom_site_label
 _atom_site_symmetry_multiplicity
 _atom_site_fract_x
 _atom_site_fract_y
 _atom_site_fract_z
 _atom_site_occupancy
  Sr  Sr0  1  0.73613645  0.25000000  0.23715624  1.0
  Sr  Sr1  1  0.26386355  0.75000000  0.76284376  1.0
  Bi  Bi2  1  0.79718046  0.25000000  0.88123530  1.0
  Bi  Bi3  1  0.20281954  0.75000000  0.11876470  1.0
  Bi  Bi4  1  0.24883662  0.25000000  0.50447685  1.0
  Bi  Bi5  1  0.75116338  0.75000000  0.49552315  1.0
  Pd  Pd6  1  0.75523851  0.25000000  0.63042879  1.0
  Pd  Pd7  1  0.24476149  0.75000000  0.36957121  1.0
  Pd  Pd8  1  0.31531621  0.25000000  0.99970017  1.0
  Pd  Pd9  1  0.68468379  0.75000000  0.00029983  1.0
