# generated using pymatgen
data_Lu2S3
_symmetry_space_group_name_H-M   'P 1'
_cell_length_a   6.74637422
_cell_length_b   6.74637422
_cell_length_c   18.54970469
_cell_angle_alpha   90.00000000
_cell_angle_beta   90.00000000
_cell_angle_gamma   120.00000000
_symmetry_Int_Tables_number   1
_chemical_formula_structural   Lu2S3
_chemical_formula_sum   'Lu12 S18'
_cell_volume   731.15337228
_cell_formula_units_Z   6
loop_
 _symmetry_equiv_pos_site_id
 _symmetry_equiv_pos_as_xyz
  1  'x, y, z'
loop_
 _atom_site_type_symbol
 _atom_site_label
 _atom_site_symmetry_multiplicity
 _atom_site_fract_x
 _atom_site_fract_y
 _atom_site_fract_z
 _atom_site_occupancy
  Lu  Lu0  1  0.33333333  0.66666667  -0.01026477  1.0
  Lu  Lu1  1  0.33333333  0.66666667  0.48973523  1.0
  Lu  Lu2  1  0.66666667  0.33333333  -0.01026477  1.0
  Lu  Lu3  1  0.66666667  0.33333333  0.48973523  1.0
  Lu  Lu4  1  0.33333333  0.66666667  0.29262487  1.0
  Lu  Lu5  1  0.33333333  0.66666667  0.79262487  1.0
  Lu  Lu6  1  0.66666667  0.33333333  0.29262487  1.0
  Lu  Lu7  1  0.66666667  0.33333333  0.79262487  1.0
  Lu  Lu8  1  0.00000000  0.00000000  -0.04444411  1.0
  Lu  Lu9  1  -0.00000000  0.00000000  0.45555589  1.0
  Lu  Lu10  1  -0.00000000  -0.00000000  0.15666930  1.0
  Lu  Lu11  1  -0.00000000  -0.00000000  0.65666930  1.0
  S  S12  1  0.69742107  0.69742107  0.05195574  1.0
  S  S13  1  0.69742107  -0.00000000  0.55195574  1.0
  S  S14  1  -0.00000000  0.69742107  0.55195574  1.0
  S  S15  1  -0.00000000  0.30257893  0.05195574  1.0
  S  S16  1  0.30257893  0.30257893  0.55195574  1.0
  S  S17  1  0.30257893  0.00000000  0.05195574  1.0
  S  S18  1  0.63355937  0.63355937  0.39457259  1.0
  S  S19  1  0.63355937  0.00000000  0.89457259  1.0
  S  S20  1  0.00000000  0.63355937  0.89457259  1.0
  S  S21  1  -0.00000000  0.36644063  0.39457259  1.0
  S  S22  1  0.36644063  0.36644063  0.89457259  1.0
  S  S23  1  0.36644063  -0.00000000  0.39457259  1.0
  S  S24  1  0.33531052  0.33531052  0.22538987  1.0
  S  S25  1  0.33531052  0.00000000  0.72538987  1.0
  S  S26  1  -0.00000000  0.33531052  0.72538987  1.0
  S  S27  1  0.00000000  0.66468948  0.22538987  1.0
  S  S28  1  0.66468948  0.66468948  0.72538987  1.0
  S  S29  1  0.66468948  -0.00000000  0.22538987  1.0
