# generated using pymatgen
data_Tl4PbI6
_symmetry_space_group_name_H-M   'P 1'
_cell_length_a   10.09876237
_cell_length_b   19.68345798
_cell_length_c   4.66972087
_cell_angle_alpha   90.00000000
_cell_angle_beta   90.00000000
_cell_angle_gamma   90.00000000
_symmetry_Int_Tables_number   1
_chemical_formula_structural   Tl4PbI6
_chemical_formula_sum   'Tl8 Pb2 I12'
_cell_volume   928.24041215
_cell_formula_units_Z   2
loop_
 _symmetry_equiv_pos_site_id
 _symmetry_equiv_pos_as_xyz
  1  'x, y, z'
loop_
 _atom_site_type_symbol
 _atom_site_label
 _atom_site_symmetry_multiplicity
 _atom_site_fract_x
 _atom_site_fract_y
 _atom_site_fract_z
 _atom_site_occupancy
  Tl  Tl0  1  0.39372375  0.91838452  0.50000000  1.0
  Tl  Tl1  1  0.89372375  0.58161548  0.50000000  1.0
  Tl  Tl2  1  0.60627625  0.08161548  0.50000000  1.0
  Tl  Tl3  1  0.10627625  0.41838452  0.50000000  1.0
  Tl  Tl4  1  0.23008474  0.70081276  0.50000000  1.0
  Tl  Tl5  1  0.73008474  0.79918724  0.50000000  1.0
  Tl  Tl6  1  0.76991526  0.29918724  0.50000000  1.0
  Tl  Tl7  1  0.26991526  0.20081276  0.50000000  1.0
  Pb  Pb8  1  0.50000000  0.50000000  0.00000000  1.0
  Pb  Pb9  1  0.00000000  0.00000000  0.00000000  1.0
  I  I10  1  0.05981027  0.88741123  0.50000000  1.0
  I  I11  1  0.55981027  0.61258877  0.50000000  1.0
  I  I12  1  0.94018973  0.11258877  0.50000000  1.0
  I  I13  1  0.44018973  0.38741123  0.50000000  1.0
  I  I14  1  0.41564021  0.78792439  0.00000000  1.0
  I  I15  1  0.91564021  0.71207561  0.00000000  1.0
  I  I16  1  0.58435979  0.21207561  0.00000000  1.0
  I  I17  1  0.08435979  0.28792439  0.00000000  1.0
  I  I18  1  0.19552770  0.55223025  0.00000000  1.0
  I  I19  1  0.69552770  0.94776975  0.00000000  1.0
  I  I20  1  0.80447230  0.44776975  0.00000000  1.0
  I  I21  1  0.30447230  0.05223025  0.00000000  1.0
