# generated using pymatgen
data_Na3Te(AsO7)2
_symmetry_space_group_name_H-M   'P 1'
_cell_length_a   7.94689093
_cell_length_b   7.94689093
_cell_length_c   11.72704945
_cell_angle_alpha   90.00000000
_cell_angle_beta   90.00000000
_cell_angle_gamma   120.00000000
_symmetry_Int_Tables_number   1
_chemical_formula_structural   Na3Te(AsO7)2
_chemical_formula_sum   'Na6 Te2 As4 O28'
_cell_volume   641.37775454
_cell_formula_units_Z   2
loop_
 _symmetry_equiv_pos_site_id
 _symmetry_equiv_pos_as_xyz
  1  'x, y, z'
loop_
 _atom_site_type_symbol
 _atom_site_label
 _atom_site_symmetry_multiplicity
 _atom_site_fract_x
 _atom_site_fract_y
 _atom_site_fract_z
 _atom_site_occupancy
  Na  Na0  1  0.52190726  0.47809274  0.25000000  1.0
  Na  Na1  1  0.52190726  0.04381451  0.25000000  1.0
  Na  Na2  1  0.47809274  0.52190726  0.75000000  1.0
  Na  Na3  1  0.47809274  0.95618549  0.75000000  1.0
  Na  Na4  1  0.95618549  0.47809274  0.25000000  1.0
  Na  Na5  1  0.04381451  0.52190726  0.75000000  1.0
  Te  Te6  1  0.00000000  0.00000000  0.25000000  1.0
  Te  Te7  1  -0.00000000  -0.00000000  0.75000000  1.0
  As  As8  1  0.33333333  0.66666667  0.01012133  1.0
  As  As9  1  0.33333333  0.66666667  0.48987867  1.0
  As  As10  1  0.66666667  0.33333333  0.98987867  1.0
  As  As11  1  0.66666667  0.33333333  0.51012133  1.0
  O  O12  1  0.35925622  0.88038566  0.07261566  1.0
  O  O13  1  0.35925622  0.47887056  0.42738434  1.0
  O  O14  1  0.88038566  0.35925622  0.92738434  1.0
  O  O15  1  0.88038566  0.52112944  0.57261566  1.0
  O  O16  1  0.52112944  0.88038566  0.42738434  1.0
  O  O17  1  0.52112944  0.64074378  0.07261566  1.0
  O  O18  1  0.11961434  0.64074378  0.42738434  1.0
  O  O19  1  0.11961434  0.47887056  0.07261566  1.0
  O  O20  1  0.64074378  0.52112944  0.92738434  1.0
  O  O21  1  0.64074378  0.11961434  0.57261566  1.0
  O  O22  1  0.47887056  0.35925622  0.57261566  1.0
  O  O23  1  0.47887056  0.11961434  0.92738434  1.0
  O  O24  1  1.01845919  0.78933626  0.17122494  1.0
  O  O25  1  1.01845919  0.22912293  0.32877506  1.0
  O  O26  1  0.78933626  1.01845919  0.82877506  1.0
  O  O27  1  0.78933626  0.77087707  0.67122494  1.0
  O  O28  1  0.77087707  0.78933626  0.32877506  1.0
  O  O29  1  0.77087707  -0.01845919  0.17122494  1.0
  O  O30  1  0.21066374  -0.01845919  0.32877506  1.0
  O  O31  1  0.21066374  0.22912293  0.17122494  1.0
  O  O32  1  -0.01845919  0.77087707  0.82877506  1.0
  O  O33  1  -0.01845919  0.21066374  0.67122494  1.0
  O  O34  1  0.22912293  1.01845919  0.67122494  1.0
  O  O35  1  0.22912293  0.21066374  0.82877506  1.0
  O  O36  1  0.33333333  0.66666667  0.63425992  1.0
  O  O37  1  0.33333333  0.66666667  0.86574008  1.0
  O  O38  1  0.66666667  0.33333333  0.36574008  1.0
  O  O39  1  0.66666667  0.33333333  0.13425992  1.0
