# generated using pymatgen
data_KNbSi2O7
_symmetry_space_group_name_H-M   'P 1'
_cell_length_a   8.84520385
_cell_length_b   8.84520385
_cell_length_c   8.26131127
_cell_angle_alpha   90.00000000
_cell_angle_beta   90.00000000
_cell_angle_gamma   90.00000000
_symmetry_Int_Tables_number   1
_chemical_formula_structural   KNbSi2O7
_chemical_formula_sum   'K4 Nb4 Si8 O28'
_cell_volume   646.34542423
_cell_formula_units_Z   4
loop_
 _symmetry_equiv_pos_site_id
 _symmetry_equiv_pos_as_xyz
  1  'x, y, z'
loop_
 _atom_site_type_symbol
 _atom_site_label
 _atom_site_symmetry_multiplicity
 _atom_site_fract_x
 _atom_site_fract_y
 _atom_site_fract_z
 _atom_site_occupancy
  K  K0  1  0.82108589  0.67891411  0.77518847  1.0
  K  K1  1  0.32108589  0.82108589  0.77518847  1.0
  K  K2  1  0.17891411  0.32108589  0.77518847  1.0
  K  K3  1  0.67891411  0.17891411  0.77518847  1.0
  Nb  Nb4  1  0.50000000  0.50000000  0.00081523  1.0
  Nb  Nb5  1  0.00000000  0.00000000  0.00081523  1.0
  Nb  Nb6  1  0.50000000  0.50000000  0.50366456  1.0
  Nb  Nb7  1  0.00000000  0.00000000  0.50366456  1.0
  Si  Si8  1  0.37599181  0.12400819  0.47717915  1.0
  Si  Si9  1  0.87599181  0.37599181  0.47717915  1.0
  Si  Si10  1  0.62400819  0.87599181  0.47717915  1.0
  Si  Si11  1  0.12400819  0.62400819  0.47717915  1.0
  Si  Si12  1  0.37617016  0.12382984  0.08661258  1.0
  Si  Si13  1  0.87617016  0.37617016  0.08661258  1.0
  Si  Si14  1  0.62382984  0.87617016  0.08661258  1.0
  Si  Si15  1  0.12382984  0.62382984  0.08661258  1.0
  O  O16  1  0.28904496  0.57631610  0.54641385  1.0
  O  O17  1  0.78904496  0.92368390  0.54641385  1.0
  O  O18  1  0.42368390  0.28904496  0.54641385  1.0
  O  O19  1  0.92368390  0.21095504  0.54641385  1.0
  O  O20  1  0.71095504  0.42368390  0.54641385  1.0
  O  O21  1  0.21095504  0.07631610  0.54641385  1.0
  O  O22  1  0.57631610  0.71095504  0.54641385  1.0
  O  O23  1  0.07631610  0.78904496  0.54641385  1.0
  O  O24  1  0.28864822  0.57695502  0.01727034  1.0
  O  O25  1  0.78864822  0.92304498  0.01727034  1.0
  O  O26  1  0.42304498  0.28864822  0.01727034  1.0
  O  O27  1  0.92304498  0.21135178  0.01727034  1.0
  O  O28  1  0.71135178  0.42304498  0.01727034  1.0
  O  O29  1  0.21135178  0.07695502  0.01727034  1.0
  O  O30  1  0.57695502  0.71135178  0.01727034  1.0
  O  O31  1  0.07695502  0.78864822  0.01727034  1.0
  O  O32  1  0.38081391  0.11918609  0.28183266  1.0
  O  O33  1  0.88081391  0.38081391  0.28183266  1.0
  O  O34  1  0.61918609  0.88081391  0.28183266  1.0
  O  O35  1  0.11918609  0.61918609  0.28183266  1.0
  O  O36  1  0.00000000  0.50000000  0.01428624  1.0
  O  O37  1  0.50000000  0.00000000  0.01428624  1.0
  O  O38  1  0.00000000  0.50000000  0.54939038  1.0
  O  O39  1  0.50000000  0.00000000  0.54939038  1.0
  O  O40  1  0.50000000  0.50000000  0.28815219  1.0
  O  O41  1  0.00000000  0.00000000  0.28815219  1.0
  O  O42  1  0.50000000  0.50000000  0.78412888  1.0
  O  O43  1  0.00000000  0.00000000  0.78412888  1.0
