# generated using pymatgen
data_GdAu2
_symmetry_space_group_name_H-M   'P 1'
_cell_length_a   5.29658253
_cell_length_b   5.29658253
_cell_length_c   5.29658253
_cell_angle_alpha   138.21166223
_cell_angle_beta   138.21166223
_cell_angle_gamma   60.57898230
_symmetry_Int_Tables_number   1
_chemical_formula_structural   GdAu2
_chemical_formula_sum   'Gd1 Au2'
_cell_volume   65.27859263
_cell_formula_units_Z   1
loop_
 _symmetry_equiv_pos_site_id
 _symmetry_equiv_pos_as_xyz
  1  'x, y, z'
loop_
 _atom_site_type_symbol
 _atom_site_label
 _atom_site_symmetry_multiplicity
 _atom_site_fract_x
 _atom_site_fract_y
 _atom_site_fract_z
 _atom_site_occupancy
  Gd  Gd0  1  0.00000000  0.00000000  0.00000000  1.0
  Au  Au1  1  0.66570488  0.66570488  1.00000000  1.0
  Au  Au2  1  0.33429512  0.33429512  -0.00000000  1.0
