# generated using pymatgen
data_SiO2
_symmetry_space_group_name_H-M   'P 1'
_cell_length_a   7.26747473
_cell_length_b   25.08884103
_cell_length_c   7.25326830
_cell_angle_alpha   90.00000000
_cell_angle_beta   120.01043871
_cell_angle_gamma   90.00000000
_symmetry_Int_Tables_number   1
_chemical_formula_structural   SiO2
_chemical_formula_sum   'Si32 O64'
_cell_volume   1145.20388367
_cell_formula_units_Z   32
loop_
 _symmetry_equiv_pos_site_id
 _symmetry_equiv_pos_as_xyz
  1  'x, y, z'
loop_
 _atom_site_type_symbol
 _atom_site_label
 _atom_site_symmetry_multiplicity
 _atom_site_fract_x
 _atom_site_fract_y
 _atom_site_fract_z
 _atom_site_occupancy
  Si  Si0  1  0.81868676  0.57120992  0.92644738  1.0
  Si  Si1  1  0.81868676  0.92879008  0.42644738  1.0
  Si  Si2  1  0.18131324  0.07120992  0.57355262  1.0
  Si  Si3  1  0.18131324  0.42879008  0.07355262  1.0
  Si  Si4  1  0.81913322  0.42880695  0.42687019  1.0
  Si  Si5  1  0.81913322  0.07119305  0.92687019  1.0
  Si  Si6  1  0.18086678  0.92880695  0.07312981  1.0
  Si  Si7  1  0.18086678  0.57119305  0.57312981  1.0
  Si  Si8  1  0.78206061  0.79556502  1.03803840  1.0
  Si  Si9  1  0.78206061  0.70443498  0.53803840  1.0
  Si  Si10  1  0.21793939  0.29556502  0.46196160  1.0
  Si  Si11  1  0.21793939  0.20443498  -0.03803840  1.0
  Si  Si12  1  0.71689347  0.95444320  0.96113331  1.0
  Si  Si13  1  0.71689347  0.54555680  0.46113331  1.0
  Si  Si14  1  0.28310653  0.45444320  0.53886669  1.0
  Si  Si15  1  0.28310653  0.04555680  0.03886669  1.0
  Si  Si16  1  0.71728797  0.45440519  0.96146767  1.0
  Si  Si17  1  0.71728797  0.04559481  0.46146767  1.0
  Si  Si18  1  0.28271203  0.95440519  0.53853233  1.0
  Si  Si19  1  0.28271203  0.54559481  0.03853233  1.0
  Si  Si20  1  0.68028182  0.67878610  1.07272153  1.0
  Si  Si21  1  0.68028182  0.82121390  0.57272153  1.0
  Si  Si22  1  0.31971818  0.17878610  0.42727847  1.0
  Si  Si23  1  0.31971818  0.32121390  -0.07272153  1.0
  Si  Si24  1  0.31807818  0.82119047  0.92599681  1.0
  Si  Si25  1  0.31807818  0.67880953  0.42599681  1.0
  Si  Si26  1  0.68192182  0.32119047  0.57400319  1.0
  Si  Si27  1  0.68192182  0.17880953  0.07400319  1.0
  Si  Si28  1  0.21624117  0.70441547  0.96062900  1.0
  Si  Si29  1  0.21624117  0.79558453  0.46062900  1.0
  Si  Si30  1  0.78375883  0.20441547  0.53937100  1.0
  Si  Si31  1  0.78375883  0.29558453  0.03937100  1.0
  O  O32  1  0.99914475  0.68489031  0.74932459  1.0
  O  O33  1  0.99914475  0.81510969  0.24932459  1.0
  O  O34  1  0.00085525  0.18489031  0.75067541  1.0
  O  O35  1  0.00085525  0.31510969  0.25067541  1.0
  O  O36  1  0.92272069  0.93501138  0.94498281  1.0
  O  O37  1  0.92272069  0.56498862  0.44498281  1.0
  O  O38  1  0.07727931  0.43501138  0.55501719  1.0
  O  O39  1  0.07727931  0.06498862  0.05501719  1.0
  O  O40  1  0.92311058  0.43490637  0.94541361  1.0
  O  O41  1  0.92311058  0.06509363  0.44541361  1.0
  O  O42  1  0.07688942  0.93490637  0.55458639  1.0
  O  O43  1  0.07688942  0.56509363  0.05458639  1.0
  O  O44  1  0.78219791  0.26936349  0.51777750  1.0
  O  O45  1  0.78219791  0.23063651  0.01777750  1.0
  O  O46  1  0.21780209  0.76936349  0.98222250  1.0
  O  O47  1  0.21780209  0.73063651  0.48222250  1.0
  O  O48  1  0.72780537  0.57247871  0.67042553  1.0
  O  O49  1  0.72780537  0.92752129  0.17042553  1.0
  O  O50  1  0.27219463  0.07247871  0.82957447  1.0
  O  O51  1  0.27219463  0.42752129  0.32957447  1.0
  O  O52  1  0.78045180  0.73061800  1.01638526  1.0
  O  O53  1  0.78045180  0.76938200  0.51638526  1.0
  O  O54  1  0.21954820  0.23061800  0.48361474  1.0
  O  O55  1  0.21954820  0.26938200  -0.01638526  1.0
  O  O56  1  0.77286335  0.32247807  0.83003530  1.0
  O  O57  1  0.77286335  0.17752193  0.33003530  1.0
  O  O58  1  0.22713665  0.82247807  0.66996470  1.0
  O  O59  1  0.22713665  0.67752193  0.16996470  1.0
  O  O60  1  0.77112283  0.82248173  0.82873208  1.0
  O  O61  1  0.77112283  0.67751827  0.32873208  1.0
  O  O62  1  0.22887717  0.32248173  0.67126792  1.0
  O  O63  1  0.22887717  0.17751827  0.17126792  1.0
  O  O64  1  0.71877490  0.98064625  0.48294029  1.0
  O  O65  1  0.71877490  0.51935375  -0.01705971  1.0
  O  O66  1  0.28122510  0.48064625  1.01705971  1.0
  O  O67  1  0.28122510  0.01935375  0.51705971  1.0
  O  O68  1  0.74940021  0.62498806  0.99956095  1.0
  O  O69  1  0.74940021  0.87501194  0.49956095  1.0
  O  O70  1  0.25059979  0.12498806  0.50043905  1.0
  O  O71  1  0.25059979  0.37501194  0.00043905  1.0
  O  O72  1  0.71859127  0.48060968  0.48293861  1.0
  O  O73  1  0.71859127  0.01939032  0.98293861  1.0
  O  O74  1  0.28140873  0.98060968  0.01706139  1.0
  O  O75  1  0.28140873  0.51939032  0.51706139  1.0
  O  O76  1  0.57623109  0.68498351  0.55413253  1.0
  O  O77  1  0.57623109  0.81501649  0.05413253  1.0
  O  O78  1  0.42376891  0.18498351  0.94586747  1.0
  O  O79  1  0.42376891  0.31501649  0.44586747  1.0
  O  O80  1  0.49984003  0.93488945  0.74983462  1.0
  O  O81  1  0.49984003  0.56511055  0.24983462  1.0
  O  O82  1  0.50015997  0.43488945  0.75016538  1.0
  O  O83  1  0.50015997  0.06511055  0.25016538  1.0
  O  O84  1  0.42208971  0.68493542  0.94457972  1.0
  O  O85  1  0.42208971  0.81506458  0.44457972  1.0
  O  O86  1  0.57791029  0.18493542  0.55542028  1.0
  O  O87  1  0.57791029  0.31506458  0.05542028  1.0
  O  O88  1  0.27175397  0.57248372  0.82915622  1.0
  O  O89  1  0.27175397  0.92751628  0.32915622  1.0
  O  O90  1  0.72824603  0.07248372  0.67084378  1.0
  O  O91  1  0.72824603  0.42751628  0.17084378  1.0
  O  O92  1  0.24938593  0.87499121  0.99952076  1.0
  O  O93  1  0.24938593  0.62500879  0.49952076  1.0
  O  O94  1  0.75061407  0.37499121  0.50047924  1.0
  O  O95  1  0.75061407  0.12500879  0.00047924  1.0
