# generated using pymatgen
data_Na2CdH4(SO5)2
_symmetry_space_group_name_H-M   'P 1'
_cell_length_a   5.95837008
_cell_length_b   13.21054578
_cell_length_c   5.70044542
_cell_angle_alpha   90.00000000
_cell_angle_beta   106.55506121
_cell_angle_gamma   90.00000000
_symmetry_Int_Tables_number   1
_chemical_formula_structural   Na2CdH4(SO5)2
_chemical_formula_sum   'Na4 Cd2 H8 S4 O20'
_cell_volume   430.10069636
_cell_formula_units_Z   2
loop_
 _symmetry_equiv_pos_site_id
 _symmetry_equiv_pos_as_xyz
  1  'x, y, z'
loop_
 _atom_site_type_symbol
 _atom_site_label
 _atom_site_symmetry_multiplicity
 _atom_site_fract_x
 _atom_site_fract_y
 _atom_site_fract_z
 _atom_site_occupancy
  Na  Na0  1  0.40847441  0.88358007  0.72506877  1.0
  Na  Na1  1  0.40847441  0.61641993  0.22506877  1.0
  Na  Na2  1  0.59152559  0.38358007  0.77493123  1.0
  Na  Na3  1  0.59152559  0.11641993  0.27493123  1.0
  Cd  Cd4  1  -0.00000000  0.00000000  -0.00000000  1.0
  Cd  Cd5  1  -0.00000000  0.50000000  0.50000000  1.0
  H  H6  1  0.90595702  0.21010075  0.00729927  1.0
  H  H7  1  0.90595702  0.28989925  0.50729927  1.0
  H  H8  1  0.09404298  0.71010075  0.49270073  1.0
  H  H9  1  0.09404298  0.78989925  0.99270073  1.0
  H  H10  1  0.32596878  0.66155808  0.67020682  1.0
  H  H11  1  0.32596878  0.83844192  0.17020682  1.0
  H  H12  1  0.67403122  0.16155808  0.82979318  1.0
  H  H13  1  0.67403122  0.33844192  0.32979318  1.0
  S  S14  1  0.76018269  0.61824079  0.91849434  1.0
  S  S15  1  0.76018269  0.88175921  0.41849434  1.0
  S  S16  1  0.23981731  0.11824079  0.58150566  1.0
  S  S17  1  0.23981731  0.38175921  0.08150566  1.0
  O  O18  1  0.99077646  0.83083060  0.47662054  1.0
  O  O19  1  0.99077646  0.66916940  0.97662054  1.0
  O  O20  1  0.00922354  0.33083060  0.02337946  1.0
  O  O21  1  0.00922354  0.16916940  0.52337946  1.0
  O  O22  1  0.80328428  0.35072211  0.48352173  1.0
  O  O23  1  0.80328428  0.14927789  0.98352173  1.0
  O  O24  1  0.19671572  0.85072211  0.01647827  1.0
  O  O25  1  0.19671572  0.64927789  0.51647827  1.0
  O  O26  1  0.75222433  0.95615861  0.61777458  1.0
  O  O27  1  0.75222433  0.54384139  0.11777458  1.0
  O  O28  1  0.24777567  0.45615861  0.88222542  1.0
  O  O29  1  0.24777567  0.04384139  0.38222542  1.0
  O  O30  1  0.71449369  0.55962323  0.68151605  1.0
  O  O31  1  0.71449369  0.94037677  0.18151605  1.0
  O  O32  1  0.28550631  0.05962323  0.81848395  1.0
  O  O33  1  0.28550631  0.44037677  0.31848395  1.0
  O  O34  1  0.56400221  0.69188796  0.89636247  1.0
  O  O35  1  0.56400221  0.80811204  0.39636247  1.0
  O  O36  1  0.43599779  0.19188796  0.60363753  1.0
  O  O37  1  0.43599779  0.30811204  0.10363753  1.0
