# generated using pymatgen
data_LaSe2
_symmetry_space_group_name_H-M   'P 1'
_cell_length_a   8.65108717
_cell_length_b   4.27765490
_cell_length_c   8.55728332
_cell_angle_alpha   90.00000000
_cell_angle_beta   90.23343510
_cell_angle_gamma   90.00000000
_symmetry_Int_Tables_number   1
_chemical_formula_structural   LaSe2
_chemical_formula_sum   'La4 Se8'
_cell_volume   316.67132517
_cell_formula_units_Z   4
loop_
 _symmetry_equiv_pos_site_id
 _symmetry_equiv_pos_as_xyz
  1  'x, y, z'
loop_
 _atom_site_type_symbol
 _atom_site_label
 _atom_site_symmetry_multiplicity
 _atom_site_fract_x
 _atom_site_fract_y
 _atom_site_fract_z
 _atom_site_occupancy
  La  La0  1  0.72346594  0.77726386  0.37330430  1.0
  La  La1  1  0.72346594  0.72273614  0.87330430  1.0
  La  La2  1  0.27653406  0.27726386  0.12669570  1.0
  La  La3  1  0.27653406  0.22273614  0.62669570  1.0
  Se  Se4  1  0.99792100  0.32089876  0.38264688  1.0
  Se  Se5  1  0.99792100  0.17910124  0.88264688  1.0
  Se  Se6  1  0.00207900  0.82089876  0.11735312  1.0
  Se  Se7  1  0.00207900  0.67910124  0.61735312  1.0
  Se  Se8  1  0.63448262  0.25796431  0.12554445  1.0
  Se  Se9  1  0.63448262  0.24203569  0.62554445  1.0
  Se  Se10  1  0.36551738  0.75796431  0.37445555  1.0
  Se  Se11  1  0.36551738  0.74203569  0.87445555  1.0
