# generated using pymatgen
data_H3CSNOF2
_symmetry_space_group_name_H-M   'P 1'
_cell_length_a   6.41793181
_cell_length_b   5.74414049
_cell_length_c   7.61345033
_cell_angle_alpha   76.94295133
_cell_angle_beta   72.21223395
_cell_angle_gamma   82.78106810
_symmetry_Int_Tables_number   1
_chemical_formula_structural   H3CSNOF2
_chemical_formula_sum   'H6 C2 S2 N2 O2 F4'
_cell_volume   259.86033480
_cell_formula_units_Z   2
loop_
 _symmetry_equiv_pos_site_id
 _symmetry_equiv_pos_as_xyz
  1  'x, y, z'
loop_
 _atom_site_type_symbol
 _atom_site_label
 _atom_site_symmetry_multiplicity
 _atom_site_fract_x
 _atom_site_fract_y
 _atom_site_fract_z
 _atom_site_occupancy
  H  H0  1  -0.57874386  -0.74690726  -0.49353647  1.0
  H  H1  1  -0.42125614  -0.25309274  -0.50646353  1.0
  H  H2  1  -0.49763456  -0.62105643  -0.73905926  1.0
  H  H3  1  -0.50236544  -0.37894357  -0.26094074  1.0
  H  H4  1  -0.76527848  -0.54560655  -0.59611541  1.0
  H  H5  1  -0.23472152  -0.45439345  -0.40388459  1.0
  C  C6  1  -0.63594740  -0.68920887  -0.61910033  1.0
  C  C7  1  -0.36405260  -0.31079113  -0.38089967  1.0
  S  S8  1  -0.82853323  -0.90455615  -0.79149250  1.0
  S  S9  1  -0.17146677  -0.09544385  -0.20850750  1.0
  N  N10  1  -0.71692915  -0.90093260  -0.64873979  1.0
  N  N11  1  -0.28307085  -0.09906740  -0.35126021  1.0
  O  O12  1  -0.89955198  -0.12383788  -0.80592438  1.0
  O  O13  1  -0.10044802  -0.87616212  -0.19407562  1.0
  F  F14  1  -0.03135477  -0.70766353  -0.78785725  1.0
  F  F15  1  -0.96864523  -0.29233647  -0.21214275  1.0
  F  F16  1  -0.69329913  -0.77894337  -0.00148727  1.0
  F  F17  1  -0.30670087  -0.22105663  -0.99851273  1.0
