# generated using pymatgen
data_BaAgSbS3
_symmetry_space_group_name_H-M   'P 1'
_cell_length_a   6.24850016
_cell_length_b   6.24850016
_cell_length_c   17.44517958
_cell_angle_alpha   81.82470428
_cell_angle_beta   98.17529572
_cell_angle_gamma   98.37994969
_symmetry_Int_Tables_number   1
_chemical_formula_structural   BaAgSbS3
_chemical_formula_sum   'Ba4 Ag4 Sb4 S12'
_cell_volume   661.85331463
_cell_formula_units_Z   4
loop_
 _symmetry_equiv_pos_site_id
 _symmetry_equiv_pos_as_xyz
  1  'x, y, z'
loop_
 _atom_site_type_symbol
 _atom_site_label
 _atom_site_symmetry_multiplicity
 _atom_site_fract_x
 _atom_site_fract_y
 _atom_site_fract_z
 _atom_site_occupancy
  Ba  Ba0  1  1.05333842  0.70562610  0.61208286  1.0
  Ba  Ba1  1  0.29437390  -0.05333842  0.11208286  1.0
  Ba  Ba2  1  0.70562610  0.05333842  0.88791714  1.0
  Ba  Ba3  1  0.94666158  0.29437390  0.38791714  1.0
  Ag  Ag4  1  0.20874302  0.20874302  0.75000000  1.0
  Ag  Ag5  1  0.79125698  -0.20874302  0.25000000  1.0
  Ag  Ag6  1  0.57999912  -0.42000088  0.75000000  1.0
  Ag  Ag7  1  0.42000088  0.42000088  0.25000000  1.0
  Sb  Sb8  1  1.18986433  0.53133503  0.92083243  1.0
  Sb  Sb9  1  0.46866497  -0.18986433  0.42083243  1.0
  Sb  Sb10  1  0.53133503  0.18986433  0.57916757  1.0
  Sb  Sb11  1  0.81013567  0.46866497  0.07916757  1.0
  S  S12  1  0.92473557  0.19927259  0.57908664  1.0
  S  S13  1  0.80072741  0.07526443  0.07908664  1.0
  S  S14  1  0.19927259  -0.07526443  0.92091336  1.0
  S  S15  1  1.07526443  0.80072741  0.42091336  1.0
  S  S16  1  0.99872189  0.46713379  0.78696370  1.0
  S  S17  1  0.53286621  0.00127811  0.28696370  1.0
  S  S18  1  0.46713379  -0.00127811  0.71303630  1.0
  S  S19  1  1.00127811  0.53286621  0.21303630  1.0
  S  S20  1  0.56780695  -0.46917615  0.89413427  1.0
  S  S21  1  0.46917615  0.43219305  0.39413427  1.0
  S  S22  1  0.53082385  -0.43219305  0.60586573  1.0
  S  S23  1  1.43219305  -0.53082385  0.10586573  1.0
