# generated using pymatgen
data_KBe2BO3F2
_symmetry_space_group_name_H-M   'P 1'
_cell_length_a   13.25729342
_cell_length_b   13.25729342
_cell_length_c   13.25729342
_cell_angle_alpha   19.34450348
_cell_angle_beta   19.34450348
_cell_angle_gamma   19.34450348
_symmetry_Int_Tables_number   1
_chemical_formula_structural   KBe2BO3F2
_chemical_formula_sum   'K2 Be4 B2 O6 F4'
_cell_volume   223.51420568
_cell_formula_units_Z   2
loop_
 _symmetry_equiv_pos_site_id
 _symmetry_equiv_pos_as_xyz
  1  'x, y, z'
loop_
 _atom_site_type_symbol
 _atom_site_label
 _atom_site_symmetry_multiplicity
 _atom_site_fract_x
 _atom_site_fract_y
 _atom_site_fract_z
 _atom_site_occupancy
  K  K0  1  1.00000000  0.00000000  0.00000000  1.0
  K  K1  1  0.50000000  0.50000000  0.50000000  1.0
  Be  Be2  1  0.90183838  -0.09816162  -0.09816162  1.0
  Be  Be3  1  0.40183838  0.40183838  0.40183838  1.0
  Be  Be4  1  0.59816162  0.59816162  -0.40183838  1.0
  Be  Be5  1  1.09816162  0.09816162  0.09816162  1.0
  B  B6  1  0.75000000  0.75000000  -0.25000000  1.0
  B  B7  1  0.25000000  0.25000000  0.25000000  1.0
  O  O8  1  0.44092783  0.75000000  0.05907217  1.0
  O  O9  1  0.94092783  -0.44092783  0.25000000  1.0
  O  O10  1  0.25000000  0.94092783  -0.44092783  1.0
  O  O11  1  0.75000000  1.05907217  -0.55907217  1.0
  O  O12  1  0.55907217  0.25000000  -0.05907217  1.0
  O  O13  1  1.05907217  0.44092783  -0.25000000  1.0
  F  F14  1  0.86221400  -0.13778600  -0.13778600  1.0
  F  F15  1  0.36221400  0.36221400  0.36221400  1.0
  F  F16  1  0.63778600  0.63778600  -0.36221400  1.0
  F  F17  1  1.13778600  0.13778600  0.13778600  1.0
