# generated using pymatgen
data_Sb2O3
_symmetry_space_group_name_H-M   'P 1'
_cell_length_a   5.22611399
_cell_length_b   12.68619092
_cell_length_c   5.53680017
_cell_angle_alpha   90.00000000
_cell_angle_beta   90.00000000
_cell_angle_gamma   90.00000000
_symmetry_Int_Tables_number   1
_chemical_formula_structural   Sb2O3
_chemical_formula_sum   'Sb8 O12'
_cell_volume   367.08697101
_cell_formula_units_Z   4
loop_
 _symmetry_equiv_pos_site_id
 _symmetry_equiv_pos_as_xyz
  1  'x, y, z'
loop_
 _atom_site_type_symbol
 _atom_site_label
 _atom_site_symmetry_multiplicity
 _atom_site_fract_x
 _atom_site_fract_y
 _atom_site_fract_z
 _atom_site_occupancy
  Sb  Sb0  1  0.94476312  0.87301157  0.17655816  1.0
  Sb  Sb1  1  0.94476312  0.62698843  0.67655816  1.0
  Sb  Sb2  1  0.44476312  0.37301157  0.82344184  1.0
  Sb  Sb3  1  0.44476312  0.12698843  0.32344184  1.0
  Sb  Sb4  1  0.05523688  0.37301157  0.32344184  1.0
  Sb  Sb5  1  0.05523688  0.12698843  0.82344184  1.0
  Sb  Sb6  1  0.55523688  0.87301157  0.67655816  1.0
  Sb  Sb7  1  0.55523688  0.62698843  0.17655816  1.0
  O  O8  1  0.64990714  0.94169427  0.35374515  1.0
  O  O9  1  0.64990714  0.55830573  0.85374515  1.0
  O  O10  1  0.14990714  0.44169427  0.64625485  1.0
  O  O11  1  0.14990714  0.05830573  0.14625485  1.0
  O  O12  1  0.35009286  0.44169427  0.14625485  1.0
  O  O13  1  0.35009286  0.05830573  0.64625485  1.0
  O  O14  1  0.85009286  0.94169427  0.85374515  1.0
  O  O15  1  0.85009286  0.55830573  0.35374515  1.0
  O  O16  1  0.75000000  0.75000000  0.01669603  1.0
  O  O17  1  0.75000000  0.75000000  0.51669603  1.0
  O  O18  1  0.25000000  0.25000000  0.98330397  1.0
  O  O19  1  0.25000000  0.25000000  0.48330397  1.0
