# generated using pymatgen
data_Li2TbF6
_symmetry_space_group_name_H-M   'P 1'
_cell_length_a   7.75752936
_cell_length_b   5.05236921
_cell_length_c   11.32163880
_cell_angle_alpha   90.00000000
_cell_angle_beta   107.01812761
_cell_angle_gamma   90.00000000
_symmetry_Int_Tables_number   1
_chemical_formula_structural   Li2TbF6
_chemical_formula_sum   'Li8 Tb4 F24'
_cell_volume   424.30884562
_cell_formula_units_Z   4
loop_
 _symmetry_equiv_pos_site_id
 _symmetry_equiv_pos_as_xyz
  1  'x, y, z'
loop_
 _atom_site_type_symbol
 _atom_site_label
 _atom_site_symmetry_multiplicity
 _atom_site_fract_x
 _atom_site_fract_y
 _atom_site_fract_z
 _atom_site_occupancy
  Tb  Tb0  1  0.74622797  0.48778948  0.49892561  1.0
  Tb  Tb1  1  0.74622797  0.01221052  0.99892561  1.0
  Tb  Tb2  1  0.25377203  0.98778947  0.00107439  1.0
  Tb  Tb3  1  0.25377203  0.51221052  0.50107439  1.0
  F  F4  1  0.95486896  0.73428981  0.45551677  1.0
  F  F5  1  0.95486896  0.76571019  0.95551677  1.0
  F  F6  1  0.04513104  0.23428981  0.04448323  1.0
  F  F7  1  0.04513104  0.26571019  0.54448323  1.0
  F  F8  1  0.89892926  0.85880038  0.17840733  1.0
  F  F9  1  0.89892926  0.64119962  0.67840733  1.0
  F  F10  1  0.10107074  0.35880038  0.32159267  1.0
  F  F11  1  0.10107074  0.14119962  0.82159267  1.0
  F  F12  1  0.75743697  0.36376109  0.10447155  1.0
  F  F13  1  0.75743697  0.13623891  0.60447155  1.0
  F  F14  1  0.24256303  0.86376109  0.39552845  1.0
  F  F15  1  0.24256303  0.63623891  0.89552845  1.0
  F  F16  1  0.45834510  0.30219554  0.42853439  1.0
  F  F17  1  0.45834510  0.19780446  0.92853439  1.0
  F  F18  1  0.54165490  0.80219554  0.07146561  1.0
  F  F19  1  0.54165490  0.69780446  0.57146561  1.0
  F  F20  1  0.75344128  0.25071891  0.34454928  1.0
  F  F21  1  0.75344128  0.24928109  0.84454928  1.0
  F  F22  1  0.24655872  0.75071891  0.15545072  1.0
  F  F23  1  0.24655872  0.74928109  0.65545072  1.0
  F  F24  1  0.40407231  0.22378932  0.16035863  1.0
  F  F25  1  0.40407231  0.27621068  0.66035863  1.0
  F  F26  1  0.59592769  0.72378932  0.33964137  1.0
  F  F27  1  0.59592769  0.77621068  0.83964137  1.0
  Li  Li28  1  0.96277252  0.03132346  0.33734483  1.0
  Li  Li29  1  0.96277252  0.46867654  0.83734483  1.0
  Li  Li30  1  0.03722748  0.53132346  0.16265517  1.0
  Li  Li31  1  0.03722748  0.96867654  0.66265517  1.0
  Li  Li32  1  0.59215135  0.49417331  0.19311159  1.0
  Li  Li33  1  0.59215135  0.00582669  0.69311159  1.0
  Li  Li34  1  0.40784865  0.99417331  0.30688841  1.0
  Li  Li35  1  0.40784865  0.50582669  0.80688841  1.0
