# generated using pymatgen
data_Sc(PO3)3
_symmetry_space_group_name_H-M   'P 1'
_cell_length_a   7.67924859
_cell_length_b   7.67924859
_cell_length_c   9.88312696
_cell_angle_alpha   57.15737405
_cell_angle_beta   122.84262595
_cell_angle_gamma   128.62923901
_symmetry_Int_Tables_number   1
_chemical_formula_structural   Sc(PO3)3
_chemical_formula_sum   'Sc2 P6 O18'
_cell_volume   363.62232586
_cell_formula_units_Z   2
loop_
 _symmetry_equiv_pos_site_id
 _symmetry_equiv_pos_as_xyz
  1  'x, y, z'
loop_
 _atom_site_type_symbol
 _atom_site_label
 _atom_site_symmetry_multiplicity
 _atom_site_fract_x
 _atom_site_fract_y
 _atom_site_fract_z
 _atom_site_occupancy
  Sc  Sc0  1  0.98332261  0.49122550  0.74788945  1.0
  Sc  Sc1  1  1.50877450  0.01667739  0.24788945  1.0
  P  P2  1  0.42170702  0.44503068  0.47935055  1.0
  P  P3  1  0.55496932  0.57829298  -0.02064945  1.0
  P  P4  1  1.01273554  0.81141215  0.91657486  1.0
  P  P5  1  0.18858785  -0.01273554  0.41657486  1.0
  P  P6  1  0.99334466  -0.78739900  0.57841359  1.0
  P  P7  1  1.78739900  0.00665534  0.07841359  1.0
  O  O8  1  0.74361452  0.72897375  0.88060800  1.0
  O  O9  1  0.27102625  0.25638548  0.38060800  1.0
  O  O10  1  0.62302419  0.40797164  0.62866317  1.0
  O  O11  1  1.59202836  0.37697581  0.12866317  1.0
  O  O12  1  1.12107280  0.83244143  0.57677746  1.0
  O  O13  1  1.16755857  -0.12107280  0.07677746  1.0
  O  O14  1  1.02247611  0.63514729  0.89863807  1.0
  O  O15  1  0.36485271  -0.02247611  0.39863807  1.0
  O  O16  1  0.91410061  -0.66317117  0.59252147  1.0
  O  O17  1  1.66317117  0.08589939  0.09252147  1.0
  O  O18  1  0.91307939  0.17212773  0.94729481  1.0
  O  O19  1  1.82787227  0.08692061  0.44729481  1.0
  O  O20  1  1.31906202  0.52484452  0.84639763  1.0
  O  O21  1  1.47515548  -0.31906202  0.34639763  1.0
  O  O22  1  1.24284768  -0.60015235  0.54619778  1.0
  O  O23  1  1.60015235  -0.24284768  0.04619778  1.0
  O  O24  1  0.07509551  0.04503049  0.76067316  1.0
  O  O25  1  0.95496951  0.92490449  0.26067316  1.0
