# generated using pymatgen
data_K2FeF5
_symmetry_space_group_name_H-M   'P 1'
_cell_length_a   7.23927454
_cell_length_b   7.23927454
_cell_length_c   7.45802931
_cell_angle_alpha   64.76673611
_cell_angle_beta   115.23326389
_cell_angle_gamma   132.40593233
_symmetry_Int_Tables_number   1
_chemical_formula_structural   K2FeF5
_chemical_formula_sum   'K4 Fe2 F10'
_cell_volume   255.36216453
_cell_formula_units_Z   2
loop_
 _symmetry_equiv_pos_site_id
 _symmetry_equiv_pos_as_xyz
  1  'x, y, z'
loop_
 _atom_site_type_symbol
 _atom_site_label
 _atom_site_symmetry_multiplicity
 _atom_site_fract_x
 _atom_site_fract_y
 _atom_site_fract_z
 _atom_site_occupancy
  K  K0  1  0.83494481  0.16505519  0.23225995  1.0
  K  K1  1  0.16505519  -0.16505519  0.76774005  1.0
  K  K2  1  0.46992589  -0.46992589  0.74253599  1.0
  K  K3  1  0.53007411  0.46992589  0.25746401  1.0
  Fe  Fe4  1  0.81086337  0.18913663  0.72045873  1.0
  Fe  Fe5  1  0.18913663  -0.18913663  0.27954127  1.0
  F  F6  1  0.62161647  -0.09929483  0.91815597  1.0
  F  F7  1  1.09929483  0.37838353  0.91815597  1.0
  F  F8  1  0.90070517  0.62161647  0.08184403  1.0
  F  F9  1  0.37838353  0.09929483  0.08184403  1.0
  F  F10  1  0.94284499  0.05715501  0.67132276  1.0
  F  F11  1  0.05715501  -0.05715501  0.32867724  1.0
  F  F12  1  0.65413060  0.34586940  0.68728299  1.0
  F  F13  1  0.34586940  -0.34586940  0.31271701  1.0
  F  F14  1  0.50000000  0.00000000  0.50000000  1.0
  F  F15  1  1.00000000  0.50000000  0.50000000  1.0
