# generated using pymatgen
data_Be3As2(H2O5)2
_symmetry_space_group_name_H-M   'P 1'
_cell_length_a   8.67545938
_cell_length_b   8.67545938
_cell_length_c   10.07138162
_cell_angle_alpha   85.89198568
_cell_angle_beta   94.10801432
_cell_angle_gamma   148.27566678
_symmetry_Int_Tables_number   1
_chemical_formula_structural   Be3As2(H2O5)2
_chemical_formula_sum   'Be6 As4 H8 O20'
_cell_volume   397.47892734
_cell_formula_units_Z   2
loop_
 _symmetry_equiv_pos_site_id
 _symmetry_equiv_pos_as_xyz
  1  'x, y, z'
loop_
 _atom_site_type_symbol
 _atom_site_label
 _atom_site_symmetry_multiplicity
 _atom_site_fract_x
 _atom_site_fract_y
 _atom_site_fract_z
 _atom_site_occupancy
  Be  Be0  1  0.30032277  -0.20533290  0.83845213  1.0
  Be  Be1  1  1.20533290  0.69967723  0.33845213  1.0
  Be  Be2  1  0.79466710  0.30032277  0.66154787  1.0
  Be  Be3  1  0.69967723  0.20533290  0.16154787  1.0
  Be  Be4  1  0.67804563  0.67804563  0.75000000  1.0
  Be  Be5  1  0.32195437  0.32195437  0.25000000  1.0
  As  As6  1  0.38974226  -0.30041712  0.60010799  1.0
  As  As7  1  1.30041712  0.61025774  0.10010799  1.0
  As  As8  1  0.69958288  0.38974226  0.89989201  1.0
  As  As9  1  0.61025774  0.30041712  0.39989201  1.0
  H  H10  1  0.85648646  -0.01400751  0.30933649  1.0
  H  H11  1  1.01400751  0.14351354  0.80933649  1.0
  H  H12  1  0.98599249  0.85648646  0.19066351  1.0
  H  H13  1  0.14351354  0.01400751  0.69066351  1.0
  H  H14  1  0.71632398  -0.09813526  0.89291647  1.0
  H  H15  1  1.09813526  0.28367602  0.39291647  1.0
  H  H16  1  0.90186474  0.71632398  0.60708353  1.0
  H  H17  1  0.28367602  0.09813526  0.10708353  1.0
  O  O18  1  0.84999820  -0.05522678  0.84780700  1.0
  O  O19  1  1.05522678  0.15000180  0.34780700  1.0
  O  O20  1  0.94477322  0.84999820  0.65219300  1.0
  O  O21  1  0.15000180  0.05522678  0.15219300  1.0
  O  O22  1  0.41728675  -0.25163471  0.93935109  1.0
  O  O23  1  1.25163471  0.58271325  0.43935109  1.0
  O  O24  1  0.74836529  0.41728675  0.56064891  1.0
  O  O25  1  0.58271325  0.25163471  0.06064891  1.0
  O  O26  1  0.72054284  0.07490025  0.60271093  1.0
  O  O27  1  0.92509975  0.27945716  0.10271093  1.0
  O  O28  1  1.07490025  0.72054284  0.89728907  1.0
  O  O29  1  0.27945716  -0.07490025  0.39728907  1.0
  O  O30  1  0.60138069  0.15360462  0.79836881  1.0
  O  O31  1  0.84639538  0.39861931  0.29836881  1.0
  O  O32  1  1.15360462  0.60138069  0.70163119  1.0
  O  O33  1  0.39861931  -0.15360462  0.20163119  1.0
  O  O34  1  0.52481447  0.40453763  0.83310505  1.0
  O  O35  1  0.59546237  0.47518553  0.33310505  1.0
  O  O36  1  1.40453763  0.52481447  0.66689495  1.0
  O  O37  1  0.47518553  -0.40453763  0.16689495  1.0
