# generated using pymatgen
data_RbIn(SeO3)2
_symmetry_space_group_name_H-M   'P 1'
_cell_length_a   16.06151965
_cell_length_b   5.65182879
_cell_length_c   7.99623125
_cell_angle_alpha   90.00000000
_cell_angle_beta   90.00000000
_cell_angle_gamma   90.00000000
_symmetry_Int_Tables_number   1
_chemical_formula_structural   RbIn(SeO3)2
_chemical_formula_sum   'Rb4 In4 Se8 O24'
_cell_volume   725.87355720
_cell_formula_units_Z   4
loop_
 _symmetry_equiv_pos_site_id
 _symmetry_equiv_pos_as_xyz
  1  'x, y, z'
loop_
 _atom_site_type_symbol
 _atom_site_label
 _atom_site_symmetry_multiplicity
 _atom_site_fract_x
 _atom_site_fract_y
 _atom_site_fract_z
 _atom_site_occupancy
  Rb  Rb0  1  0.39210101  0.75000000  0.07299453  1.0
  Rb  Rb1  1  0.89210101  0.75000000  0.42700547  1.0
  Rb  Rb2  1  0.60789899  0.25000000  0.92700547  1.0
  Rb  Rb3  1  0.10789899  0.25000000  0.57299453  1.0
  In  In4  1  0.12983448  0.75000000  0.17877687  1.0
  In  In5  1  0.62983448  0.75000000  0.32122313  1.0
  In  In6  1  0.87016552  0.25000000  0.82122313  1.0
  In  In7  1  0.37016552  0.25000000  0.67877687  1.0
  Se  Se8  1  0.47726626  0.75000000  0.61753397  1.0
  Se  Se9  1  0.97726626  0.75000000  0.88246603  1.0
  Se  Se10  1  0.52273374  0.25000000  0.38246603  1.0
  Se  Se11  1  0.02273374  0.25000000  0.11753397  1.0
  Se  Se12  1  0.27193291  0.75000000  0.49232501  1.0
  Se  Se13  1  0.77193291  0.75000000  1.00767499  1.0
  Se  Se14  1  0.72806709  0.25000000  0.50767499  1.0
  Se  Se15  1  0.22806709  0.25000000  -0.00767499  1.0
  O  O16  1  0.46622769  0.98610513  0.75320782  1.0
  O  O17  1  0.46622769  0.51389487  0.75320782  1.0
  O  O18  1  0.96622769  0.98610513  0.74679218  1.0
  O  O19  1  0.96622769  0.51389487  0.74679218  1.0
  O  O20  1  0.53377231  0.48610513  0.24679218  1.0
  O  O21  1  0.53377231  0.01389487  0.24679218  1.0
  O  O22  1  0.03377231  0.48610513  0.25320782  1.0
  O  O23  1  0.03377231  0.01389487  0.25320782  1.0
  O  O24  1  0.27374542  0.98651875  0.62888899  1.0
  O  O25  1  0.27374542  0.51348125  0.62888899  1.0
  O  O26  1  0.77374542  0.98651875  0.87111101  1.0
  O  O27  1  0.77374542  0.51348125  0.87111101  1.0
  O  O28  1  0.72625458  0.48651875  0.37111101  1.0
  O  O29  1  0.72625458  0.01348125  0.37111101  1.0
  O  O30  1  0.22625458  0.48651875  0.12888899  1.0
  O  O31  1  0.22625458  0.01348125  0.12888899  1.0
  O  O32  1  0.08316804  0.75000000  0.91821940  1.0
  O  O33  1  0.58316804  0.75000000  0.58178060  1.0
  O  O34  1  0.91683196  0.25000000  0.08178060  1.0
  O  O35  1  0.41683196  0.25000000  0.41821940  1.0
  O  O36  1  0.66737665  0.75000000  0.05870820  1.0
  O  O37  1  0.16737665  0.75000000  0.44129180  1.0
  O  O38  1  0.33262335  0.25000000  0.94129180  1.0
  O  O39  1  0.83262335  0.25000000  0.55870820  1.0
