# generated using pymatgen
data_Li2MnSnS4
_symmetry_space_group_name_H-M   'P 1'
_cell_length_a   7.87198840
_cell_length_b   6.98527596
_cell_length_c   6.48835992
_cell_angle_alpha   90.00000000
_cell_angle_beta   90.00000000
_cell_angle_gamma   90.00000000
_symmetry_Int_Tables_number   1
_chemical_formula_structural   Li2MnSnS4
_chemical_formula_sum   'Li4 Mn2 Sn2 S8'
_cell_volume   356.78200923
_cell_formula_units_Z   2
loop_
 _symmetry_equiv_pos_site_id
 _symmetry_equiv_pos_as_xyz
  1  'x, y, z'
loop_
 _atom_site_type_symbol
 _atom_site_label
 _atom_site_symmetry_multiplicity
 _atom_site_fract_x
 _atom_site_fract_y
 _atom_site_fract_z
 _atom_site_occupancy
  Li  Li0  1  0.74914998  0.16837233  0.69566130  1.0
  Li  Li1  1  0.25085002  0.16837233  0.69566130  1.0
  Li  Li2  1  0.75085002  0.83162767  0.19566130  1.0
  Li  Li3  1  0.24914998  0.83162767  0.19566130  1.0
  Mn  Mn4  1  0.50000000  0.33967511  0.19669387  1.0
  Mn  Mn5  1  0.00000000  0.66032489  0.69669387  1.0
  Sn  Sn6  1  0.00000000  0.33743066  0.19417686  1.0
  Sn  Sn7  1  0.50000000  0.66256934  0.69417686  1.0
  S  S8  1  0.50000000  0.33714890  0.82562419  1.0
  S  S9  1  0.00000000  0.66285110  0.32562419  1.0
  S  S10  1  0.74824259  0.16803033  0.31575718  1.0
  S  S11  1  0.25175741  0.16803033  0.31575718  1.0
  S  S12  1  0.75175741  0.83196967  0.81575718  1.0
  S  S13  1  0.24824259  0.83196967  0.81575718  1.0
  S  S14  1  0.00000000  0.33617146  0.81866813  1.0
  S  S15  1  0.50000000  0.66382854  0.31866813  1.0
