# generated using pymatgen
data_LuCrO4
_symmetry_space_group_name_H-M   'P 1'
_cell_length_a   5.89369374
_cell_length_b   5.89369374
_cell_length_c   5.89369374
_cell_angle_alpha   106.14303293
_cell_angle_beta   106.14303293
_cell_angle_gamma   116.35474937
_symmetry_Int_Tables_number   1
_chemical_formula_structural   LuCrO4
_chemical_formula_sum   'Lu2 Cr2 O8'
_cell_volume   155.86865267
_cell_formula_units_Z   2
loop_
 _symmetry_equiv_pos_site_id
 _symmetry_equiv_pos_as_xyz
  1  'x, y, z'
loop_
 _atom_site_type_symbol
 _atom_site_label
 _atom_site_symmetry_multiplicity
 _atom_site_fract_x
 _atom_site_fract_y
 _atom_site_fract_z
 _atom_site_occupancy
  Lu  Lu0  1  0.75000000  1.25000000  0.50000000  1.0
  Lu  Lu1  1  0.00000000  0.00000000  0.00000000  1.0
  Cr  Cr2  1  1.25000000  0.75000000  0.50000000  1.0
  Cr  Cr3  1  0.50000000  0.50000000  -0.00000000  1.0
  O  O4  1  1.07459562  0.75964522  0.68504960  1.0
  O  O5  1  1.07459562  1.38954602  1.31495040  1.0
  O  O6  1  0.67540438  0.86045398  0.18504960  1.0
  O  O7  1  0.67540438  0.49035478  0.81495040  1.0
  O  O8  1  1.24035478  0.92540438  0.31495040  1.0
  O  O9  1  1.61045398  0.92540438  0.68504960  1.0
  O  O10  1  1.13954602  1.32459562  0.81495040  1.0
  O  O11  1  0.50964522  0.32459562  0.18504960  1.0
