# generated using pymatgen
data_Ta2ZnO6
_symmetry_space_group_name_H-M   'P 1'
_cell_length_a   14.33208119
_cell_length_b   5.81536265
_cell_length_c   5.08248365
_cell_angle_alpha   90.00000000
_cell_angle_beta   90.00000000
_cell_angle_gamma   90.00000000
_symmetry_Int_Tables_number   1
_chemical_formula_structural   Ta2ZnO6
_chemical_formula_sum   'Ta8 Zn4 O24'
_cell_volume   423.60595126
_cell_formula_units_Z   4
loop_
 _symmetry_equiv_pos_site_id
 _symmetry_equiv_pos_as_xyz
  1  'x, y, z'
loop_
 _atom_site_type_symbol
 _atom_site_label
 _atom_site_symmetry_multiplicity
 _atom_site_fract_x
 _atom_site_fract_y
 _atom_site_fract_z
 _atom_site_occupancy
  Ta  Ta0  1  0.66068571  0.67534250  0.73695682  1.0
  Ta  Ta1  1  0.66068571  0.32465750  0.23695682  1.0
  Ta  Ta2  1  0.16068571  0.17534250  0.76304318  1.0
  Ta  Ta3  1  0.16068571  0.82465750  0.26304318  1.0
  Ta  Ta4  1  0.33931429  0.67534250  0.76304318  1.0
  Ta  Ta5  1  0.33931429  0.32465750  0.26304318  1.0
  Ta  Ta6  1  0.83931429  0.17534250  0.73695682  1.0
  Ta  Ta7  1  0.83931429  0.82465750  0.23695682  1.0
  Zn  Zn8  1  0.00000000  0.66299629  0.75000000  1.0
  Zn  Zn9  1  0.00000000  0.33700371  0.25000000  1.0
  Zn  Zn10  1  0.50000000  0.16299629  0.75000000  1.0
  Zn  Zn11  1  0.50000000  0.83700371  0.25000000  1.0
  O  O12  1  0.90241094  0.89607016  0.56595492  1.0
  O  O13  1  0.90241094  0.10392984  0.06595492  1.0
  O  O14  1  0.40241094  0.39607016  0.93404508  1.0
  O  O15  1  0.40241094  0.60392984  0.43404508  1.0
  O  O16  1  0.09758906  0.89607016  0.93404508  1.0
  O  O17  1  0.09758906  0.10392984  0.43404508  1.0
  O  O18  1  0.59758906  0.39607016  0.56595492  1.0
  O  O19  1  0.59758906  0.60392984  0.06595492  1.0
  O  O20  1  0.75537933  0.87339223  0.91146644  1.0
  O  O21  1  0.75537933  0.12660777  0.41146644  1.0
  O  O22  1  0.25537933  0.37339223  0.58853356  1.0
  O  O23  1  0.25537933  0.62660777  0.08853356  1.0
  O  O24  1  0.24462067  0.87339223  0.58853356  1.0
  O  O25  1  0.24462067  0.12660777  0.08853356  1.0
  O  O26  1  0.74462067  0.37339223  0.91146644  1.0
  O  O27  1  0.74462067  0.62660777  0.41146644  1.0
  O  O28  1  0.57961171  0.87959853  0.58521172  1.0
  O  O29  1  0.57961171  0.12040147  0.08521172  1.0
  O  O30  1  0.07961171  0.37959853  0.91478828  1.0
  O  O31  1  0.07961171  0.62040147  0.41478828  1.0
  O  O32  1  0.42038829  0.87959853  0.91478828  1.0
  O  O33  1  0.42038829  0.12040147  0.41478828  1.0
  O  O34  1  0.92038829  0.37959853  0.58521172  1.0
  O  O35  1  0.92038829  0.62040147  0.08521172  1.0
