# generated using pymatgen
data_HCN
_symmetry_space_group_name_H-M   'P 1'
_cell_length_a   9.41874703
_cell_length_b   5.05512620
_cell_length_c   12.34773920
_cell_angle_alpha   90.00000000
_cell_angle_beta   106.13751694
_cell_angle_gamma   90.00000000
_symmetry_Int_Tables_number   1
_chemical_formula_structural   HCN
_chemical_formula_sum   'H16 C16 N16'
_cell_volume   564.74705314
_cell_formula_units_Z   16
loop_
 _symmetry_equiv_pos_site_id
 _symmetry_equiv_pos_as_xyz
  1  'x, y, z'
loop_
 _atom_site_type_symbol
 _atom_site_label
 _atom_site_symmetry_multiplicity
 _atom_site_fract_x
 _atom_site_fract_y
 _atom_site_fract_z
 _atom_site_occupancy
  H  H0  1  0.09398936  0.25974812  0.91754243  1.0
  H  H1  1  0.90601064  0.75974812  0.58245757  1.0
  H  H2  1  0.90601064  0.74025188  0.08245757  1.0
  H  H3  1  0.09398936  0.24025188  0.41754243  1.0
  H  H4  1  0.16574873  0.50591308  0.85092450  1.0
  H  H5  1  0.83425127  0.00591308  0.64907550  1.0
  H  H6  1  0.83425127  0.49408692  0.14907550  1.0
  H  H7  1  0.16574873  0.99408692  0.35092450  1.0
  H  H8  1  0.41190409  0.78049177  0.09499264  1.0
  H  H9  1  0.58809591  0.28049177  0.40500736  1.0
  H  H10  1  0.58809591  0.21950823  0.90500736  1.0
  H  H11  1  0.41190409  0.71950823  0.59499264  1.0
  H  H12  1  0.36160494  0.77524586  0.94865543  1.0
  H  H13  1  0.63839506  0.27524586  0.55134457  1.0
  H  H14  1  0.63839506  0.22475414  0.05134457  1.0
  H  H15  1  0.36160494  0.72475414  0.44865543  1.0
  C  C16  1  0.25265578  0.50377604  0.02223366  1.0
  C  C17  1  0.74734422  0.00377604  0.47776634  1.0
  C  C18  1  0.74734422  0.49622396  0.97776634  1.0
  C  C19  1  0.25265578  0.99622396  0.52223366  1.0
  C  C20  1  0.24259725  0.39103694  0.12655109  1.0
  C  C21  1  0.75740275  0.89103694  0.37344891  1.0
  C  C22  1  0.75740275  0.60896306  0.87344891  1.0
  C  C23  1  0.24259725  0.10896306  0.62655109  1.0
  C  C24  1  0.14236423  0.18848540  0.13067350  1.0
  C  C25  1  0.85763577  0.68848540  0.36932650  1.0
  C  C26  1  0.85763577  0.81151460  0.86932650  1.0
  C  C27  1  0.14236423  0.31151460  0.63067350  1.0
  C  C28  1  0.33120730  0.48139729  0.23028491  1.0
  C  C29  1  0.66879270  -0.01860271  0.26971509  1.0
  C  C30  1  0.66879270  0.51860271  0.76971509  1.0
  C  C31  1  0.33120730  1.01860271  0.73028491  1.0
  N  N32  1  0.16836243  0.41100615  0.92385464  1.0
  N  N33  1  0.83163757  0.91100615  0.57614536  1.0
  N  N34  1  0.83163757  0.58899385  0.07614536  1.0
  N  N35  1  0.16836243  0.08899385  0.42385464  1.0
  N  N36  1  0.34650339  0.70186080  0.02223046  1.0
  N  N37  1  0.65349661  0.20186080  0.47776954  1.0
  N  N38  1  0.65349661  0.29813920  0.97776954  1.0
  N  N39  1  0.34650339  0.79813920  0.52223046  1.0
  N  N40  1  0.06005670  0.01938080  0.13725679  1.0
  N  N41  1  0.93994330  0.51938080  0.36274321  1.0
  N  N42  1  0.93994330  0.98061920  0.86274321  1.0
  N  N43  1  0.06005670  0.48061920  0.63725679  1.0
  N  N44  1  0.40380704  0.55234676  0.31897339  1.0
  N  N45  1  0.59619296  0.05234676  0.18102661  1.0
  N  N46  1  0.59619296  0.44765324  0.68102661  1.0
  N  N47  1  0.40380704  0.94765324  0.81897339  1.0
