# generated using pymatgen
data_Na2NbAsO6
_symmetry_space_group_name_H-M   'P 1'
_cell_length_a   9.23355605
_cell_length_b   9.23355605
_cell_length_c   7.39635949
_cell_angle_alpha   75.58972326
_cell_angle_beta   104.41027674
_cell_angle_gamma   106.68168581
_symmetry_Int_Tables_number   1
_chemical_formula_structural   Na2NbAsO6
_chemical_formula_sum   'Na8 Nb4 As4 O24'
_cell_volume   574.26082383
_cell_formula_units_Z   4
loop_
 _symmetry_equiv_pos_site_id
 _symmetry_equiv_pos_as_xyz
  1  'x, y, z'
loop_
 _atom_site_type_symbol
 _atom_site_label
 _atom_site_symmetry_multiplicity
 _atom_site_fract_x
 _atom_site_fract_y
 _atom_site_fract_z
 _atom_site_occupancy
  Na  Na0  1  0.64719935  -0.07071820  0.93988945  1.0
  Na  Na1  1  1.07071820  0.35280065  0.43988945  1.0
  Na  Na2  1  0.92928180  -0.35280065  0.56011055  1.0
  Na  Na3  1  1.35280065  0.07071820  0.06011055  1.0
  Na  Na4  1  0.99200030  -0.00799970  0.75000000  1.0
  Na  Na5  1  1.00799970  0.00799970  0.25000000  1.0
  Na  Na6  1  0.54618461  -0.45381539  0.75000000  1.0
  Na  Na7  1  1.45381539  0.45381539  0.25000000  1.0
  Nb  Nb8  1  1.70843665  0.28635899  0.61502652  1.0
  Nb  Nb9  1  0.71364101  -0.70843665  0.11502652  1.0
  Nb  Nb10  1  1.28635899  0.70843665  0.88497348  1.0
  Nb  Nb11  1  0.29156335  -0.28635899  0.38497348  1.0
  As  As12  1  0.68247781  -0.05945681  0.44952875  1.0
  As  As13  1  1.05945681  0.31752219  0.94952875  1.0
  As  As14  1  0.94054319  -0.31752219  0.05047125  1.0
  As  As15  1  1.31752219  0.05945681  0.55047125  1.0
  O  O16  1  0.84205016  -0.12484757  0.47185803  1.0
  O  O17  1  1.12484757  0.15794984  0.97185803  1.0
  O  O18  1  0.87515243  -0.15794984  0.02814197  1.0
  O  O19  1  1.15794984  0.12484757  0.52814197  1.0
  O  O20  1  0.47813396  -0.31771407  0.93838028  1.0
  O  O21  1  1.31771407  0.52186604  0.43838028  1.0
  O  O22  1  0.68228593  -0.52186604  0.56161972  1.0
  O  O23  1  1.52186604  0.31771407  0.06161972  1.0
  O  O24  1  0.52292889  -0.21374025  0.48887391  1.0
  O  O25  1  1.21374025  0.47707111  0.98887391  1.0
  O  O26  1  0.78625975  -0.47707111  0.01112609  1.0
  O  O27  1  1.47707111  0.21374025  0.51112609  1.0
  O  O28  1  1.71537562  0.04280122  0.63041055  1.0
  O  O29  1  0.95719878  -0.71537562  0.13041055  1.0
  O  O30  1  1.04280122  0.71537562  0.86958945  1.0
  O  O31  1  0.28462438  -0.04280122  0.36958945  1.0
  O  O32  1  1.69261762  0.21373101  0.87539029  1.0
  O  O33  1  0.78626899  -0.69261762  0.37539029  1.0
  O  O34  1  1.21373101  0.69261762  0.62460971  1.0
  O  O35  1  0.30738238  -0.21373101  0.12460971  1.0
  O  O36  1  0.35968774  -0.04700018  0.78195606  1.0
  O  O37  1  1.04700018  0.64031226  0.28195606  1.0
  O  O38  1  0.95299982  -0.64031226  0.71804394  1.0
  O  O39  1  1.64031226  0.04700018  0.21804394  1.0
