# generated using pymatgen
data_RbSb
_symmetry_space_group_name_H-M   'P 1'
_cell_length_a   7.52889346
_cell_length_b   7.30298174
_cell_length_c   14.04439102
_cell_angle_alpha   90.00000000
_cell_angle_beta   114.16473906
_cell_angle_gamma   90.00000000
_symmetry_Int_Tables_number   1
_chemical_formula_structural   RbSb
_chemical_formula_sum   'Rb8 Sb8'
_cell_volume   704.54109678
_cell_formula_units_Z   8
loop_
 _symmetry_equiv_pos_site_id
 _symmetry_equiv_pos_as_xyz
  1  'x, y, z'
loop_
 _atom_site_type_symbol
 _atom_site_label
 _atom_site_symmetry_multiplicity
 _atom_site_fract_x
 _atom_site_fract_y
 _atom_site_fract_z
 _atom_site_occupancy
  Rb  Rb0  1  0.71412347  0.40115570  0.33107689  1.0
  Rb  Rb1  1  0.71412347  0.09884430  0.83107689  1.0
  Rb  Rb2  1  0.28587653  0.90115570  0.16892311  1.0
  Rb  Rb3  1  0.28587653  0.59884430  0.66892311  1.0
  Rb  Rb4  1  0.25421153  0.16852076  0.46738501  1.0
  Rb  Rb5  1  0.25421153  0.33147924  0.96738501  1.0
  Rb  Rb6  1  0.74578847  0.66852076  0.03261499  1.0
  Rb  Rb7  1  0.74578847  0.83147924  0.53261499  1.0
  Sb  Sb8  1  0.82890534  0.90428022  0.28376608  1.0
  Sb  Sb9  1  0.82890534  0.59571978  0.78376608  1.0
  Sb  Sb10  1  0.17109466  0.40428022  0.21623392  1.0
  Sb  Sb11  1  0.17109466  0.09571978  0.71623392  1.0
  Sb  Sb12  1  0.83401455  0.16914451  0.12955417  1.0
  Sb  Sb13  1  0.83401455  0.33085549  0.62955417  1.0
  Sb  Sb14  1  0.16598545  0.66914451  0.37044583  1.0
  Sb  Sb15  1  0.16598545  0.83085549  0.87044583  1.0
