# generated using pymatgen
data_Cu5Se2(ClO4)2
_symmetry_space_group_name_H-M   'P 1'
_cell_length_a   6.16190661
_cell_length_b   13.99305985
_cell_length_c   5.71221276
_cell_angle_alpha   90.00000000
_cell_angle_beta   95.12354672
_cell_angle_gamma   90.00000000
_symmetry_Int_Tables_number   1
_chemical_formula_structural   Cu5Se2(ClO4)2
_chemical_formula_sum   'Cu10 Se4 Cl4 O16'
_cell_volume   490.56149468
_cell_formula_units_Z   2
loop_
 _symmetry_equiv_pos_site_id
 _symmetry_equiv_pos_as_xyz
  1  'x, y, z'
loop_
 _atom_site_type_symbol
 _atom_site_label
 _atom_site_symmetry_multiplicity
 _atom_site_fract_x
 _atom_site_fract_y
 _atom_site_fract_z
 _atom_site_occupancy
  O  O0  1  0.72961145  0.55488105  0.56956061  1.0
  O  O1  1  0.72961145  0.94511895  0.06956061  1.0
  O  O2  1  0.27038855  0.05488105  0.93043939  1.0
  O  O3  1  0.27038855  0.44511895  0.43043939  1.0
  O  O4  1  0.52656145  0.92797726  0.63098440  1.0
  O  O5  1  0.52656145  0.57202274  0.13098440  1.0
  O  O6  1  0.47343855  0.42797726  0.86901560  1.0
  O  O7  1  0.47343855  0.07202274  0.36901560  1.0
  O  O8  1  0.99488564  0.44257040  0.81863937  1.0
  O  O9  1  0.99488564  0.05742960  0.31863937  1.0
  O  O10  1  0.00511436  0.94257040  0.68136063  1.0
  O  O11  1  0.00511436  0.55742960  0.18136063  1.0
  O  O12  1  0.75210901  0.78008378  0.81691633  1.0
  O  O13  1  0.75210901  0.71991622  0.31691633  1.0
  O  O14  1  0.24789099  0.28008378  0.68308367  1.0
  O  O15  1  0.24789099  0.21991622  0.18308367  1.0
  Cl  Cl16  1  0.82932158  0.17677145  0.72427602  1.0
  Cl  Cl17  1  0.82932158  0.32322855  0.22427602  1.0
  Cl  Cl18  1  0.17067842  0.67677145  0.77572398  1.0
  Cl  Cl19  1  0.17067842  0.82322855  0.27572398  1.0
  Se  Se20  1  0.56864904  0.86671520  0.89838717  1.0
  Se  Se21  1  0.56864904  0.63328480  0.39838717  1.0
  Se  Se22  1  0.43135096  0.36671520  0.60161283  1.0
  Se  Se23  1  0.43135096  0.13328480  0.10161283  1.0
  Cu  Cu24  1  0.00000000  0.00000000  0.00000000  1.0
  Cu  Cu25  1  0.00000000  0.50000000  0.50000000  1.0
  Cu  Cu26  1  0.93973937  0.81159729  0.56094910  1.0
  Cu  Cu27  1  0.93973937  0.68840271  0.06094910  1.0
  Cu  Cu28  1  0.06026063  0.31159729  0.93905090  1.0
  Cu  Cu29  1  0.06026063  0.18840271  0.43905090  1.0
  Cu  Cu30  1  0.75842961  0.49692065  0.98993832  1.0
  Cu  Cu31  1  0.75842961  0.00307935  0.48993832  1.0
  Cu  Cu32  1  0.24157039  0.99692065  0.51006168  1.0
  Cu  Cu33  1  0.24157039  0.50307935  0.01006168  1.0
