# generated using pymatgen
data_Rb2FeOF5
_symmetry_space_group_name_H-M   'P 1'
_cell_length_a   6.37277837
_cell_length_b   6.37277837
_cell_length_c   8.29026090
_cell_angle_alpha   90.00000000
_cell_angle_beta   90.00000000
_cell_angle_gamma   87.29692119
_symmetry_Int_Tables_number   1
_chemical_formula_structural   Rb2FeOF5
_chemical_formula_sum   'Rb4 Fe2 O2 F10'
_cell_volume   336.31198028
_cell_formula_units_Z   2
loop_
 _symmetry_equiv_pos_site_id
 _symmetry_equiv_pos_as_xyz
  1  'x, y, z'
loop_
 _atom_site_type_symbol
 _atom_site_label
 _atom_site_symmetry_multiplicity
 _atom_site_fract_x
 _atom_site_fract_y
 _atom_site_fract_z
 _atom_site_occupancy
  Rb  Rb0  1  -0.00000267  0.49999874  0.25000000  1.0
  Rb  Rb1  1  -0.50000126  0.99999733  0.75000000  1.0
  Rb  Rb2  1  0.50000126  1.00000267  0.25000000  1.0
  Rb  Rb3  1  0.00000267  1.50000126  0.75000000  1.0
  Fe  Fe4  1  -0.00000000  0.00000000  0.50000000  1.0
  Fe  Fe5  1  -0.00000000  -0.00000000  0.00000000  1.0
  O  O6  1  -0.50000138  1.50000138  0.25000000  1.0
  O  O7  1  0.50000138  0.49999862  0.75000000  1.0
  F  F8  1  0.21317901  0.78682099  1.00002410  1.0
  F  F9  1  0.21317901  0.78682099  0.49997590  1.0
  F  F10  1  -0.21317901  1.21317901  0.50002410  1.0
  F  F11  1  -0.21317901  1.21317901  -0.00002410  1.0
  F  F12  1  0.79622567  0.79622567  0.50000000  1.0
  F  F13  1  0.79622567  0.79622567  0.00000000  1.0
  F  F14  1  0.20377433  0.20377433  0.50000000  1.0
  F  F15  1  0.20377433  0.20377433  0.00000000  1.0
  F  F16  1  -0.00003157  1.00003157  0.25000000  1.0
  F  F17  1  0.00003157  0.99996843  0.75000000  1.0
