# generated using pymatgen
data_Sn(Mo3Se4)2
_symmetry_space_group_name_H-M   'P 1'
_cell_length_a   6.85093735
_cell_length_b   6.85093735
_cell_length_c   6.85093735
_cell_angle_alpha   89.38144021
_cell_angle_beta   89.38144021
_cell_angle_gamma   89.38144021
_symmetry_Int_Tables_number   1
_chemical_formula_structural   Sn(Mo3Se4)2
_chemical_formula_sum   'Sn1 Mo6 Se8'
_cell_volume   321.49527783
_cell_formula_units_Z   1
loop_
 _symmetry_equiv_pos_site_id
 _symmetry_equiv_pos_as_xyz
  1  'x, y, z'
loop_
 _atom_site_type_symbol
 _atom_site_label
 _atom_site_symmetry_multiplicity
 _atom_site_fract_x
 _atom_site_fract_y
 _atom_site_fract_z
 _atom_site_occupancy
  Sn  Sn0  1  0.00000000  0.00000000  0.00000000  1.0
  Mo  Mo1  1  0.44061915  0.57733509  -0.23844917  1.0
  Mo  Mo2  1  0.42266491  0.23844917  -0.44061915  1.0
  Mo  Mo3  1  0.23844917  0.55938085  -0.57733509  1.0
  Mo  Mo4  1  0.55938085  0.42266491  -0.76155083  1.0
  Mo  Mo5  1  0.57733509  0.76155083  -0.55938085  1.0
  Mo  Mo6  1  0.76155083  0.44061915  -0.42266491  1.0
  Se  Se7  1  0.87754089  0.62200050  -0.74673262  1.0
  Se  Se8  1  0.37799950  0.74673262  -0.87754089  1.0
  Se  Se9  1  0.74673262  0.12245911  -0.62200050  1.0
  Se  Se10  1  0.12245911  0.37799950  -0.25326738  1.0
  Se  Se11  1  0.62200050  0.25326738  -0.12245911  1.0
  Se  Se12  1  0.25326738  0.87754089  -0.37799950  1.0
  Se  Se13  1  0.75902168  0.75902168  -0.24097832  1.0
  Se  Se14  1  1.24097832  1.24097832  0.24097832  1.0
