# generated using pymatgen
data_Ba3(PS4)2
_symmetry_space_group_name_H-M   'P 1'
_cell_length_a   17.59550735
_cell_length_b   6.68186376
_cell_length_c   11.85925237
_cell_angle_alpha   90.00000000
_cell_angle_beta   90.02852896
_cell_angle_gamma   90.00000000
_symmetry_Int_Tables_number   1
_chemical_formula_structural   Ba3(PS4)2
_chemical_formula_sum   'Ba12 P8 S32'
_cell_volume   1394.30141279
_cell_formula_units_Z   4
loop_
 _symmetry_equiv_pos_site_id
 _symmetry_equiv_pos_as_xyz
  1  'x, y, z'
loop_
 _atom_site_type_symbol
 _atom_site_label
 _atom_site_symmetry_multiplicity
 _atom_site_fract_x
 _atom_site_fract_y
 _atom_site_fract_z
 _atom_site_occupancy
  Ba  Ba0  1  0.92220776  0.99557709  0.65153197  1.0
  Ba  Ba1  1  0.92220776  0.50442291  0.15153197  1.0
  Ba  Ba2  1  0.07779224  0.49557709  0.84846803  1.0
  Ba  Ba3  1  0.07779224  0.00442291  0.34846803  1.0
  Ba  Ba4  1  0.74658118  0.94319689  0.97307461  1.0
  Ba  Ba5  1  0.74658118  0.55680311  0.47307461  1.0
  Ba  Ba6  1  0.25341882  0.44319689  0.52692539  1.0
  Ba  Ba7  1  0.25341882  0.05680311  0.02692539  1.0
  Ba  Ba8  1  0.42367964  0.97818454  0.67095605  1.0
  Ba  Ba9  1  0.42367964  0.52181546  0.17095605  1.0
  Ba  Ba10  1  0.57632036  0.47818454  0.82904395  1.0
  Ba  Ba11  1  0.57632036  0.02181546  0.32904395  1.0
  P  P12  1  0.86076977  0.46251493  0.83296695  1.0
  P  P13  1  0.86076977  0.03748507  0.33296695  1.0
  P  P14  1  0.13923023  0.96251493  0.66703305  1.0
  P  P15  1  0.13923023  0.53748507  0.16703305  1.0
  P  P16  1  0.63851166  0.97972413  0.66738030  1.0
  P  P17  1  0.63851166  0.52027587  0.16738030  1.0
  P  P18  1  0.36148834  0.47972413  0.83261970  1.0
  P  P19  1  0.36148834  0.02027587  0.33261970  1.0
  S  S20  1  0.92515771  0.23089044  0.89679182  1.0
  S  S21  1  0.92515771  0.26910956  0.39679182  1.0
  S  S22  1  0.07484229  0.73089044  0.60320818  1.0
  S  S23  1  0.07484229  0.76910956  0.10320818  1.0
  S  S24  1  0.90740189  0.72623467  0.89411691  1.0
  S  S25  1  0.90740189  0.77376533  0.39411691  1.0
  S  S26  1  0.09259811  0.22623467  0.60588309  1.0
  S  S27  1  0.09259811  0.27376533  0.10588309  1.0
  S  S28  1  0.87510617  0.46208469  0.66093130  1.0
  S  S29  1  0.87510617  0.03791531  0.16093130  1.0
  S  S30  1  0.12489383  0.96208469  0.83906870  1.0
  S  S31  1  0.12489383  0.53791531  0.33906870  1.0
  S  S32  1  0.74655961  0.87816510  0.69674279  1.0
  S  S33  1  0.74655961  0.62183490  0.19674279  1.0
  S  S34  1  0.25344039  0.37816510  0.80325721  1.0
  S  S35  1  0.25344039  0.12183490  0.30325721  1.0
  S  S36  1  0.75347155  0.42940093  0.89845956  1.0
  S  S37  1  0.75347155  0.07059907  0.39845956  1.0
  S  S38  1  0.24652845  0.92940093  0.60154044  1.0
  S  S39  1  0.24652845  0.57059907  0.10154044  1.0
  S  S40  1  0.58367414  0.76934392  0.56944860  1.0
  S  S41  1  0.58367414  0.73065608  0.06944860  1.0
  S  S42  1  0.41632586  0.26934392  0.93055140  1.0
  S  S43  1  0.41632586  0.23065608  0.43055140  1.0
  S  S44  1  0.58316430  0.98593996  0.82154054  1.0
  S  S45  1  0.58316430  0.51406004  0.32154054  1.0
  S  S46  1  0.41683570  0.48593996  0.67845946  1.0
  S  S47  1  0.41683570  0.01406004  0.17845946  1.0
  S  S48  1  0.37821644  0.75423205  0.90619843  1.0
  S  S49  1  0.37821644  0.74576795  0.40619843  1.0
  S  S50  1  0.62178356  0.25423205  0.59380157  1.0
  S  S51  1  0.62178356  0.24576795  0.09380157  1.0
