# generated using pymatgen
data_BaScZn3GaO7
_symmetry_space_group_name_H-M   'P 1'
_cell_length_a   6.27296801
_cell_length_b   6.27296801
_cell_length_c   10.19474827
_cell_angle_alpha   90.00000000
_cell_angle_beta   90.00000000
_cell_angle_gamma   120.00000000
_symmetry_Int_Tables_number   1
_chemical_formula_structural   BaScZn3GaO7
_chemical_formula_sum   'Ba2 Sc2 Zn6 Ga2 O14'
_cell_volume   347.41877399
_cell_formula_units_Z   2
loop_
 _symmetry_equiv_pos_site_id
 _symmetry_equiv_pos_as_xyz
  1  'x, y, z'
loop_
 _atom_site_type_symbol
 _atom_site_label
 _atom_site_symmetry_multiplicity
 _atom_site_fract_x
 _atom_site_fract_y
 _atom_site_fract_z
 _atom_site_occupancy
  Ba  Ba0  1  0.33333333  0.66666667  0.01464041  1.0
  Ba  Ba1  1  0.66666667  0.33333333  0.51464041  1.0
  Sc  Sc2  1  0.33333333  0.66666667  0.36803210  1.0
  Sc  Sc3  1  0.66666667  0.33333333  0.86803210  1.0
  Zn  Zn4  1  0.82685253  0.65370505  0.18814890  1.0
  Zn  Zn5  1  0.34629495  0.17314747  0.18814890  1.0
  Zn  Zn6  1  0.82685253  0.17314747  0.18814890  1.0
  Zn  Zn7  1  0.17314747  0.34629495  0.68814890  1.0
  Zn  Zn8  1  0.65370505  0.82685253  0.68814890  1.0
  Zn  Zn9  1  0.17314747  0.82685253  0.68814890  1.0
  Ga  Ga10  1  0.00000000  0.00000000  0.93717640  1.0
  Ga  Ga11  1  0.00000000  0.00000000  0.43717640  1.0
  O  O12  1  0.48964027  0.97928053  0.24945156  1.0
  O  O13  1  0.02071947  0.51035973  0.24945156  1.0
  O  O14  1  0.48964027  0.51035973  0.24945156  1.0
  O  O15  1  0.51035973  0.02071947  0.74945156  1.0
  O  O16  1  0.97928053  0.48964027  0.74945156  1.0
  O  O17  1  0.51035973  0.48964027  0.74945156  1.0
  O  O18  1  -0.00000000  -0.00000000  0.75303832  1.0
  O  O19  1  -0.00000000  -0.00000000  0.25303832  1.0
  O  O20  1  0.83512324  0.67024648  0.99243379  1.0
  O  O21  1  0.32975352  0.16487676  0.99243379  1.0
  O  O22  1  0.83512324  0.16487676  0.99243379  1.0
  O  O23  1  0.16487676  0.32975352  0.49243379  1.0
  O  O24  1  0.67024648  0.83512324  0.49243379  1.0
  O  O25  1  0.16487676  0.83512324  0.49243379  1.0
