# generated using pymatgen
data_Sc6Al16Ni7
_symmetry_space_group_name_H-M   'P 1'
_cell_length_a   8.56883823
_cell_length_b   8.56883823
_cell_length_c   8.56883823
_cell_angle_alpha   60.00000000
_cell_angle_beta   60.00000000
_cell_angle_gamma   60.00000000
_symmetry_Int_Tables_number   1
_chemical_formula_structural   Sc6Al16Ni7
_chemical_formula_sum   'Sc6 Al16 Ni7'
_cell_volume   444.88814568
_cell_formula_units_Z   1
loop_
 _symmetry_equiv_pos_site_id
 _symmetry_equiv_pos_as_xyz
  1  'x, y, z'
loop_
 _atom_site_type_symbol
 _atom_site_label
 _atom_site_symmetry_multiplicity
 _atom_site_fract_x
 _atom_site_fract_y
 _atom_site_fract_z
 _atom_site_occupancy
  Sc  Sc0  1  0.69572839  0.69572839  -0.69572839  1.0
  Sc  Sc1  1  0.30427161  -0.30427161  1.30427161  1.0
  Sc  Sc2  1  -0.30427161  0.30427161  0.30427161  1.0
  Sc  Sc3  1  0.30427161  1.30427161  -0.30427161  1.0
  Sc  Sc4  1  -0.30427161  0.30427161  0.69572839  1.0
  Sc  Sc5  1  -0.69572839  0.69572839  0.69572839  1.0
  Al  Al6  1  0.88074615  0.88074615  -0.64223846  1.0
  Al  Al7  1  0.88074615  0.35776154  -0.11925385  1.0
  Al  Al8  1  0.35776154  0.88074615  -0.11925385  1.0
  Al  Al9  1  0.88074615  0.88074615  -0.11925385  1.0
  Al  Al10  1  1.11925385  0.11925385  0.64223846  1.0
  Al  Al11  1  1.11925385  0.64223846  0.11925385  1.0
  Al  Al12  1  1.64223846  0.11925385  0.11925385  1.0
  Al  Al13  1  1.11925385  0.11925385  0.11925385  1.0
  Al  Al14  1  0.66607382  0.66607382  0.00177854  1.0
  Al  Al15  1  0.66607382  1.00177854  -0.33392618  1.0
  Al  Al16  1  1.00177854  0.66607382  -0.33392618  1.0
  Al  Al17  1  0.66607382  0.66607382  -0.33392618  1.0
  Al  Al18  1  1.33392618  0.33392618  -0.00177854  1.0
  Al  Al19  1  1.33392618  -0.00177854  0.33392618  1.0
  Al  Al20  1  0.99822146  0.33392618  0.33392618  1.0
  Al  Al21  1  1.33392618  0.33392618  0.33392618  1.0
  Ni  Ni22  1  0.00000000  0.00000000  0.00000000  1.0
  Ni  Ni23  1  0.00000000  0.00000000  0.50000000  1.0
  Ni  Ni24  1  0.50000000  1.00000000  -0.50000000  1.0
  Ni  Ni25  1  1.00000000  0.50000000  -0.50000000  1.0
  Ni  Ni26  1  0.50000000  -0.50000000  1.00000000  1.0
  Ni  Ni27  1  0.00000000  1.50000000  -0.00000000  1.0
  Ni  Ni28  1  1.50000000  0.00000000  -0.00000000  1.0
