# generated using pymatgen
data_Lu2Zr3Si4
_symmetry_space_group_name_H-M   'P 1'
_cell_length_a   7.27646978
_cell_length_b   7.27646978
_cell_length_c   13.32389378
_cell_angle_alpha   90.00000000
_cell_angle_beta   90.00000000
_cell_angle_gamma   90.00000000
_symmetry_Int_Tables_number   1
_chemical_formula_structural   Lu2Zr3Si4
_chemical_formula_sum   'Lu8 Zr12 Si16'
_cell_volume   705.46036967
_cell_formula_units_Z   4
loop_
 _symmetry_equiv_pos_site_id
 _symmetry_equiv_pos_as_xyz
  1  'x, y, z'
loop_
 _atom_site_type_symbol
 _atom_site_label
 _atom_site_symmetry_multiplicity
 _atom_site_fract_x
 _atom_site_fract_y
 _atom_site_fract_z
 _atom_site_occupancy
  Lu  Lu0  1  0.50481589  0.84796072  0.03624721  1.0
  Lu  Lu1  1  1.00481589  0.65203928  0.71375279  1.0
  Lu  Lu2  1  0.15203928  0.49518411  0.46375279  1.0
  Lu  Lu3  1  0.65203928  1.00481589  0.28624721  1.0
  Lu  Lu4  1  0.49518411  0.15203928  0.53624721  1.0
  Lu  Lu5  1  -0.00481589  0.34796072  0.21375279  1.0
  Lu  Lu6  1  0.84796072  0.50481589  0.96375279  1.0
  Lu  Lu7  1  0.34796072  -0.00481589  0.78624721  1.0
  Zr  Zr8  1  0.35649071  0.49819119  0.87510436  1.0
  Zr  Zr9  1  0.85649071  1.00180881  0.87489564  1.0
  Zr  Zr10  1  0.50180881  0.64350929  0.62489564  1.0
  Zr  Zr11  1  1.00180881  0.85649071  0.12510436  1.0
  Zr  Zr12  1  0.64350929  0.50180881  0.37510436  1.0
  Zr  Zr13  1  0.14350929  -0.00180881  0.37489564  1.0
  Zr  Zr14  1  0.49819119  0.35649071  0.12489564  1.0
  Zr  Zr15  1  -0.00180881  0.14350929  0.62510436  1.0
  Zr  Zr16  1  0.32322451  0.67677549  0.25000000  1.0
  Zr  Zr17  1  0.82322451  0.82322451  0.50000000  1.0
  Zr  Zr18  1  0.67677549  0.32322451  0.75000000  1.0
  Zr  Zr19  1  0.17677549  0.17677549  0.00000000  1.0
  Si  Si20  1  0.20178361  0.55151112  0.06296006  1.0
  Si  Si21  1  0.70178361  0.94848888  0.68703994  1.0
  Si  Si22  1  0.44848888  0.79821639  0.43703994  1.0
  Si  Si23  1  0.94848888  0.70178361  0.31296006  1.0
  Si  Si24  1  0.79821639  0.44848888  0.56296006  1.0
  Si  Si25  1  0.29821639  0.05151112  0.18703994  1.0
  Si  Si26  1  0.55151112  0.20178361  0.93703994  1.0
  Si  Si27  1  0.05151112  0.29821639  0.81296006  1.0
  Si  Si28  1  0.14525313  0.79572986  0.93243312  1.0
  Si  Si29  1  0.64525313  0.70427014  0.81756688  1.0
  Si  Si30  1  0.20427014  0.85474687  0.56756688  1.0
  Si  Si31  1  0.70427014  0.64525313  0.18243312  1.0
  Si  Si32  1  0.85474687  0.20427014  0.43243312  1.0
  Si  Si33  1  0.35474687  0.29572986  0.31756688  1.0
  Si  Si34  1  0.79572986  0.14525313  0.06756688  1.0
  Si  Si35  1  0.29572986  0.35474687  0.68243312  1.0
