# generated using pymatgen
data_Y3MnB7
_symmetry_space_group_name_H-M   'P 1'
_cell_length_a   8.05737653
_cell_length_b   8.05737653
_cell_length_c   9.29970829
_cell_angle_alpha   90.00000000
_cell_angle_beta   90.00000000
_cell_angle_gamma   155.40782768
_symmetry_Int_Tables_number   1
_chemical_formula_structural   Y3MnB7
_chemical_formula_sum   'Y6 Mn2 B14'
_cell_volume   251.25424033
_cell_formula_units_Z   2
loop_
 _symmetry_equiv_pos_site_id
 _symmetry_equiv_pos_as_xyz
  1  'x, y, z'
loop_
 _atom_site_type_symbol
 _atom_site_label
 _atom_site_symmetry_multiplicity
 _atom_site_fract_x
 _atom_site_fract_y
 _atom_site_fract_z
 _atom_site_occupancy
  Y  Y0  1  0.39578947  0.60421053  0.93969933  1.0
  Y  Y1  1  0.39578947  0.60421053  0.56030067  1.0
  Y  Y2  1  -0.39578947  0.39578947  0.43969933  1.0
  Y  Y3  1  -0.39578947  0.39578947  0.06030067  1.0
  Y  Y4  1  -0.25968544  0.25968544  0.75000000  1.0
  Y  Y5  1  0.25968544  0.74031456  0.25000000  1.0
  Mn  Mn6  1  -0.44636839  0.44636839  0.75000000  1.0
  Mn  Mn7  1  0.44636839  0.55363161  0.25000000  1.0
  B  B8  1  0.02162334  0.97837666  0.90187048  1.0
  B  B9  1  0.02162334  0.97837666  0.59812952  1.0
  B  B10  1  -0.02162334  0.02162334  0.40187048  1.0
  B  B11  1  -0.02162334  0.02162334  0.09812952  1.0
  B  B12  1  0.12985338  0.87014662  0.84717829  1.0
  B  B13  1  0.12985338  0.87014662  0.65282171  1.0
  B  B14  1  -0.12985338  0.12985338  0.34717829  1.0
  B  B15  1  -0.12985338  0.12985338  0.15282171  1.0
  B  B16  1  0.22739821  0.77260179  0.96731294  1.0
  B  B17  1  0.22739821  0.77260179  0.53268706  1.0
  B  B18  1  -0.22739821  0.22739821  0.46731294  1.0
  B  B19  1  -0.22739821  0.22739821  0.03268706  1.0
  B  B20  1  -0.03959000  0.03959000  0.75000000  1.0
  B  B21  1  0.03959000  0.96041000  0.25000000  1.0
