# generated using pymatgen
data_Ag2SeO2
_symmetry_space_group_name_H-M   'P 1'
_cell_length_a   9.30717557
_cell_length_b   8.59687909
_cell_length_c   6.76309484
_cell_angle_alpha   73.50200227
_cell_angle_beta   62.33218186
_cell_angle_gamma   44.16581587
_symmetry_Int_Tables_number   1
_chemical_formula_structural   Ag2SeO2
_chemical_formula_sum   'Ag8 Se4 O8'
_cell_volume   332.85733097
_cell_formula_units_Z   4
loop_
 _symmetry_equiv_pos_site_id
 _symmetry_equiv_pos_as_xyz
  1  'x, y, z'
loop_
 _atom_site_type_symbol
 _atom_site_label
 _atom_site_symmetry_multiplicity
 _atom_site_fract_x
 _atom_site_fract_y
 _atom_site_fract_z
 _atom_site_occupancy
  Ag  Ag0  1  -0.16990026  0.60890715  0.42878384  1.0
  Ag  Ag1  1  0.13220927  0.42878384  1.60890715  1.0
  Ag  Ag2  1  -0.35890715  0.41990026  1.11779073  1.0
  Ag  Ag3  1  -0.17878384  1.11779073  0.41990026  1.0
  Ag  Ag4  1  0.42878384  0.13220927  -0.16990026  1.0
  Ag  Ag5  1  0.60890715  -0.16990026  1.13220927  1.0
  Ag  Ag6  1  0.11779073  0.82121616  0.64109285  1.0
  Ag  Ag7  1  -0.58009974  0.64109285  0.82121616  1.0
  Se  Se8  1  0.12500000  0.12500000  1.62500000  1.0
  Se  Se9  1  0.12500000  0.62500000  1.12500000  1.0
  Se  Se10  1  0.12500000  0.12500000  1.12500000  1.0
  Se  Se11  1  0.62500000  0.12500000  1.12500000  1.0
  O  O12  1  0.43458616  -0.15475500  1.52570584  1.0
  O  O13  1  0.19446300  0.52570584  -0.15475500  1.0
  O  O14  1  -0.59524500  0.81541384  1.05553700  1.0
  O  O15  1  -0.27570584  1.05553700  0.81541384  1.0
  O  O16  1  0.52570584  0.19446300  1.43458616  1.0
  O  O17  1  -0.15475500  0.43458616  0.19446300  1.0
  O  O18  1  0.05553700  0.72429416  0.40475500  1.0
  O  O19  1  -0.18458616  0.40475500  0.72429416  1.0
