# generated using pymatgen
data_Sn2OF5
_symmetry_space_group_name_H-M   'P 1'
_cell_length_a   5.79032144
_cell_length_b   5.79032144
_cell_length_c   8.51987893
_cell_angle_alpha   68.54575484
_cell_angle_beta   111.45424516
_cell_angle_gamma   108.15111202
_symmetry_Int_Tables_number   1
_chemical_formula_structural   Sn2OF5
_chemical_formula_sum   'Sn4 O2 F10'
_cell_volume   242.17333900
_cell_formula_units_Z   2
loop_
 _symmetry_equiv_pos_site_id
 _symmetry_equiv_pos_as_xyz
  1  'x, y, z'
loop_
 _atom_site_type_symbol
 _atom_site_label
 _atom_site_symmetry_multiplicity
 _atom_site_fract_x
 _atom_site_fract_y
 _atom_site_fract_z
 _atom_site_occupancy
  Sn  Sn0  1  0.52468443  -0.52468443  0.82328134  1.0
  Sn  Sn1  1  1.47531557  -0.47531557  0.17671866  1.0
  Sn  Sn2  1  -0.00000000  0.00000000  0.50000000  1.0
  Sn  Sn3  1  0.00000000  0.00000000  0.00000000  1.0
  O  O4  1  0.69393858  0.69393858  0.00000000  1.0
  O  O5  1  0.30606142  0.30606142  0.00000000  1.0
  F  F6  1  1.37018605  0.21321209  0.69602997  1.0
  F  F7  1  0.78678791  0.62981395  0.69602997  1.0
  F  F8  1  1.21321209  0.37018605  0.30397003  1.0
  F  F9  1  1.62981395  -0.21321209  0.30397003  1.0
  F  F10  1  0.89801450  0.10198550  0.74068460  1.0
  F  F11  1  0.10198550  -0.10198550  0.25931540  1.0
  F  F12  1  0.77603066  -0.77603066  0.99609150  1.0
  F  F13  1  1.22396934  -0.22396934  0.00390850  1.0
  F  F14  1  0.70580575  0.29419425  0.34977622  1.0
  F  F15  1  0.29419425  -0.29419425  0.65022378  1.0
