# generated using pymatgen
data_LiCaAs
_symmetry_space_group_name_H-M   'P 1'
_cell_length_a   7.24992870
_cell_length_b   4.31130232
_cell_length_c   7.97073453
_cell_angle_alpha   90.00000000
_cell_angle_beta   90.00000000
_cell_angle_gamma   90.00000000
_symmetry_Int_Tables_number   1
_chemical_formula_structural   LiCaAs
_chemical_formula_sum   'Li4 Ca4 As4'
_cell_volume   249.13833545
_cell_formula_units_Z   4
loop_
 _symmetry_equiv_pos_site_id
 _symmetry_equiv_pos_as_xyz
  1  'x, y, z'
loop_
 _atom_site_type_symbol
 _atom_site_label
 _atom_site_symmetry_multiplicity
 _atom_site_fract_x
 _atom_site_fract_y
 _atom_site_fract_z
 _atom_site_occupancy
  Li  Li0  1  0.85399983  0.75000000  0.06679469  1.0
  Li  Li1  1  0.35399983  0.75000000  0.43320531  1.0
  Li  Li2  1  0.14600017  0.25000000  0.93320531  1.0
  Li  Li3  1  0.64600017  0.25000000  0.56679469  1.0
  Ca  Ca4  1  0.98362320  0.75000000  0.69494893  1.0
  Ca  Ca5  1  0.48362320  0.75000000  0.80505107  1.0
  Ca  Ca6  1  0.01637680  0.25000000  0.30505107  1.0
  Ca  Ca7  1  0.51637680  0.25000000  0.19494893  1.0
  As  As8  1  0.73205028  0.75000000  0.39468210  1.0
  As  As9  1  0.23205028  0.75000000  0.10531790  1.0
  As  As10  1  0.26794972  0.25000000  0.60531790  1.0
  As  As11  1  0.76794972  0.25000000  0.89468210  1.0
