# generated using pymatgen
data_Li2O
_symmetry_space_group_name_H-M   'P 1'
_cell_length_a   5.10858295
_cell_length_b   3.13095961
_cell_length_c   5.90042572
_cell_angle_alpha   90.00000000
_cell_angle_beta   90.00000000
_cell_angle_gamma   90.00000000
_symmetry_Int_Tables_number   1
_chemical_formula_structural   Li2O
_chemical_formula_sum   'Li8 O4'
_cell_volume   94.37593373
_cell_formula_units_Z   4
loop_
 _symmetry_equiv_pos_site_id
 _symmetry_equiv_pos_as_xyz
  1  'x, y, z'
loop_
 _atom_site_type_symbol
 _atom_site_label
 _atom_site_symmetry_multiplicity
 _atom_site_fract_x
 _atom_site_fract_y
 _atom_site_fract_z
 _atom_site_occupancy
  Li  Li0  1  0.99197655  0.75000000  0.65591072  1.0
  Li  Li1  1  0.49197655  0.75000000  0.84408928  1.0
  Li  Li2  1  0.00802345  0.25000000  0.34408928  1.0
  Li  Li3  1  0.50802345  0.25000000  0.15591072  1.0
  Li  Li4  1  0.86018188  0.75000000  0.08113929  1.0
  Li  Li5  1  0.36018188  0.75000000  0.41886071  1.0
  Li  Li6  1  0.13981812  0.25000000  0.91886071  1.0
  Li  Li7  1  0.63981812  0.25000000  0.58113929  1.0
  O  O8  1  0.74726688  0.75000000  0.40209391  1.0
  O  O9  1  0.24726688  0.75000000  0.09790609  1.0
  O  O10  1  0.25273312  0.25000000  0.59790609  1.0
  O  O11  1  0.75273312  0.25000000  0.90209391  1.0
