# generated using pymatgen
data_Mo5As4
_symmetry_space_group_name_H-M   'P 1'
_cell_length_a   7.03780720
_cell_length_b   7.03780720
_cell_length_c   7.03780720
_cell_angle_alpha   93.13807464
_cell_angle_beta   93.13807464
_cell_angle_gamma   152.93806920
_symmetry_Int_Tables_number   1
_chemical_formula_structural   Mo5As4
_chemical_formula_sum   'Mo5 As4'
_cell_volume   154.18922802
_cell_formula_units_Z   1
loop_
 _symmetry_equiv_pos_site_id
 _symmetry_equiv_pos_as_xyz
  1  'x, y, z'
loop_
 _atom_site_type_symbol
 _atom_site_label
 _atom_site_symmetry_multiplicity
 _atom_site_fract_x
 _atom_site_fract_y
 _atom_site_fract_z
 _atom_site_occupancy
  Mo  Mo0  1  0.00000000  0.00000000  0.00000000  1.0
  Mo  Mo1  1  0.70086691  0.62080678  0.32167369  1.0
  Mo  Mo2  1  0.62080678  0.29913309  0.91993987  1.0
  Mo  Mo3  1  1.29913309  1.37919322  1.67832631  1.0
  Mo  Mo4  1  0.37919322  0.70086691  1.08006013  1.0
  As  As5  1  0.94270766  0.71417110  0.65687877  1.0
  As  As6  1  0.71417110  0.05729234  0.77146344  1.0
  As  As7  1  1.05729234  1.28582890  1.34312123  1.0
  As  As8  1  0.28582890  0.94270766  1.22853656  1.0
