# generated using pymatgen
data_Zr6Fe(SnH5)2
_symmetry_space_group_name_H-M   'P 1'
_cell_length_a   8.16523754
_cell_length_b   8.16523754
_cell_length_c   7.31499047
_cell_angle_alpha   90.00000000
_cell_angle_beta   90.00000000
_cell_angle_gamma   120.00000000
_symmetry_Int_Tables_number   1
_chemical_formula_structural   Zr6Fe(SnH5)2
_chemical_formula_sum   'Zr12 Fe2 Sn4 H20'
_cell_volume   422.35928279
_cell_formula_units_Z   2
loop_
 _symmetry_equiv_pos_site_id
 _symmetry_equiv_pos_as_xyz
  1  'x, y, z'
loop_
 _atom_site_type_symbol
 _atom_site_label
 _atom_site_symmetry_multiplicity
 _atom_site_fract_x
 _atom_site_fract_y
 _atom_site_fract_z
 _atom_site_occupancy
  Zr  Zr0  1  0.62860729  0.58051393  0.25000000  1.0
  Zr  Zr1  1  0.58051393  0.62860729  0.75000000  1.0
  Zr  Zr2  1  0.95190664  0.37139271  0.25000000  1.0
  Zr  Zr3  1  0.41948607  0.04809336  0.25000000  1.0
  Zr  Zr4  1  0.37139271  0.95190664  0.75000000  1.0
  Zr  Zr5  1  0.04809336  0.41948607  0.75000000  1.0
  Zr  Zr6  1  0.25348710  0.25348710  0.50000000  1.0
  Zr  Zr7  1  0.25348710  0.25348710  0.00000000  1.0
  Zr  Zr8  1  -0.00000000  0.74651290  0.50000000  1.0
  Zr  Zr9  1  -0.00000000  0.74651290  0.00000000  1.0
  Zr  Zr10  1  0.74651290  0.00000000  0.50000000  1.0
  Zr  Zr11  1  0.74651290  0.00000000  0.00000000  1.0
  Fe  Fe12  1  0.00000000  0.00000000  0.25000000  1.0
  Fe  Fe13  1  0.00000000  0.00000000  0.75000000  1.0
  Sn  Sn14  1  0.33333333  0.66666667  0.45777262  1.0
  Sn  Sn15  1  0.33333333  0.66666667  0.04222738  1.0
  Sn  Sn16  1  0.66666667  0.33333333  0.95777262  1.0
  Sn  Sn17  1  0.66666667  0.33333333  0.54222738  1.0
  H  H18  1  0.72253855  0.72253855  0.50000000  1.0
  H  H19  1  0.72253855  0.72253855  0.00000000  1.0
  H  H20  1  -0.00000000  0.27746145  0.50000000  1.0
  H  H21  1  -0.00000000  0.27746145  0.00000000  1.0
  H  H22  1  0.27746145  0.00000000  0.50000000  1.0
  H  H23  1  0.27746145  0.00000000  0.00000000  1.0
  H  H24  1  0.11787516  0.88177274  0.25000000  1.0
  H  H25  1  0.88177274  0.11787516  0.75000000  1.0
  H  H26  1  0.76389759  0.88212484  0.25000000  1.0
  H  H27  1  0.11822726  0.23610241  0.25000000  1.0
  H  H28  1  0.88212484  0.76389759  0.75000000  1.0
  H  H29  1  0.23610241  0.11822726  0.75000000  1.0
  H  H30  1  0.89023968  0.59624616  0.25000000  1.0
  H  H31  1  0.59624616  0.89023968  0.75000000  1.0
  H  H32  1  0.70600648  0.10976032  0.25000000  1.0
  H  H33  1  0.40375384  0.29399352  0.25000000  1.0
  H  H34  1  0.10976032  0.70600648  0.75000000  1.0
  H  H35  1  0.29399352  0.40375384  0.75000000  1.0
  H  H36  1  0.00000000  0.00000000  0.50000000  1.0
  H  H37  1  0.00000000  0.00000000  0.00000000  1.0
