# generated using pymatgen
data_Y2Al3Si2
_symmetry_space_group_name_H-M   'P 1'
_cell_length_a   5.48452629
_cell_length_b   5.48452629
_cell_length_c   6.62657401
_cell_angle_alpha   79.75523756
_cell_angle_beta   100.24476244
_cell_angle_gamma   136.69556386
_symmetry_Int_Tables_number   1
_chemical_formula_structural   Y2Al3Si2
_chemical_formula_sum   'Y2 Al3 Si2'
_cell_volume   134.18735271
_cell_formula_units_Z   1
loop_
 _symmetry_equiv_pos_site_id
 _symmetry_equiv_pos_as_xyz
  1  'x, y, z'
loop_
 _atom_site_type_symbol
 _atom_site_label
 _atom_site_symmetry_multiplicity
 _atom_site_fract_x
 _atom_site_fract_y
 _atom_site_fract_z
 _atom_site_occupancy
  Y  Y0  1  0.38006545  -0.38006545  0.67756907  1.0
  Y  Y1  1  0.61993455  0.38006545  0.32243093  1.0
  Al  Al2  1  0.69424632  0.30575368  0.86719335  1.0
  Al  Al3  1  0.30575368  -0.30575368  0.13280665  1.0
  Al  Al4  1  0.00000000  0.00000000  0.00000000  1.0
  Si  Si5  1  0.90741804  0.09258196  0.35942837  1.0
  Si  Si6  1  0.09258196  -0.09258196  0.64057163  1.0
