# generated using pymatgen
data_Sc11(AlGe4)2
_symmetry_space_group_name_H-M   'P 1'
_cell_length_a   10.53164734
_cell_length_b   10.53164734
_cell_length_c   10.53164734
_cell_angle_alpha   120.58590552
_cell_angle_beta   120.58590552
_cell_angle_gamma   88.98814267
_symmetry_Int_Tables_number   1
_chemical_formula_structural   Sc11(AlGe4)2
_chemical_formula_sum   'Sc22 Al4 Ge16'
_cell_volume   818.53501335
_cell_formula_units_Z   2
loop_
 _symmetry_equiv_pos_site_id
 _symmetry_equiv_pos_as_xyz
  1  'x, y, z'
loop_
 _atom_site_type_symbol
 _atom_site_label
 _atom_site_symmetry_multiplicity
 _atom_site_fract_x
 _atom_site_fract_y
 _atom_site_fract_z
 _atom_site_occupancy
  Sc  Sc0  1  0.43832718  0.68975919  0.74856800  1.0
  Sc  Sc1  1  1.05880881  0.31024081  0.74856800  1.0
  Sc  Sc2  1  0.94119119  0.68975919  1.25143200  1.0
  Sc  Sc3  1  0.56167282  0.31024081  0.25143200  1.0
  Sc  Sc4  1  0.68975919  0.43832718  0.74856800  1.0
  Sc  Sc5  1  0.31024081  1.05880881  0.74856800  1.0
  Sc  Sc6  1  0.68975919  0.94119119  1.25143200  1.0
  Sc  Sc7  1  0.31024081  0.56167282  0.25143200  1.0
  Sc  Sc8  1  0.56122523  0.89721247  0.66401276  1.0
  Sc  Sc9  1  0.76680029  0.10278753  0.66401276  1.0
  Sc  Sc10  1  1.23319971  0.89721247  1.33598724  1.0
  Sc  Sc11  1  0.43877477  0.10278753  0.33598724  1.0
  Sc  Sc12  1  0.89721247  0.56122523  0.66401276  1.0
  Sc  Sc13  1  0.10278753  0.76680029  0.66401276  1.0
  Sc  Sc14  1  0.89721247  1.23319971  1.33598724  1.0
  Sc  Sc15  1  0.10278753  0.43877477  0.33598724  1.0
  Sc  Sc16  1  0.67170019  0.67170019  1.34340038  1.0
  Sc  Sc17  1  0.32829981  0.67170019  1.00000000  1.0
  Sc  Sc18  1  0.67170019  0.32829981  1.00000000  1.0
  Sc  Sc19  1  0.32829981  0.32829981  0.65659962  1.0
  Sc  Sc20  1  0.83101272  0.83101272  1.00000000  1.0
  Sc  Sc21  1  0.16898728  0.16898728  0.00000000  1.0
  Al  Al22  1  0.87277743  0.87277743  1.74555485  1.0
  Al  Al23  1  0.12722257  0.87277743  1.00000000  1.0
  Al  Al24  1  0.87277743  0.12722257  1.00000000  1.0
  Al  Al25  1  0.12722257  0.12722257  0.25444515  1.0
  Ge  Ge26  1  0.62555267  0.62555267  0.59220438  1.0
  Ge  Ge27  1  0.96665172  0.96665172  1.59220438  1.0
  Ge  Ge28  1  1.03334828  0.62555267  1.00000000  1.0
  Ge  Ge29  1  0.37444734  0.96665172  1.00000000  1.0
  Ge  Ge30  1  0.62555267  1.03334828  1.00000000  1.0
  Ge  Ge31  1  0.96665172  0.37444734  1.00000000  1.0
  Ge  Ge32  1  1.03334828  1.03334828  1.40779562  1.0
  Ge  Ge33  1  0.37444734  0.37444734  0.40779562  1.0
  Ge  Ge34  1  0.50000000  0.85304221  1.35304221  1.0
  Ge  Ge35  1  0.85304221  0.50000000  1.35304221  1.0
  Ge  Ge36  1  0.14695779  0.50000000  0.64695779  1.0
  Ge  Ge37  1  0.50000000  0.14695779  0.64695779  1.0
  Ge  Ge38  1  0.61792748  0.61792748  1.00000000  1.0
  Ge  Ge39  1  0.38207252  0.38207252  -0.00000000  1.0
  Ge  Ge40  1  0.25000000  0.75000000  0.50000000  1.0
  Ge  Ge41  1  0.75000000  0.25000000  0.50000000  1.0
