# generated using pymatgen
data_Cs2HfF6
_symmetry_space_group_name_H-M   'P 1'
_cell_length_a   6.48587787
_cell_length_b   6.48587787
_cell_length_c   5.16436517
_cell_angle_alpha   90.00000000
_cell_angle_beta   90.00000000
_cell_angle_gamma   120.00000000
_symmetry_Int_Tables_number   1
_chemical_formula_structural   Cs2HfF6
_chemical_formula_sum   'Cs2 Hf1 F6'
_cell_volume   188.14171919
_cell_formula_units_Z   1
loop_
 _symmetry_equiv_pos_site_id
 _symmetry_equiv_pos_as_xyz
  1  'x, y, z'
loop_
 _atom_site_type_symbol
 _atom_site_label
 _atom_site_symmetry_multiplicity
 _atom_site_fract_x
 _atom_site_fract_y
 _atom_site_fract_z
 _atom_site_occupancy
  Cs  Cs0  1  0.33333333  0.66666667  0.31007049  1.0
  Cs  Cs1  1  0.66666667  0.33333333  0.68992951  1.0
  Hf  Hf2  1  -0.00000000  0.00000000  0.00000000  1.0
  F  F3  1  0.29901320  0.14950660  0.21679417  1.0
  F  F4  1  0.14950660  0.29901320  0.78320583  1.0
  F  F5  1  0.14950660  0.85049340  0.78320583  1.0
  F  F6  1  0.85049340  0.14950660  0.21679417  1.0
  F  F7  1  0.85049340  0.70098680  0.21679417  1.0
  F  F8  1  0.70098680  0.85049340  0.78320583  1.0
