# generated using pymatgen
data_TaPO5
_symmetry_space_group_name_H-M   'P 1'
_cell_length_a   11.43502869
_cell_length_b   5.41053524
_cell_length_c   6.78084876
_cell_angle_alpha   90.00000000
_cell_angle_beta   90.00000000
_cell_angle_gamma   90.00000000
_symmetry_Int_Tables_number   1
_chemical_formula_structural   TaPO5
_chemical_formula_sum   'Ta4 P4 O20'
_cell_volume   419.52857459
_cell_formula_units_Z   4
loop_
 _symmetry_equiv_pos_site_id
 _symmetry_equiv_pos_as_xyz
  1  'x, y, z'
loop_
 _atom_site_type_symbol
 _atom_site_label
 _atom_site_symmetry_multiplicity
 _atom_site_fract_x
 _atom_site_fract_y
 _atom_site_fract_z
 _atom_site_occupancy
  Ta  Ta0  1  0.43731660  0.75000000  0.66833449  1.0
  Ta  Ta1  1  0.93731660  0.75000000  0.83166551  1.0
  Ta  Ta2  1  0.56268340  0.25000000  0.33166551  1.0
  Ta  Ta3  1  0.06268340  0.25000000  0.16833449  1.0
  P  P4  1  0.65391216  0.75000000  0.02785347  1.0
  P  P5  1  0.15391216  0.75000000  0.47214653  1.0
  P  P6  1  0.34608784  0.25000000  0.97214653  1.0
  P  P7  1  0.84608784  0.25000000  0.52785347  1.0
  O  O8  1  0.50000000  0.00000000  0.50000000  1.0
  O  O9  1  0.50000000  0.50000000  0.50000000  1.0
  O  O10  1  0.00000000  0.00000000  0.00000000  1.0
  O  O11  1  0.00000000  0.50000000  0.00000000  1.0
  O  O12  1  0.28500945  0.75000000  0.53035171  1.0
  O  O13  1  0.78500945  0.75000000  0.96964829  1.0
  O  O14  1  0.71499055  0.25000000  0.46964829  1.0
  O  O15  1  0.21499055  0.25000000  0.03035171  1.0
  O  O16  1  0.08060132  0.75000000  0.66439147  1.0
  O  O17  1  0.58060132  0.75000000  0.83560853  1.0
  O  O18  1  0.91939868  0.25000000  0.33560853  1.0
  O  O19  1  0.41939868  0.25000000  0.16439147  1.0
  O  O20  1  0.37184483  0.48518066  0.85262813  1.0
  O  O21  1  0.37184483  0.01481934  0.85262813  1.0
  O  O22  1  0.87184483  0.48518066  0.64737187  1.0
  O  O23  1  0.87184483  0.01481934  0.64737187  1.0
  O  O24  1  0.62815517  0.98518066  0.14737187  1.0
  O  O25  1  0.62815517  0.51481934  0.14737187  1.0
  O  O26  1  0.12815517  0.98518066  0.35262813  1.0
  O  O27  1  0.12815517  0.51481934  0.35262813  1.0
