# generated using pymatgen
data_K2SbPO6
_symmetry_space_group_name_H-M   'P 1'
_cell_length_a   9.58060491
_cell_length_b   5.99655556
_cell_length_c   11.25472363
_cell_angle_alpha   90.00000000
_cell_angle_beta   90.00000000
_cell_angle_gamma   90.00000000
_symmetry_Int_Tables_number   1
_chemical_formula_structural   K2SbPO6
_chemical_formula_sum   'K8 Sb4 P4 O24'
_cell_volume   646.59095933
_cell_formula_units_Z   4
loop_
 _symmetry_equiv_pos_site_id
 _symmetry_equiv_pos_as_xyz
  1  'x, y, z'
loop_
 _atom_site_type_symbol
 _atom_site_label
 _atom_site_symmetry_multiplicity
 _atom_site_fract_x
 _atom_site_fract_y
 _atom_site_fract_z
 _atom_site_occupancy
  K  K0  1  0.66883935  0.75000000  0.19081397  1.0
  K  K1  1  0.16883935  0.75000000  0.30918603  1.0
  K  K2  1  0.33116065  0.25000000  0.80918603  1.0
  K  K3  1  0.83116065  0.25000000  0.69081397  1.0
  K  K4  1  0.61683865  0.75000000  0.83942219  1.0
  K  K5  1  0.11683865  0.75000000  0.66057781  1.0
  K  K6  1  0.38316135  0.25000000  0.16057781  1.0
  K  K7  1  0.88316135  0.25000000  0.33942219  1.0
  Sb  Sb8  1  0.00000000  0.00000000  0.00000000  1.0
  Sb  Sb9  1  0.00000000  0.50000000  0.00000000  1.0
  Sb  Sb10  1  0.50000000  0.00000000  0.50000000  1.0
  Sb  Sb11  1  0.50000000  0.50000000  0.50000000  1.0
  P  P12  1  0.80355738  0.75000000  0.50870862  1.0
  P  P13  1  0.30355738  0.75000000  0.99129138  1.0
  P  P14  1  0.19644262  0.25000000  0.49129138  1.0
  P  P15  1  0.69644262  0.25000000  0.00870862  1.0
  O  O16  1  0.71144735  0.96519513  0.47133978  1.0
  O  O17  1  0.71144735  0.53480487  0.47133978  1.0
  O  O18  1  0.21144735  0.96519513  0.02866022  1.0
  O  O19  1  0.21144735  0.53480487  0.02866022  1.0
  O  O20  1  0.28855265  0.46519513  0.52866022  1.0
  O  O21  1  0.28855265  0.03480487  0.52866022  1.0
  O  O22  1  0.78855265  0.46519513  0.97133978  1.0
  O  O23  1  0.78855265  0.03480487  0.97133978  1.0
  O  O24  1  0.96477610  0.75000000  0.11723315  1.0
  O  O25  1  0.46477610  0.75000000  0.38276685  1.0
  O  O26  1  0.03522390  0.25000000  0.88276685  1.0
  O  O27  1  0.53522390  0.25000000  0.61723315  1.0
  O  O28  1  0.93132724  0.75000000  0.42827046  1.0
  O  O29  1  0.43132724  0.75000000  0.07172954  1.0
  O  O30  1  0.06867276  0.25000000  0.57172954  1.0
  O  O31  1  0.56867276  0.25000000  0.92827046  1.0
  O  O32  1  0.82968939  0.75000000  0.64228995  1.0
  O  O33  1  0.32968939  0.75000000  0.85771005  1.0
  O  O34  1  0.17031061  0.25000000  0.35771005  1.0
  O  O35  1  0.67031061  0.25000000  0.14228995  1.0
  O  O36  1  0.50110390  0.75000000  0.61772692  1.0
  O  O37  1  0.00110390  0.75000000  0.88227308  1.0
  O  O38  1  0.49889610  0.25000000  0.38227308  1.0
  O  O39  1  0.99889610  0.25000000  0.11772692  1.0
