# generated using pymatgen
data_MgH12(ClO5)2
_symmetry_space_group_name_H-M   'P 1'
_cell_length_a   7.46334009
_cell_length_b   7.46334009
_cell_length_c   10.19642925
_cell_angle_alpha   90.00000000
_cell_angle_beta   90.00000000
_cell_angle_gamma   90.00000000
_symmetry_Int_Tables_number   1
_chemical_formula_structural   MgH12(ClO5)2
_chemical_formula_sum   'Mg2 H24 Cl4 O20'
_cell_volume   567.95584564
_cell_formula_units_Z   2
loop_
 _symmetry_equiv_pos_site_id
 _symmetry_equiv_pos_as_xyz
  1  'x, y, z'
loop_
 _atom_site_type_symbol
 _atom_site_label
 _atom_site_symmetry_multiplicity
 _atom_site_fract_x
 _atom_site_fract_y
 _atom_site_fract_z
 _atom_site_occupancy
  Mg  Mg0  1  0.50000000  0.50000000  0.00000000  1.0
  Mg  Mg1  1  0.00000000  0.00000000  0.50000000  1.0
  H  H2  1  0.50000000  0.60803957  0.25968925  1.0
  H  H3  1  0.50000000  0.39196043  0.25968925  1.0
  H  H4  1  0.10803957  0.00000000  0.75968925  1.0
  H  H5  1  0.89196043  0.00000000  0.75968925  1.0
  H  H6  1  0.00000000  0.89196043  0.24031075  1.0
  H  H7  1  0.00000000  0.10803957  0.24031075  1.0
  H  H8  1  0.39196043  0.50000000  0.74031075  1.0
  H  H9  1  0.60803957  0.50000000  0.74031075  1.0
  H  H10  1  0.19331188  0.30542516  0.05425661  1.0
  H  H11  1  0.80668812  0.30542516  0.05425661  1.0
  H  H12  1  0.19331188  0.69457484  0.05425661  1.0
  H  H13  1  0.80668812  0.69457484  0.05425661  1.0
  H  H14  1  0.80542516  0.69331188  0.55425661  1.0
  H  H15  1  0.19457484  0.69331188  0.55425661  1.0
  H  H16  1  0.80542516  0.30668812  0.55425661  1.0
  H  H17  1  0.19457484  0.30668812  0.55425661  1.0
  H  H18  1  0.30668812  0.19457484  0.44574339  1.0
  H  H19  1  0.69331188  0.19457484  0.44574339  1.0
  H  H20  1  0.30668812  0.80542516  0.44574339  1.0
  H  H21  1  0.69331188  0.80542516  0.44574339  1.0
  H  H22  1  0.69457484  0.80668812  0.94574339  1.0
  H  H23  1  0.30542516  0.80668812  0.94574339  1.0
  H  H24  1  0.69457484  0.19331188  0.94574339  1.0
  H  H25  1  0.30542516  0.19331188  0.94574339  1.0
  Cl  Cl26  1  0.00000000  0.50000000  0.73913842  1.0
  Cl  Cl27  1  0.00000000  0.50000000  0.23913842  1.0
  Cl  Cl28  1  0.50000000  0.00000000  0.76086158  1.0
  Cl  Cl29  1  0.50000000  0.00000000  0.26086158  1.0
  O  O30  1  0.17522284  0.50000000  0.64878251  1.0
  O  O31  1  0.82477716  0.50000000  0.64878251  1.0
  O  O32  1  0.00000000  0.67522284  0.14878251  1.0
  O  O33  1  0.00000000  0.32477716  0.14878251  1.0
  O  O34  1  0.32477716  0.00000000  0.85121749  1.0
  O  O35  1  0.67522284  0.00000000  0.85121749  1.0
  O  O36  1  0.50000000  0.82477716  0.35121749  1.0
  O  O37  1  0.50000000  0.17522284  0.35121749  1.0
  O  O38  1  0.50000000  0.50000000  0.20462510  1.0
  O  O39  1  0.00000000  0.00000000  0.70462510  1.0
  O  O40  1  0.00000000  0.00000000  0.29537490  1.0
  O  O41  1  0.50000000  0.50000000  0.79537490  1.0
  O  O42  1  0.30362208  0.30362208  0.00000000  1.0
  O  O43  1  0.69637792  0.30362208  0.00000000  1.0
  O  O44  1  0.30362208  0.69637792  0.00000000  1.0
  O  O45  1  0.69637792  0.69637792  0.00000000  1.0
  O  O46  1  0.80362208  0.80362208  0.50000000  1.0
  O  O47  1  0.19637792  0.80362208  0.50000000  1.0
  O  O48  1  0.80362208  0.19637792  0.50000000  1.0
  O  O49  1  0.19637792  0.19637792  0.50000000  1.0
