# generated using pymatgen
data_HfS3
_symmetry_space_group_name_H-M   'P 1'
_cell_length_a   5.14773602
_cell_length_b   3.61390301
_cell_length_c   9.62305629
_cell_angle_alpha   90.00000000
_cell_angle_beta   96.62054980
_cell_angle_gamma   90.00000000
_symmetry_Int_Tables_number   1
_chemical_formula_structural   HfS3
_chemical_formula_sum   'Hf2 S6'
_cell_volume   177.82793491
_cell_formula_units_Z   2
loop_
 _symmetry_equiv_pos_site_id
 _symmetry_equiv_pos_as_xyz
  1  'x, y, z'
loop_
 _atom_site_type_symbol
 _atom_site_label
 _atom_site_symmetry_multiplicity
 _atom_site_fract_x
 _atom_site_fract_y
 _atom_site_fract_z
 _atom_site_occupancy
  Hf  Hf0  1  0.71883560  0.25000000  0.85527988  1.0
  Hf  Hf1  1  0.28116440  0.75000000  0.14472012  1.0
  S  S2  1  0.51971287  0.25000000  0.30791832  1.0
  S  S3  1  0.48028713  0.75000000  0.69208168  1.0
  S  S4  1  0.23924218  0.25000000  0.94997038  1.0
  S  S5  1  0.76075782  0.75000000  0.05002962  1.0
  S  S6  1  0.11262849  0.25000000  0.30752347  1.0
  S  S7  1  0.88737151  0.75000000  0.69247653  1.0
