# generated using pymatgen
data_TlGaP3O10
_symmetry_space_group_name_H-M   'P 1'
_cell_length_a   7.67144929
_cell_length_b   7.67144929
_cell_length_c   8.76556325
_cell_angle_alpha   70.34781082
_cell_angle_beta   109.65218918
_cell_angle_gamma   116.04801426
_symmetry_Int_Tables_number   1
_chemical_formula_structural   TlGaP3O10
_chemical_formula_sum   'Tl2 Ga2 P6 O20'
_cell_volume   425.48414562
_cell_formula_units_Z   2
loop_
 _symmetry_equiv_pos_site_id
 _symmetry_equiv_pos_as_xyz
  1  'x, y, z'
loop_
 _atom_site_type_symbol
 _atom_site_label
 _atom_site_symmetry_multiplicity
 _atom_site_fract_x
 _atom_site_fract_y
 _atom_site_fract_z
 _atom_site_occupancy
  Ga  Ga0  1  1.50000000  0.00000000  0.50000000  1.0
  Ga  Ga1  1  1.00000000  0.50000000  -0.00000000  1.0
  O  O2  1  1.32805199  -0.18852739  0.66085914  1.0
  O  O3  1  1.18852740  -0.32805199  0.16085914  1.0
  O  O4  1  0.81147260  0.32805199  0.83914086  1.0
  O  O5  1  0.67194801  0.18852740  0.33914086  1.0
  O  O6  1  0.38926903  0.01419553  0.84597094  1.0
  O  O7  1  0.98580447  0.61073097  0.34597094  1.0
  O  O8  1  1.01419553  -0.61073097  0.65402906  1.0
  O  O9  1  1.61073097  -0.01419553  0.15402906  1.0
  O  O10  1  1.67163585  -0.16662937  0.60283916  1.0
  O  O11  1  1.16662937  -0.67163585  0.10283916  1.0
  O  O12  1  0.83337063  0.67163585  0.89716084  1.0
  O  O13  1  0.32836415  0.16662937  0.39716084  1.0
  O  O14  1  0.89520965  0.03877365  0.81839670  1.0
  O  O15  1  0.96122635  0.10479035  0.31839670  1.0
  O  O16  1  1.03877365  -0.10479035  0.68160330  1.0
  O  O17  1  1.10479035  -0.03877365  0.18160330  1.0
  O  O18  1  0.67722830  -0.07125313  1.05443733  1.0
  O  O19  1  1.07125313  0.32277170  0.55443733  1.0
  O  O20  1  0.92874687  -0.32277170  0.44556267  1.0
  O  O21  1  1.32277170  0.07125313  -0.05443733  1.0
  P  P22  1  1.22190038  -0.19399208  0.78561383  1.0
  P  P23  1  1.19399208  -0.22190038  0.28561383  1.0
  P  P24  1  0.80600792  0.22190038  0.71438617  1.0
  P  P25  1  0.77809962  0.19399208  0.21438617  1.0
  P  P26  1  0.85294373  0.85294373  0.75000000  1.0
  P  P27  1  0.14705627  0.14705627  0.25000000  1.0
  Tl  Tl28  1  0.41803762  0.41803762  0.75000000  1.0
  Tl  Tl29  1  0.58196238  0.58196238  0.25000000  1.0
