# generated using pymatgen
data_Hf(WO4)2
_symmetry_space_group_name_H-M   'P 1'
_cell_length_a   9.25031629
_cell_length_b   9.25031629
_cell_length_c   9.25031629
_cell_angle_alpha   90.00000000
_cell_angle_beta   90.00000000
_cell_angle_gamma   90.00000000
_symmetry_Int_Tables_number   1
_chemical_formula_structural   Hf(WO4)2
_chemical_formula_sum   'Hf4 W8 O32'
_cell_volume   791.53431616
_cell_formula_units_Z   4
loop_
 _symmetry_equiv_pos_site_id
 _symmetry_equiv_pos_as_xyz
  1  'x, y, z'
loop_
 _atom_site_type_symbol
 _atom_site_label
 _atom_site_symmetry_multiplicity
 _atom_site_fract_x
 _atom_site_fract_y
 _atom_site_fract_z
 _atom_site_occupancy
  Hf  Hf0  1  0.00106345  0.50106345  0.99893655  1.0
  Hf  Hf1  1  0.50106345  0.99893655  0.00106345  1.0
  Hf  Hf2  1  0.99893655  0.00106345  0.50106345  1.0
  Hf  Hf3  1  0.49893655  0.49893655  0.49893655  1.0
  W  W4  1  0.60227220  0.10227220  0.39772780  1.0
  W  W5  1  0.10227220  0.39772780  0.60227220  1.0
  W  W6  1  0.39772780  0.60227220  0.10227220  1.0
  W  W7  1  0.89772780  0.89772780  0.89772780  1.0
  W  W8  1  0.34190043  0.84190043  0.65809957  1.0
  W  W9  1  0.84190043  0.65809957  0.34190043  1.0
  W  W10  1  0.65809957  0.34190043  0.84190043  1.0
  W  W11  1  0.15809957  0.15809957  0.15809957  1.0
  O  O12  1  0.44761309  0.70502639  0.56204366  1.0
  O  O13  1  0.94761309  0.79497361  0.43795634  1.0
  O  O14  1  0.20502639  0.93795634  0.55238691  1.0
  O  O15  1  0.70502639  0.56204366  0.44761309  1.0
  O  O16  1  0.43795634  0.94761309  0.79497361  1.0
  O  O17  1  0.93795634  0.55238691  0.20502639  1.0
  O  O18  1  0.55238691  0.20502639  0.93795634  1.0
  O  O19  1  0.05238691  0.29497361  0.06204366  1.0
  O  O20  1  0.79497361  0.43795634  0.94761309  1.0
  O  O21  1  0.29497361  0.06204366  0.05238691  1.0
  O  O22  1  0.56204366  0.44761309  0.70502639  1.0
  O  O23  1  0.06204366  0.05238691  0.29497361  1.0
  O  O24  1  0.44239568  0.78945620  0.06893913  1.0
  O  O25  1  0.94239568  0.71054380  0.93106087  1.0
  O  O26  1  0.28945620  0.43106087  0.55760432  1.0
  O  O27  1  0.78945620  0.06893913  0.44239568  1.0
  O  O28  1  0.93106087  0.94239568  0.71054380  1.0
  O  O29  1  0.43106087  0.55760432  0.28945620  1.0
  O  O30  1  0.55760432  0.28945620  0.43106087  1.0
  O  O31  1  0.05760432  0.21054380  0.56893913  1.0
  O  O32  1  0.71054380  0.93106087  0.94239568  1.0
  O  O33  1  0.21054380  0.56893913  0.05760432  1.0
  O  O34  1  0.06893913  0.44239568  0.78945620  1.0
  O  O35  1  0.56893913  0.05760432  0.21054380  1.0
  O  O36  1  0.49294493  0.99294493  0.50705507  1.0
  O  O37  1  0.99294493  0.50705507  0.49294493  1.0
  O  O38  1  0.50705507  0.49294493  0.99294493  1.0
  O  O39  1  0.00705507  0.00705507  0.00705507  1.0
  O  O40  1  0.23392410  0.73392410  0.76607590  1.0
  O  O41  1  0.73392410  0.76607590  0.23392410  1.0
  O  O42  1  0.76607590  0.23392410  0.73392410  1.0
  O  O43  1  0.26607590  0.26607590  0.26607590  1.0
