# generated using pymatgen
data_RbPH6C2(NO)4
_symmetry_space_group_name_H-M   'P 1'
_cell_length_a   8.64262505
_cell_length_b   7.93461281
_cell_length_c   8.37430464
_cell_angle_alpha   63.93507360
_cell_angle_beta   55.55883502
_cell_angle_gamma   60.50609138
_symmetry_Int_Tables_number   1
_chemical_formula_structural   RbPH6C2(NO)4
_chemical_formula_sum   'Rb2 P2 H12 C4 N8 O8'
_cell_volume   401.73784923
_cell_formula_units_Z   2
loop_
 _symmetry_equiv_pos_site_id
 _symmetry_equiv_pos_as_xyz
  1  'x, y, z'
loop_
 _atom_site_type_symbol
 _atom_site_label
 _atom_site_symmetry_multiplicity
 _atom_site_fract_x
 _atom_site_fract_y
 _atom_site_fract_z
 _atom_site_occupancy
  Rb  Rb0  1  0.26416083  1.26416083  -0.26416083  1.0
  Rb  Rb1  1  0.51416083  0.51416083  0.98583917  1.0
  P  P2  1  -0.41161115  0.58838885  0.41161115  1.0
  P  P3  1  0.83838885  0.83838885  0.66161115  1.0
  H  H4  1  1.86213235  0.11597641  0.10038708  1.0
  H  H5  1  0.11597641  1.86213235  -0.07849583  1.0
  H  H6  1  0.14961292  0.32849583  1.38786765  1.0
  H  H7  1  0.32849583  0.14961292  0.13402359  1.0
  H  H8  1  0.72916322  1.06717755  -0.63838766  1.0
  H  H9  1  1.06717755  0.72916322  0.84204689  1.0
  H  H10  1  -0.11161234  0.40795311  0.52083678  1.0
  H  H11  1  0.40795311  -0.11161234  1.18282245  1.0
  H  H12  1  1.16916915  0.73248562  0.41700221  1.0
  H  H13  1  0.73248562  1.16916915  -0.31865697  1.0
  H  H14  1  0.83299779  -0.43134303  1.08083085  1.0
  H  H15  1  -0.43134303  0.83299779  0.51751438  1.0
  C  C16  1  1.03081098  0.92237567  -0.75521359  1.0
  C  C17  1  0.92237567  1.03081098  0.80202693  1.0
  C  C18  1  0.00521359  0.44797307  0.21918902  1.0
  C  C19  1  0.44797307  0.00521359  1.32762433  1.0
  N  N20  1  0.86124083  1.05919995  -0.76315133  1.0
  N  N21  1  1.05919995  0.86124083  0.84271055  1.0
  N  N22  1  0.01315133  0.40728945  0.38875917  1.0
  N  N23  1  0.40728945  0.01315133  1.19080005  1.0
  N  N24  1  1.02950973  0.82290591  -0.57212527  1.0
  N  N25  1  0.82290591  1.02950973  0.71970963  1.0
  N  N26  1  -0.17787473  0.53029037  0.22049027  1.0
  N  N27  1  0.53029037  -0.17787473  1.42709409  1.0
  O  O28  1  -0.80966640  0.88611095  1.08815087  1.0
  O  O29  1  0.88611095  -0.80966640  0.83540458  1.0
  O  O30  1  0.16184913  0.41459542  0.05966640  1.0
  O  O31  1  0.41459542  0.16184913  1.36388905  1.0
  O  O32  1  -0.40372419  0.45311261  0.60418402  1.0
  O  O33  1  0.45311261  -0.40372419  1.34642756  1.0
  O  O34  1  0.64581598  0.90357244  -0.34627581  1.0
  O  O35  1  0.90357244  0.64581598  0.79688739  1.0
