# generated using pymatgen
data_Er(Al5Ru)2
_symmetry_space_group_name_H-M   'P 1'
_cell_length_a   6.85136780
_cell_length_b   6.85136780
_cell_length_c   9.13110592
_cell_angle_alpha   90.00000000
_cell_angle_beta   90.00000000
_cell_angle_gamma   96.80535159
_symmetry_Int_Tables_number   1
_chemical_formula_structural   Er(Al5Ru)2
_chemical_formula_sum   'Er2 Al20 Ru4'
_cell_volume   425.60553735
_cell_formula_units_Z   2
loop_
 _symmetry_equiv_pos_site_id
 _symmetry_equiv_pos_as_xyz
  1  'x, y, z'
loop_
 _atom_site_type_symbol
 _atom_site_label
 _atom_site_symmetry_multiplicity
 _atom_site_fract_x
 _atom_site_fract_y
 _atom_site_fract_z
 _atom_site_occupancy
  Er  Er0  1  0.12484578  0.87515422  0.25000000  1.0
  Er  Er1  1  -0.12484578  1.12484578  0.75000000  1.0
  Al  Al2  1  0.14120636  0.41469118  0.25000000  1.0
  Al  Al3  1  -0.58530882  1.14120636  0.75000000  1.0
  Al  Al4  1  0.58530882  0.85879364  0.25000000  1.0
  Al  Al5  1  -0.14120636  1.58530882  0.75000000  1.0
  Al  Al6  1  -0.21921023  1.52136254  0.25000000  1.0
  Al  Al7  1  0.52136254  0.78078977  0.75000000  1.0
  Al  Al8  1  -0.52136254  1.21921023  0.25000000  1.0
  Al  Al9  1  0.21921023  0.47863746  0.75000000  1.0
  Al  Al10  1  0.15670592  0.84329408  0.89994125  1.0
  Al  Al11  1  0.15670592  0.84329408  0.60005875  1.0
  Al  Al12  1  -0.15670592  1.15670592  0.39994125  1.0
  Al  Al13  1  -0.15670592  1.15670592  0.10005875  1.0
  Al  Al14  1  0.37625847  0.62374153  0.45103740  1.0
  Al  Al15  1  0.37625847  0.62374153  0.04896260  1.0
  Al  Al16  1  -0.37625847  1.37625847  0.95103740  1.0
  Al  Al17  1  -0.37625847  1.37625847  0.54896260  1.0
  Al  Al18  1  0.77509013  0.77509013  0.50000000  1.0
  Al  Al19  1  0.77509013  0.77509013  0.00000000  1.0
  Al  Al20  1  0.22490987  0.22490987  0.50000000  1.0
  Al  Al21  1  0.22490987  0.22490987  0.00000000  1.0
  Ru  Ru22  1  -0.00000000  1.50000000  0.50000000  1.0
  Ru  Ru23  1  -0.00000000  1.50000000  0.00000000  1.0
  Ru  Ru24  1  0.50000000  1.00000000  0.00000000  1.0
  Ru  Ru25  1  0.50000000  1.00000000  0.50000000  1.0
