# generated using pymatgen
data_CaScSi3HO9
_symmetry_space_group_name_H-M   'P 1'
_cell_length_a   7.13519943
_cell_length_b   6.85086837
_cell_length_c   7.58488296
_cell_angle_alpha   93.42816099
_cell_angle_beta   104.41155293
_cell_angle_gamma   92.01219651
_symmetry_Int_Tables_number   1
_chemical_formula_structural   CaScSi3HO9
_chemical_formula_sum   'Ca2 Sc2 Si6 H2 O18'
_cell_volume   357.97751850
_cell_formula_units_Z   2
loop_
 _symmetry_equiv_pos_site_id
 _symmetry_equiv_pos_as_xyz
  1  'x, y, z'
loop_
 _atom_site_type_symbol
 _atom_site_label
 _atom_site_symmetry_multiplicity
 _atom_site_fract_x
 _atom_site_fract_y
 _atom_site_fract_z
 _atom_site_occupancy
  Ca  Ca0  1  -0.58525756  -0.65607989  -0.33025599  1.0
  Ca  Ca1  1  -0.41474244  -0.34392011  -0.66974401  1.0
  Sc  Sc2  1  -0.90655843  -0.35248471  -0.64319059  1.0
  Sc  Sc3  1  -0.09344157  -0.64751529  -0.35680941  1.0
  Si  Si4  1  -0.97684463  -0.85736272  -0.72058214  1.0
  Si  Si5  1  -0.02315537  -0.14263728  -0.27941786  1.0
  Si  Si6  1  -0.41065882  -0.82455197  -0.73995632  1.0
  Si  Si7  1  -0.58934118  -0.17544803  -0.26004368  1.0
  Si  Si8  1  -0.76046336  -0.63396806  -0.95439400  1.0
  Si  Si9  1  -0.23953664  -0.36603194  -0.04560600  1.0
  H  H10  1  -0.33928185  -0.97033384  -0.30875967  1.0
  H  H11  1  -0.66071815  -0.02966616  -0.69124033  1.0
  O  O12  1  -0.47657265  -0.97149431  -0.29229366  1.0
  O  O13  1  -0.52342735  -0.02850569  -0.70770634  1.0
  O  O14  1  -0.21242990  -0.89945145  -0.78334488  1.0
  O  O15  1  -0.78757010  -0.10054855  -0.21665512  1.0
  O  O16  1  -0.90662562  -0.79622798  -0.90056681  1.0
  O  O17  1  -0.09337438  -0.20377202  -0.09943319  1.0
  O  O18  1  -0.53852044  -0.71917978  -0.91790763  1.0
  O  O19  1  -0.46147956  -0.28082022  -0.08209237  1.0
  O  O20  1  -0.92056744  -0.67159681  -0.56189594  1.0
  O  O21  1  -0.07943256  -0.32840319  -0.43810406  1.0
  O  O22  1  -0.37296114  -0.66520223  -0.56323667  1.0
  O  O23  1  -0.62703886  -0.33479777  -0.43676333  1.0
  O  O24  1  -0.82607391  -0.60598229  -0.17197746  1.0
  O  O25  1  -0.17392609  -0.39401771  -0.82802254  1.0
  O  O26  1  -0.74077284  -0.43805130  -0.81690517  1.0
  O  O27  1  -0.25922716  -0.56194870  -0.18309483  1.0
  O  O28  1  -0.86969158  -0.05447045  -0.65036870  1.0
  O  O29  1  -0.13030842  -0.94552955  -0.34963130  1.0
