# generated using pymatgen
data_Ba4PtO6
_symmetry_space_group_name_H-M   'P 1'
_cell_length_a   7.34302760
_cell_length_b   7.34302760
_cell_length_c   7.34302760
_cell_angle_alpha   89.66668496
_cell_angle_beta   89.66668496
_cell_angle_gamma   89.66668496
_symmetry_Int_Tables_number   1
_chemical_formula_structural   Ba4PtO6
_chemical_formula_sum   'Ba8 Pt2 O12'
_cell_volume   395.91642623
_cell_formula_units_Z   2
loop_
 _symmetry_equiv_pos_site_id
 _symmetry_equiv_pos_as_xyz
  1  'x, y, z'
loop_
 _atom_site_type_symbol
 _atom_site_label
 _atom_site_symmetry_multiplicity
 _atom_site_fract_x
 _atom_site_fract_y
 _atom_site_fract_z
 _atom_site_occupancy
  Ba  Ba0  1  0.87995268  0.25000000  -0.37995268  1.0
  Ba  Ba1  1  0.37995268  0.12004732  -0.25000000  1.0
  Ba  Ba2  1  0.75000000  0.37995268  -0.87995268  1.0
  Ba  Ba3  1  0.25000000  0.62004732  -0.12004732  1.0
  Ba  Ba4  1  0.12004732  0.75000000  -0.62004732  1.0
  Ba  Ba5  1  0.62004732  -0.12004732  0.25000000  1.0
  Ba  Ba6  1  1.25000000  1.25000000  0.25000000  1.0
  Ba  Ba7  1  0.75000000  0.75000000  -0.25000000  1.0
  Pt  Pt8  1  0.50000000  0.50000000  -0.50000000  1.0
  Pt  Pt9  1  0.00000000  0.00000000  0.00000000  1.0
  O  O10  1  0.22826273  0.42737588  -0.43951766  1.0
  O  O11  1  0.72826273  0.06048234  -0.07262412  1.0
  O  O12  1  0.93951766  0.07262412  -0.72826273  1.0
  O  O13  1  0.43951766  0.77173727  -0.42737588  1.0
  O  O14  1  0.57262412  0.43951766  -0.22826273  1.0
  O  O15  1  1.07262412  -0.72826273  -0.06048234  1.0
  O  O16  1  0.77173727  0.57262412  -0.56048234  1.0
  O  O17  1  0.27173727  -0.06048234  0.07262412  1.0
  O  O18  1  0.56048234  0.22826273  -0.57262412  1.0
  O  O19  1  1.06048234  -0.07262412  -0.27173727  1.0
  O  O20  1  0.92737588  -0.27173727  0.06048234  1.0
  O  O21  1  0.42737588  0.56048234  -0.77173727  1.0
