# generated using pymatgen
data_Rb2Hf3OF12
_symmetry_space_group_name_H-M   'P 1'
_cell_length_a   11.06446396
_cell_length_b   11.06446396
_cell_length_c   11.06446396
_cell_angle_alpha   41.14035108
_cell_angle_beta   41.14035108
_cell_angle_gamma   41.14035108
_symmetry_Int_Tables_number   1
_chemical_formula_structural   Rb2Hf3OF12
_chemical_formula_sum   'Rb4 Hf6 O2 F24'
_cell_volume   529.44360032
_cell_formula_units_Z   2
loop_
 _symmetry_equiv_pos_site_id
 _symmetry_equiv_pos_as_xyz
  1  'x, y, z'
loop_
 _atom_site_type_symbol
 _atom_site_label
 _atom_site_symmetry_multiplicity
 _atom_site_fract_x
 _atom_site_fract_y
 _atom_site_fract_z
 _atom_site_occupancy
  Rb  Rb0  1  0.86139044  0.86139044  0.86139044  1.0
  Rb  Rb1  1  1.13860956  1.13860956  0.13860956  1.0
  Rb  Rb2  1  1.50000000  0.50000000  0.50000000  1.0
  Rb  Rb3  1  -0.00000000  0.00000000  -0.00000000  1.0
  Hf  Hf4  1  1.42460359  1.42460359  -0.02795595  1.0
  Hf  Hf5  1  1.42460359  0.97204405  0.42460359  1.0
  Hf  Hf6  1  1.02795595  0.57539641  0.57539641  1.0
  Hf  Hf7  1  1.57539641  0.02795595  0.57539641  1.0
  Hf  Hf8  1  1.57539641  0.57539641  0.02795595  1.0
  Hf  Hf9  1  0.97204405  1.42460359  0.42460359  1.0
  O  O10  1  0.71310473  0.71310473  0.71310473  1.0
  O  O11  1  1.28689527  1.28689527  0.28689527  1.0
  F  F12  1  1.29232821  0.29232821  0.62748595  1.0
  F  F13  1  1.29232821  0.62748595  0.29232821  1.0
  F  F14  1  1.37251405  0.70767179  0.70767179  1.0
  F  F15  1  1.70767179  0.37251405  0.70767179  1.0
  F  F16  1  1.70767179  0.70767179  0.37251405  1.0
  F  F17  1  1.62748595  0.29232821  0.29232821  1.0
  F  F18  1  1.09021672  1.09021672  0.59871170  1.0
  F  F19  1  1.09021672  1.59871170  0.09021672  1.0
  F  F20  1  1.40128830  0.90978328  -0.09021672  1.0
  F  F21  1  0.90978328  1.40128830  -0.09021672  1.0
  F  F22  1  0.90978328  0.90978328  0.40128830  1.0
  F  F23  1  1.59871170  1.09021672  0.09021672  1.0
  F  F24  1  1.35377636  1.35377636  -0.08306739  1.0
  F  F25  1  1.35377636  0.91693261  0.35377636  1.0
  F  F26  1  1.08306739  0.64622364  0.64622364  1.0
  F  F27  1  1.64622364  0.08306739  0.64622364  1.0
  F  F28  1  1.64622364  0.64622364  0.08306739  1.0
  F  F29  1  0.91693261  1.35377636  0.35377636  1.0
  F  F30  1  0.64729887  -0.00000000  -0.64729887  1.0
  F  F31  1  0.64729887  -0.64729887  -0.00000000  1.0
  F  F32  1  -0.00000000  0.64729887  -0.64729887  1.0
  F  F33  1  -0.00000000  0.35270113  -0.35270113  1.0
  F  F34  1  0.35270113  -0.00000000  -0.35270113  1.0
  F  F35  1  0.35270113  -0.35270113  0.00000000  1.0
