# generated using pymatgen
data_ScGe2Os
_symmetry_space_group_name_H-M   'P 1'
_cell_length_a   9.34738002
_cell_length_b   10.41802174
_cell_length_c   8.22136629
_cell_angle_alpha   90.00000000
_cell_angle_beta   90.00000000
_cell_angle_gamma   90.00000000
_symmetry_Int_Tables_number   1
_chemical_formula_structural   ScGe2Os
_chemical_formula_sum   'Sc12 Ge24 Os12'
_cell_volume   800.60658220
_cell_formula_units_Z   12
loop_
 _symmetry_equiv_pos_site_id
 _symmetry_equiv_pos_as_xyz
  1  'x, y, z'
loop_
 _atom_site_type_symbol
 _atom_site_label
 _atom_site_symmetry_multiplicity
 _atom_site_fract_x
 _atom_site_fract_y
 _atom_site_fract_z
 _atom_site_occupancy
  Sc  Sc0  1  0.17760871  0.55137389  0.75538698  1.0
  Sc  Sc1  1  0.17760871  0.55137389  0.24461302  1.0
  Sc  Sc2  1  0.67760871  0.94862611  0.75538698  1.0
  Sc  Sc3  1  0.67760871  0.94862611  0.24461302  1.0
  Sc  Sc4  1  0.82239129  0.44862611  0.75538698  1.0
  Sc  Sc5  1  0.82239129  0.44862611  0.24461302  1.0
  Sc  Sc6  1  0.32239129  0.05137389  0.75538698  1.0
  Sc  Sc7  1  0.32239129  0.05137389  0.24461302  1.0
  Sc  Sc8  1  0.16417926  0.82259105  0.00000000  1.0
  Sc  Sc9  1  0.66417926  0.67740895  0.00000000  1.0
  Sc  Sc10  1  0.83582074  0.17740895  0.00000000  1.0
  Sc  Sc11  1  0.33582074  0.32259105  0.00000000  1.0
  Ge  Ge12  1  0.16330025  0.82094829  0.65366909  1.0
  Ge  Ge13  1  0.16330025  0.82094829  0.34633091  1.0
  Ge  Ge14  1  0.66330025  0.67905171  0.65366909  1.0
  Ge  Ge15  1  0.66330025  0.67905171  0.34633091  1.0
  Ge  Ge16  1  0.83669975  0.17905171  0.65366909  1.0
  Ge  Ge17  1  0.83669975  0.17905171  0.34633091  1.0
  Ge  Ge18  1  0.33669975  0.32094829  0.65366909  1.0
  Ge  Ge19  1  0.33669975  0.32094829  0.34633091  1.0
  Ge  Ge20  1  0.46813846  0.88277191  0.50000000  1.0
  Ge  Ge21  1  0.96813846  0.61722809  0.50000000  1.0
  Ge  Ge22  1  0.53186154  0.11722809  0.50000000  1.0
  Ge  Ge23  1  0.03186154  0.38277191  0.50000000  1.0
  Ge  Ge24  1  0.36793115  0.59901370  0.50000000  1.0
  Ge  Ge25  1  0.86793115  0.90098630  0.50000000  1.0
  Ge  Ge26  1  0.63206885  0.40098630  0.50000000  1.0
  Ge  Ge27  1  0.13206885  0.09901370  0.50000000  1.0
  Ge  Ge28  1  0.46520826  0.88449194  0.00000000  1.0
  Ge  Ge29  1  0.96520826  0.61550806  0.00000000  1.0
  Ge  Ge30  1  0.53479174  0.11550806  0.00000000  1.0
  Ge  Ge31  1  0.03479174  0.38449194  0.00000000  1.0
  Ge  Ge32  1  0.36465610  0.60234936  0.00000000  1.0
  Ge  Ge33  1  0.86465610  0.89765064  -0.00000000  1.0
  Ge  Ge34  1  0.63534390  0.39765064  0.00000000  1.0
  Ge  Ge35  1  0.13534390  0.10234936  -0.00000000  1.0
  Os  Os36  1  0.41373107  0.76313256  0.75129662  1.0
  Os  Os37  1  0.41373107  0.76313256  0.24870338  1.0
  Os  Os38  1  0.91373107  0.73686744  0.75129662  1.0
  Os  Os39  1  0.91373107  0.73686744  0.24870338  1.0
  Os  Os40  1  0.58626893  0.23686744  0.75129662  1.0
  Os  Os41  1  0.58626893  0.23686744  0.24870338  1.0
  Os  Os42  1  0.08626893  0.26313256  0.75129662  1.0
  Os  Os43  1  0.08626893  0.26313256  0.24870338  1.0
  Os  Os44  1  0.50000000  0.50000000  0.75337813  1.0
  Os  Os45  1  0.50000000  0.50000000  0.24662187  1.0
  Os  Os46  1  0.00000000  0.00000000  0.75337813  1.0
  Os  Os47  1  0.00000000  0.00000000  0.24662187  1.0
