# generated using pymatgen
data_KInBP2HO9
_symmetry_space_group_name_H-M   'P 1'
_cell_length_a   8.45429304
_cell_length_b   8.47913675
_cell_length_c   5.34914136
_cell_angle_alpha   87.19467782
_cell_angle_beta   80.08215417
_cell_angle_gamma   88.61890125
_symmetry_Int_Tables_number   1
_chemical_formula_structural   KInBP2HO9
_chemical_formula_sum   'K2 In2 B2 P4 H2 O18'
_cell_volume   377.22279695
_cell_formula_units_Z   2
loop_
 _symmetry_equiv_pos_site_id
 _symmetry_equiv_pos_as_xyz
  1  'x, y, z'
loop_
 _atom_site_type_symbol
 _atom_site_label
 _atom_site_symmetry_multiplicity
 _atom_site_fract_x
 _atom_site_fract_y
 _atom_site_fract_z
 _atom_site_occupancy
  K  K0  1  -0.88153884  -0.67170525  -0.28204344  1.0
  K  K1  1  -0.11846116  -0.32829475  -0.71795656  1.0
  In  In2  1  -0.20681216  -0.80964504  -0.71655868  1.0
  In  In3  1  -0.79318784  -0.19035496  -0.28344132  1.0
  B  B4  1  -0.56354190  -0.72778354  -0.89478238  1.0
  B  B5  1  -0.43645810  -0.27221646  -0.10521762  1.0
  P  P6  1  -0.69840580  -0.42236202  -0.80991204  1.0
  P  P7  1  -0.30159420  -0.57763798  -0.19008796  1.0
  P  P8  1  -0.80957291  -0.93624450  -0.78417701  1.0
  P  P9  1  -0.19042709  -0.06375550  -0.21582299  1.0
  H  H10  1  -0.53334141  -0.88296892  -0.60675894  1.0
  H  H11  1  -0.46665859  -0.11703108  -0.39324106  1.0
  O  O12  1  -0.20820041  -0.59305683  -0.96591652  1.0
  O  O13  1  -0.79179959  -0.40694317  -0.03408348  1.0
  O  O14  1  -0.67503348  -0.84006455  -0.97105357  1.0
  O  O15  1  -0.32496652  -0.15993545  -0.02894643  1.0
  O  O16  1  -0.85193428  -0.07822896  -0.92390964  1.0
  O  O17  1  -0.14806572  -0.92177104  -0.07609036  1.0
  O  O18  1  -0.53575162  -0.33108691  -0.87066776  1.0
  O  O19  1  -0.46424838  -0.66891309  -0.12933224  1.0
  O  O20  1  -0.95310022  -0.82069423  -0.71201439  1.0
  O  O21  1  -0.04689978  -0.17930577  -0.28798561  1.0
  O  O22  1  -0.65854088  -0.60065024  -0.75033549  1.0
  O  O23  1  -0.34145912  -0.39934976  -0.24966451  1.0
  O  O24  1  -0.46546524  -0.80826370  -0.72168690  1.0
  O  O25  1  -0.53453476  -0.19173630  -0.27831310  1.0
  O  O26  1  -0.79836568  -0.36617585  -0.56240821  1.0
  O  O27  1  -0.20163432  -0.63382415  -0.43759179  1.0
  O  O28  1  -0.73748192  -0.98529464  -0.54048447  1.0
  O  O29  1  -0.26251808  -0.01470536  -0.45951553  1.0
