# generated using pymatgen
data_Cr2S3
_symmetry_space_group_name_H-M   'P 1'
_cell_length_a   6.38434490
_cell_length_b   6.38434490
_cell_length_c   6.38434490
_cell_angle_alpha   56.31494858
_cell_angle_beta   56.31494858
_cell_angle_gamma   56.31494858
_symmetry_Int_Tables_number   1
_chemical_formula_structural   Cr2S3
_chemical_formula_sum   'Cr4 S6'
_cell_volume   168.32052593
_cell_formula_units_Z   2
loop_
 _symmetry_equiv_pos_site_id
 _symmetry_equiv_pos_as_xyz
  1  'x, y, z'
loop_
 _atom_site_type_symbol
 _atom_site_label
 _atom_site_symmetry_multiplicity
 _atom_site_fract_x
 _atom_site_fract_y
 _atom_site_fract_z
 _atom_site_occupancy
  Cr  Cr0  1  0.17119375  0.17119375  0.17119375  1.0
  Cr  Cr1  1  0.82880625  -0.17119375  -0.17119375  1.0
  Cr  Cr2  1  0.50000000  0.50000000  -0.50000000  1.0
  Cr  Cr3  1  0.00000000  0.00000000  0.00000000  1.0
  S  S4  1  0.40537571  0.09213258  -0.23988185  1.0
  S  S5  1  1.23988185  -0.40537571  -0.09213258  1.0
  S  S6  1  0.90786742  0.23988185  -0.40537571  1.0
  S  S7  1  0.59462429  -0.09213258  0.23988185  1.0
  S  S8  1  0.76011815  -0.59462429  0.09213258  1.0
  S  S9  1  0.09213258  0.76011815  -0.59462429  1.0
