# generated using pymatgen
data_CdI2
_symmetry_space_group_name_H-M   'P 1'
_cell_length_a   4.32805309
_cell_length_b   4.32805309
_cell_length_c   60.69172866
_cell_angle_alpha   90.00000000
_cell_angle_beta   90.00000000
_cell_angle_gamma   120.00000000
_symmetry_Int_Tables_number   1
_chemical_formula_structural   CdI2
_chemical_formula_sum   'Cd8 I16'
_cell_volume   984.56705287
_cell_formula_units_Z   8
loop_
 _symmetry_equiv_pos_site_id
 _symmetry_equiv_pos_as_xyz
  1  'x, y, z'
loop_
 _atom_site_type_symbol
 _atom_site_label
 _atom_site_symmetry_multiplicity
 _atom_site_fract_x
 _atom_site_fract_y
 _atom_site_fract_z
 _atom_site_occupancy
  Cd  Cd0  1  -0.00000000  -0.00000000  0.03122961  1.0
  Cd  Cd1  1  -0.00000000  -0.00000000  0.28124667  1.0
  Cd  Cd2  1  -0.00000000  -0.00000000  0.40621235  1.0
  Cd  Cd3  1  -0.00000000  -0.00000000  0.78123181  1.0
  Cd  Cd4  1  0.66666667  0.33333333  0.15623620  1.0
  Cd  Cd5  1  0.66666667  0.33333333  0.53125157  1.0
  Cd  Cd6  1  0.66666667  0.33333333  0.65621239  1.0
  Cd  Cd7  1  0.33333333  0.66666667  0.90622756  1.0
  I  I8  1  -0.00000000  -0.00000000  0.18456741  1.0
  I  I9  1  -0.00000000  -0.00000000  0.55958317  1.0
  I  I10  1  -0.00000000  -0.00000000  0.68454504  1.0
  I  I11  1  -0.00000000  -0.00000000  0.87790358  1.0
  I  I12  1  0.66666667  0.33333333  0.05956139  1.0
  I  I13  1  0.66666667  0.33333333  0.30957508  1.0
  I  I14  1  0.66666667  0.33333333  0.43454397  1.0
  I  I15  1  0.66666667  0.33333333  0.80955939  1.0
  I  I16  1  0.66666667  0.33333333  0.93455650  1.0
  I  I17  1  0.33333333  0.66666667  0.00290296  1.0
  I  I18  1  0.33333333  0.66666667  0.12791456  1.0
  I  I19  1  0.33333333  0.66666667  0.25292347  1.0
  I  I20  1  0.33333333  0.66666667  0.37788627  1.0
  I  I21  1  0.33333333  0.66666667  0.50293059  1.0
  I  I22  1  0.33333333  0.66666667  0.62788757  1.0
  I  I23  1  0.33333333  0.66666667  0.75291087  1.0
