# generated using pymatgen
data_Y2(MoO4)3
_symmetry_space_group_name_H-M   'P 1'
_cell_length_a   7.42991488
_cell_length_b   7.42991488
_cell_length_c   10.68011312
_cell_angle_alpha   90.00000000
_cell_angle_beta   90.00000000
_cell_angle_gamma   90.00000000
_symmetry_Int_Tables_number   1
_chemical_formula_structural   Y2(MoO4)3
_chemical_formula_sum   'Y4 Mo6 O24'
_cell_volume   589.58106839
_cell_formula_units_Z   2
loop_
 _symmetry_equiv_pos_site_id
 _symmetry_equiv_pos_as_xyz
  1  'x, y, z'
loop_
 _atom_site_type_symbol
 _atom_site_label
 _atom_site_symmetry_multiplicity
 _atom_site_fract_x
 _atom_site_fract_y
 _atom_site_fract_z
 _atom_site_occupancy
  Y  Y0  1  0.81231791  0.68768209  0.26326997  1.0
  Y  Y1  1  0.31231791  0.81231791  0.73673003  1.0
  Y  Y2  1  0.18768209  0.31231791  0.26326997  1.0
  Y  Y3  1  0.68768209  0.18768209  0.73673003  1.0
  Mo  Mo4  1  0.50000000  0.50000000  0.00000000  1.0
  Mo  Mo5  1  0.00000000  0.00000000  0.00000000  1.0
  Mo  Mo6  1  0.79278633  0.70721367  0.64384131  1.0
  Mo  Mo7  1  0.29278633  0.79278633  0.35615869  1.0
  Mo  Mo8  1  0.20721367  0.29278633  0.64384131  1.0
  Mo  Mo9  1  0.70721367  0.20721367  0.35615869  1.0
  O  O10  1  0.54798471  0.31214487  0.90305836  1.0
  O  O11  1  0.04798471  0.18785513  0.09694164  1.0
  O  O12  1  0.45201529  0.68785513  0.90305836  1.0
  O  O13  1  0.95201529  0.81214487  0.09694164  1.0
  O  O14  1  0.68785513  0.54798471  0.09694164  1.0
  O  O15  1  0.18785513  0.95201529  0.90305836  1.0
  O  O16  1  0.31214487  0.45201529  0.09694164  1.0
  O  O17  1  0.81214487  0.04798471  0.90305836  1.0
  O  O18  1  0.77405558  0.99545707  0.29760079  1.0
  O  O19  1  0.27405558  0.50454293  0.70239921  1.0
  O  O20  1  0.22594442  0.00454293  0.29760079  1.0
  O  O21  1  0.72594442  0.49545707  0.70239921  1.0
  O  O22  1  0.00454293  0.77405558  0.70239921  1.0
  O  O23  1  0.50454293  0.72594442  0.29760079  1.0
  O  O24  1  0.99545707  0.22594442  0.70239921  1.0
  O  O25  1  0.49545707  0.27405558  0.29760079  1.0
  O  O26  1  0.80379998  0.69620002  0.47894829  1.0
  O  O27  1  0.30379998  0.80379998  0.52105171  1.0
  O  O28  1  0.19620002  0.30379998  0.47894829  1.0
  O  O29  1  0.69620002  0.19620002  0.52105171  1.0
  O  O30  1  0.62684588  0.87315412  0.69227152  1.0
  O  O31  1  0.12684588  0.62684588  0.30772848  1.0
  O  O32  1  0.37315412  0.12684588  0.69227152  1.0
  O  O33  1  0.87315412  0.37315412  0.30772848  1.0
