# generated using pymatgen
data_Gd2Si2O7
_symmetry_space_group_name_H-M   'P 1'
_cell_length_a   6.62904236
_cell_length_b   6.75471832
_cell_length_c   12.75080346
_cell_angle_alpha   90.00000000
_cell_angle_beta   108.24527657
_cell_angle_gamma   90.00000000
_symmetry_Int_Tables_number   1
_chemical_formula_structural   Gd2Si2O7
_chemical_formula_sum   'Gd8 Si8 O28'
_cell_volume   542.24234693
_cell_formula_units_Z   4
loop_
 _symmetry_equiv_pos_site_id
 _symmetry_equiv_pos_as_xyz
  1  'x, y, z'
loop_
 _atom_site_type_symbol
 _atom_site_label
 _atom_site_symmetry_multiplicity
 _atom_site_fract_x
 _atom_site_fract_y
 _atom_site_fract_z
 _atom_site_occupancy
  Gd  Gd0  1  0.84228298  0.83062877  0.15100751  1.0
  Gd  Gd1  1  0.84228298  0.66937123  0.65100751  1.0
  Gd  Gd2  1  0.15771702  0.33062877  0.34899249  1.0
  Gd  Gd3  1  0.15771702  0.16937123  0.84899249  1.0
  Gd  Gd4  1  0.47230005  0.38876214  0.13719243  1.0
  Gd  Gd5  1  0.47230005  0.11123786  0.63719243  1.0
  Gd  Gd6  1  0.52769995  0.88876214  0.36280757  1.0
  Gd  Gd7  1  0.52769995  0.61123786  0.86280757  1.0
  Si  Si8  1  0.89666178  0.32911214  0.08563559  1.0
  Si  Si9  1  0.89666178  0.17088786  0.58563559  1.0
  Si  Si10  1  0.10333822  0.82911214  0.41436441  1.0
  Si  Si11  1  0.10333822  0.67088786  0.91436441  1.0
  Si  Si12  1  0.71163350  0.41764916  0.38876154  1.0
  Si  Si13  1  0.71163350  0.08235084  0.88876154  1.0
  Si  Si14  1  0.28836650  0.91764916  0.11123846  1.0
  Si  Si15  1  0.28836650  0.58235084  0.61123846  1.0
  O  O16  1  0.90778129  0.27722568  0.46881319  1.0
  O  O17  1  0.90778129  0.22277432  0.96881319  1.0
  O  O18  1  0.09221871  0.77722568  0.03118681  1.0
  O  O19  1  0.09221871  0.72277432  0.53118681  1.0
  O  O20  1  0.87157932  0.90517290  0.33833240  1.0
  O  O21  1  0.87157932  0.59482710  0.83833240  1.0
  O  O22  1  0.12842068  0.40517290  0.16166760  1.0
  O  O23  1  0.12842068  0.09482710  0.66166760  1.0
  O  O24  1  0.78329321  0.16997831  0.14589026  1.0
  O  O25  1  0.78329321  0.33002169  0.64589026  1.0
  O  O26  1  0.21670679  0.66997831  0.35410974  1.0
  O  O27  1  0.21670679  0.83002169  0.85410974  1.0
  O  O28  1  0.80169336  0.48058808  0.28805880  1.0
  O  O29  1  0.80169336  0.01941192  0.78805880  1.0
  O  O30  1  0.19830664  0.98058808  0.21194120  1.0
  O  O31  1  0.19830664  0.51941192  0.71194120  1.0
  O  O32  1  0.66346757  0.89553915  0.95717345  1.0
  O  O33  1  0.66346757  0.60446085  0.45717345  1.0
  O  O34  1  0.33653243  0.39553915  0.54282655  1.0
  O  O35  1  0.33653243  0.10446085  0.04282655  1.0
  O  O36  1  0.50226828  0.27578798  0.33180221  1.0
  O  O37  1  0.50226828  0.22421202  0.83180221  1.0
  O  O38  1  0.49773172  0.77578798  0.16819779  1.0
  O  O39  1  0.49773172  0.72421202  0.66819779  1.0
  O  O40  1  0.27494576  0.01562471  0.45004764  1.0
  O  O41  1  0.27494576  0.48437529  0.95004764  1.0
  O  O42  1  0.72505424  0.51562471  0.04995236  1.0
  O  O43  1  0.72505424  0.98437529  0.54995236  1.0
