# generated using pymatgen
data_GdNi
_symmetry_space_group_name_H-M   'P 1'
_cell_length_a   7.14315225
_cell_length_b   4.20660187
_cell_length_c   5.49870911
_cell_angle_alpha   90.00000000
_cell_angle_beta   90.00000000
_cell_angle_gamma   90.00000000
_symmetry_Int_Tables_number   1
_chemical_formula_structural   GdNi
_chemical_formula_sum   'Gd4 Ni4'
_cell_volume   165.22739796
_cell_formula_units_Z   4
loop_
 _symmetry_equiv_pos_site_id
 _symmetry_equiv_pos_as_xyz
  1  'x, y, z'
loop_
 _atom_site_type_symbol
 _atom_site_label
 _atom_site_symmetry_multiplicity
 _atom_site_fract_x
 _atom_site_fract_y
 _atom_site_fract_z
 _atom_site_occupancy
  Gd  Gd0  1  0.31940099  0.75000000  0.13344328  1.0
  Gd  Gd1  1  0.81940099  0.75000000  0.36655672  1.0
  Gd  Gd2  1  0.68059901  0.25000000  0.86655672  1.0
  Gd  Gd3  1  0.18059901  0.25000000  0.63344328  1.0
  Ni  Ni4  1  0.46293287  0.75000000  0.62508980  1.0
  Ni  Ni5  1  0.96293287  0.75000000  0.87491020  1.0
  Ni  Ni6  1  0.53706713  0.25000000  0.37491020  1.0
  Ni  Ni7  1  0.03706713  0.25000000  0.12508980  1.0
