# generated using pymatgen
data_ZrRh
_symmetry_space_group_name_H-M   'P 1'
_cell_length_a   6.15935846
_cell_length_b   4.49175144
_cell_length_c   5.29018088
_cell_angle_alpha   90.00000000
_cell_angle_beta   90.00000000
_cell_angle_gamma   90.00000000
_symmetry_Int_Tables_number   1
_chemical_formula_structural   ZrRh
_chemical_formula_sum   'Zr4 Rh4'
_cell_volume   146.35976946
_cell_formula_units_Z   4
loop_
 _symmetry_equiv_pos_site_id
 _symmetry_equiv_pos_as_xyz
  1  'x, y, z'
loop_
 _atom_site_type_symbol
 _atom_site_label
 _atom_site_symmetry_multiplicity
 _atom_site_fract_x
 _atom_site_fract_y
 _atom_site_fract_z
 _atom_site_occupancy
  Zr  Zr0  1  0.32417998  0.75000000  0.14066076  1.0
  Zr  Zr1  1  0.82417998  0.75000000  0.35933924  1.0
  Zr  Zr2  1  0.67582002  0.25000000  0.85933924  1.0
  Zr  Zr3  1  0.17582002  0.25000000  0.64066076  1.0
  Rh  Rh4  1  0.45353346  0.75000000  0.66921402  1.0
  Rh  Rh5  1  0.95353346  0.75000000  0.83078598  1.0
  Rh  Rh6  1  0.54646654  0.25000000  0.33078598  1.0
  Rh  Rh7  1  0.04646654  0.25000000  0.16921402  1.0
