# generated using pymatgen
data_AgClO2
_symmetry_space_group_name_H-M   'P 1'
_cell_length_a   6.11605654
_cell_length_b   7.31394482
_cell_length_c   6.26214841
_cell_angle_alpha   90.00000000
_cell_angle_beta   90.00000000
_cell_angle_gamma   90.00000000
_symmetry_Int_Tables_number   1
_chemical_formula_structural   AgClO2
_chemical_formula_sum   'Ag4 Cl4 O8'
_cell_volume   280.12155418
_cell_formula_units_Z   4
loop_
 _symmetry_equiv_pos_site_id
 _symmetry_equiv_pos_as_xyz
  1  'x, y, z'
loop_
 _atom_site_type_symbol
 _atom_site_label
 _atom_site_symmetry_multiplicity
 _atom_site_fract_x
 _atom_site_fract_y
 _atom_site_fract_z
 _atom_site_occupancy
  Ag  Ag0  1  0.50000000  0.39791078  0.75000000  1.0
  Ag  Ag1  1  0.50000000  0.60208922  0.25000000  1.0
  Ag  Ag2  1  0.00000000  0.39791078  0.25000000  1.0
  Ag  Ag3  1  0.00000000  0.60208922  0.75000000  1.0
  Cl  Cl4  1  0.50000000  0.84148633  0.75000000  1.0
  Cl  Cl5  1  0.50000000  0.15851367  0.25000000  1.0
  Cl  Cl6  1  0.00000000  0.84148633  0.25000000  1.0
  Cl  Cl7  1  0.00000000  0.15851367  0.75000000  1.0
  O  O8  1  0.34926925  0.71256865  0.60504305  1.0
  O  O9  1  0.34926925  0.28743135  0.10504305  1.0
  O  O10  1  0.84926925  0.71256865  0.39495695  1.0
  O  O11  1  0.84926925  0.28743135  0.89495695  1.0
  O  O12  1  0.65073075  0.71256865  0.89495695  1.0
  O  O13  1  0.65073075  0.28743135  0.39495695  1.0
  O  O14  1  0.15073075  0.71256865  0.10504305  1.0
  O  O15  1  0.15073075  0.28743135  0.60504305  1.0
