# generated using pymatgen
data_Bi3SbO7
_symmetry_space_group_name_H-M   'P 1'
_cell_length_a   6.70475748
_cell_length_b   7.72332361
_cell_length_c   7.04890467
_cell_angle_alpha   106.33289736
_cell_angle_beta   103.21888114
_cell_angle_gamma   89.44693669
_symmetry_Int_Tables_number   1
_chemical_formula_structural   Bi3SbO7
_chemical_formula_sum   'Bi6 Sb2 O14'
_cell_volume   340.41773823
_cell_formula_units_Z   2
loop_
 _symmetry_equiv_pos_site_id
 _symmetry_equiv_pos_as_xyz
  1  'x, y, z'
loop_
 _atom_site_type_symbol
 _atom_site_label
 _atom_site_symmetry_multiplicity
 _atom_site_fract_x
 _atom_site_fract_y
 _atom_site_fract_z
 _atom_site_occupancy
  Bi  Bi0  1  0.73499911  0.62333138  -0.50472820  1.0
  Bi  Bi1  1  0.26500089  0.37666862  -0.49527180  1.0
  Bi  Bi2  1  0.51452193  0.24436659  -0.99286328  1.0
  Bi  Bi3  1  0.48547807  0.75563341  -0.00713672  1.0
  Bi  Bi4  1  0.26131204  0.86795039  -0.53864100  1.0
  Bi  Bi5  1  0.73868796  0.13204961  -0.46135900  1.0
  Sb  Sb6  1  -0.00000000  0.50000000  -0.00000000  1.0
  Sb  Sb7  1  0.00000000  0.00000000  0.00000000  1.0
  O  O8  1  0.89275052  0.88338315  -0.30179235  1.0
  O  O9  1  0.10724948  0.11661685  -0.69820765  1.0
  O  O10  1  0.89114925  0.46239657  -0.30204336  1.0
  O  O11  1  0.10885075  0.53760343  -0.69795664  1.0
  O  O12  1  0.72350531  0.97913487  -0.94141235  1.0
  O  O13  1  0.27649469  0.02086513  -0.05858765  1.0
  O  O14  1  0.72307915  0.55407178  -0.94727808  1.0
  O  O15  1  0.27692085  0.44592822  -0.05272192  1.0
  O  O16  1  0.53184732  0.86029497  -0.65803681  1.0
  O  O17  1  0.46815268  0.13970503  -0.34196319  1.0
  O  O18  1  0.46593427  0.68091832  -0.37306039  1.0
  O  O19  1  0.53406573  0.31908168  -0.62693961  1.0
  O  O20  1  0.09591698  0.76879905  -0.92679603  1.0
  O  O21  1  0.90408302  0.23120095  -0.07320397  1.0
