# generated using pymatgen
data_Pb2IO2
_symmetry_space_group_name_H-M   'P 1'
_cell_length_a   7.58311837
_cell_length_b   7.58311837
_cell_length_c   7.58311837
_cell_angle_alpha   148.79649676
_cell_angle_beta   148.79649676
_cell_angle_gamma   44.71093884
_symmetry_Int_Tables_number   1
_chemical_formula_structural   Pb2IO2
_chemical_formula_sum   'Pb2 I1 O2'
_cell_volume   116.68411370
_cell_formula_units_Z   1
loop_
 _symmetry_equiv_pos_site_id
 _symmetry_equiv_pos_as_xyz
  1  'x, y, z'
loop_
 _atom_site_type_symbol
 _atom_site_label
 _atom_site_symmetry_multiplicity
 _atom_site_fract_x
 _atom_site_fract_y
 _atom_site_fract_z
 _atom_site_occupancy
  Pb  Pb0  1  0.66399165  0.66399165  1.00000000  1.0
  Pb  Pb1  1  0.33600835  0.33600835  -0.00000000  1.0
  I  I2  1  0.00000000  0.00000000  0.00000000  1.0
  O  O3  1  0.25000000  0.75000000  0.50000000  1.0
  O  O4  1  0.75000000  0.25000000  0.50000000  1.0
