# generated using pymatgen
data_CuClO
_symmetry_space_group_name_H-M   'P 1'
_cell_length_a   6.97768328
_cell_length_b   6.29021283
_cell_length_c   5.35908242
_cell_angle_alpha   90.00000000
_cell_angle_beta   115.16103940
_cell_angle_gamma   90.00000000
_symmetry_Int_Tables_number   1
_chemical_formula_structural   CuClO
_chemical_formula_sum   'Cu4 Cl4 O4'
_cell_volume   212.89793502
_cell_formula_units_Z   4
loop_
 _symmetry_equiv_pos_site_id
 _symmetry_equiv_pos_as_xyz
  1  'x, y, z'
loop_
 _atom_site_type_symbol
 _atom_site_label
 _atom_site_symmetry_multiplicity
 _atom_site_fract_x
 _atom_site_fract_y
 _atom_site_fract_z
 _atom_site_occupancy
  Cu  Cu0  1  0.96291379  0.61442075  0.75008760  1.0
  Cu  Cu1  1  0.96291379  0.88557925  0.25008760  1.0
  Cu  Cu2  1  0.03708621  0.11442075  0.74991240  1.0
  Cu  Cu3  1  0.03708621  0.38557925  0.24991240  1.0
  Cl  Cl4  1  0.71259526  0.93187553  0.83246220  1.0
  Cl  Cl5  1  0.71259526  0.56812447  0.33246220  1.0
  Cl  Cl6  1  0.28740474  0.43187553  0.66753780  1.0
  Cl  Cl7  1  0.28740474  0.06812447  0.16753780  1.0
  O  O8  1  0.91005993  0.34702111  0.85807063  1.0
  O  O9  1  0.91005993  0.15297889  0.35807063  1.0
  O  O10  1  0.08994007  0.84702111  0.64192937  1.0
  O  O11  1  0.08994007  0.65297889  0.14192937  1.0
