# generated using pymatgen
data_EuMn4(CuO4)3
_symmetry_space_group_name_H-M   'P 1'
_cell_length_a   6.32585449
_cell_length_b   6.32585449
_cell_length_c   6.32585449
_cell_angle_alpha   109.47122063
_cell_angle_beta   109.47122063
_cell_angle_gamma   109.47122063
_symmetry_Int_Tables_number   1
_chemical_formula_structural   EuMn4(CuO4)3
_chemical_formula_sum   'Eu1 Mn4 Cu3 O12'
_cell_volume   194.86583465
_cell_formula_units_Z   1
loop_
 _symmetry_equiv_pos_site_id
 _symmetry_equiv_pos_as_xyz
  1  'x, y, z'
loop_
 _atom_site_type_symbol
 _atom_site_label
 _atom_site_symmetry_multiplicity
 _atom_site_fract_x
 _atom_site_fract_y
 _atom_site_fract_z
 _atom_site_occupancy
  Eu  Eu0  1  0.00000000  0.00000000  0.00000000  1.0
  Mn  Mn1  1  0.50000000  1.00000000  1.00000000  1.0
  Mn  Mn2  1  0.50000000  0.50000000  0.50000000  1.0
  Mn  Mn3  1  1.00000000  1.00000000  0.50000000  1.0
  Mn  Mn4  1  1.00000000  0.50000000  1.00000000  1.0
  Cu  Cu5  1  0.50000000  0.50000000  -0.00000000  1.0
  Cu  Cu6  1  -0.00000000  0.50000000  0.50000000  1.0
  Cu  Cu7  1  0.50000000  -0.00000000  0.50000000  1.0
  O  O8  1  0.82010249  1.30084536  1.12094785  1.0
  O  O9  1  0.82010249  0.69915464  0.51925713  1.0
  O  O10  1  0.17989751  0.30084536  0.48074287  1.0
  O  O11  1  0.17989751  0.69915464  0.87905215  1.0
  O  O12  1  0.51925713  0.82010249  0.69915464  1.0
  O  O13  1  1.12094785  0.82010249  1.30084536  1.0
  O  O14  1  0.69915464  0.87905215  0.17989751  1.0
  O  O15  1  0.69915464  0.51925713  0.82010249  1.0
  O  O16  1  0.87905215  0.17989751  0.69915464  1.0
  O  O17  1  0.48074287  0.17989751  0.30084536  1.0
  O  O18  1  0.30084536  0.48074287  0.17989751  1.0
  O  O19  1  1.30084536  1.12094785  0.82010249  1.0
