# generated using pymatgen
data_TiSiO4
_symmetry_space_group_name_H-M   'P 1'
_cell_length_a   4.83786607
_cell_length_b   4.83786607
_cell_length_c   6.28062611
_cell_angle_alpha   90.00000000
_cell_angle_beta   90.00000000
_cell_angle_gamma   112.74492045
_symmetry_Int_Tables_number   1
_chemical_formula_structural   TiSiO4
_chemical_formula_sum   'Ti2 Si2 O8'
_cell_volume   135.56648679
_cell_formula_units_Z   2
loop_
 _symmetry_equiv_pos_site_id
 _symmetry_equiv_pos_as_xyz
  1  'x, y, z'
loop_
 _atom_site_type_symbol
 _atom_site_label
 _atom_site_symmetry_multiplicity
 _atom_site_fract_x
 _atom_site_fract_y
 _atom_site_fract_z
 _atom_site_occupancy
  Ti  Ti0  1  0.00000000  0.00000000  0.00000000  1.0
  Ti  Ti1  1  0.00000000  0.00000000  0.50000000  1.0
  Si  Si2  1  -0.34796039  1.34796039  0.75000000  1.0
  Si  Si3  1  0.34796039  0.65203961  0.25000000  1.0
  O  O4  1  -0.22854896  1.22854896  0.95790354  1.0
  O  O5  1  0.22854896  0.77145104  0.04209646  1.0
  O  O6  1  -0.22854896  1.22854896  0.54209646  1.0
  O  O7  1  0.22854896  0.77145104  0.45790354  1.0
  O  O8  1  -0.72276754  1.21782943  0.75000000  1.0
  O  O9  1  0.21782943  0.27723246  0.25000000  1.0
  O  O10  1  0.72276754  0.78217057  0.25000000  1.0
  O  O11  1  -0.21782943  1.72276754  0.75000000  1.0
