# generated using pymatgen
data_RbLi2CdC2O6F
_symmetry_space_group_name_H-M   'P 1'
_cell_length_a   4.97422686
_cell_length_b   4.97422686
_cell_length_c   15.64563129
_cell_angle_alpha   90.00000000
_cell_angle_beta   90.00000000
_cell_angle_gamma   120.00000000
_symmetry_Int_Tables_number   1
_chemical_formula_structural   RbLi2CdC2O6F
_chemical_formula_sum   'Rb2 Li4 Cd2 C4 O12 F2'
_cell_volume   335.25471863
_cell_formula_units_Z   2
loop_
 _symmetry_equiv_pos_site_id
 _symmetry_equiv_pos_as_xyz
  1  'x, y, z'
loop_
 _atom_site_type_symbol
 _atom_site_label
 _atom_site_symmetry_multiplicity
 _atom_site_fract_x
 _atom_site_fract_y
 _atom_site_fract_z
 _atom_site_occupancy
  Rb  Rb0  1  0.00000000  0.00000000  0.25000000  1.0
  Rb  Rb1  1  0.00000000  0.00000000  0.75000000  1.0
  Li  Li2  1  0.33333333  0.66666667  0.36877689  1.0
  Li  Li3  1  0.33333333  0.66666667  0.13122311  1.0
  Li  Li4  1  0.66666667  0.33333333  0.86877689  1.0
  Li  Li5  1  0.66666667  0.33333333  0.63122311  1.0
  Cd  Cd6  1  0.00000000  0.00000000  0.50000000  1.0
  Cd  Cd7  1  0.00000000  0.00000000  0.00000000  1.0
  C  C8  1  0.33333333  0.66666667  0.91014777  1.0
  C  C9  1  0.33333333  0.66666667  0.58985223  1.0
  C  C10  1  0.66666667  0.33333333  0.41014777  1.0
  C  C11  1  0.66666667  0.33333333  0.08985223  1.0
  O  O12  1  0.66625410  0.59404497  0.40944055  1.0
  O  O13  1  0.66625410  0.59404497  0.09055945  1.0
  O  O14  1  0.59404497  0.92779088  0.90944055  1.0
  O  O15  1  0.59404497  0.92779088  0.59055945  1.0
  O  O16  1  0.92779088  0.33374590  0.40944055  1.0
  O  O17  1  0.92779088  0.33374590  0.09055945  1.0
  O  O18  1  0.40595503  0.07220912  0.40944055  1.0
  O  O19  1  0.40595503  0.07220912  0.09055945  1.0
  O  O20  1  0.33374590  0.40595503  0.90944055  1.0
  O  O21  1  0.33374590  0.40595503  0.59055945  1.0
  O  O22  1  0.07220912  0.66625410  0.90944055  1.0
  O  O23  1  0.07220912  0.66625410  0.59055945  1.0
  F  F24  1  0.33333333  0.66666667  0.25000000  1.0
  F  F25  1  0.66666667  0.33333333  0.75000000  1.0
