# generated using pymatgen
data_Lu6Te2Au
_symmetry_space_group_name_H-M   'P 1'
_cell_length_a   21.24983680
_cell_length_b   3.99636723
_cell_length_c   11.32928705
_cell_angle_alpha   90.00000000
_cell_angle_beta   90.00000000
_cell_angle_gamma   90.00000000
_symmetry_Int_Tables_number   1
_chemical_formula_structural   Lu6Te2Au
_chemical_formula_sum   'Lu24 Te8 Au4'
_cell_volume   962.10743008
_cell_formula_units_Z   4
loop_
 _symmetry_equiv_pos_site_id
 _symmetry_equiv_pos_as_xyz
  1  'x, y, z'
loop_
 _atom_site_type_symbol
 _atom_site_label
 _atom_site_symmetry_multiplicity
 _atom_site_fract_x
 _atom_site_fract_y
 _atom_site_fract_z
 _atom_site_occupancy
  Lu  Lu0  1  0.49258577  0.75000000  0.11050929  1.0
  Lu  Lu1  1  0.99258577  0.75000000  0.38949071  1.0
  Lu  Lu2  1  0.50741423  0.25000000  0.88949071  1.0
  Lu  Lu3  1  0.00741423  0.25000000  0.61050929  1.0
  Lu  Lu4  1  0.39141418  0.75000000  0.81416712  1.0
  Lu  Lu5  1  0.89141418  0.75000000  0.68583288  1.0
  Lu  Lu6  1  0.60858582  0.25000000  0.18583288  1.0
  Lu  Lu7  1  0.10858582  0.25000000  0.31416712  1.0
  Lu  Lu8  1  0.34175538  0.75000000  0.52996738  1.0
  Lu  Lu9  1  0.84175538  0.75000000  0.97003262  1.0
  Lu  Lu10  1  0.65824462  0.25000000  0.47003262  1.0
  Lu  Lu11  1  0.15824462  0.25000000  0.02996738  1.0
  Lu  Lu12  1  0.23266274  0.75000000  0.23930995  1.0
  Lu  Lu13  1  0.73266274  0.75000000  0.26069005  1.0
  Lu  Lu14  1  0.76733726  0.25000000  0.76069005  1.0
  Lu  Lu15  1  0.26733726  0.25000000  0.73930995  1.0
  Lu  Lu16  1  0.13911860  0.75000000  0.56129918  1.0
  Lu  Lu17  1  0.63911860  0.75000000  0.93870082  1.0
  Lu  Lu18  1  0.86088140  0.25000000  0.43870082  1.0
  Lu  Lu19  1  0.36088140  0.25000000  0.06129918  1.0
  Lu  Lu20  1  0.02611420  0.75000000  0.87782984  1.0
  Lu  Lu21  1  0.52611420  0.75000000  0.62217016  1.0
  Lu  Lu22  1  0.97388580  0.25000000  0.12217016  1.0
  Lu  Lu23  1  0.47388580  0.25000000  0.37782984  1.0
  Te  Te24  1  0.37389101  0.75000000  0.26838388  1.0
  Te  Te25  1  0.87389101  0.75000000  0.23161612  1.0
  Te  Te26  1  0.62610899  0.25000000  0.73161612  1.0
  Te  Te27  1  0.12610899  0.25000000  0.76838388  1.0
  Te  Te28  1  0.26347924  0.75000000  0.95613312  1.0
  Te  Te29  1  0.76347924  0.75000000  0.54386688  1.0
  Te  Te30  1  0.73652076  0.25000000  0.04386688  1.0
  Te  Te31  1  0.23652076  0.25000000  0.45613312  1.0
  Au  Au32  1  0.07541500  0.75000000  0.13162619  1.0
  Au  Au33  1  0.57541500  0.75000000  0.36837381  1.0
  Au  Au34  1  0.92458500  0.25000000  0.86837381  1.0
  Au  Au35  1  0.42458500  0.25000000  0.63162619  1.0
