# generated using pymatgen
data_V5B3
_symmetry_space_group_name_H-M   'P 1'
_cell_length_a   6.51863412
_cell_length_b   6.51863412
_cell_length_c   6.51863412
_cell_angle_alpha   128.82638792
_cell_angle_beta   128.82638792
_cell_angle_gamma   75.29008372
_symmetry_Int_Tables_number   1
_chemical_formula_structural   V5B3
_chemical_formula_sum   'V10 B6'
_cell_volume   163.63377321
_cell_formula_units_Z   2
loop_
 _symmetry_equiv_pos_site_id
 _symmetry_equiv_pos_as_xyz
  1  'x, y, z'
loop_
 _atom_site_type_symbol
 _atom_site_label
 _atom_site_symmetry_multiplicity
 _atom_site_fract_x
 _atom_site_fract_y
 _atom_site_fract_z
 _atom_site_occupancy
  V  V0  1  0.50000000  0.50000000  1.00000000  1.0
  V  V1  1  0.00000000  0.00000000  0.00000000  1.0
  V  V2  1  0.53030748  1.03030748  0.84756384  1.0
  V  V3  1  1.18274363  0.68274363  1.15243616  1.0
  V  V4  1  1.03030748  1.18274363  1.50000000  1.0
  V  V5  1  0.68274363  0.53030748  0.50000000  1.0
  V  V6  1  0.46969252  0.96969252  1.15243616  1.0
  V  V7  1  0.81725637  0.31725637  0.84756384  1.0
  V  V8  1  0.96969252  0.81725637  1.50000000  1.0
  V  V9  1  0.31725637  0.46969252  0.50000000  1.0
  B  B10  1  0.25000000  0.25000000  -0.00000000  1.0
  B  B11  1  0.75000000  0.75000000  1.00000000  1.0
  B  B12  1  0.11380128  0.61380128  0.72760255  1.0
  B  B13  1  0.88619872  0.38619872  1.27239745  1.0
  B  B14  1  0.61380128  0.88619872  1.50000000  1.0
  B  B15  1  0.38619872  0.11380128  0.50000000  1.0
