# generated using pymatgen
data_K2CeF6
_symmetry_space_group_name_H-M   'P 1'
_cell_length_a   6.64353196
_cell_length_b   6.64353196
_cell_length_c   3.76591617
_cell_angle_alpha   90.00000000
_cell_angle_beta   90.00000000
_cell_angle_gamma   120.00000000
_symmetry_Int_Tables_number   1
_chemical_formula_structural   K2CeF6
_chemical_formula_sum   'K2 Ce1 F6'
_cell_volume   143.94591246
_cell_formula_units_Z   1
loop_
 _symmetry_equiv_pos_site_id
 _symmetry_equiv_pos_as_xyz
  1  'x, y, z'
loop_
 _atom_site_type_symbol
 _atom_site_label
 _atom_site_symmetry_multiplicity
 _atom_site_fract_x
 _atom_site_fract_y
 _atom_site_fract_z
 _atom_site_occupancy
  K  K0  1  0.33333333  0.66666667  0.50000000  1.0
  K  K1  1  0.66666667  0.33333333  0.50000000  1.0
  Ce  Ce2  1  0.00000000  0.00000000  0.00000000  1.0
  F  F3  1  0.77271009  0.77271009  0.50000000  1.0
  F  F4  1  -0.00000000  0.22728991  0.50000000  1.0
  F  F5  1  0.22728991  0.00000000  0.50000000  1.0
  F  F6  1  0.33648030  0.33648030  0.00000000  1.0
  F  F7  1  -0.00000000  0.66351970  0.00000000  1.0
  F  F8  1  0.66351970  0.00000000  0.00000000  1.0
