# generated using pymatgen
data_La(ClO)3
_symmetry_space_group_name_H-M   'P 1'
_cell_length_a   12.68090023
_cell_length_b   8.75188159
_cell_length_c   6.54868649
_cell_angle_alpha   90.00000000
_cell_angle_beta   90.00000000
_cell_angle_gamma   90.00000000
_symmetry_Int_Tables_number   1
_chemical_formula_structural   La(ClO)3
_chemical_formula_sum   'La4 Cl12 O12'
_cell_volume   726.78460267
_cell_formula_units_Z   4
loop_
 _symmetry_equiv_pos_site_id
 _symmetry_equiv_pos_as_xyz
  1  'x, y, z'
loop_
 _atom_site_type_symbol
 _atom_site_label
 _atom_site_symmetry_multiplicity
 _atom_site_fract_x
 _atom_site_fract_y
 _atom_site_fract_z
 _atom_site_occupancy
  La  La0  1  0.51381828  0.25000000  0.12577985  1.0
  La  La1  1  0.01381828  0.25000000  0.37422015  1.0
  La  La2  1  0.48618172  0.75000000  0.87422015  1.0
  La  La3  1  0.98618172  0.75000000  0.62577985  1.0
  Cl  Cl4  1  0.78488530  0.25000000  0.51175349  1.0
  Cl  Cl5  1  0.28488530  0.25000000  0.98824651  1.0
  Cl  Cl6  1  0.21511470  0.75000000  0.48824651  1.0
  Cl  Cl7  1  0.71511470  0.75000000  0.01175349  1.0
  Cl  Cl8  1  0.92377182  0.94967564  0.29673737  1.0
  Cl  Cl9  1  0.92377182  0.55032436  0.29673737  1.0
  Cl  Cl10  1  0.42377182  0.94967564  0.20326263  1.0
  Cl  Cl11  1  0.42377182  0.55032436  0.20326263  1.0
  Cl  Cl12  1  0.07622818  0.44967564  0.70326263  1.0
  Cl  Cl13  1  0.07622818  0.05032436  0.70326263  1.0
  Cl  Cl14  1  0.57622818  0.44967564  0.79673737  1.0
  Cl  Cl15  1  0.57622818  0.05032436  0.79673737  1.0
  O  O16  1  1.03662538  0.25000000  0.01970454  1.0
  O  O17  1  0.53662538  0.25000000  0.48029546  1.0
  O  O18  1  -0.03662538  0.75000000  0.98029546  1.0
  O  O19  1  0.46337462  0.75000000  0.51970454  1.0
  O  O20  1  0.66372092  0.37227646  0.30001577  1.0
  O  O21  1  0.66372092  0.12772354  0.30001577  1.0
  O  O22  1  0.16372092  0.37227646  0.19998423  1.0
  O  O23  1  0.16372092  0.12772354  0.19998423  1.0
  O  O24  1  0.33627908  0.87227646  0.69998423  1.0
  O  O25  1  0.33627908  0.62772354  0.69998423  1.0
  O  O26  1  0.83627908  0.87227646  0.80001577  1.0
  O  O27  1  0.83627908  0.62772354  0.80001577  1.0
