# generated using pymatgen
data_BaBeF4
_symmetry_space_group_name_H-M   'P 1'
_cell_length_a   8.95196752
_cell_length_b   5.42214909
_cell_length_c   7.13272991
_cell_angle_alpha   90.00000000
_cell_angle_beta   90.00000000
_cell_angle_gamma   90.00000000
_symmetry_Int_Tables_number   1
_chemical_formula_structural   BaBeF4
_chemical_formula_sum   'Ba4 Be4 F16'
_cell_volume   346.21488162
_cell_formula_units_Z   4
loop_
 _symmetry_equiv_pos_site_id
 _symmetry_equiv_pos_as_xyz
  1  'x, y, z'
loop_
 _atom_site_type_symbol
 _atom_site_label
 _atom_site_symmetry_multiplicity
 _atom_site_fract_x
 _atom_site_fract_y
 _atom_site_fract_z
 _atom_site_occupancy
  Ba  Ba0  1  0.31282197  0.75000000  0.15465920  1.0
  Ba  Ba1  1  0.81282197  0.75000000  0.34534080  1.0
  Ba  Ba2  1  0.68717803  0.25000000  0.84534080  1.0
  Ba  Ba3  1  0.18717803  0.25000000  0.65465920  1.0
  Be  Be4  1  0.44570084  0.75000000  0.68941703  1.0
  Be  Be5  1  0.94570084  0.75000000  0.81058297  1.0
  Be  Be6  1  0.55429916  0.25000000  0.31058297  1.0
  Be  Be7  1  0.05429916  0.25000000  0.18941703  1.0
  F  F8  1  0.42130501  0.98448008  0.81723580  1.0
  F  F9  1  0.42130501  0.51551992  0.81723580  1.0
  F  F10  1  0.92130501  0.98448008  0.68276420  1.0
  F  F11  1  0.92130501  0.51551992  0.68276420  1.0
  F  F12  1  0.57869499  0.48448008  0.18276420  1.0
  F  F13  1  0.57869499  0.01551992  0.18276420  1.0
  F  F14  1  0.07869499  0.48448008  0.31723580  1.0
  F  F15  1  0.07869499  0.01551992  0.31723580  1.0
  F  F16  1  0.32368566  0.75000000  0.53429360  1.0
  F  F17  1  0.82368566  0.75000000  0.96570640  1.0
  F  F18  1  0.67631434  0.25000000  0.46570640  1.0
  F  F19  1  0.17631434  0.25000000  0.03429360  1.0
  F  F20  1  0.10953776  0.75000000  0.88002051  1.0
  F  F21  1  0.60953776  0.75000000  0.61997949  1.0
  F  F22  1  0.89046224  0.25000000  0.11997949  1.0
  F  F23  1  0.39046224  0.25000000  0.38002051  1.0
