# generated using pymatgen
data_TaAlO4
_symmetry_space_group_name_H-M   'P 1'
_cell_length_a   6.42117230
_cell_length_b   6.42117230
_cell_length_c   6.51146902
_cell_angle_alpha   73.14898376
_cell_angle_beta   106.85101624
_cell_angle_gamma   145.46327145
_symmetry_Int_Tables_number   1
_chemical_formula_structural   TaAlO4
_chemical_formula_sum   'Ta2 Al2 O8'
_cell_volume   145.02628843
_cell_formula_units_Z   2
loop_
 _symmetry_equiv_pos_site_id
 _symmetry_equiv_pos_as_xyz
  1  'x, y, z'
loop_
 _atom_site_type_symbol
 _atom_site_label
 _atom_site_symmetry_multiplicity
 _atom_site_fract_x
 _atom_site_fract_y
 _atom_site_fract_z
 _atom_site_occupancy
  Ta  Ta0  1  0.89443071  0.10556929  0.26742794  1.0
  Ta  Ta1  1  0.10556929  -0.10556929  0.73257206  1.0
  Al  Al2  1  0.79930305  0.20069695  0.67995677  1.0
  Al  Al3  1  0.20069695  -0.20069695  0.32004323  1.0
  O  O4  1  0.94272132  0.05727868  0.63562412  1.0
  O  O5  1  0.05727868  -0.05727868  0.36437588  1.0
  O  O6  1  0.85914935  0.14085065  0.97481116  1.0
  O  O7  1  0.14085065  -0.14085065  0.02518884  1.0
  O  O8  1  0.73815558  0.26184442  0.35802625  1.0
  O  O9  1  0.26184442  -0.26184442  0.64197375  1.0
  O  O10  1  0.64152026  0.35847974  0.70362049  1.0
  O  O11  1  0.35847974  -0.35847974  0.29637951  1.0
