# generated using pymatgen
data_Cd(BiO2)2
_symmetry_space_group_name_H-M   'P 1'
_cell_length_a   11.48332994
_cell_length_b   11.48332994
_cell_length_c   11.48332994
_cell_angle_alpha   99.84702039
_cell_angle_beta   99.84702039
_cell_angle_gamma   131.14476072
_symmetry_Int_Tables_number   1
_chemical_formula_structural   Cd(BiO2)2
_chemical_formula_sum   'Cd8 Bi16 O32'
_cell_volume   1038.24448518
_cell_formula_units_Z   8
loop_
 _symmetry_equiv_pos_site_id
 _symmetry_equiv_pos_as_xyz
  1  'x, y, z'
loop_
 _atom_site_type_symbol
 _atom_site_label
 _atom_site_symmetry_multiplicity
 _atom_site_fract_x
 _atom_site_fract_y
 _atom_site_fract_z
 _atom_site_occupancy
  Cd  Cd0  1  1.26554165  0.62500000  1.14054165  1.0
  Cd  Cd1  1  1.48445835  1.62500000  1.35945835  1.0
  Cd  Cd2  1  1.37500000  1.51554165  1.64054165  1.0
  Cd  Cd3  1  0.87500000  0.51554165  1.14054165  1.0
  Cd  Cd4  1  1.26554165  1.12500000  1.64054165  1.0
  Cd  Cd5  1  1.48445835  1.12500000  0.85945835  1.0
  Cd  Cd6  1  1.37500000  0.73445835  0.85945835  1.0
  Cd  Cd7  1  0.87500000  0.73445835  1.35945835  1.0
  Bi  Bi8  1  1.15931080  1.15931080  1.31862159  1.0
  Bi  Bi9  1  0.84068920  0.15931080  1.00000000  1.0
  Bi  Bi10  1  0.90931080  0.40931080  0.81862159  1.0
  Bi  Bi11  1  1.59068920  1.40931080  1.50000000  1.0
  Bi  Bi12  1  1.15931080  0.84068920  1.00000000  1.0
  Bi  Bi13  1  0.84068920  0.84068920  1.68137841  1.0
  Bi  Bi14  1  0.90931080  1.09068920  1.50000000  1.0
  Bi  Bi15  1  1.59068920  1.09068920  1.18137841  1.0
  Bi  Bi16  1  0.64928784  0.50864241  0.85935457  1.0
  Bi  Bi17  1  1.25864241  0.89928784  1.35935457  1.0
  Bi  Bi18  1  0.53993327  0.89928784  0.64064543  1.0
  Bi  Bi19  1  0.64928784  0.78993327  1.14064543  1.0
  Bi  Bi20  1  0.10071216  0.74135759  0.64064543  1.0
  Bi  Bi21  1  1.49135759  1.35071216  1.14064543  1.0
  Bi  Bi22  1  1.21006673  1.35071216  0.85935457  1.0
  Bi  Bi23  1  0.10071216  0.46006673  0.35935457  1.0
  O  O24  1  0.91346722  0.56093747  0.95827039  1.0
  O  O25  1  1.60266707  1.56093747  1.64747024  1.0
  O  O26  1  1.31093747  1.16346722  1.45827039  1.0
  O  O27  1  0.70519683  0.16346722  0.85252976  1.0
  O  O28  1  0.91346722  0.95519683  1.35252976  1.0
  O  O29  1  1.60266707  0.95519683  1.04172961  1.0
  O  O30  1  1.31093747  0.85266707  1.14747024  1.0
  O  O31  1  0.70519683  0.85266707  1.54172961  1.0
  O  O32  1  1.83653278  1.68906253  1.54172961  1.0
  O  O33  1  1.14733293  0.68906253  0.85252976  1.0
  O  O34  1  1.43906253  1.08653278  1.04172961  1.0
  O  O35  1  1.04480317  1.08653278  1.64747024  1.0
  O  O36  1  1.83653278  1.29480317  1.14747024  1.0
  O  O37  1  1.14733293  1.29480317  1.45827039  1.0
  O  O38  1  1.43906253  1.39733293  1.35252976  1.0
  O  O39  1  1.04480317  0.39733293  0.95827039  1.0
  O  O40  1  1.19155800  0.96025400  0.76869600  1.0
  O  O41  1  1.71025400  1.44155800  1.26869600  1.0
  O  O42  1  1.17286200  1.44155800  0.73130400  1.0
  O  O43  1  1.19155800  1.42286200  1.23130400  1.0
  O  O44  1  0.55844200  1.28974600  0.73130400  1.0
  O  O45  1  1.03974600  0.80844200  1.23130400  1.0
  O  O46  1  0.57713800  0.80844200  0.76869600  1.0
  O  O47  1  0.55844200  0.82713800  0.26869600  1.0
  O  O48  1  0.39373959  0.39373959  0.78747917  1.0
  O  O49  1  0.60626041  0.39373959  1.00000000  1.0
  O  O50  1  1.14373959  0.64373959  1.28747917  1.0
  O  O51  1  0.35626041  0.64373959  0.50000000  1.0
  O  O52  1  0.39373959  0.60626041  1.00000000  1.0
  O  O53  1  0.60626041  0.60626041  1.21252083  1.0
  O  O54  1  1.14373959  0.85626041  1.50000000  1.0
  O  O55  1  0.35626041  0.85626041  0.71252083  1.0
