# generated using pymatgen
data_BaHg2
_symmetry_space_group_name_H-M   'P 1'
_cell_length_a   6.73851165
_cell_length_b   6.73851165
_cell_length_c   6.73851165
_cell_angle_alpha   134.41584681
_cell_angle_beta   101.98361734
_cell_angle_gamma   95.30785401
_symmetry_Int_Tables_number   1
_chemical_formula_structural   BaHg2
_chemical_formula_sum   'Ba2 Hg4'
_cell_volume   201.02649856
_cell_formula_units_Z   2
loop_
 _symmetry_equiv_pos_site_id
 _symmetry_equiv_pos_as_xyz
  1  'x, y, z'
loop_
 _atom_site_type_symbol
 _atom_site_label
 _atom_site_symmetry_multiplicity
 _atom_site_fract_x
 _atom_site_fract_y
 _atom_site_fract_z
 _atom_site_occupancy
  Ba  Ba0  1  1.74977371  1.49977371  1.25000000  1.0
  Ba  Ba1  1  0.25022629  0.50022629  0.75000000  1.0
  Hg  Hg2  1  1.33311536  0.83340981  1.49970554  1.0
  Hg  Hg3  1  1.16629573  0.16659019  0.99970554  1.0
  Hg  Hg4  1  0.66688464  1.16659019  0.50029446  1.0
  Hg  Hg5  1  0.83370427  0.83340981  0.00029446  1.0
