# generated using pymatgen
data_Zr3W5
_symmetry_space_group_name_H-M   'P 1'
_cell_length_a   7.98228458
_cell_length_b   7.98228458
_cell_length_c   7.98228458
_cell_angle_alpha   96.33118714
_cell_angle_beta   96.33118714
_cell_angle_gamma   141.21018585
_symmetry_Int_Tables_number   1
_chemical_formula_structural   Zr3W5
_chemical_formula_sum   'Zr6 W10'
_cell_volume   300.54286743
_cell_formula_units_Z   2
loop_
 _symmetry_equiv_pos_site_id
 _symmetry_equiv_pos_as_xyz
  1  'x, y, z'
loop_
 _atom_site_type_symbol
 _atom_site_label
 _atom_site_symmetry_multiplicity
 _atom_site_fract_x
 _atom_site_fract_y
 _atom_site_fract_z
 _atom_site_occupancy
  Zr  Zr0  1  0.81261814  0.31261814  1.12523627  1.0
  Zr  Zr1  1  0.68738186  0.81261814  0.50000000  1.0
  Zr  Zr2  1  1.31261814  1.18738186  1.50000000  1.0
  Zr  Zr3  1  0.18738186  0.68738186  0.87476373  1.0
  Zr  Zr4  1  0.25000000  0.25000000  0.00000000  1.0
  Zr  Zr5  1  0.75000000  0.75000000  0.00000000  1.0
  W  W6  1  0.24159902  0.44097093  0.68256996  1.0
  W  W7  1  1.25840098  0.94097093  1.19937191  1.0
  W  W8  1  0.94097093  0.74159902  1.68256996  1.0
  W  W9  1  0.55902907  1.24159902  0.80062809  1.0
  W  W10  1  0.74159902  1.05902907  0.80062809  1.0
  W  W11  1  0.75840098  0.55902907  1.31743004  1.0
  W  W12  1  1.44097093  0.75840098  1.19937191  1.0
  W  W13  1  0.05902907  0.25840098  0.31743004  1.0
  W  W14  1  0.75000000  1.25000000  0.50000000  1.0
  W  W15  1  0.25000000  0.75000000  0.50000000  1.0
