# generated using pymatgen
data_LuZnPd
_symmetry_space_group_name_H-M   'P 1'
_cell_length_a   6.84785094
_cell_length_b   4.09515293
_cell_length_c   8.11026538
_cell_angle_alpha   90.00000000
_cell_angle_beta   90.00000000
_cell_angle_gamma   90.00000000
_symmetry_Int_Tables_number   1
_chemical_formula_structural   LuZnPd
_chemical_formula_sum   'Lu4 Zn4 Pd4'
_cell_volume   227.43614636
_cell_formula_units_Z   4
loop_
 _symmetry_equiv_pos_site_id
 _symmetry_equiv_pos_as_xyz
  1  'x, y, z'
loop_
 _atom_site_type_symbol
 _atom_site_label
 _atom_site_symmetry_multiplicity
 _atom_site_fract_x
 _atom_site_fract_y
 _atom_site_fract_z
 _atom_site_occupancy
  Lu  Lu0  1  0.95606237  0.75000000  0.68723278  1.0
  Lu  Lu1  1  0.45606237  0.75000000  0.81276722  1.0
  Lu  Lu2  1  0.04393763  0.25000000  0.31276722  1.0
  Lu  Lu3  1  0.54393763  0.25000000  0.18723278  1.0
  Zn  Zn4  1  0.86259332  0.75000000  0.06322335  1.0
  Zn  Zn5  1  0.36259332  0.75000000  0.43677665  1.0
  Zn  Zn6  1  0.13740668  0.25000000  0.93677665  1.0
  Zn  Zn7  1  0.63740668  0.25000000  0.56322335  1.0
  Pd  Pd8  1  0.75088807  0.75000000  0.37815851  1.0
  Pd  Pd9  1  0.25088807  0.75000000  0.12184149  1.0
  Pd  Pd10  1  0.24911193  0.25000000  0.62184149  1.0
  Pd  Pd11  1  0.74911193  0.25000000  0.87815851  1.0
