# generated using pymatgen
data_SrVSi2O7
_symmetry_space_group_name_H-M   'P 1'
_cell_length_a   7.90774531
_cell_length_b   7.90774531
_cell_length_c   7.09425969
_cell_angle_alpha   90.00000000
_cell_angle_beta   90.00000000
_cell_angle_gamma   39.63407351
_symmetry_Int_Tables_number   1
_chemical_formula_structural   SrVSi2O7
_chemical_formula_sum   'Sr2 V2 Si4 O14'
_cell_volume   282.97811020
_cell_formula_units_Z   2
loop_
 _symmetry_equiv_pos_site_id
 _symmetry_equiv_pos_as_xyz
  1  'x, y, z'
loop_
 _atom_site_type_symbol
 _atom_site_label
 _atom_site_symmetry_multiplicity
 _atom_site_fract_x
 _atom_site_fract_y
 _atom_site_fract_z
 _atom_site_occupancy
  Sr  Sr0  1  0.68198412  0.72921389  0.25000000  1.0
  Sr  Sr1  1  0.27078611  1.31801588  0.75000000  1.0
  V  V2  1  0.36755261  1.41473047  0.25000000  1.0
  V  V3  1  0.58526953  0.63244739  0.75000000  1.0
  Si  Si4  1  0.08412068  1.13128509  0.47665970  1.0
  Si  Si5  1  0.86871491  0.91587932  0.97665970  1.0
  Si  Si6  1  0.86871491  0.91587932  0.52334030  1.0
  Si  Si7  1  0.08412068  1.13128509  0.02334030  1.0
  O  O8  1  0.07547790  1.61801392  0.43873203  1.0
  O  O9  1  0.38198608  0.92452210  0.93873203  1.0
  O  O10  1  0.38198608  0.92452210  0.56126797  1.0
  O  O11  1  0.07547790  1.61801392  0.06126797  1.0
  O  O12  1  -0.12269423  1.42917689  0.93876143  1.0
  O  O13  1  0.57082311  1.12269423  0.43876143  1.0
  O  O14  1  0.57082311  1.12269423  0.06123857  1.0
  O  O15  1  -0.12269423  1.42917689  0.56123857  1.0
  O  O16  1  0.11372163  1.16079466  0.25000000  1.0
  O  O17  1  0.83920534  0.88627837  0.75000000  1.0
  O  O18  1  0.47562447  0.52277849  0.25000000  1.0
  O  O19  1  0.47722151  1.52437553  0.75000000  1.0
  O  O20  1  -0.02361112  0.02361112  0.50000000  1.0
  O  O21  1  -0.02361112  0.02361112  0.00000000  1.0
