# generated using pymatgen
data_Hf9Re4S
_symmetry_space_group_name_H-M   'P 1'
_cell_length_a   8.60049490
_cell_length_b   8.60049490
_cell_length_c   8.52848775
_cell_angle_alpha   90.00000000
_cell_angle_beta   90.00000000
_cell_angle_gamma   120.00000000
_symmetry_Int_Tables_number   1
_chemical_formula_structural   Hf9Re4S
_chemical_formula_sum   'Hf18 Re8 S2'
_cell_volume   546.32307817
_cell_formula_units_Z   2
loop_
 _symmetry_equiv_pos_site_id
 _symmetry_equiv_pos_as_xyz
  1  'x, y, z'
loop_
 _atom_site_type_symbol
 _atom_site_label
 _atom_site_symmetry_multiplicity
 _atom_site_fract_x
 _atom_site_fract_y
 _atom_site_fract_z
 _atom_site_occupancy
  Hf  Hf0  1  0.19397477  0.80602523  0.44557036  1.0
  Hf  Hf1  1  0.19397477  0.38794954  0.44557036  1.0
  Hf  Hf2  1  0.61205046  0.80602523  0.44557036  1.0
  Hf  Hf3  1  0.80602523  0.19397477  0.55442964  1.0
  Hf  Hf4  1  0.80602523  0.61205046  0.55442964  1.0
  Hf  Hf5  1  0.38794954  0.19397477  0.55442964  1.0
  Hf  Hf6  1  0.80602523  0.19397477  0.94557036  1.0
  Hf  Hf7  1  0.80602523  0.61205046  0.94557036  1.0
  Hf  Hf8  1  0.38794954  0.19397477  0.94557036  1.0
  Hf  Hf9  1  0.19397477  0.80602523  0.05442964  1.0
  Hf  Hf10  1  0.19397477  0.38794954  0.05442964  1.0
  Hf  Hf11  1  0.61205046  0.80602523  0.05442964  1.0
  Hf  Hf12  1  0.54579991  0.45420009  0.25000000  1.0
  Hf  Hf13  1  0.54579991  0.09159981  0.25000000  1.0
  Hf  Hf14  1  0.90840019  0.45420009  0.25000000  1.0
  Hf  Hf15  1  0.45420009  0.54579991  0.75000000  1.0
  Hf  Hf16  1  0.45420009  0.90840019  0.75000000  1.0
  Hf  Hf17  1  0.09159981  0.54579991  0.75000000  1.0
  Re  Re18  1  0.88982648  0.11017352  0.25000000  1.0
  Re  Re19  1  0.88982648  0.77965295  0.25000000  1.0
  Re  Re20  1  0.22034705  0.11017352  0.25000000  1.0
  Re  Re21  1  0.11017352  0.88982648  0.75000000  1.0
  Re  Re22  1  0.11017352  0.22034705  0.75000000  1.0
  Re  Re23  1  0.77965295  0.88982648  0.75000000  1.0
  Re  Re24  1  0.00000000  0.00000000  0.50000000  1.0
  Re  Re25  1  0.00000000  0.00000000  0.00000000  1.0
  S  S26  1  0.33333333  0.66666667  0.25000000  1.0
  S  S27  1  0.66666667  0.33333333  0.75000000  1.0
