# generated using pymatgen
data_EuZrSe3
_symmetry_space_group_name_H-M   'P 1'
_cell_length_a   8.90100123
_cell_length_b   3.95432157
_cell_length_c   14.26550934
_cell_angle_alpha   90.00000000
_cell_angle_beta   90.00000000
_cell_angle_gamma   90.00000000
_symmetry_Int_Tables_number   1
_chemical_formula_structural   EuZrSe3
_chemical_formula_sum   'Eu4 Zr4 Se12'
_cell_volume   502.10914072
_cell_formula_units_Z   4
loop_
 _symmetry_equiv_pos_site_id
 _symmetry_equiv_pos_as_xyz
  1  'x, y, z'
loop_
 _atom_site_type_symbol
 _atom_site_label
 _atom_site_symmetry_multiplicity
 _atom_site_fract_x
 _atom_site_fract_y
 _atom_site_fract_z
 _atom_site_occupancy
  Eu  Eu0  1  0.55722052  0.75000000  0.67797182  1.0
  Eu  Eu1  1  0.05722052  0.75000000  0.82202818  1.0
  Eu  Eu2  1  0.44277948  0.25000000  0.32202818  1.0
  Eu  Eu3  1  0.94277948  0.25000000  0.17797182  1.0
  Zr  Zr4  1  0.82784415  0.75000000  0.44695199  1.0
  Zr  Zr5  1  0.32784415  0.75000000  0.05304801  1.0
  Zr  Zr6  1  0.17215585  0.25000000  0.55304801  1.0
  Zr  Zr7  1  0.67215585  0.25000000  0.94695199  1.0
  Se  Se8  1  0.98329029  0.75000000  0.61113643  1.0
  Se  Se9  1  0.48329029  0.75000000  0.88886357  1.0
  Se  Se10  1  0.01670971  0.25000000  0.38886357  1.0
  Se  Se11  1  0.51670971  0.25000000  0.11113643  1.0
  Se  Se12  1  0.84511324  0.75000000  0.01907613  1.0
  Se  Se13  1  0.34511324  0.75000000  0.48092387  1.0
  Se  Se14  1  0.15488676  0.25000000  0.98092387  1.0
  Se  Se15  1  0.65488676  0.25000000  0.51907613  1.0
  Se  Se16  1  0.70521336  0.75000000  0.27983491  1.0
  Se  Se17  1  0.20521336  0.75000000  0.22016509  1.0
  Se  Se18  1  0.29478664  0.25000000  0.72016509  1.0
  Se  Se19  1  0.79478664  0.25000000  0.77983491  1.0
