# generated using pymatgen
data_Cs3SnTe3
_symmetry_space_group_name_H-M   'P 1'
_cell_length_a   11.67204607
_cell_length_b   11.67204607
_cell_length_c   10.63305879
_cell_angle_alpha   84.82872588
_cell_angle_beta   95.17127412
_cell_angle_gamma   99.06159256
_symmetry_Int_Tables_number   1
_chemical_formula_structural   Cs3SnTe3
_chemical_formula_sum   'Cs12 Sn4 Te12'
_cell_volume   1420.45732505
_cell_formula_units_Z   4
loop_
 _symmetry_equiv_pos_site_id
 _symmetry_equiv_pos_as_xyz
  1  'x, y, z'
loop_
 _atom_site_type_symbol
 _atom_site_label
 _atom_site_symmetry_multiplicity
 _atom_site_fract_x
 _atom_site_fract_y
 _atom_site_fract_z
 _atom_site_occupancy
  Cs  Cs0  1  1.74503710  0.25048800  0.24472735  1.0
  Cs  Cs1  1  0.74951200  -0.74503710  0.74472735  1.0
  Cs  Cs2  1  1.25048800  0.74503710  0.25527265  1.0
  Cs  Cs3  1  0.25496290  -0.25048800  0.75527265  1.0
  Cs  Cs4  1  1.33439547  0.15563534  0.13323925  1.0
  Cs  Cs5  1  0.84436466  -0.33439547  0.63323925  1.0
  Cs  Cs6  1  1.15563534  0.33439547  0.36676075  1.0
  Cs  Cs7  1  0.66560453  -0.15563534  0.86676075  1.0
  Cs  Cs8  1  0.90893518  -0.09106482  0.25000000  1.0
  Cs  Cs9  1  1.09106482  0.09106482  0.75000000  1.0
  Cs  Cs10  1  0.59006279  -0.40993721  0.25000000  1.0
  Cs  Cs11  1  1.40993721  0.40993721  0.75000000  1.0
  Sn  Sn12  1  0.57649976  -0.07513111  0.45788086  1.0
  Sn  Sn13  1  1.07513111  0.42350024  0.95788086  1.0
  Sn  Sn14  1  0.92486889  -0.42350024  0.04211914  1.0
  Sn  Sn15  1  1.42350024  0.07513111  0.54211914  1.0
  Te  Te16  1  0.56329172  -0.06606092  0.19318647  1.0
  Te  Te17  1  1.06606092  0.43670828  0.69318647  1.0
  Te  Te18  1  0.93393908  -0.43670828  0.30681353  1.0
  Te  Te19  1  1.43670828  0.06606092  0.80681353  1.0
  Te  Te20  1  0.19590731  -0.00310756  0.44901680  1.0
  Te  Te21  1  1.00310756  0.80409269  0.94901680  1.0
  Te  Te22  1  0.99689244  -0.80409269  0.05098320  1.0
  Te  Te23  1  1.80409269  0.00310756  0.55098320  1.0
  Te  Te24  1  1.49427811  0.30230845  0.44384479  1.0
  Te  Te25  1  0.69769155  -0.49427811  0.94384479  1.0
  Te  Te26  1  1.30230845  0.49427811  0.05615521  1.0
  Te  Te27  1  0.50572189  -0.30230845  0.55615521  1.0
