# generated using pymatgen
data_TlPAuSe3
_symmetry_space_group_name_H-M   'P 1'
_cell_length_a   7.27081834
_cell_length_b   7.27081834
_cell_length_c   8.45923072
_cell_angle_alpha   64.54499621
_cell_angle_beta   115.45500379
_cell_angle_gamma   119.17312977
_symmetry_Int_Tables_number   1
_chemical_formula_structural   TlPAuSe3
_chemical_formula_sum   'Tl2 P2 Au2 Se6'
_cell_volume   338.52015611
_cell_formula_units_Z   2
loop_
 _symmetry_equiv_pos_site_id
 _symmetry_equiv_pos_as_xyz
  1  'x, y, z'
loop_
 _atom_site_type_symbol
 _atom_site_label
 _atom_site_symmetry_multiplicity
 _atom_site_fract_x
 _atom_site_fract_y
 _atom_site_fract_z
 _atom_site_occupancy
  Tl  Tl0  1  0.71421205  -0.71421205  0.77976896  1.0
  Tl  Tl1  1  1.28578795  -0.28578795  0.22023104  1.0
  P  P2  1  0.96610527  0.03389473  0.34682683  1.0
  P  P3  1  0.03389473  -0.03389473  0.65317317  1.0
  Au  Au4  1  0.22997840  0.22997840  -0.00000000  1.0
  Au  Au5  1  0.77002160  0.77002160  0.00000000  1.0
  Se  Se6  1  0.76599461  0.23400539  0.19500356  1.0
  Se  Se7  1  0.23400539  -0.23400539  0.80499644  1.0
  Se  Se8  1  1.19476787  0.31030326  0.67903675  1.0
  Se  Se9  1  1.68969674  -0.19476787  0.67903675  1.0
  Se  Se10  1  0.80523213  0.68969674  0.32096325  1.0
  Se  Se11  1  1.31030326  0.19476787  0.32096325  1.0
