# generated using pymatgen
data_MgZn
_symmetry_space_group_name_H-M   'P 1'
_cell_length_a   10.37811528
_cell_length_b   10.37811528
_cell_length_c   10.37811528
_cell_angle_alpha   150.32234337
_cell_angle_beta   61.77351245
_cell_angle_gamma   127.16651324
_symmetry_Int_Tables_number   1
_chemical_formula_structural   MgZn
_chemical_formula_sum   'Mg12 Zn12'
_cell_volume   437.18591226
_cell_formula_units_Z   12
loop_
 _symmetry_equiv_pos_site_id
 _symmetry_equiv_pos_as_xyz
  1  'x, y, z'
loop_
 _atom_site_type_symbol
 _atom_site_label
 _atom_site_symmetry_multiplicity
 _atom_site_fract_x
 _atom_site_fract_y
 _atom_site_fract_z
 _atom_site_occupancy
  Mg  Mg0  1  1.74103690  1.33326547  1.40777143  1.0
  Mg  Mg1  1  1.24107782  0.33329056  0.90778726  1.0
  Mg  Mg2  1  0.92549405  1.33326547  0.59222857  1.0
  Mg  Mg3  1  0.42550330  0.33329056  0.09221274  1.0
  Mg  Mg4  1  0.32445985  0.66672651  0.65773334  1.0
  Mg  Mg5  1  0.82454361  0.66671867  0.15782494  1.0
  Mg  Mg6  1  0.50889373  0.66671867  0.84217506  1.0
  Mg  Mg7  1  1.00899317  0.66672651  0.34226666  1.0
  Mg  Mg8  1  0.87498499  -0.00001498  0.87499997  1.0
  Mg  Mg9  1  0.12498506  -0.00001498  0.12500003  1.0
  Mg  Mg10  1  0.37501475  0.00001518  0.37499957  1.0
  Mg  Mg11  1  0.62501560  1.00001518  0.62500043  1.0
  Zn  Zn12  1  0.08624118  0.82822327  0.74198210  1.0
  Zn  Zn13  1  0.58627542  0.82827032  0.24199490  1.0
  Zn  Zn14  1  0.08624118  0.34425908  0.25801790  1.0
  Zn  Zn15  1  0.58627542  1.34428052  0.75800510  1.0
  Zn  Zn16  1  0.32805045  0.82805045  0.50000000  1.0
  Zn  Zn17  1  0.82803993  0.82803993  -0.00000000  1.0
  Zn  Zn18  1  1.16374239  1.17175375  0.50801404  1.0
  Zn  Zn19  1  0.66373971  1.17175375  1.00801135  1.0
  Zn  Zn20  1  1.16374239  1.65572835  0.99198865  1.0
  Zn  Zn21  1  0.66373971  0.65572835  0.49198596  1.0
  Zn  Zn22  1  0.92197229  1.17195471  0.75001758  1.0
  Zn  Zn23  1  0.42193713  0.17195471  0.24998242  1.0
