# generated using pymatgen
data_Ce(P3Os)4
_symmetry_space_group_name_H-M   'P 1'
_cell_length_a   7.03323595
_cell_length_b   7.03323595
_cell_length_c   7.03323595
_cell_angle_alpha   109.47122063
_cell_angle_beta   109.47122063
_cell_angle_gamma   109.47122063
_symmetry_Int_Tables_number   1
_chemical_formula_structural   Ce(P3Os)4
_chemical_formula_sum   'Ce1 P12 Os4'
_cell_volume   267.82041085
_cell_formula_units_Z   1
loop_
 _symmetry_equiv_pos_site_id
 _symmetry_equiv_pos_as_xyz
  1  'x, y, z'
loop_
 _atom_site_type_symbol
 _atom_site_label
 _atom_site_symmetry_multiplicity
 _atom_site_fract_x
 _atom_site_fract_y
 _atom_site_fract_z
 _atom_site_occupancy
  Ce  Ce0  1  0.00000000  0.00000000  0.00000000  1.0
  P  P1  1  0.85661957  1.35489589  1.21151546  1.0
  P  P2  1  0.85661957  0.64510411  0.50172369  1.0
  P  P3  1  0.14338043  0.35489589  0.49827631  1.0
  P  P4  1  0.14338043  0.64510411  0.78848454  1.0
  P  P5  1  0.50172369  0.85661957  0.64510411  1.0
  P  P6  1  1.21151546  0.85661957  1.35489589  1.0
  P  P7  1  0.64510411  0.78848454  0.14338043  1.0
  P  P8  1  0.64510411  0.50172369  0.85661957  1.0
  P  P9  1  0.78848454  0.14338043  0.64510411  1.0
  P  P10  1  0.49827631  0.14338043  0.35489589  1.0
  P  P11  1  0.35489589  0.49827631  0.14338043  1.0
  P  P12  1  1.35489589  1.21151546  0.85661957  1.0
  Os  Os13  1  0.50000000  1.00000000  1.00000000  1.0
  Os  Os14  1  0.50000000  0.50000000  0.50000000  1.0
  Os  Os15  1  1.00000000  1.00000000  0.50000000  1.0
  Os  Os16  1  1.00000000  0.50000000  1.00000000  1.0
