# generated using pymatgen
data_Sc5Si7Pt9
_symmetry_space_group_name_H-M   'P 1'
_cell_length_a   10.00860596
_cell_length_b   10.00860596
_cell_length_c   3.91046140
_cell_angle_alpha   90.00000000
_cell_angle_beta   90.00000000
_cell_angle_gamma   120.00000000
_symmetry_Int_Tables_number   1
_chemical_formula_structural   Sc5Si7Pt9
_chemical_formula_sum   'Sc5 Si7 Pt9'
_cell_volume   339.23903393
_cell_formula_units_Z   1
loop_
 _symmetry_equiv_pos_site_id
 _symmetry_equiv_pos_as_xyz
  1  'x, y, z'
loop_
 _atom_site_type_symbol
 _atom_site_label
 _atom_site_symmetry_multiplicity
 _atom_site_fract_x
 _atom_site_fract_y
 _atom_site_fract_z
 _atom_site_occupancy
  Sc  Sc0  1  0.89586196  0.77053847  0.50000000  1.0
  Sc  Sc1  1  0.87467652  0.10413804  0.50000000  1.0
  Sc  Sc2  1  0.22946153  0.12532348  0.50000000  1.0
  Sc  Sc3  1  0.66666667  0.33333333  0.50000000  1.0
  Sc  Sc4  1  0.33333333  0.66666667  0.00000000  1.0
  Si  Si5  1  0.14374009  0.71677771  0.50000000  1.0
  Si  Si6  1  0.57303762  0.85625991  0.50000000  1.0
  Si  Si7  1  0.28322229  0.42696238  0.50000000  1.0
  Si  Si8  1  0.68585188  0.57231566  0.00000000  1.0
  Si  Si9  1  0.88646379  0.31414812  0.00000000  1.0
  Si  Si10  1  0.42768434  0.11353621  0.00000000  1.0
  Si  Si11  1  0.00000000  0.00000000  0.00000000  1.0
  Pt  Pt12  1  0.39743421  0.94837765  0.50000000  1.0
  Pt  Pt13  1  0.55094344  0.60256579  0.50000000  1.0
  Pt  Pt14  1  0.05162235  0.44905656  0.50000000  1.0
  Pt  Pt15  1  0.16166574  0.87713632  0.00000000  1.0
  Pt  Pt16  1  0.71547058  0.83833426  0.00000000  1.0
  Pt  Pt17  1  0.12286368  0.28452942  0.00000000  1.0
  Pt  Pt18  1  0.91795702  0.56609013  0.00000000  1.0
  Pt  Pt19  1  0.64813310  0.08204298  0.00000000  1.0
  Pt  Pt20  1  0.43390987  0.35186690  0.00000000  1.0
