# generated using pymatgen
data_GdGaO3
_symmetry_space_group_name_H-M   'P 1'
_cell_length_a   5.61735873
_cell_length_b   7.70089446
_cell_length_c   5.37184160
_cell_angle_alpha   90.00000000
_cell_angle_beta   90.00000000
_cell_angle_gamma   90.00000000
_symmetry_Int_Tables_number   1
_chemical_formula_structural   GdGaO3
_chemical_formula_sum   'Gd4 Ga4 O12'
_cell_volume   232.37881298
_cell_formula_units_Z   4
loop_
 _symmetry_equiv_pos_site_id
 _symmetry_equiv_pos_as_xyz
  1  'x, y, z'
loop_
 _atom_site_type_symbol
 _atom_site_label
 _atom_site_symmetry_multiplicity
 _atom_site_fract_x
 _atom_site_fract_y
 _atom_site_fract_z
 _atom_site_occupancy
  Gd  Gd0  1  0.06302248  0.75000000  0.51683351  1.0
  Gd  Gd1  1  0.56302248  0.75000000  0.98316649  1.0
  Gd  Gd2  1  0.93697752  0.25000000  0.48316649  1.0
  Gd  Gd3  1  0.43697752  0.25000000  0.01683351  1.0
  Ga  Ga4  1  0.50000000  -0.00000000  0.50000000  1.0
  Ga  Ga5  1  0.50000000  0.50000000  0.50000000  1.0
  Ga  Ga6  1  -0.00000000  0.00000000  0.00000000  1.0
  Ga  Ga7  1  0.00000000  0.50000000  0.00000000  1.0
  O  O8  1  0.30097382  0.94740450  0.80126288  1.0
  O  O9  1  0.30097382  0.55259550  0.80126288  1.0
  O  O10  1  0.80097382  0.94740450  0.69873712  1.0
  O  O11  1  0.80097382  0.55259550  0.69873712  1.0
  O  O12  1  0.69902618  0.44740450  0.19873712  1.0
  O  O13  1  0.69902618  0.05259550  0.19873712  1.0
  O  O14  1  0.19902618  0.44740450  0.30126288  1.0
  O  O15  1  0.19902618  0.05259550  0.30126288  1.0
  O  O16  1  0.96808003  0.75000000  0.10145252  1.0
  O  O17  1  0.46808003  0.75000000  0.39854748  1.0
  O  O18  1  0.03191997  0.25000000  0.89854748  1.0
  O  O19  1  0.53191997  0.25000000  0.60145252  1.0
