# generated using pymatgen
data_BaCa(FeO2)4
_symmetry_space_group_name_H-M   'P 1'
_cell_length_a   5.49294717
_cell_length_b   5.49294717
_cell_length_c   7.82538167
_cell_angle_alpha   90.00000000
_cell_angle_beta   90.00000000
_cell_angle_gamma   120.00000000
_symmetry_Int_Tables_number   1
_chemical_formula_structural   BaCa(FeO2)4
_chemical_formula_sum   'Ba1 Ca1 Fe4 O8'
_cell_volume   204.47819608
_cell_formula_units_Z   1
loop_
 _symmetry_equiv_pos_site_id
 _symmetry_equiv_pos_as_xyz
  1  'x, y, z'
loop_
 _atom_site_type_symbol
 _atom_site_label
 _atom_site_symmetry_multiplicity
 _atom_site_fract_x
 _atom_site_fract_y
 _atom_site_fract_z
 _atom_site_occupancy
  Ba  Ba0  1  -0.00000000  -0.00000000  -0.00000000  1.0
  Ca  Ca1  1  0.00000000  0.00000000  0.50000000  1.0
  Fe  Fe2  1  0.33333333  0.66666667  0.24064470  1.0
  Fe  Fe3  1  0.33333333  0.66666667  0.75935530  1.0
  Fe  Fe4  1  0.66666667  0.33333333  0.24064470  1.0
  Fe  Fe5  1  0.66666667  0.33333333  0.75935530  1.0
  O  O6  1  0.67192865  0.67192865  0.30307880  1.0
  O  O7  1  0.67192865  -0.00000000  0.69692120  1.0
  O  O8  1  0.00000000  0.67192865  0.69692120  1.0
  O  O9  1  -0.00000000  0.32807135  0.30307880  1.0
  O  O10  1  0.32807135  0.32807135  0.69692120  1.0
  O  O11  1  0.32807135  0.00000000  0.30307880  1.0
  O  O12  1  0.33333333  0.66666667  0.00000000  1.0
  O  O13  1  0.66666667  0.33333333  -0.00000000  1.0
