# generated using pymatgen
data_RbMoIO6
_symmetry_space_group_name_H-M   'P 1'
_cell_length_a   7.77194650
_cell_length_b   10.50715721
_cell_length_c   7.48523774
_cell_angle_alpha   90.00000000
_cell_angle_beta   90.00000000
_cell_angle_gamma   90.00000000
_symmetry_Int_Tables_number   1
_chemical_formula_structural   RbMoIO6
_chemical_formula_sum   'Rb4 Mo4 I4 O24'
_cell_volume   611.25247646
_cell_formula_units_Z   4
loop_
 _symmetry_equiv_pos_site_id
 _symmetry_equiv_pos_as_xyz
  1  'x, y, z'
loop_
 _atom_site_type_symbol
 _atom_site_label
 _atom_site_symmetry_multiplicity
 _atom_site_fract_x
 _atom_site_fract_y
 _atom_site_fract_z
 _atom_site_occupancy
  Rb  Rb0  1  0.47956316  0.11839844  0.77075674  1.0
  Rb  Rb1  1  0.97956316  0.38160156  0.77075674  1.0
  Rb  Rb2  1  0.52043684  0.88160156  0.27075674  1.0
  Rb  Rb3  1  0.02043684  0.61839844  0.27075674  1.0
  Mo  Mo4  1  0.98999435  0.02921186  0.53651641  1.0
  Mo  Mo5  1  0.48999435  0.47078814  0.53651641  1.0
  Mo  Mo6  1  0.01000565  0.97078814  0.03651641  1.0
  Mo  Mo7  1  0.51000565  0.52921186  0.03651641  1.0
  I  I8  1  0.28762183  0.74406139  0.70982515  1.0
  I  I9  1  0.78762183  0.75593861  0.70982515  1.0
  I  I10  1  0.71237817  0.25593861  0.20982515  1.0
  I  I11  1  0.21237817  0.24406139  0.20982515  1.0
  O  O12  1  0.43952788  0.51989281  0.79821729  1.0
  O  O13  1  0.93952788  0.98010719  0.79821729  1.0
  O  O14  1  0.56047212  0.48010719  0.29821729  1.0
  O  O15  1  0.06047212  0.01989281  0.29821729  1.0
  O  O16  1  0.37187420  0.64922374  0.10535886  1.0
  O  O17  1  0.87187420  0.85077626  0.10535886  1.0
  O  O18  1  0.62812580  0.35077626  0.60535886  1.0
  O  O19  1  0.12812580  0.14922374  0.60535886  1.0
  O  O20  1  0.37222096  0.65771484  0.50117459  1.0
  O  O21  1  0.87222096  0.84228516  0.50117459  1.0
  O  O22  1  0.62777904  0.34228516  0.00117459  1.0
  O  O23  1  0.12777904  0.15771484  0.00117459  1.0
  O  O24  1  0.23183041  0.89687431  0.59081314  1.0
  O  O25  1  0.73183041  0.60312569  0.59081314  1.0
  O  O26  1  0.76816959  0.10312569  0.09081314  1.0
  O  O27  1  0.26816959  0.39687431  0.09081314  1.0
  O  O28  1  0.20548329  0.89304624  0.00615978  1.0
  O  O29  1  0.70548329  0.60695376  0.00615978  1.0
  O  O30  1  0.79451671  0.10695376  0.50615978  1.0
  O  O31  1  0.29451671  0.39304624  0.50615978  1.0
  O  O32  1  0.06995271  0.65907119  0.71887805  1.0
  O  O33  1  0.56995271  0.84092881  0.71887805  1.0
  O  O34  1  0.93004729  0.34092881  0.21887805  1.0
  O  O35  1  0.43004729  0.15907119  0.21887805  1.0
