# generated using pymatgen
data_CaYGaO4
_symmetry_space_group_name_H-M   'P 1'
_cell_length_a   11.43801121
_cell_length_b   6.59412065
_cell_length_c   5.32711176
_cell_angle_alpha   90.00000000
_cell_angle_beta   90.00000000
_cell_angle_gamma   90.00000000
_symmetry_Int_Tables_number   1
_chemical_formula_structural   CaYGaO4
_chemical_formula_sum   'Ca4 Y4 Ga4 O16'
_cell_volume   401.79008448
_cell_formula_units_Z   4
loop_
 _symmetry_equiv_pos_site_id
 _symmetry_equiv_pos_as_xyz
  1  'x, y, z'
loop_
 _atom_site_type_symbol
 _atom_site_label
 _atom_site_symmetry_multiplicity
 _atom_site_fract_x
 _atom_site_fract_y
 _atom_site_fract_z
 _atom_site_occupancy
  Ca  Ca0  1  0.00000000  0.50000000  0.00000000  1.0
  Ca  Ca1  1  0.00000000  0.00000000  0.00000000  1.0
  Ca  Ca2  1  0.50000000  0.50000000  0.50000000  1.0
  Ca  Ca3  1  0.50000000  0.00000000  0.50000000  1.0
  Y  Y4  1  0.77797154  0.25000000  0.50242931  1.0
  Y  Y5  1  0.27797154  0.25000000  0.99757069  1.0
  Y  Y6  1  0.22202846  0.75000000  0.49757069  1.0
  Y  Y7  1  0.72202846  0.75000000  0.00242931  1.0
  Ga  Ga8  1  0.59708048  0.25000000  0.05869178  1.0
  Ga  Ga9  1  0.09708048  0.25000000  0.44130822  1.0
  Ga  Ga10  1  0.40291952  0.75000000  0.94130822  1.0
  Ga  Ga11  1  0.90291952  0.75000000  0.55869178  1.0
  O  O12  1  0.67041407  0.46908901  0.22974268  1.0
  O  O13  1  0.67041407  0.03091099  0.22974268  1.0
  O  O14  1  0.17041407  0.46908901  0.27025732  1.0
  O  O15  1  0.17041407  0.03091099  0.27025732  1.0
  O  O16  1  0.32958593  0.96908901  0.77025732  1.0
  O  O17  1  0.32958593  0.53091099  0.77025732  1.0
  O  O18  1  0.82958593  0.96908901  0.72974268  1.0
  O  O19  1  0.82958593  0.53091099  0.72974268  1.0
  O  O20  1  0.94682520  0.25000000  0.29226169  1.0
  O  O21  1  0.44682520  0.25000000  0.20773831  1.0
  O  O22  1  0.05317480  0.75000000  0.70773831  1.0
  O  O23  1  0.55317480  0.75000000  0.79226169  1.0
  O  O24  1  0.60075031  0.25000000  0.71544824  1.0
  O  O25  1  0.10075031  0.25000000  0.78455176  1.0
  O  O26  1  0.39924969  0.75000000  0.28455176  1.0
  O  O27  1  0.89924969  0.75000000  0.21544824  1.0
