# generated using pymatgen
data_BC2N
_symmetry_space_group_name_H-M   'P 1'
_cell_length_a   3.63483441
_cell_length_b   3.63483441
_cell_length_c   3.63297094
_cell_angle_alpha   89.74050199
_cell_angle_beta   90.25949801
_cell_angle_gamma   90.51759567
_symmetry_Int_Tables_number   1
_chemical_formula_structural   BC2N
_chemical_formula_sum   'B2 C4 N2'
_cell_volume   47.99595485
_cell_formula_units_Z   2
loop_
 _symmetry_equiv_pos_site_id
 _symmetry_equiv_pos_as_xyz
  1  'x, y, z'
loop_
 _atom_site_type_symbol
 _atom_site_label
 _atom_site_symmetry_multiplicity
 _atom_site_fract_x
 _atom_site_fract_y
 _atom_site_fract_z
 _atom_site_occupancy
  B  B0  1  0.75212072  0.24787928  0.24960041  1.0
  B  B1  1  0.49684228  -0.49684228  0.50415570  1.0
  C  C2  1  0.00245419  -0.00245419  0.50523672  1.0
  C  C3  1  0.25076246  0.24473170  0.74548952  1.0
  C  C4  1  0.75526830  -0.25076246  0.74548952  1.0
  C  C5  1  0.24817549  -0.24817549  0.25007847  1.0
  N  N6  1  1.00093720  0.50656065  -0.00002517  1.0
  N  N7  1  0.49343935  -0.00093720  -0.00002517  1.0
