# generated using pymatgen
data_RbCoCl3O2
_symmetry_space_group_name_H-M   'P 1'
_cell_length_a   8.05796170
_cell_length_b   8.05796170
_cell_length_c   8.81898184
_cell_angle_alpha   64.96229092
_cell_angle_beta   115.03770908
_cell_angle_gamma   135.82744508
_symmetry_Int_Tables_number   1
_chemical_formula_structural   RbCoCl3O2
_chemical_formula_sum   'Rb2 Co2 Cl6 O4'
_cell_volume   354.96687737
_cell_formula_units_Z   2
loop_
 _symmetry_equiv_pos_site_id
 _symmetry_equiv_pos_as_xyz
  1  'x, y, z'
loop_
 _atom_site_type_symbol
 _atom_site_label
 _atom_site_symmetry_multiplicity
 _atom_site_fract_x
 _atom_site_fract_y
 _atom_site_fract_z
 _atom_site_occupancy
  Rb  Rb0  1  0.50000000  0.00000000  -0.00000000  1.0
  Rb  Rb1  1  1.00000000  0.50000000  0.50000000  1.0
  Co  Co2  1  -0.00000000  -0.00000000  0.50000000  1.0
  Co  Co3  1  0.00000000  0.00000000  0.00000000  1.0
  Cl  Cl4  1  0.64443025  -0.07397106  0.44276838  1.0
  Cl  Cl5  1  1.07397106  0.35556975  0.94276838  1.0
  Cl  Cl6  1  0.92602894  0.64443025  0.05723162  1.0
  Cl  Cl7  1  0.35556975  0.07397106  0.55723162  1.0
  Cl  Cl8  1  0.84244695  0.84244695  0.25000000  1.0
  Cl  Cl9  1  0.15755305  0.15755305  0.75000000  1.0
  O  O10  1  0.27659227  0.12692458  0.10708002  1.0
  O  O11  1  0.87307542  0.72340773  0.60708002  1.0
  O  O12  1  1.12692458  0.27659227  0.39291998  1.0
  O  O13  1  0.72340773  -0.12692458  0.89291998  1.0
