# generated using pymatgen
data_Ba2FeBiS5
_symmetry_space_group_name_H-M   'P 1'
_cell_length_a   12.23073525
_cell_length_b   8.90515468
_cell_length_c   9.05452197
_cell_angle_alpha   90.00000000
_cell_angle_beta   90.00000000
_cell_angle_gamma   90.00000000
_symmetry_Int_Tables_number   1
_chemical_formula_structural   Ba2FeBiS5
_chemical_formula_sum   'Ba8 Fe4 Bi4 S20'
_cell_volume   986.18764947
_cell_formula_units_Z   4
loop_
 _symmetry_equiv_pos_site_id
 _symmetry_equiv_pos_as_xyz
  1  'x, y, z'
loop_
 _atom_site_type_symbol
 _atom_site_label
 _atom_site_symmetry_multiplicity
 _atom_site_fract_x
 _atom_site_fract_y
 _atom_site_fract_z
 _atom_site_occupancy
  Fe  Fe0  1  0.90434050  0.25000000  0.17520530  1.0
  Fe  Fe1  1  0.40434050  0.25000000  0.32479470  1.0
  Fe  Fe2  1  0.09565950  0.75000000  0.82479470  1.0
  Fe  Fe3  1  0.59565950  0.75000000  0.67520530  1.0
  Bi  Bi4  1  0.98454176  0.25000000  0.52948534  1.0
  Bi  Bi5  1  0.48454176  0.25000000  0.97051466  1.0
  Bi  Bi6  1  0.01545824  0.75000000  0.47051466  1.0
  Bi  Bi7  1  0.51545824  0.75000000  0.02948534  1.0
  Ba  Ba8  1  0.67672686  0.49209493  0.38269484  1.0
  Ba  Ba9  1  0.67672686  0.00790507  0.38269484  1.0
  Ba  Ba10  1  0.17672686  0.49209493  0.11730516  1.0
  Ba  Ba11  1  0.17672686  0.00790507  0.11730516  1.0
  Ba  Ba12  1  0.32327314  0.99209493  0.61730516  1.0
  Ba  Ba13  1  0.32327314  0.50790507  0.61730516  1.0
  Ba  Ba14  1  0.82327314  0.99209493  0.88269484  1.0
  Ba  Ba15  1  0.82327314  0.50790507  0.88269484  1.0
  S  S16  1  0.78695865  0.25000000  0.62687790  1.0
  S  S17  1  0.28695865  0.25000000  0.87312210  1.0
  S  S18  1  0.21304135  0.75000000  0.37312210  1.0
  S  S19  1  0.71304135  0.75000000  0.12687790  1.0
  S  S20  1  0.50411400  0.25000000  0.52766452  1.0
  S  S21  1  0.00411400  0.25000000  0.97233548  1.0
  S  S22  1  0.49588600  0.75000000  0.47233548  1.0
  S  S23  1  0.99588600  0.75000000  0.02766452  1.0
  S  S24  1  0.72603376  0.25000000  0.11804709  1.0
  S  S25  1  0.22603376  0.25000000  0.38195291  1.0
  S  S26  1  0.27396624  0.75000000  0.88195291  1.0
  S  S27  1  0.77396624  0.75000000  0.61804709  1.0
  S  S28  1  0.94404312  0.45511155  0.31770744  1.0
  S  S29  1  0.94404312  0.04488845  0.31770744  1.0
  S  S30  1  0.44404312  0.45511155  0.18229256  1.0
  S  S31  1  0.44404312  0.04488845  0.18229256  1.0
  S  S32  1  0.05595688  0.95511155  0.68229256  1.0
  S  S33  1  0.05595688  0.54488845  0.68229256  1.0
  S  S34  1  0.55595688  0.95511155  0.81770744  1.0
  S  S35  1  0.55595688  0.54488845  0.81770744  1.0
