# generated using pymatgen
data_CaIn2Pd
_symmetry_space_group_name_H-M   'P 1'
_cell_length_a   5.71989813
_cell_length_b   5.71989813
_cell_length_c   7.92747565
_cell_angle_alpha   90.00000000
_cell_angle_beta   90.00000000
_cell_angle_gamma   133.88809707
_symmetry_Int_Tables_number   1
_chemical_formula_structural   CaIn2Pd
_chemical_formula_sum   'Ca2 In4 Pd2'
_cell_volume   186.92315504
_cell_formula_units_Z   2
loop_
 _symmetry_equiv_pos_site_id
 _symmetry_equiv_pos_as_xyz
  1  'x, y, z'
loop_
 _atom_site_type_symbol
 _atom_site_label
 _atom_site_symmetry_multiplicity
 _atom_site_fract_x
 _atom_site_fract_y
 _atom_site_fract_z
 _atom_site_occupancy
  Ca  Ca0  1  0.43394441  0.56605559  0.75000000  1.0
  Ca  Ca1  1  -0.43394441  0.43394441  0.25000000  1.0
  In  In2  1  0.14415425  0.85584575  0.94734972  1.0
  In  In3  1  0.14415425  0.85584575  0.55265028  1.0
  In  In4  1  -0.14415425  0.14415425  0.44734972  1.0
  In  In5  1  -0.14415425  0.14415425  0.05265028  1.0
  Pd  Pd6  1  -0.28236989  0.28236989  0.75000000  1.0
  Pd  Pd7  1  0.28236989  0.71763011  0.25000000  1.0
