# generated using pymatgen
data_BaGdCo2O5
_symmetry_space_group_name_H-M   'P 1'
_cell_length_a   3.90510827
_cell_length_b   3.90628685
_cell_length_c   7.50909036
_cell_angle_alpha   90.00000000
_cell_angle_beta   90.00000000
_cell_angle_gamma   90.00000000
_symmetry_Int_Tables_number   1
_chemical_formula_structural   BaGdCo2O5
_chemical_formula_sum   'Ba1 Gd1 Co2 O5'
_cell_volume   114.54721682
_cell_formula_units_Z   1
loop_
 _symmetry_equiv_pos_site_id
 _symmetry_equiv_pos_as_xyz
  1  'x, y, z'
loop_
 _atom_site_type_symbol
 _atom_site_label
 _atom_site_symmetry_multiplicity
 _atom_site_fract_x
 _atom_site_fract_y
 _atom_site_fract_z
 _atom_site_occupancy
  Ba  Ba0  1  0.50000000  0.50000000  0.00000000  1.0
  Gd  Gd1  1  0.50000000  0.50000000  0.50000000  1.0
  Co  Co2  1  0.00000000  0.00000000  0.73883808  1.0
  Co  Co3  1  0.00000000  0.00000000  0.26116192  1.0
  O  O4  1  0.50000000  0.00000000  0.69531885  1.0
  O  O5  1  0.50000000  0.00000000  0.30468115  1.0
  O  O6  1  0.00000000  0.50000000  0.69531159  1.0
  O  O7  1  0.00000000  0.50000000  0.30468841  1.0
  O  O8  1  0.00000000  0.00000000  0.00000000  1.0
