# generated using pymatgen
data_Nb9Co4Ge
_symmetry_space_group_name_H-M   'P 1'
_cell_length_a   9.63437668
_cell_length_b   9.63437668
_cell_length_c   9.63437668
_cell_angle_alpha   93.92927415
_cell_angle_beta   93.92927415
_cell_angle_gamma   149.64943346
_symmetry_Int_Tables_number   1
_chemical_formula_structural   Nb9Co4Ge
_chemical_formula_sum   'Nb18 Co8 Ge2'
_cell_volume   436.11062363
_cell_formula_units_Z   2
loop_
 _symmetry_equiv_pos_site_id
 _symmetry_equiv_pos_as_xyz
  1  'x, y, z'
loop_
 _atom_site_type_symbol
 _atom_site_label
 _atom_site_symmetry_multiplicity
 _atom_site_fract_x
 _atom_site_fract_y
 _atom_site_fract_z
 _atom_site_occupancy
  Co  Co0  1  0.86742234  0.36742234  1.23484468  1.0
  Co  Co1  1  0.63257766  0.86742234  0.50000000  1.0
  Co  Co2  1  1.36742234  1.13257766  1.50000000  1.0
  Co  Co3  1  0.13257766  0.63257766  0.76515532  1.0
  Co  Co4  1  1.00000000  1.00000000  0.50000000  1.0
  Co  Co5  1  0.50000000  0.50000000  0.50000000  1.0
  Co  Co6  1  1.00000000  0.50000000  1.00000000  1.0
  Co  Co7  1  1.50000000  1.00000000  1.00000000  1.0
  Ge  Ge8  1  0.25000000  0.25000000  0.00000000  1.0
  Ge  Ge9  1  0.75000000  0.75000000  0.00000000  1.0
  Nb  Nb10  1  0.20522635  0.43041302  0.63563937  1.0
  Nb  Nb11  1  1.29477365  0.93041302  1.22518668  1.0
  Nb  Nb12  1  0.93041302  0.70522635  1.63563937  1.0
  Nb  Nb13  1  0.56958698  1.20522635  0.77481332  1.0
  Nb  Nb14  1  0.70522635  1.06958698  0.77481332  1.0
  Nb  Nb15  1  0.79477365  0.56958698  1.36436063  1.0
  Nb  Nb16  1  1.43041302  0.79477365  1.22518668  1.0
  Nb  Nb17  1  0.06958698  0.29477365  0.36436063  1.0
  Nb  Nb18  1  1.41318371  1.33394273  1.74712644  1.0
  Nb  Nb19  1  0.08681629  0.83394273  0.92075903  1.0
  Nb  Nb20  1  0.83394273  0.91318371  0.74712644  1.0
  Nb  Nb21  1  0.66605727  0.41318371  1.07924097  1.0
  Nb  Nb22  1  0.91318371  0.16605727  1.07924097  1.0
  Nb  Nb23  1  0.58681629  0.66605727  0.25287356  1.0
  Nb  Nb24  1  0.33394273  0.58681629  0.92075903  1.0
  Nb  Nb25  1  1.16605727  1.08681629  1.25287356  1.0
  Nb  Nb26  1  0.75000000  1.25000000  0.50000000  1.0
  Nb  Nb27  1  0.25000000  0.75000000  0.50000000  1.0
