# generated using pymatgen
data_CaAlSiO5
_symmetry_space_group_name_H-M   'P 1'
_cell_length_a   5.73238429
_cell_length_b   7.34250462
_cell_length_c   8.67264775
_cell_angle_alpha   90.00000000
_cell_angle_beta   90.00000000
_cell_angle_gamma   90.00000000
_symmetry_Int_Tables_number   1
_chemical_formula_structural   CaAlSiO5
_chemical_formula_sum   'Ca4 Al4 Si4 O20'
_cell_volume   365.03224791
_cell_formula_units_Z   4
loop_
 _symmetry_equiv_pos_site_id
 _symmetry_equiv_pos_as_xyz
  1  'x, y, z'
loop_
 _atom_site_type_symbol
 _atom_site_label
 _atom_site_symmetry_multiplicity
 _atom_site_fract_x
 _atom_site_fract_y
 _atom_site_fract_z
 _atom_site_occupancy
  Si  Si0  1  0.48976817  0.59198833  0.79381059  1.0
  Si  Si1  1  0.98976817  0.90801167  0.20618941  1.0
  Si  Si2  1  0.51023183  0.09198833  0.70618941  1.0
  Si  Si3  1  0.01023183  0.40801167  0.29381059  1.0
  Al  Al4  1  0.24680431  0.74410678  0.49074633  1.0
  Al  Al5  1  0.74680431  0.75589322  0.50925367  1.0
  Al  Al6  1  0.75319569  0.24410678  0.00925367  1.0
  Al  Al7  1  0.25319569  0.25589322  -0.00925367  1.0
  O  O8  1  0.49213002  0.91352225  0.58635997  1.0
  O  O9  1  0.99213002  0.58647775  0.41364003  1.0
  O  O10  1  0.50786998  0.41352225  0.91364003  1.0
  O  O11  1  0.00786998  0.08647775  0.08635997  1.0
  O  O12  1  0.27055270  0.58264749  0.66770747  1.0
  O  O13  1  0.77055270  0.91735251  0.33229253  1.0
  O  O14  1  0.72944730  0.08264749  0.83229253  1.0
  O  O15  1  0.22944730  0.41735251  0.16770747  1.0
  O  O16  1  0.23784985  0.87651782  0.29861129  1.0
  O  O17  1  0.73784985  0.62348218  0.70138871  1.0
  O  O18  1  0.76215015  0.37651782  0.20138871  1.0
  O  O19  1  0.26215015  0.12348218  0.79861129  1.0
  O  O20  1  0.41290067  0.75753856  0.90970985  1.0
  O  O21  1  0.91290067  0.74246144  0.09029015  1.0
  O  O22  1  0.58709933  0.25753856  0.59029015  1.0
  O  O23  1  0.08709933  0.24246144  0.40970985  1.0
  O  O24  1  0.00763658  0.86803325  0.58487610  1.0
  O  O25  1  0.50763658  0.63196674  0.41512390  1.0
  O  O26  1  -0.00763658  0.36803326  0.91512390  1.0
  O  O27  1  0.49236342  0.13196674  0.08487610  1.0
  Ca  Ca28  1  0.02552787  0.84881637  0.85050868  1.0
  Ca  Ca29  1  0.52552787  0.65118363  0.14949132  1.0
  Ca  Ca30  1  0.97447213  0.34881637  0.64949132  1.0
  Ca  Ca31  1  0.47447213  0.15118363  0.35050868  1.0
