# generated using pymatgen
data_Nb9VO25
_symmetry_space_group_name_H-M   'P 1'
_cell_length_a   11.43651919
_cell_length_b   11.43651919
_cell_length_c   11.43651919
_cell_angle_alpha   91.61532594
_cell_angle_beta   91.61532594
_cell_angle_gamma   160.66899461
_symmetry_Int_Tables_number   1
_chemical_formula_structural   Nb9VO25
_chemical_formula_sum   'Nb9 V1 O25'
_cell_volume   488.12762476
_cell_formula_units_Z   1
loop_
 _symmetry_equiv_pos_site_id
 _symmetry_equiv_pos_as_xyz
  1  'x, y, z'
loop_
 _atom_site_type_symbol
 _atom_site_label
 _atom_site_symmetry_multiplicity
 _atom_site_fract_x
 _atom_site_fract_y
 _atom_site_fract_z
 _atom_site_occupancy
  Nb  Nb0  1  0.00000000  0.00000000  -0.00000000  1.0
  Nb  Nb1  1  0.89238467  0.68477077  0.55986630  1.0
  Nb  Nb2  1  0.66748163  0.10761533  0.79238610  1.0
  Nb  Nb3  1  1.12490447  1.33251837  1.44013370  1.0
  Nb  Nb4  1  0.31522923  0.87509553  1.20761390  1.0
  Nb  Nb5  1  0.78170964  0.89381734  1.67649905  1.0
  Nb  Nb6  1  0.89478942  1.21829036  1.11210770  1.0
  Nb  Nb7  1  0.21731828  0.10521058  0.32350095  1.0
  Nb  Nb8  1  1.10618266  0.78268172  0.88789230  1.0
  V  V9  1  0.75000000  0.25000000  0.50000000  1.0
  O  O10  1  0.81493538  0.77503793  0.60774228  1.0
  O  O11  1  0.79280689  0.18506462  0.96010255  1.0
  O  O12  1  1.16729565  1.20719311  1.39225772  1.0
  O  O13  1  0.22496207  0.83270435  1.03989745  1.0
  O  O14  1  0.88567988  0.94909178  1.83248922  1.0
  O  O15  1  0.94680934  1.11432012  1.06341190  1.0
  O  O16  1  0.11660256  0.05319066  0.16751078  1.0
  O  O17  1  1.05090822  0.88339744  0.93658810  1.0
  O  O18  1  0.91719376  0.54555068  0.48661251  1.0
  O  O19  1  0.56941875  0.08280624  0.62835692  1.0
  O  O20  1  1.05893817  1.43058125  1.51338749  1.0
  O  O21  1  0.45444932  0.94106183  1.37164308  1.0
  O  O22  1  0.99610716  0.73127850  0.70904638  1.0
  O  O23  1  0.71293922  0.00389284  0.73517134  1.0
  O  O24  1  1.02223212  1.28706078  1.29095362  1.0
  O  O25  1  0.26872150  0.97776788  1.26482866  1.0
  O  O26  1  0.74794868  0.60839741  0.36248970  1.0
  O  O27  1  0.61454102  0.25205132  0.86044873  1.0
  O  O28  1  1.24590770  1.38545898  1.63751030  1.0
  O  O29  1  0.39160259  0.75409230  1.13955127  1.0
  O  O30  1  0.64560396  0.83898169  1.48855972  1.0
  O  O31  1  0.84295576  1.35439604  1.19337773  1.0
  O  O32  1  0.35042196  0.15704424  0.51144028  1.0
  O  O33  1  1.16101831  0.64957804  0.80662227  1.0
  O  O34  1  0.50000000  0.50000000  0.00000000  1.0
