# generated using pymatgen
data_Lu4CdPt
_symmetry_space_group_name_H-M   'P 1'
_cell_length_a   9.47799871
_cell_length_b   9.47799871
_cell_length_c   9.47799871
_cell_angle_alpha   60.00000000
_cell_angle_beta   60.00000000
_cell_angle_gamma   60.00000000
_symmetry_Int_Tables_number   1
_chemical_formula_structural   Lu4CdPt
_chemical_formula_sum   'Lu16 Cd4 Pt4'
_cell_volume   602.05329477
_cell_formula_units_Z   4
loop_
 _symmetry_equiv_pos_site_id
 _symmetry_equiv_pos_as_xyz
  1  'x, y, z'
loop_
 _atom_site_type_symbol
 _atom_site_label
 _atom_site_symmetry_multiplicity
 _atom_site_fract_x
 _atom_site_fract_y
 _atom_site_fract_z
 _atom_site_occupancy
  Lu  Lu0  1  -0.35358615  0.64641385  0.64641385  1.0
  Lu  Lu1  1  1.06075846  0.64641385  -0.35358615  1.0
  Lu  Lu2  1  -0.35358615  0.64641385  1.06075846  1.0
  Lu  Lu3  1  0.64641385  1.06075846  -0.35358615  1.0
  Lu  Lu4  1  0.06467246  0.43532754  0.43532754  1.0
  Lu  Lu5  1  0.43532754  0.43532754  0.06467246  1.0
  Lu  Lu6  1  0.43532754  0.06467246  0.43532754  1.0
  Lu  Lu7  1  0.06467246  0.06467246  0.43532754  1.0
  Lu  Lu8  1  0.06467246  0.43532754  0.06467246  1.0
  Lu  Lu9  1  0.43532754  0.06467246  0.06467246  1.0
  Lu  Lu10  1  -0.80991910  0.80991910  0.80991910  1.0
  Lu  Lu11  1  -0.19008090  0.80991910  0.19008090  1.0
  Lu  Lu12  1  -0.19008090  0.19008090  0.80991910  1.0
  Lu  Lu13  1  0.19008090  1.19008090  -0.19008090  1.0
  Lu  Lu14  1  0.19008090  -0.19008090  0.19008090  1.0
  Lu  Lu15  1  -0.19008090  0.19008090  0.19008090  1.0
  Cd  Cd16  1  0.41789060  1.41789060  0.41789060  1.0
  Cd  Cd17  1  -0.25367179  0.41789060  0.41789060  1.0
  Cd  Cd18  1  0.41789060  1.41789060  -0.25367179  1.0
  Cd  Cd19  1  0.41789060  -0.25367179  0.41789060  1.0
  Pt  Pt20  1  0.85632098  0.85632098  -0.14367902  1.0
  Pt  Pt21  1  0.43103707  0.85632098  -0.14367902  1.0
  Pt  Pt22  1  0.85632098  0.85632098  -0.56896293  1.0
  Pt  Pt23  1  0.85632098  0.43103707  -0.14367902  1.0
