# generated using pymatgen
data_Ba(P2Pd)2
_symmetry_space_group_name_H-M   'P 1'
_cell_length_a   5.71829535
_cell_length_b   5.71829535
_cell_length_c   5.71829535
_cell_angle_alpha   105.85835078
_cell_angle_beta   105.85835078
_cell_angle_gamma   116.96717203
_symmetry_Int_Tables_number   1
_chemical_formula_structural   Ba(P2Pd)2
_chemical_formula_sum   'Ba1 P4 Pd2'
_cell_volume   142.06819047
_cell_formula_units_Z   1
loop_
 _symmetry_equiv_pos_site_id
 _symmetry_equiv_pos_as_xyz
  1  'x, y, z'
loop_
 _atom_site_type_symbol
 _atom_site_label
 _atom_site_symmetry_multiplicity
 _atom_site_fract_x
 _atom_site_fract_y
 _atom_site_fract_z
 _atom_site_occupancy
  Ba  Ba0  1  0.00000000  0.00000000  0.00000000  1.0
  P  P1  1  0.50000000  0.72646255  0.22646255  1.0
  P  P2  1  0.72646255  0.50000000  0.22646255  1.0
  P  P3  1  0.27353745  0.50000000  0.77353745  1.0
  P  P4  1  0.50000000  0.27353745  0.77353745  1.0
  Pd  Pd5  1  1.25000000  0.75000000  0.50000000  1.0
  Pd  Pd6  1  0.75000000  1.25000000  0.50000000  1.0
