# generated using pymatgen
data_SrC4S4N2(O2F3)4
_symmetry_space_group_name_H-M   'P 1'
_cell_length_a   11.78702855
_cell_length_b   6.70820905
_cell_length_c   12.80617940
_cell_angle_alpha   90.00000000
_cell_angle_beta   103.30294328
_cell_angle_gamma   90.00000000
_symmetry_Int_Tables_number   1
_chemical_formula_structural   SrC4S4N2(O2F3)4
_chemical_formula_sum   'Sr2 C8 S8 N4 O16 F24'
_cell_volume   985.41212735
_cell_formula_units_Z   2
loop_
 _symmetry_equiv_pos_site_id
 _symmetry_equiv_pos_as_xyz
  1  'x, y, z'
loop_
 _atom_site_type_symbol
 _atom_site_label
 _atom_site_symmetry_multiplicity
 _atom_site_fract_x
 _atom_site_fract_y
 _atom_site_fract_z
 _atom_site_occupancy
  Sr  Sr0  1  0.50000000  0.39893961  0.75000000  1.0
  Sr  Sr1  1  0.50000000  0.60106039  0.25000000  1.0
  C  C2  1  0.16821423  0.94211934  0.66478646  1.0
  C  C3  1  0.83178577  0.94211934  0.83521354  1.0
  C  C4  1  0.83178577  0.05788066  0.33521354  1.0
  C  C5  1  0.16821423  0.05788066  0.16478646  1.0
  C  C6  1  0.17623584  0.51074294  0.43726097  1.0
  C  C7  1  0.82376416  0.51074294  0.06273903  1.0
  C  C8  1  0.82376416  0.48925706  0.56273903  1.0
  C  C9  1  0.17623584  0.48925706  0.93726097  1.0
  S  S10  1  0.32170654  0.89058732  0.65131805  1.0
  S  S11  1  0.67829346  0.89058732  0.84868195  1.0
  S  S12  1  0.67829346  0.10941268  0.34868195  1.0
  S  S13  1  0.32170654  0.10941268  0.15131805  1.0
  S  S14  1  0.32492024  0.62764905  0.47918046  1.0
  S  S15  1  0.67507976  0.62764905  0.02081954  1.0
  S  S16  1  0.67507976  0.37235095  0.52081954  1.0
  S  S17  1  0.32492024  0.37235095  0.97918046  1.0
  N  N18  1  0.30530266  0.83842243  0.52765370  1.0
  N  N19  1  0.69469734  0.83842243  0.97234630  1.0
  N  N20  1  0.69469734  0.16157757  0.47234630  1.0
  N  N21  1  0.30530266  0.16157757  0.02765370  1.0
  O  O22  1  0.36506808  0.73034352  0.72725632  1.0
  O  O23  1  0.63493192  0.73034352  0.77274368  1.0
  O  O24  1  0.63493192  0.26965648  0.27274368  1.0
  O  O25  1  0.36506808  0.26965648  0.22725632  1.0
  O  O26  1  0.37788108  0.08443446  0.67169261  1.0
  O  O27  1  0.62211892  0.08443446  0.82830739  1.0
  O  O28  1  0.62211892  0.91556554  0.32830739  1.0
  O  O29  1  0.37788108  0.91556554  0.17169261  1.0
  O  O30  1  0.39179394  0.48419868  0.55457653  1.0
  O  O31  1  0.60820606  0.48419868  0.94542347  1.0
  O  O32  1  0.60820606  0.51580132  0.44542347  1.0
  O  O33  1  0.39179394  0.51580132  0.05457653  1.0
  O  O34  1  0.35917302  0.65818671  0.37817016  1.0
  O  O35  1  0.64082698  0.65818671  0.12182984  1.0
  O  O36  1  0.64082698  0.34181329  0.62182984  1.0
  O  O37  1  0.35917302  0.34181329  0.87817016  1.0
  F  F38  1  0.17321390  0.02429004  0.76157038  1.0
  F  F39  1  0.82678610  0.02429004  0.73842962  1.0
  F  F40  1  0.82678610  0.97570996  0.23842962  1.0
  F  F41  1  0.17321390  0.97570996  0.26157038  1.0
  F  F42  1  0.11548801  0.06957486  0.58760697  1.0
  F  F43  1  0.88451199  0.06957486  0.91239303  1.0
  F  F44  1  0.88451199  0.93042514  0.41239303  1.0
  F  F45  1  0.11548801  0.93042514  0.08760697  1.0
  F  F46  1  0.10584055  0.77228197  0.65633370  1.0
  F  F47  1  0.89415945  0.77228197  0.84366630  1.0
  F  F48  1  0.89415945  0.22771803  0.34366630  1.0
  F  F49  1  0.10584055  0.22771803  0.15633370  1.0
  F  F50  1  0.10153604  0.63307220  0.37176288  1.0
  F  F51  1  0.89846396  0.63307220  0.12823712  1.0
  F  F52  1  0.89846396  0.36692780  0.62823712  1.0
  F  F53  1  0.10153604  0.36692780  0.87176288  1.0
  F  F54  1  0.13520211  0.47126165  0.52497705  1.0
  F  F55  1  0.86479789  0.47126165  0.97502295  1.0
  F  F56  1  0.86479789  0.52873835  0.47502295  1.0
  F  F57  1  0.13520211  0.52873835  0.02497705  1.0
  F  F58  1  0.18562521  0.33883377  0.38576232  1.0
  F  F59  1  0.81437479  0.33883377  0.11423768  1.0
  F  F60  1  0.81437479  0.66116623  0.61423768  1.0
  F  F61  1  0.18562521  0.66116623  0.88576232  1.0
