# generated using pymatgen
data_BaCrF5
_symmetry_space_group_name_H-M   'P 1'
_cell_length_a   5.17873293
_cell_length_b   5.79685476
_cell_length_c   14.07261428
_cell_angle_alpha   90.00000000
_cell_angle_beta   90.00000000
_cell_angle_gamma   90.00000000
_symmetry_Int_Tables_number   1
_chemical_formula_structural   BaCrF5
_chemical_formula_sum   'Ba4 Cr4 F20'
_cell_volume   422.46498339
_cell_formula_units_Z   4
loop_
 _symmetry_equiv_pos_site_id
 _symmetry_equiv_pos_as_xyz
  1  'x, y, z'
loop_
 _atom_site_type_symbol
 _atom_site_label
 _atom_site_symmetry_multiplicity
 _atom_site_fract_x
 _atom_site_fract_y
 _atom_site_fract_z
 _atom_site_occupancy
  Ba  Ba0  1  0.74030542  0.66206236  0.65549035  1.0
  Ba  Ba1  1  0.24030542  0.83793764  0.34450965  1.0
  Ba  Ba2  1  0.25969458  0.16206236  0.84450965  1.0
  Ba  Ba3  1  0.75969458  0.33793764  0.15549035  1.0
  Cr  Cr4  1  0.18573200  0.84780759  0.08669577  1.0
  Cr  Cr5  1  0.68573200  0.65219241  0.91330423  1.0
  Cr  Cr6  1  0.81426800  0.34780759  0.41330423  1.0
  Cr  Cr7  1  0.31426800  0.15219241  0.58669577  1.0
  F  F8  1  0.45231668  0.88866130  0.52364010  1.0
  F  F9  1  0.95231668  0.61133870  0.47635990  1.0
  F  F10  1  0.54768332  0.38866130  0.97635990  1.0
  F  F11  1  0.04768332  0.11133870  0.02364010  1.0
  F  F12  1  0.41569002  0.64585345  0.82177442  1.0
  F  F13  1  0.91569002  0.85414655  0.17822558  1.0
  F  F14  1  0.58430998  0.14585345  0.67822558  1.0
  F  F15  1  0.08430998  0.35414655  0.32177442  1.0
  F  F16  1  0.18620407  0.41580272  0.65305579  1.0
  F  F17  1  0.68620407  0.08419728  0.34694421  1.0
  F  F18  1  0.81379593  0.91580272  0.84694421  1.0
  F  F19  1  0.31379593  0.58419728  0.15305579  1.0
  F  F20  1  0.46974275  0.85832505  0.99221219  1.0
  F  F21  1  0.96974275  0.64167495  0.00778781  1.0
  F  F22  1  0.53025725  0.35832505  0.50778781  1.0
  F  F23  1  0.03025725  0.14167495  0.49221219  1.0
  F  F24  1  0.12720711  0.95763330  0.67092337  1.0
  F  F25  1  0.62720711  0.54236670  0.32907663  1.0
  F  F26  1  0.87279289  0.45763330  0.82907663  1.0
  F  F27  1  0.37279289  0.04236670  0.17092337  1.0
