# generated using pymatgen
data_Fe3O4
_symmetry_space_group_name_H-M   'P 1'
_cell_length_a   6.03701735
_cell_length_b   6.03701735
_cell_length_c   6.03701735
_cell_angle_alpha   59.99496701
_cell_angle_beta   59.99496701
_cell_angle_gamma   59.99496701
_symmetry_Int_Tables_number   1
_chemical_formula_structural   Fe3O4
_chemical_formula_sum   'Fe6 O8'
_cell_volume   155.56171108
_cell_formula_units_Z   2
loop_
 _symmetry_equiv_pos_site_id
 _symmetry_equiv_pos_as_xyz
  1  'x, y, z'
loop_
 _atom_site_type_symbol
 _atom_site_label
 _atom_site_symmetry_multiplicity
 _atom_site_fract_x
 _atom_site_fract_y
 _atom_site_fract_z
 _atom_site_occupancy
  Fe  Fe0  1  1.00000000  1.50000000  0.00000000  1.0
  Fe  Fe1  1  1.00000000  1.00000000  0.50000000  1.0
  Fe  Fe2  1  1.50000000  1.00000000  0.00000000  1.0
  Fe  Fe3  1  1.62502224  0.62502224  0.62502224  1.0
  Fe  Fe4  1  1.37497776  0.37497776  0.37497776  1.0
  Fe  Fe5  1  0.00000000  0.00000000  0.00000000  1.0
  O  O6  1  1.24375759  1.24375759  -0.23129396  1.0
  O  O7  1  1.24375759  0.76870604  0.24375759  1.0
  O  O8  1  1.23129396  0.75624241  0.75624241  1.0
  O  O9  1  1.75624241  0.23129396  0.75624241  1.0
  O  O10  1  1.75624241  0.75624241  0.23129396  1.0
  O  O11  1  0.76870604  1.24375759  0.24375759  1.0
  O  O12  1  0.75625534  0.75625534  0.75625534  1.0
  O  O13  1  1.24374466  1.24374466  0.24374466  1.0
