# generated using pymatgen
data_TlPAuSe3
_symmetry_space_group_name_H-M   'P 1'
_cell_length_a   8.11689408
_cell_length_b   7.54232328
_cell_length_c   8.96610711
_cell_angle_alpha   90.00000000
_cell_angle_beta   116.15464617
_cell_angle_gamma   90.00000000
_symmetry_Int_Tables_number   1
_chemical_formula_structural   TlPAuSe3
_chemical_formula_sum   'Tl2 P2 Au2 Se6'
_cell_volume   492.70327934
_cell_formula_units_Z   2
loop_
 _symmetry_equiv_pos_site_id
 _symmetry_equiv_pos_as_xyz
  1  'x, y, z'
loop_
 _atom_site_type_symbol
 _atom_site_label
 _atom_site_symmetry_multiplicity
 _atom_site_fract_x
 _atom_site_fract_y
 _atom_site_fract_z
 _atom_site_occupancy
  Tl  Tl0  1  0.88486949  0.00000000  0.64294087  1.0
  Tl  Tl1  1  0.11513051  0.00000000  0.35705913  1.0
  P  P2  1  0.62481412  0.00000000  0.97226728  1.0
  P  P3  1  0.37518588  0.00000000  0.02773272  1.0
  Au  Au4  1  0.00000000  0.74928920  0.00000000  1.0
  Au  Au5  1  0.00000000  0.25071080  0.00000000  1.0
  Se  Se6  1  0.22977894  0.74939646  0.89481272  1.0
  Se  Se7  1  0.22977894  0.25060354  0.89481272  1.0
  Se  Se8  1  0.77022106  0.74939646  0.10518728  1.0
  Se  Se9  1  0.77022106  0.25060354  0.10518728  1.0
  Se  Se10  1  0.53064752  -0.00000000  0.70644000  1.0
  Se  Se11  1  0.46935248  -0.00000000  0.29356000  1.0
