# generated using pymatgen
data_Li2TeS3
_symmetry_space_group_name_H-M   'P 1'
_cell_length_a   5.39903443
_cell_length_b   11.61019796
_cell_length_c   7.88291008
_cell_angle_alpha   90.00000000
_cell_angle_beta   91.68936416
_cell_angle_gamma   90.00000000
_symmetry_Int_Tables_number   1
_chemical_formula_structural   Li2TeS3
_chemical_formula_sum   'Li8 Te4 S12'
_cell_volume   493.91644580
_cell_formula_units_Z   4
loop_
 _symmetry_equiv_pos_site_id
 _symmetry_equiv_pos_as_xyz
  1  'x, y, z'
loop_
 _atom_site_type_symbol
 _atom_site_label
 _atom_site_symmetry_multiplicity
 _atom_site_fract_x
 _atom_site_fract_y
 _atom_site_fract_z
 _atom_site_occupancy
  Li  Li0  1  0.23680181  0.08936796  0.87473295  1.0
  Li  Li1  1  0.23680181  0.41063204  0.37473295  1.0
  Li  Li2  1  0.76319819  0.58936796  0.62526705  1.0
  Li  Li3  1  0.76319819  0.91063204  0.12526705  1.0
  Li  Li4  1  0.25736099  0.72621536  0.84933584  1.0
  Li  Li5  1  0.25736099  0.77378464  0.34933584  1.0
  Li  Li6  1  0.74263901  0.22621536  0.65066416  1.0
  Li  Li7  1  0.74263901  0.27378464  0.15066416  1.0
  Te  Te8  1  0.27882255  0.41365257  0.82300200  1.0
  Te  Te9  1  0.27882255  0.08634743  0.32300200  1.0
  Te  Te10  1  0.72117745  0.91365257  0.67699800  1.0
  Te  Te11  1  0.72117745  0.58634743  0.17699800  1.0
  S  S12  1  0.23046297  0.25310749  0.62609544  1.0
  S  S13  1  0.23046297  0.24689251  0.12609544  1.0
  S  S14  1  0.76953703  0.75310749  0.87390456  1.0
  S  S15  1  0.76953703  0.74689251  0.37390456  1.0
  S  S16  1  0.25526645  0.57194083  0.62753272  1.0
  S  S17  1  0.25526645  0.92805917  0.12753272  1.0
  S  S18  1  0.74473355  0.07194083  0.87246728  1.0
  S  S19  1  0.74473355  0.42805917  0.37246728  1.0
  S  S20  1  0.72585926  0.40197764  0.87302216  1.0
  S  S21  1  0.72585926  0.09802236  0.37302216  1.0
  S  S22  1  0.27414074  0.90197764  0.62697784  1.0
  S  S23  1  0.27414074  0.59802236  0.12697784  1.0
