# generated using pymatgen
data_K3HPtS2(ClO3)2
_symmetry_space_group_name_H-M   'P 1'
_cell_length_a   9.33823880
_cell_length_b   9.33823880
_cell_length_c   7.18107922
_cell_angle_alpha   90.00000000
_cell_angle_beta   90.00000000
_cell_angle_gamma   70.59014382
_symmetry_Int_Tables_number   1
_chemical_formula_structural   K3HPtS2(ClO3)2
_chemical_formula_sum   'K6 H2 Pt2 S4 Cl4 O12'
_cell_volume   590.61922312
_cell_formula_units_Z   2
loop_
 _symmetry_equiv_pos_site_id
 _symmetry_equiv_pos_as_xyz
  1  'x, y, z'
loop_
 _atom_site_type_symbol
 _atom_site_label
 _atom_site_symmetry_multiplicity
 _atom_site_fract_x
 _atom_site_fract_y
 _atom_site_fract_z
 _atom_site_occupancy
  K  K0  1  -0.07325712  1.64137468  0.64981883  1.0
  K  K1  1  0.64137468  0.92674288  0.14981883  1.0
  K  K2  1  -0.64137468  1.07325712  0.64981883  1.0
  K  K3  1  0.07325712  0.35862532  0.14981883  1.0
  K  K4  1  -0.37896911  1.37896911  0.96577390  1.0
  K  K5  1  0.37896911  0.62103089  0.46577390  1.0
  H  H6  1  -0.02119412  1.02119412  0.71939803  1.0
  H  H7  1  0.02119412  0.97880588  0.21939803  1.0
  Pt  Pt8  1  -0.25648695  1.25648695  0.50144306  1.0
  Pt  Pt9  1  0.25648695  0.74351305  1.00144306  1.0
  S  S10  1  -0.04678988  1.26486426  0.65171084  1.0
  S  S11  1  0.26486426  0.95321012  0.15171084  1.0
  S  S12  1  -0.26486426  1.04678988  0.65171084  1.0
  S  S13  1  0.04678988  0.73513574  0.15171084  1.0
  Cl  Cl14  1  0.27144053  0.51058085  0.84617975  1.0
  Cl  Cl15  1  -0.48941915  1.27144053  0.34617975  1.0
  Cl  Cl16  1  0.48941915  0.72855947  0.84617975  1.0
  Cl  Cl17  1  -0.27144053  1.48941915  0.34617975  1.0
  O  O18  1  0.05370288  0.10394930  0.71380110  1.0
  O  O19  1  -0.89605070  1.05370288  0.21380110  1.0
  O  O20  1  0.89605070  0.94629712  0.71380110  1.0
  O  O21  1  -0.05370288  1.89605070  0.21380110  1.0
  O  O22  1  -0.09910774  1.36038314  0.82232525  1.0
  O  O23  1  0.36038314  0.90089226  0.32232525  1.0
  O  O24  1  -0.36038314  1.09910774  0.82232525  1.0
  O  O25  1  0.09910774  0.63961686  0.32232525  1.0
  O  O26  1  0.05252158  0.32514350  0.53670674  1.0
  O  O27  1  -0.67485650  1.05252158  0.03670674  1.0
  O  O28  1  0.67485650  0.94747842  0.53670674  1.0
  O  O29  1  -0.05252158  1.67485650  0.03670674  1.0
