# generated using pymatgen
data_H3CCl
_symmetry_space_group_name_H-M   'P 1'
_cell_length_a   4.40942145
_cell_length_b   4.40942145
_cell_length_c   7.97809074
_cell_angle_alpha   90.00000000
_cell_angle_beta   90.00000000
_cell_angle_gamma   77.40355786
_symmetry_Int_Tables_number   1
_chemical_formula_structural   H3CCl
_chemical_formula_sum   'H6 C2 Cl2'
_cell_volume   151.38435548
_cell_formula_units_Z   2
loop_
 _symmetry_equiv_pos_site_id
 _symmetry_equiv_pos_as_xyz
  1  'x, y, z'
loop_
 _atom_site_type_symbol
 _atom_site_label
 _atom_site_symmetry_multiplicity
 _atom_site_fract_x
 _atom_site_fract_y
 _atom_site_fract_z
 _atom_site_occupancy
  H  H0  1  -0.44823311  1.44823311  0.36477819  1.0
  H  H1  1  0.44823311  0.55176689  0.86477819  1.0
  H  H2  1  0.47520660  0.78662726  0.49691862  1.0
  H  H3  1  0.21337274  0.52479340  0.49691862  1.0
  H  H4  1  -0.47520660  1.21337274  0.99691862  1.0
  H  H5  1  -0.21337274  1.47520660  0.99691862  1.0
  C  C6  1  0.37142451  0.62857549  0.42157524  1.0
  C  C7  1  -0.37142451  1.37142451  0.92157524  1.0
  Cl  Cl8  1  0.15013914  0.84986086  0.25580933  1.0
  Cl  Cl9  1  -0.15013914  1.15013914  0.75580933  1.0
