# generated using pymatgen
data_LiH3SO5
_symmetry_space_group_name_H-M   'P 1'
_cell_length_a   8.53463963
_cell_length_b   8.40337203
_cell_length_c   5.79613935
_cell_angle_alpha   90.00000000
_cell_angle_beta   90.00000000
_cell_angle_gamma   90.00000000
_symmetry_Int_Tables_number   1
_chemical_formula_structural   LiH3SO5
_chemical_formula_sum   'Li4 H12 S4 O20'
_cell_volume   415.69767663
_cell_formula_units_Z   4
loop_
 _symmetry_equiv_pos_site_id
 _symmetry_equiv_pos_as_xyz
  1  'x, y, z'
loop_
 _atom_site_type_symbol
 _atom_site_label
 _atom_site_symmetry_multiplicity
 _atom_site_fract_x
 _atom_site_fract_y
 _atom_site_fract_z
 _atom_site_occupancy
  Li  Li0  1  0.19661489  0.91801340  0.52426545  1.0
  Li  Li1  1  0.69661489  0.58198660  0.52426545  1.0
  Li  Li2  1  0.80338511  0.08198660  0.02426545  1.0
  Li  Li3  1  0.30338511  0.41801340  0.02426545  1.0
  H  H4  1  0.51491041  0.68694558  0.99824082  1.0
  H  H5  1  1.01491041  0.81305442  0.99824082  1.0
  H  H6  1  0.48508959  0.31305442  0.49824082  1.0
  H  H7  1  -0.01491041  0.18694558  0.49824082  1.0
  H  H8  1  0.40952119  0.86072069  -0.06514680  1.0
  H  H9  1  0.90952119  0.63927931  -0.06514680  1.0
  H  H10  1  0.59047881  0.13927931  0.43485320  1.0
  H  H11  1  0.09047881  0.36072069  0.43485320  1.0
  H  H12  1  0.10308386  0.65119197  0.87294553  1.0
  H  H13  1  0.60308386  0.84880803  0.87294553  1.0
  H  H14  1  0.89691614  0.34880803  0.37294553  1.0
  H  H15  1  0.39691614  0.15119197  0.37294553  1.0
  S  S16  1  0.31127551  0.56029395  0.52661024  1.0
  S  S17  1  0.81127551  0.93970605  0.52661024  1.0
  S  S18  1  0.68872449  0.43970605  0.02661024  1.0
  S  S19  1  0.18872449  0.06029395  0.02661024  1.0
  O  O20  1  0.51641910  0.80774603  0.97900984  1.0
  O  O21  1  0.01641910  0.69225397  0.97900984  1.0
  O  O22  1  0.48358090  0.19225397  0.47900984  1.0
  O  O23  1  0.98358090  0.30774603  0.47900984  1.0
  O  O24  1  0.47641726  0.50108017  0.54816540  1.0
  O  O25  1  0.97641726  0.99891983  0.54816540  1.0
  O  O26  1  0.52358274  0.49891983  1.04816540  1.0
  O  O27  1  0.02358274  0.00108017  1.04816540  1.0
  O  O28  1  0.19340450  0.22498372  0.94195558  1.0
  O  O29  1  0.69340450  0.27501628  0.94195558  1.0
  O  O30  1  0.80659550  0.77501628  0.44195558  1.0
  O  O31  1  0.30659550  0.72498372  0.44195558  1.0
  O  O32  1  0.27104044  0.94986816  0.85871035  1.0
  O  O33  1  0.77104044  0.55013184  0.85871035  1.0
  O  O34  1  0.72895956  0.05013184  0.35871035  1.0
  O  O35  1  0.22895956  0.44986816  0.35871035  1.0
  O  O36  1  0.23280401  0.54802777  0.75844359  1.0
  O  O37  1  0.73280401  0.95197223  0.75844359  1.0
  O  O38  1  0.76719599  0.45197223  0.25844359  1.0
  O  O39  1  0.26719599  0.04802777  0.25844359  1.0
