# generated using pymatgen
data_CdI2
_symmetry_space_group_name_H-M   'P 1'
_cell_length_a   4.32758789
_cell_length_b   4.32758789
_cell_length_c   53.03881810
_cell_angle_alpha   90.00000000
_cell_angle_beta   90.00000000
_cell_angle_gamma   120.00000000
_symmetry_Int_Tables_number   1
_chemical_formula_structural   CdI2
_chemical_formula_sum   'Cd7 I14'
_cell_volume   860.23332484
_cell_formula_units_Z   7
loop_
 _symmetry_equiv_pos_site_id
 _symmetry_equiv_pos_as_xyz
  1  'x, y, z'
loop_
 _atom_site_type_symbol
 _atom_site_label
 _atom_site_symmetry_multiplicity
 _atom_site_fract_x
 _atom_site_fract_y
 _atom_site_fract_z
 _atom_site_occupancy
  Cd  Cd0  1  0.00000000  0.00000000  0.03573529  1.0
  Cd  Cd1  1  0.00000000  0.00000000  0.17857785  1.0
  Cd  Cd2  1  0.00000000  0.00000000  0.32141624  1.0
  Cd  Cd3  1  0.00000000  0.00000000  0.46426664  1.0
  Cd  Cd4  1  0.00000000  0.00000000  0.75000057  1.0
  Cd  Cd5  1  0.66666667  0.33333333  0.60713945  1.0
  Cd  Cd6  1  0.66666667  0.33333333  0.89286296  1.0
  I  I7  1  0.00000000  0.00000000  0.63955564  1.0
  I  I8  1  0.00000000  0.00000000  0.92528537  1.0
  I  I9  1  0.66666667  0.33333333  0.06813888  1.0
  I  I10  1  0.66666667  0.33333333  0.21098362  1.0
  I  I11  1  0.66666667  0.33333333  0.35382237  1.0
  I  I12  1  0.66666667  0.33333333  0.49667613  1.0
  I  I13  1  0.66666667  0.33333333  0.78240420  1.0
  I  I14  1  0.33333333  0.66666667  0.00333147  1.0
  I  I15  1  0.33333333  0.66666667  0.14617035  1.0
  I  I16  1  0.33333333  0.66666667  0.28900870  1.0
  I  I17  1  0.33333333  0.66666667  0.43186203  1.0
  I  I18  1  0.33333333  0.66666667  0.57471780  1.0
  I  I19  1  0.33333333  0.66666667  0.71759641  1.0
  I  I20  1  0.33333333  0.66666667  0.86044801  1.0
