# generated using pymatgen
data_TlBi(WO4)2
_symmetry_space_group_name_H-M   'P 1'
_cell_length_a   7.73712938
_cell_length_b   7.73712938
_cell_length_c   7.71900176
_cell_angle_alpha   61.92797271
_cell_angle_beta   118.07202729
_cell_angle_gamma   91.15975927
_symmetry_Int_Tables_number   1
_chemical_formula_structural   TlBi(WO4)2
_chemical_formula_sum   'Tl2 Bi2 W4 O16'
_cell_volume   347.53544905
_cell_formula_units_Z   2
loop_
 _symmetry_equiv_pos_site_id
 _symmetry_equiv_pos_as_xyz
  1  'x, y, z'
loop_
 _atom_site_type_symbol
 _atom_site_label
 _atom_site_symmetry_multiplicity
 _atom_site_fract_x
 _atom_site_fract_y
 _atom_site_fract_z
 _atom_site_occupancy
  Tl  Tl0  1  0.20999302  0.20999302  0.25000000  1.0
  Tl  Tl1  1  0.79000698  0.79000698  0.75000000  1.0
  Bi  Bi2  1  0.77891676  0.77891676  0.25000000  1.0
  Bi  Bi3  1  0.22108324  0.22108324  0.75000000  1.0
  W  W4  1  0.69350871  0.30676493  0.23072435  1.0
  W  W5  1  0.69323507  0.30649129  0.73072435  1.0
  W  W6  1  1.30676493  -0.30649129  0.26927565  1.0
  W  W7  1  1.30649129  -0.30676493  0.76927565  1.0
  O  O8  1  1.58600575  -0.37573280  0.02909674  1.0
  O  O9  1  1.37573280  -0.58600575  0.52909674  1.0
  O  O10  1  0.62426720  0.58600575  0.47090326  1.0
  O  O11  1  0.41399425  0.37573280  0.97090326  1.0
  O  O12  1  0.77938191  0.05112084  0.30693524  1.0
  O  O13  1  0.94887916  0.22061809  0.80693524  1.0
  O  O14  1  1.05112084  -0.22061809  0.19306476  1.0
  O  O15  1  1.22061809  -0.05112084  0.69306476  1.0
  O  O16  1  1.37317825  -0.06896526  0.13230840  1.0
  O  O17  1  1.06896526  -0.37317825  0.63230840  1.0
  O  O18  1  0.93103474  0.37317825  0.36769160  1.0
  O  O19  1  0.62682175  0.06896526  0.86769160  1.0
  O  O20  1  0.62247587  0.24442152  0.44078862  1.0
  O  O21  1  0.75557848  0.37752413  0.94078862  1.0
  O  O22  1  1.24442152  -0.37752413  0.05921138  1.0
  O  O23  1  1.37752413  -0.24442152  0.55921138  1.0
