# generated using pymatgen
data_Na2Si2O5
_symmetry_space_group_name_H-M   'P 1'
_cell_length_a   8.24014217
_cell_length_b   4.93263523
_cell_length_c   12.50438240
_cell_angle_alpha   90.00000000
_cell_angle_beta   104.27742357
_cell_angle_gamma   90.00000000
_symmetry_Int_Tables_number   1
_chemical_formula_structural   Na2Si2O5
_chemical_formula_sum   'Na8 Si8 O20'
_cell_volume   492.55004489
_cell_formula_units_Z   4
loop_
 _symmetry_equiv_pos_site_id
 _symmetry_equiv_pos_as_xyz
  1  'x, y, z'
loop_
 _atom_site_type_symbol
 _atom_site_label
 _atom_site_symmetry_multiplicity
 _atom_site_fract_x
 _atom_site_fract_y
 _atom_site_fract_z
 _atom_site_occupancy
  Na  Na0  1  0.87927082  0.74581625  0.44232879  1.0
  Na  Na1  1  0.87927082  0.75418375  0.94232879  1.0
  Na  Na2  1  0.12072918  0.24581625  0.05767121  1.0
  Na  Na3  1  0.12072918  0.25418375  0.55767121  1.0
  Na  Na4  1  0.63513197  0.27255301  0.47152573  1.0
  Na  Na5  1  0.63513197  0.22744699  0.97152573  1.0
  Na  Na6  1  0.36486803  0.77255301  0.02847427  1.0
  Na  Na7  1  0.36486803  0.72744699  0.52847427  1.0
  Si  Si8  1  0.90330985  0.20753070  0.27715780  1.0
  Si  Si9  1  0.90330985  0.29246930  0.77715780  1.0
  Si  Si10  1  0.09669015  0.70753070  0.22284220  1.0
  Si  Si11  1  0.09669015  0.79246930  0.72284220  1.0
  Si  Si12  1  0.52766813  0.30984753  0.18273381  1.0
  Si  Si13  1  0.52766813  0.19015247  0.68273381  1.0
  Si  Si14  1  0.47233187  0.80984753  0.31726619  1.0
  Si  Si15  1  0.47233187  0.69015247  0.81726619  1.0
  O  O16  1  0.95558626  0.88406492  0.26788734  1.0
  O  O17  1  0.95558626  0.61593508  0.76788734  1.0
  O  O18  1  0.04441374  0.38406492  0.23211266  1.0
  O  O19  1  0.04441374  0.11593508  0.73211266  1.0
  O  O20  1  0.89165615  0.26923672  0.40087026  1.0
  O  O21  1  0.89165615  0.23076328  0.90087026  1.0
  O  O22  1  0.10834385  0.76923672  0.09912974  1.0
  O  O23  1  0.10834385  0.73076328  0.59912974  1.0
  O  O24  1  0.72562135  0.25164052  0.18104782  1.0
  O  O25  1  0.72562135  0.24835948  0.68104782  1.0
  O  O26  1  0.27437865  0.75164052  0.31895218  1.0
  O  O27  1  0.27437865  0.74835948  0.81895218  1.0
  O  O28  1  0.48519696  0.13461992  0.28523521  1.0
  O  O29  1  0.48519696  0.36538008  0.78523521  1.0
  O  O30  1  0.51480304  0.63461992  0.21476479  1.0
  O  O31  1  0.51480304  0.86538008  0.71476479  1.0
  O  O32  1  0.40699908  0.25084633  0.06425984  1.0
  O  O33  1  0.40699908  0.24915367  0.56425984  1.0
  O  O34  1  0.59300092  0.75084633  0.43574016  1.0
  O  O35  1  0.59300092  0.74915367  0.93574016  1.0
