# generated using pymatgen
data_CrP3NO10
_symmetry_space_group_name_H-M   'P 1'
_cell_length_a   10.68465260
_cell_length_b   5.13511068
_cell_length_c   11.97250330
_cell_angle_alpha   90.00000000
_cell_angle_beta   130.41784995
_cell_angle_gamma   90.00000000
_symmetry_Int_Tables_number   1
_chemical_formula_structural   CrP3NO10
_chemical_formula_sum   'Cr2 P6 N2 O20'
_cell_volume   500.11715185
_cell_formula_units_Z   2
loop_
 _symmetry_equiv_pos_site_id
 _symmetry_equiv_pos_as_xyz
  1  'x, y, z'
loop_
 _atom_site_type_symbol
 _atom_site_label
 _atom_site_symmetry_multiplicity
 _atom_site_fract_x
 _atom_site_fract_y
 _atom_site_fract_z
 _atom_site_occupancy
  N  N0  1  0.50000000  0.30684177  0.25000000  1.0
  N  N1  1  0.50000000  0.69315823  0.75000000  1.0
  O  O2  1  0.85074839  0.69324291  0.91231276  1.0
  O  O3  1  0.85074839  0.30675709  0.41231276  1.0
  O  O4  1  0.14925161  0.69324291  0.58768724  1.0
  O  O5  1  0.14925161  0.30675709  0.08768724  1.0
  O  O6  1  0.92906554  0.91216607  0.30612389  1.0
  O  O7  1  0.92906554  0.08783393  0.80612389  1.0
  O  O8  1  0.07093446  0.91216607  0.19387611  1.0
  O  O9  1  0.07093446  0.08783393  0.69387611  1.0
  O  O10  1  0.81849117  0.78769987  0.45740884  1.0
  O  O11  1  0.81849117  0.21230013  0.95740884  1.0
  O  O12  1  0.18150883  0.78769987  0.04259116  1.0
  O  O13  1  0.18150883  0.21230013  0.54259116  1.0
  O  O14  1  0.85843495  0.56602286  0.12608658  1.0
  O  O15  1  0.85843495  0.43397714  0.62608658  1.0
  O  O16  1  0.14156505  0.56602286  0.37391342  1.0
  O  O17  1  0.14156505  0.43397714  0.87391342  1.0
  O  O18  1  0.59343370  0.47552313  0.37047136  1.0
  O  O19  1  0.59343370  0.52447687  0.87047136  1.0
  O  O20  1  0.40656630  0.47552313  0.12952864  1.0
  O  O21  1  0.40656630  0.52447687  0.62952864  1.0
  P  P22  1  -0.00000000  0.76285228  0.25000000  1.0
  P  P23  1  -0.00000000  0.23714772  0.75000000  1.0
  P  P24  1  0.79130970  0.50162377  0.46335840  1.0
  P  P25  1  0.79130970  0.49837623  0.96335840  1.0
  P  P26  1  0.20869030  0.50162377  0.03664160  1.0
  P  P27  1  0.20869030  0.49837623  0.53664160  1.0
  Cr  Cr28  1  -0.00000000  0.00000000  0.50000000  1.0
  Cr  Cr29  1  0.00000000  0.00000000  0.00000000  1.0
