# generated using pymatgen
data_K2Tc
_symmetry_space_group_name_H-M   'P 1'
_cell_length_a   10.71246108
_cell_length_b   10.71246108
_cell_length_c   3.10282380
_cell_angle_alpha   90.00000000
_cell_angle_beta   90.00000000
_cell_angle_gamma   120.00000000
_symmetry_Int_Tables_number   1
_chemical_formula_structural   K2Tc
_chemical_formula_sum   'K6 Tc3'
_cell_volume   308.36583813
_cell_formula_units_Z   3
loop_
 _symmetry_equiv_pos_site_id
 _symmetry_equiv_pos_as_xyz
  1  'x, y, z'
loop_
 _atom_site_type_symbol
 _atom_site_label
 _atom_site_symmetry_multiplicity
 _atom_site_fract_x
 _atom_site_fract_y
 _atom_site_fract_z
 _atom_site_occupancy
  K  K0  1  0.35334011  0.35334011  0.00000000  1.0
  K  K1  1  0.64665989  0.00000000  0.00000000  1.0
  K  K2  1  -0.00000000  0.64665989  0.00000000  1.0
  K  K3  1  0.68706611  0.68706611  0.50000000  1.0
  K  K4  1  0.31293389  0.00000000  0.50000000  1.0
  K  K5  1  -0.00000000  0.31293389  0.50000000  1.0
  Tc  Tc6  1  0.00000000  0.00000000  0.00000000  1.0
  Tc  Tc7  1  0.66666667  0.33333333  0.50000000  1.0
  Tc  Tc8  1  0.33333333  0.66666667  0.50000000  1.0
