# generated using pymatgen
data_LiAlGeO4
_symmetry_space_group_name_H-M   'P 1'
_cell_length_a   8.62674365
_cell_length_b   8.62674365
_cell_length_c   8.62674365
_cell_angle_alpha   107.83064375
_cell_angle_beta   107.83064375
_cell_angle_gamma   107.83064375
_symmetry_Int_Tables_number   1
_chemical_formula_structural   LiAlGeO4
_chemical_formula_sum   'Li6 Al6 Ge6 O24'
_cell_volume   522.08197726
_cell_formula_units_Z   6
loop_
 _symmetry_equiv_pos_site_id
 _symmetry_equiv_pos_as_xyz
  1  'x, y, z'
loop_
 _atom_site_type_symbol
 _atom_site_label
 _atom_site_symmetry_multiplicity
 _atom_site_fract_x
 _atom_site_fract_y
 _atom_site_fract_z
 _atom_site_occupancy
  Li  Li0  1  0.75996476  0.92874643  0.53035256  1.0
  Li  Li1  1  0.92874643  1.53035256  -0.24003524  1.0
  Li  Li2  1  1.53035256  0.75996476  -0.07125357  1.0
  Li  Li3  1  1.24003524  0.07125357  -0.53035256  1.0
  Li  Li4  1  1.07125357  -0.53035256  0.24003524  1.0
  Li  Li5  1  0.46964744  0.24003524  0.07125357  1.0
  Al  Al6  1  0.43201483  0.61527184  0.21084011  1.0
  Al  Al7  1  0.61527184  1.21084011  -0.56798517  1.0
  Al  Al8  1  1.21084011  0.43201483  -0.38472816  1.0
  Al  Al9  1  1.56798517  0.38472816  -0.21084011  1.0
  Al  Al10  1  1.38472816  -0.21084011  0.56798517  1.0
  Al  Al11  1  0.78915989  0.56798517  0.38472816  1.0
  Ge  Ge12  1  1.10649789  0.27918542  -0.13319583  1.0
  Ge  Ge13  1  1.27918542  -0.13319583  0.10649789  1.0
  Ge  Ge14  1  0.86680417  0.10649789  0.27918542  1.0
  Ge  Ge15  1  0.89350211  0.72081458  0.13319583  1.0
  Ge  Ge16  1  0.72081458  1.13319583  -0.10649789  1.0
  Ge  Ge17  1  1.13319583  0.89350211  -0.27918542  1.0
  O  O18  1  0.73997350  0.07886623  0.40140361  1.0
  O  O19  1  1.07886623  0.40140361  -0.26002650  1.0
  O  O20  1  1.40140361  -0.26002650  0.07886623  1.0
  O  O21  1  1.26002650  0.92113377  -0.40140361  1.0
  O  O22  1  0.92113377  0.59859639  0.26002650  1.0
  O  O23  1  0.59859639  1.26002650  -0.07886623  1.0
  O  O24  1  1.02566895  0.04412794  -0.28036003  1.0
  O  O25  1  1.04412794  -0.28036003  0.02566895  1.0
  O  O26  1  0.71963997  0.02566895  0.04412794  1.0
  O  O27  1  0.97433105  0.95587206  0.28036003  1.0
  O  O28  1  0.95587206  1.28036003  -0.02566895  1.0
  O  O29  1  1.28036003  0.97433105  -0.04412794  1.0
  O  O30  1  0.66060883  0.68665066  0.34677012  1.0
  O  O31  1  0.68665066  1.34677012  -0.33939117  1.0
  O  O32  1  1.34677012  0.66060883  -0.31334934  1.0
  O  O33  1  1.33939117  0.31334934  -0.34677012  1.0
  O  O34  1  1.31334934  -0.34677012  0.33939117  1.0
  O  O35  1  0.65322988  0.33939117  0.31334934  1.0
  O  O36  1  0.32400939  0.37859185  0.04738300  1.0
  O  O37  1  0.37859185  1.04738300  -0.67599061  1.0
  O  O38  1  1.04738300  0.32400939  -0.62140815  1.0
  O  O39  1  1.67599061  0.62140815  -0.04738300  1.0
  O  O40  1  1.62140815  -0.04738300  0.67599061  1.0
  O  O41  1  0.95261700  0.67599061  0.62140815  1.0
