# generated using pymatgen
data_SrH4O3
_symmetry_space_group_name_H-M   'P 1'
_cell_length_a   3.68381256
_cell_length_b   6.22815786
_cell_length_c   6.75327509
_cell_angle_alpha   90.00000000
_cell_angle_beta   90.00000000
_cell_angle_gamma   90.00000000
_symmetry_Int_Tables_number   1
_chemical_formula_structural   SrH4O3
_chemical_formula_sum   'Sr2 H8 O6'
_cell_volume   154.94286296
_cell_formula_units_Z   2
loop_
 _symmetry_equiv_pos_site_id
 _symmetry_equiv_pos_as_xyz
  1  'x, y, z'
loop_
 _atom_site_type_symbol
 _atom_site_label
 _atom_site_symmetry_multiplicity
 _atom_site_fract_x
 _atom_site_fract_y
 _atom_site_fract_z
 _atom_site_occupancy
  Sr  Sr0  1  0.50000000  0.62690634  0.50921184  1.0
  Sr  Sr1  1  0.50000000  0.37309366  0.00921184  1.0
  H  H2  1  0.70921781  0.88130321  0.09134593  1.0
  H  H3  1  0.70921781  0.11869679  0.59134593  1.0
  H  H4  1  0.29078219  0.88130321  0.09134593  1.0
  H  H5  1  0.29078219  0.11869679  0.59134593  1.0
  H  H6  1  0.00000000  0.96765710  0.36702756  1.0
  H  H7  1  0.00000000  0.03234290  0.86702756  1.0
  H  H8  1  0.00000000  0.70158089  0.85712889  1.0
  H  H9  1  0.00000000  0.29841911  0.35712889  1.0
  O  O10  1  0.50000000  0.78760025  0.13619471  1.0
  O  O11  1  0.50000000  0.21239975  0.63619471  1.0
  O  O12  1  0.00000000  0.93791290  0.50855649  1.0
  O  O13  1  0.00000000  0.06208710  0.00855649  1.0
  O  O14  1  0.00000000  0.56098762  0.79418864  1.0
  O  O15  1  0.00000000  0.43901238  0.29418864  1.0
