# generated using pymatgen
data_K3Na(RuO4)2
_symmetry_space_group_name_H-M   'P 1'
_cell_length_a   6.06187624
_cell_length_b   6.06187624
_cell_length_c   7.76568566
_cell_angle_alpha   90.00000000
_cell_angle_beta   90.00000000
_cell_angle_gamma   120.00000000
_symmetry_Int_Tables_number   1
_chemical_formula_structural   K3Na(RuO4)2
_chemical_formula_sum   'K3 Na1 Ru2 O8'
_cell_volume   247.12948841
_cell_formula_units_Z   1
loop_
 _symmetry_equiv_pos_site_id
 _symmetry_equiv_pos_as_xyz
  1  'x, y, z'
loop_
 _atom_site_type_symbol
 _atom_site_label
 _atom_site_symmetry_multiplicity
 _atom_site_fract_x
 _atom_site_fract_y
 _atom_site_fract_z
 _atom_site_occupancy
  K  K0  1  0.33333333  0.66666667  0.65305625  1.0
  K  K1  1  0.66666667  0.33333333  0.34694375  1.0
  K  K2  1  0.00000000  0.00000000  0.00000000  1.0
  Na  Na3  1  0.00000000  0.00000000  0.50000000  1.0
  Ru  Ru4  1  0.33333333  0.66666667  0.21183354  1.0
  Ru  Ru5  1  0.66666667  0.33333333  0.78816646  1.0
  O  O6  1  0.64756678  0.82378339  0.30314235  1.0
  O  O7  1  0.82378339  0.64756678  0.69685765  1.0
  O  O8  1  0.82378339  0.17621661  0.69685765  1.0
  O  O9  1  0.17621661  0.82378339  0.30314235  1.0
  O  O10  1  0.17621661  0.35243322  0.30314235  1.0
  O  O11  1  0.35243322  0.17621661  0.69685765  1.0
  O  O12  1  0.33333333  0.66666667  0.98556410  1.0
  O  O13  1  0.66666667  0.33333333  0.01443590  1.0
