# generated using pymatgen
data_P4PtF12
_symmetry_space_group_name_H-M   'P 1'
_cell_length_a   7.61412043
_cell_length_b   7.61412043
_cell_length_c   7.61412043
_cell_angle_alpha   109.47122063
_cell_angle_beta   109.47122063
_cell_angle_gamma   109.47122063
_symmetry_Int_Tables_number   1
_chemical_formula_structural   P4PtF12
_chemical_formula_sum   'P4 Pt1 F12'
_cell_volume   339.81092283
_cell_formula_units_Z   1
loop_
 _symmetry_equiv_pos_site_id
 _symmetry_equiv_pos_as_xyz
  1  'x, y, z'
loop_
 _atom_site_type_symbol
 _atom_site_label
 _atom_site_symmetry_multiplicity
 _atom_site_fract_x
 _atom_site_fract_y
 _atom_site_fract_z
 _atom_site_occupancy
  P  P0  1  0.70407485  0.70407485  0.70407485  1.0
  P  P1  1  1.00000000  1.00000000  0.29592515  1.0
  P  P2  1  1.00000000  0.29592515  1.00000000  1.0
  P  P3  1  0.29592515  1.00000000  1.00000000  1.0
  Pt  Pt4  1  0.00000000  0.00000000  0.00000000  1.0
  F  F5  1  0.73027374  0.53746050  0.53746050  1.0
  F  F6  1  0.53746050  0.73027374  0.53746050  1.0
  F  F7  1  0.53746050  0.53746050  0.73027374  1.0
  F  F8  1  1.00000000  1.19281324  0.46253950  1.0
  F  F9  1  1.19281324  1.00000000  0.46253950  1.0
  F  F10  1  0.80718676  0.80718676  0.26972626  1.0
  F  F11  1  1.00000000  0.46253950  1.19281324  1.0
  F  F12  1  0.80718676  0.26972626  0.80718676  1.0
  F  F13  1  1.19281324  0.46253950  1.00000000  1.0
  F  F14  1  0.26972626  0.80718676  0.80718676  1.0
  F  F15  1  0.46253950  1.00000000  1.19281324  1.0
  F  F16  1  0.46253950  1.19281324  1.00000000  1.0
