# generated using pymatgen
data_Gd2B4O9
_symmetry_space_group_name_H-M   'P 1'
_cell_length_a   6.26346162
_cell_length_b   7.56401404
_cell_length_c   6.55271877
_cell_angle_alpha   101.97432069
_cell_angle_beta   102.42521195
_cell_angle_gamma   96.97678571
_symmetry_Int_Tables_number   1
_chemical_formula_structural   Gd2B4O9
_chemical_formula_sum   'Gd4 B8 O18'
_cell_volume   292.06166988
_cell_formula_units_Z   2
loop_
 _symmetry_equiv_pos_site_id
 _symmetry_equiv_pos_as_xyz
  1  'x, y, z'
loop_
 _atom_site_type_symbol
 _atom_site_label
 _atom_site_symmetry_multiplicity
 _atom_site_fract_x
 _atom_site_fract_y
 _atom_site_fract_z
 _atom_site_occupancy
  Gd  Gd0  1  -0.45187193  -0.71510747  -0.40921003  1.0
  Gd  Gd1  1  -0.54812807  -0.28489253  -0.59078997  1.0
  Gd  Gd2  1  -0.11461278  -0.64159151  -0.82314947  1.0
  Gd  Gd3  1  -0.88538722  -0.35840849  -0.17685053  1.0
  B  B4  1  -0.99373250  -0.18777716  -0.64863917  1.0
  B  B5  1  -0.00626750  -0.81222284  -0.35136083  1.0
  B  B6  1  -0.72763316  -0.98190924  -0.83408968  1.0
  B  B7  1  -0.27236684  -0.01809076  -0.16591032  1.0
  B  B8  1  -0.66208985  -0.92428164  -0.17694913  1.0
  B  B9  1  -0.33791015  -0.07571836  -0.82305087  1.0
  B  B10  1  -0.62776277  -0.65349268  -0.85655766  1.0
  B  B11  1  -0.37223723  -0.34650732  -0.14344234  1.0
  O  O12  1  -0.93226653  -0.32154608  -0.54635066  1.0
  O  O13  1  -0.06773347  -0.67845392  -0.45364934  1.0
  O  O14  1  -0.85806541  -0.13979970  -0.77984509  1.0
  O  O15  1  -0.14193459  -0.86020030  -0.22015491  1.0
  O  O16  1  -0.81400657  -0.87902172  -0.36094329  1.0
  O  O17  1  -0.18599343  -0.12097828  -0.63905671  1.0
  O  O18  1  -0.78002729  -0.52539393  -0.90398571  1.0
  O  O19  1  -0.21997271  -0.47460607  -0.09601429  1.0
  O  O20  1  -0.76014555  -0.79209992  -0.76405608  1.0
  O  O21  1  -0.23985445  -0.20790008  -0.23594392  1.0
  O  O22  1  -0.49435701  -0.98479487  -0.71552825  1.0
  O  O23  1  -0.50564299  -0.01520513  -0.28447175  1.0
  O  O24  1  -0.45638061  -0.25233531  -0.96440859  1.0
  O  O25  1  -0.54361939  -0.74766469  -0.03559141  1.0
  O  O26  1  -0.42530745  -0.55847981  -0.68590286  1.0
  O  O27  1  -0.57469255  -0.44152019  -0.31409714  1.0
  O  O28  1  -0.22873010  -0.96085578  -0.93267058  1.0
  O  O29  1  -0.77126990  -0.03914422  -0.06732942  1.0
