# generated using pymatgen
data_Mg3B2P2(H9O10)2
_symmetry_space_group_name_H-M   'P 1'
_cell_length_a   6.36301911
_cell_length_b   9.85604589
_cell_length_c   6.38272440
_cell_angle_alpha   83.78810386
_cell_angle_beta   73.04054410
_cell_angle_gamma   84.70693550
_symmetry_Int_Tables_number   1
_chemical_formula_structural   Mg3B2P2(H9O10)2
_chemical_formula_sum   'Mg3 B2 P2 H18 O20'
_cell_volume   379.85553009
_cell_formula_units_Z   1
loop_
 _symmetry_equiv_pos_site_id
 _symmetry_equiv_pos_as_xyz
  1  'x, y, z'
loop_
 _atom_site_type_symbol
 _atom_site_label
 _atom_site_symmetry_multiplicity
 _atom_site_fract_x
 _atom_site_fract_y
 _atom_site_fract_z
 _atom_site_occupancy
  Mg  Mg0  1  -0.31681316  -0.83540606  -0.83436492  1.0
  Mg  Mg1  1  -0.68318684  -0.16459394  -0.16563508  1.0
  Mg  Mg2  1  -0.00000000  -0.50000000  -0.50000000  1.0
  B  B3  1  -0.76910439  -0.21144048  -0.62757552  1.0
  B  B4  1  -0.23089561  -0.78855952  -0.37242448  1.0
  P  P5  1  -0.85959793  -0.77906950  -0.74060755  1.0
  P  P6  1  -0.14040207  -0.22093050  -0.25939245  1.0
  H  H7  1  -0.86381522  -0.64801006  -0.15174707  1.0
  H  H8  1  -0.13618478  -0.35198994  -0.84825293  1.0
  H  H9  1  -0.85039363  -0.92902458  -0.34149622  1.0
  H  H10  1  -0.14960637  -0.07097542  -0.65850378  1.0
  H  H11  1  -0.83727726  -0.89863781  -0.11057303  1.0
  H  H12  1  -0.16272274  -0.10136219  -0.88942697  1.0
  H  H13  1  -0.70743372  -0.37404897  -0.81434025  1.0
  H  H14  1  -0.29256628  -0.62595103  -0.18565975  1.0
  H  H15  1  -0.68783577  -0.03605268  -0.82254620  1.0
  H  H16  1  -0.31216423  -0.96394732  -0.17745380  1.0
  H  H17  1  -0.65782010  -0.63796749  -0.35795703  1.0
  H  H18  1  -0.34217990  -0.36203251  -0.64204297  1.0
  H  H19  1  -0.55380495  -0.60886606  -0.83260404  1.0
  H  H20  1  -0.44619505  -0.39113394  -0.16739596  1.0
  H  H21  1  -0.51129688  -0.86356232  -0.40407818  1.0
  H  H22  1  -0.48870312  -0.13643768  -0.59592182  1.0
  H  H23  1  -0.32158878  -0.55362431  -0.83947093  1.0
  H  H24  1  -0.67841122  -0.44637569  -0.16052907  1.0
  O  O25  1  -0.72109680  -0.13056873  -0.83860223  1.0
  O  O26  1  -0.27890320  -0.86943127  -0.16139777  1.0
  O  O27  1  -0.99254827  -0.16056756  -0.49121063  1.0
  O  O28  1  -0.00745173  -0.83943244  -0.50878937  1.0
  O  O29  1  -0.98305892  -0.78839242  -0.91618100  1.0
  O  O30  1  -0.01694108  -0.21160758  -0.08381900  1.0
  O  O31  1  -0.82094560  -0.62788212  -0.72537296  1.0
  O  O32  1  -0.17905440  -0.37211788  -0.27462704  1.0
  O  O33  1  -0.78781941  -0.58408973  -0.27624311  1.0
  O  O34  1  -0.21218059  -0.41591027  -0.72375689  1.0
  O  O35  1  -0.77611379  -0.35680600  -0.65850899  1.0
  O  O36  1  -0.22388621  -0.64319400  -0.34149101  1.0
  O  O37  1  -0.75979296  -0.95306052  -0.23792489  1.0
  O  O38  1  -0.24020704  -0.04693948  -0.76207511  1.0
  O  O39  1  -0.64401047  -0.86932397  -0.78680101  1.0
  O  O40  1  -0.35598953  -0.13067603  -0.21319899  1.0
  O  O41  1  -0.38937752  -0.62252522  -0.89617673  1.0
  O  O42  1  -0.61062248  -0.37747478  -0.10382327  1.0
  O  O43  1  -0.39334793  -0.80565138  -0.49388890  1.0
  O  O44  1  -0.60665207  -0.19434862  -0.50611110  1.0
