# generated using pymatgen
data_CeSi2Ru
_symmetry_space_group_name_H-M   'P 1'
_cell_length_a   4.45818328
_cell_length_b   4.09321445
_cell_length_c   8.25141782
_cell_angle_alpha   90.00000000
_cell_angle_beta   102.74378104
_cell_angle_gamma   90.00000000
_symmetry_Int_Tables_number   1
_chemical_formula_structural   CeSi2Ru
_chemical_formula_sum   'Ce2 Si4 Ru2'
_cell_volume   146.86514160
_cell_formula_units_Z   2
loop_
 _symmetry_equiv_pos_site_id
 _symmetry_equiv_pos_as_xyz
  1  'x, y, z'
loop_
 _atom_site_type_symbol
 _atom_site_label
 _atom_site_symmetry_multiplicity
 _atom_site_fract_x
 _atom_site_fract_y
 _atom_site_fract_z
 _atom_site_occupancy
  Ce  Ce0  1  0.59065838  0.25000000  0.19963052  1.0
  Ce  Ce1  1  0.40934162  0.75000000  0.80036948  1.0
  Si  Si2  1  0.96125090  0.25000000  0.91089804  1.0
  Si  Si3  1  0.03874910  0.75000000  0.08910196  1.0
  Si  Si4  1  0.33400142  0.25000000  0.50711834  1.0
  Si  Si5  1  0.66599858  0.75000000  0.49288166  1.0
  Ru  Ru6  1  0.88597417  0.25000000  0.61344573  1.0
  Ru  Ru7  1  0.11402583  0.75000000  0.38655427  1.0
