# generated using pymatgen
data_Li5Br2N
_symmetry_space_group_name_H-M   'P 1'
_cell_length_a   6.92487942
_cell_length_b   6.92487942
_cell_length_c   6.92487942
_cell_angle_alpha   147.28450123
_cell_angle_beta   128.05056728
_cell_angle_gamma   62.75983407
_symmetry_Int_Tables_number   1
_chemical_formula_structural   Li5Br2N
_chemical_formula_sum   'Li5 Br2 N1'
_cell_volume   139.87907061
_cell_formula_units_Z   1
loop_
 _symmetry_equiv_pos_site_id
 _symmetry_equiv_pos_as_xyz
  1  'x, y, z'
loop_
 _atom_site_type_symbol
 _atom_site_label
 _atom_site_symmetry_multiplicity
 _atom_site_fract_x
 _atom_site_fract_y
 _atom_site_fract_z
 _atom_site_occupancy
  Li  Li0  1  0.66540977  0.88122000  0.78418977  1.0
  Li  Li1  1  0.90296978  0.11878000  0.78418977  1.0
  Li  Li2  1  1.09703022  0.88122000  1.21581023  1.0
  Li  Li3  1  0.33459023  0.11878000  0.21581023  1.0
  Li  Li4  1  -0.00000000  0.50000000  0.50000000  1.0
  Br  Br5  1  0.67440509  0.67440509  1.00000000  1.0
  Br  Br6  1  0.32559491  0.32559491  0.00000000  1.0
  N  N7  1  0.00000000  0.00000000  0.00000000  1.0
