# generated using pymatgen
data_La5SiBi2
_symmetry_space_group_name_H-M   'P 1'
_cell_length_a   12.93841400
_cell_length_b   9.64278094
_cell_length_c   8.41148583
_cell_angle_alpha   90.00000000
_cell_angle_beta   90.00000000
_cell_angle_gamma   90.00000000
_symmetry_Int_Tables_number   1
_chemical_formula_structural   La5SiBi2
_chemical_formula_sum   'La20 Si4 Bi8'
_cell_volume   1049.43625065
_cell_formula_units_Z   4
loop_
 _symmetry_equiv_pos_site_id
 _symmetry_equiv_pos_as_xyz
  1  'x, y, z'
loop_
 _atom_site_type_symbol
 _atom_site_label
 _atom_site_symmetry_multiplicity
 _atom_site_fract_x
 _atom_site_fract_y
 _atom_site_fract_z
 _atom_site_occupancy
  La  La0  1  0.93964534  0.95556011  0.18899294  1.0
  La  La1  1  0.93964534  0.54443989  0.18899294  1.0
  La  La2  1  0.43964534  0.95556011  0.31100706  1.0
  La  La3  1  0.43964534  0.54443989  0.31100706  1.0
  La  La4  1  0.06035466  0.45556011  0.81100706  1.0
  La  La5  1  0.06035466  0.04443989  0.81100706  1.0
  La  La6  1  0.56035466  0.45556011  0.68899294  1.0
  La  La7  1  0.56035466  0.04443989  0.68899294  1.0
  La  La8  1  1.00099991  0.25000000  0.46450693  1.0
  La  La9  1  0.50099991  0.25000000  0.03549307  1.0
  La  La10  1  -0.00099991  0.75000000  0.53549307  1.0
  La  La11  1  0.49900009  0.75000000  0.96450693  1.0
  La  La12  1  0.79496080  0.25000000  0.86776216  1.0
  La  La13  1  0.29496080  0.25000000  0.63223784  1.0
  La  La14  1  0.20503920  0.75000000  0.13223784  1.0
  La  La15  1  0.70503920  0.75000000  0.36776216  1.0
  La  La16  1  0.70975315  0.25000000  0.34442172  1.0
  La  La17  1  0.20975315  0.25000000  0.15557828  1.0
  La  La18  1  0.29024685  0.75000000  0.65557828  1.0
  La  La19  1  0.79024685  0.75000000  0.84442172  1.0
  Si  Si20  1  0.98192618  0.25000000  0.07739520  1.0
  Si  Si21  1  0.48192618  0.25000000  0.42260480  1.0
  Si  Si22  1  0.01807382  0.75000000  0.92260480  1.0
  Si  Si23  1  0.51807382  0.75000000  0.57739520  1.0
  Bi  Bi24  1  0.67485820  0.50900908  0.07579930  1.0
  Bi  Bi25  1  0.67485820  -0.00900908  0.07579930  1.0
  Bi  Bi26  1  0.17485820  0.50900908  0.42420070  1.0
  Bi  Bi27  1  0.17485820  -0.00900908  0.42420070  1.0
  Bi  Bi28  1  0.32514180  1.00900908  0.92420070  1.0
  Bi  Bi29  1  0.32514180  0.49099092  0.92420070  1.0
  Bi  Bi30  1  0.82514180  1.00900908  0.57579930  1.0
  Bi  Bi31  1  0.82514180  0.49099092  0.57579930  1.0
