# generated using pymatgen
data_NaCo2As3O10
_symmetry_space_group_name_H-M   'P 1'
_cell_length_a   7.89007628
_cell_length_b   6.90481625
_cell_length_c   8.97161819
_cell_angle_alpha   108.77052558
_cell_angle_beta   108.74939554
_cell_angle_gamma   99.05958743
_symmetry_Int_Tables_number   1
_chemical_formula_structural   NaCo2As3O10
_chemical_formula_sum   'Na2 Co4 As6 O20'
_cell_volume   419.25348665
_cell_formula_units_Z   2
loop_
 _symmetry_equiv_pos_site_id
 _symmetry_equiv_pos_as_xyz
  1  'x, y, z'
loop_
 _atom_site_type_symbol
 _atom_site_label
 _atom_site_symmetry_multiplicity
 _atom_site_fract_x
 _atom_site_fract_y
 _atom_site_fract_z
 _atom_site_occupancy
  Co  Co0  1  -0.65111935  -0.94902034  -0.13176080  1.0
  Co  Co1  1  -0.34888065  -0.05097966  -0.86823920  1.0
  Co  Co2  1  -0.82836628  -0.61065317  -0.93614224  1.0
  Co  Co3  1  -0.17163372  -0.38934683  -0.06385776  1.0
  As  As4  1  -0.92045012  -0.73736876  -0.62514706  1.0
  As  As5  1  -0.07954988  -0.26263124  -0.37485294  1.0
  As  As6  1  -0.37393222  -0.51297204  -0.79345820  1.0
  As  As7  1  -0.62606778  -0.48702796  -0.20654180  1.0
  As  As8  1  -0.73775020  -0.04998318  -0.83565831  1.0
  As  As9  1  -0.26224980  -0.95001682  -0.16434169  1.0
  O  O10  1  -0.76012381  -0.89430287  -0.63612484  1.0
  O  O11  1  -0.23987619  -0.10569713  -0.36387516  1.0
  O  O12  1  -0.12116291  -0.88764088  -0.63672182  1.0
  O  O13  1  -0.87883709  -0.11235912  -0.36327818  1.0
  O  O14  1  -0.92530437  -0.59267162  -0.74847049  1.0
  O  O15  1  -0.07469563  -0.40732838  -0.25152951  1.0
  O  O16  1  -0.79865860  -0.52371055  -0.41407762  1.0
  O  O17  1  -0.20134140  -0.47628945  -0.58592238  1.0
  O  O18  1  -0.28391624  -0.34075614  -0.87320641  1.0
  O  O19  1  -0.71608376  -0.65924386  -0.12679359  1.0
  O  O20  1  -0.39764762  -0.77860174  -0.91809997  1.0
  O  O21  1  -0.60235238  -0.22139826  -0.08190003  1.0
  O  O22  1  -0.88761267  -0.29999013  -0.89595573  1.0
  O  O23  1  -0.11238733  -0.70000987  -0.10404427  1.0
  O  O24  1  -0.80351513  -0.93119344  -0.98252586  1.0
  O  O25  1  -0.19648487  -0.06880656  -0.01747414  1.0
  O  O26  1  -0.49632531  -0.97645697  -0.27001056  1.0
  O  O27  1  -0.50367469  -0.02354303  -0.72998944  1.0
  O  O28  1  -0.56861027  -0.47361433  -0.75472856  1.0
  O  O29  1  -0.43138973  -0.52638567  -0.24527144  1.0
  Na  Na30  1  -0.28317448  -0.76190825  -0.45289108  1.0
  Na  Na31  1  -0.71682552  -0.23809175  -0.54710892  1.0
