# generated using pymatgen
data_GdGePd
_symmetry_space_group_name_H-M   'P 1'
_cell_length_a   21.32636986
_cell_length_b   4.44923057
_cell_length_c   7.63906586
_cell_angle_alpha   90.00000000
_cell_angle_beta   90.00000000
_cell_angle_gamma   90.00000000
_symmetry_Int_Tables_number   1
_chemical_formula_structural   GdGePd
_chemical_formula_sum   'Gd12 Ge12 Pd12'
_cell_volume   724.83991965
_cell_formula_units_Z   12
loop_
 _symmetry_equiv_pos_site_id
 _symmetry_equiv_pos_as_xyz
  1  'x, y, z'
loop_
 _atom_site_type_symbol
 _atom_site_label
 _atom_site_symmetry_multiplicity
 _atom_site_fract_x
 _atom_site_fract_y
 _atom_site_fract_z
 _atom_site_occupancy
  Gd  Gd0  1  0.49899316  0.75000000  0.21516460  1.0
  Gd  Gd1  1  0.99899316  0.75000000  0.28483540  1.0
  Gd  Gd2  1  0.50100684  0.25000000  0.78483540  1.0
  Gd  Gd3  1  0.00100684  0.25000000  0.71516460  1.0
  Gd  Gd4  1  0.33393607  0.75000000  0.29207586  1.0
  Gd  Gd5  1  0.83393607  0.75000000  0.20792414  1.0
  Gd  Gd6  1  0.66606393  0.25000000  0.70792414  1.0
  Gd  Gd7  1  0.16606393  0.25000000  0.79207586  1.0
  Gd  Gd8  1  0.16689738  0.75000000  0.21081040  1.0
  Gd  Gd9  1  0.66689738  0.75000000  0.28918960  1.0
  Gd  Gd10  1  0.83310262  0.25000000  0.78918960  1.0
  Gd  Gd11  1  0.33310262  0.25000000  0.71081040  1.0
  Ge  Ge12  1  0.42759641  0.75000000  0.59095611  1.0
  Ge  Ge13  1  0.92759641  0.75000000  0.90904389  1.0
  Ge  Ge14  1  0.57240359  0.25000000  0.40904389  1.0
  Ge  Ge15  1  0.07240359  0.25000000  0.09095611  1.0
  Ge  Ge16  1  0.23200369  0.75000000  0.58833566  1.0
  Ge  Ge17  1  0.73200369  0.75000000  0.91166434  1.0
  Ge  Ge18  1  0.76799631  0.25000000  0.41166434  1.0
  Ge  Ge19  1  0.26799631  0.25000000  0.08833566  1.0
  Ge  Ge20  1  0.10208517  0.75000000  0.58903006  1.0
  Ge  Ge21  1  0.60208517  0.75000000  0.91096994  1.0
  Ge  Ge22  1  0.89791483  0.25000000  0.41096994  1.0
  Ge  Ge23  1  0.39791483  0.25000000  0.08903006  1.0
  Pd  Pd24  1  0.40629793  0.75000000  0.92190499  1.0
  Pd  Pd25  1  0.90629793  0.75000000  0.57809501  1.0
  Pd  Pd26  1  0.59370207  0.25000000  0.07809501  1.0
  Pd  Pd27  1  0.09370207  0.25000000  0.42190499  1.0
  Pd  Pd28  1  0.26300199  0.75000000  0.91935244  1.0
  Pd  Pd29  1  0.76300199  0.75000000  0.58064756  1.0
  Pd  Pd30  1  0.73699801  0.25000000  0.08064756  1.0
  Pd  Pd31  1  0.23699801  0.25000000  0.41935244  1.0
  Pd  Pd32  1  0.06366223  0.75000000  0.91758468  1.0
  Pd  Pd33  1  0.56366223  0.75000000  0.58241532  1.0
  Pd  Pd34  1  0.93633777  0.25000000  0.08241532  1.0
  Pd  Pd35  1  0.43633777  0.25000000  0.41758468  1.0
