# generated using pymatgen
data_Ge8Pd21
_symmetry_space_group_name_H-M   'P 1'
_cell_length_a   10.64523167
_cell_length_b   10.64523167
_cell_length_c   10.64523167
_cell_angle_alpha   103.11270045
_cell_angle_beta   103.11270045
_cell_angle_gamma   123.11119309
_symmetry_Int_Tables_number   1
_chemical_formula_structural   Ge8Pd21
_chemical_formula_sum   'Ge16 Pd42'
_cell_volume   888.45472347
_cell_formula_units_Z   2
loop_
 _symmetry_equiv_pos_site_id
 _symmetry_equiv_pos_as_xyz
  1  'x, y, z'
loop_
 _atom_site_type_symbol
 _atom_site_label
 _atom_site_symmetry_multiplicity
 _atom_site_fract_x
 _atom_site_fract_y
 _atom_site_fract_z
 _atom_site_occupancy
  Ge  Ge0  1  0.79457821  1.40136124  0.80023061  1.0
  Ge  Ge1  1  0.60113063  0.99434760  1.19976939  1.0
  Ge  Ge2  1  1.15136124  1.85113063  1.10678303  1.0
  Ge  Ge3  1  0.74434760  1.04457821  0.89321697  1.0
  Ge  Ge4  1  0.95542179  0.84863876  1.69976939  1.0
  Ge  Ge5  1  1.14886937  1.25565240  1.30023061  1.0
  Ge  Ge6  1  1.59863876  1.39886937  1.39321697  1.0
  Ge  Ge7  1  1.00565240  1.20542179  1.60678303  1.0
  Ge  Ge8  1  0.21969469  0.69199680  0.71953701  1.0
  Ge  Ge9  1  0.97245979  0.50015768  1.28046299  1.0
  Ge  Ge10  1  0.44199680  1.22245979  0.97230211  1.0
  Ge  Ge11  1  1.25015768  0.46969469  1.02769789  1.0
  Ge  Ge12  1  1.53030531  1.55800320  1.78046299  1.0
  Ge  Ge13  1  0.77754021  0.74984232  0.21953701  1.0
  Ge  Ge14  1  1.30800320  1.02754021  1.52769789  1.0
  Ge  Ge15  1  0.49984232  0.78030531  0.47230211  1.0
  Pd  Pd16  1  0.57801854  1.05379611  0.68965711  1.0
  Pd  Pd17  1  1.36413900  0.88836143  1.31034289  1.0
  Pd  Pd18  1  0.80379611  1.61413900  0.97577757  1.0
  Pd  Pd19  1  1.63836143  0.82801854  1.02422243  1.0
  Pd  Pd20  1  1.17198146  1.19620389  1.81034289  1.0
  Pd  Pd21  1  0.38586100  0.36163857  0.18965711  1.0
  Pd  Pd22  1  0.94620389  0.63586100  1.52422243  1.0
  Pd  Pd23  1  0.11163857  0.42198146  0.47577757  1.0
  Pd  Pd24  1  0.25324872  0.95911933  0.73400948  1.0
  Pd  Pd25  1  1.22510985  0.51923924  1.26599052  1.0
  Pd  Pd26  1  0.70911933  1.47510985  1.20587061  1.0
  Pd  Pd27  1  1.26923924  0.50324872  0.79412939  1.0
  Pd  Pd28  1  1.49675128  1.29088067  1.76599052  1.0
  Pd  Pd29  1  0.52489015  0.73076076  0.23400948  1.0
  Pd  Pd30  1  1.04088067  0.77489015  1.29412939  1.0
  Pd  Pd31  1  0.48076076  0.74675128  0.70587061  1.0
  Pd  Pd32  1  1.03314153  0.95787000  1.51907693  1.0
  Pd  Pd33  1  1.43879307  1.51406460  1.48092307  1.0
  Pd  Pd34  1  1.70787000  1.68879307  1.42472847  1.0
  Pd  Pd35  1  1.26406460  1.28314153  1.57527153  1.0
  Pd  Pd36  1  0.71685847  1.29213000  0.98092307  1.0
  Pd  Pd37  1  0.31120693  0.73593540  1.01907693  1.0
  Pd  Pd38  1  1.04213000  1.56120693  1.07527153  1.0
  Pd  Pd39  1  0.48593540  0.96685847  0.92472847  1.0
  Pd  Pd40  1  1.71120722  1.55486165  1.66207685  1.0
  Pd  Pd41  1  0.89278480  1.04913036  1.33792315  1.0
  Pd  Pd42  1  1.30486165  1.14278480  1.34365444  1.0
  Pd  Pd43  1  0.79913036  0.96120722  1.65634556  1.0
  Pd  Pd44  1  1.03879278  1.69513835  0.83792315  1.0
  Pd  Pd45  1  0.85721520  1.20086964  1.16207685  1.0
  Pd  Pd46  1  0.44513835  1.10721520  1.15634556  1.0
  Pd  Pd47  1  0.95086964  1.28879278  0.84365444  1.0
  Pd  Pd48  1  1.59303743  1.23585470  1.53491242  1.0
  Pd  Pd49  1  0.70094227  1.05812500  0.46508758  1.0
  Pd  Pd50  1  0.98585470  0.95094227  0.14281727  1.0
  Pd  Pd51  1  1.80812500  1.84303743  1.85718273  1.0
  Pd  Pd52  1  0.15696257  1.01414530  0.96508758  1.0
  Pd  Pd53  1  1.04905773  0.19187500  1.03491242  1.0
  Pd  Pd54  1  1.76414530  1.29905773  1.35718273  1.0
  Pd  Pd55  1  0.94187500  1.40696257  0.64281727  1.0
  Pd  Pd56  1  0.25000000  0.75000000  0.50000000  1.0
  Pd  Pd57  1  0.50000000  0.50000000  -0.00000000  1.0
