# generated using pymatgen
data_MgH8(IO5)2
_symmetry_space_group_name_H-M   'P 1'
_cell_length_a   8.37633557
_cell_length_b   6.64403989
_cell_length_c   8.57606404
_cell_angle_alpha   90.00000000
_cell_angle_beta   99.37562450
_cell_angle_gamma   90.00000000
_symmetry_Int_Tables_number   1
_chemical_formula_structural   MgH8(IO5)2
_chemical_formula_sum   'Mg2 H16 I4 O20'
_cell_volume   470.90545128
_cell_formula_units_Z   2
loop_
 _symmetry_equiv_pos_site_id
 _symmetry_equiv_pos_as_xyz
  1  'x, y, z'
loop_
 _atom_site_type_symbol
 _atom_site_label
 _atom_site_symmetry_multiplicity
 _atom_site_fract_x
 _atom_site_fract_y
 _atom_site_fract_z
 _atom_site_occupancy
  Mg  Mg0  1  0.00000000  0.50000000  0.50000000  1.0
  Mg  Mg1  1  0.00000000  0.00000000  0.00000000  1.0
  H  H2  1  0.00665390  0.11923172  0.30909333  1.0
  H  H3  1  0.00665390  0.38076828  0.80909333  1.0
  H  H4  1  0.99334610  0.61923172  0.19090667  1.0
  H  H5  1  0.99334610  0.88076828  0.69090667  1.0
  H  H6  1  0.84390242  1.00173289  0.23993115  1.0
  H  H7  1  0.84390242  0.49826711  0.73993115  1.0
  H  H8  1  0.15609758  0.50173289  0.26006885  1.0
  H  H9  1  0.15609758  -0.00173289  0.76006885  1.0
  H  H10  1  0.73190445  0.38814594  0.28013009  1.0
  H  H11  1  0.73190445  0.11185406  0.78013009  1.0
  H  H12  1  0.26809555  0.88814594  0.21986991  1.0
  H  H13  1  0.26809555  0.61185406  0.71986991  1.0
  H  H14  1  0.72354987  0.28296372  0.44709721  1.0
  H  H15  1  0.72354987  0.21703628  0.94709721  1.0
  H  H16  1  0.27645013  0.78296372  0.05290279  1.0
  H  H17  1  0.27645013  0.71703628  0.55290279  1.0
  I  I18  1  0.66178190  0.82239212  0.47100272  1.0
  I  I19  1  0.66178190  0.67760788  0.97100272  1.0
  I  I20  1  0.33821810  0.32239212  0.02899728  1.0
  I  I21  1  0.33821810  0.17760788  0.52899728  1.0
  O  O22  1  0.93535119  0.07822011  0.20982467  1.0
  O  O23  1  0.93535119  0.42177989  0.70982467  1.0
  O  O24  1  0.06464881  0.57822011  0.29017533  1.0
  O  O25  1  0.06464881  0.92177989  0.79017533  1.0
  O  O26  1  0.88735746  0.71703137  0.02484959  1.0
  O  O27  1  0.88735746  0.78296863  0.52484959  1.0
  O  O28  1  0.11264254  0.21703137  0.47515041  1.0
  O  O29  1  0.11264254  0.28296863  0.97515041  1.0
  O  O30  1  0.76427967  0.40255829  0.39578433  1.0
  O  O31  1  0.76427967  0.09744171  0.89578433  1.0
  O  O32  1  0.23572033  0.90255829  0.10421567  1.0
  O  O33  1  0.23572033  0.59744171  0.60421567  1.0
  O  O34  1  0.65540817  0.41583583  0.06114439  1.0
  O  O35  1  0.65540817  0.08416417  0.56114439  1.0
  O  O36  1  0.34459183  0.91583583  0.43885561  1.0
  O  O37  1  0.34459183  0.58416417  0.93885561  1.0
  O  O38  1  0.34801353  0.38333925  0.24407791  1.0
  O  O39  1  0.34801353  0.11666075  0.74407791  1.0
  O  O40  1  0.65198647  0.88333925  0.25592209  1.0
  O  O41  1  0.65198647  0.61666075  0.75592209  1.0
