# generated using pymatgen
data_Ba(BO2)2
_symmetry_space_group_name_H-M   'P 1'
_cell_length_a   8.50040433
_cell_length_b   8.50040433
_cell_length_c   8.50040433
_cell_angle_alpha   95.99521459
_cell_angle_beta   95.99521459
_cell_angle_gamma   95.99521459
_symmetry_Int_Tables_number   1
_chemical_formula_structural   Ba(BO2)2
_chemical_formula_sum   'Ba6 B12 O24'
_cell_volume   603.36653598
_cell_formula_units_Z   6
loop_
 _symmetry_equiv_pos_site_id
 _symmetry_equiv_pos_as_xyz
  1  'x, y, z'
loop_
 _atom_site_type_symbol
 _atom_site_label
 _atom_site_symmetry_multiplicity
 _atom_site_fract_x
 _atom_site_fract_y
 _atom_site_fract_z
 _atom_site_occupancy
  Ba  Ba0  1  0.73682107  0.02591858  0.37578088  1.0
  Ba  Ba1  1  1.23682107  -0.12421912  0.52591858  1.0
  Ba  Ba2  1  1.52591858  0.23682107  -0.12421912  1.0
  Ba  Ba3  1  1.02591858  0.37578088  -0.26317893  1.0
  Ba  Ba4  1  0.87578088  0.52591858  0.23682107  1.0
  Ba  Ba5  1  1.37578088  -0.26317893  0.02591858  1.0
  B  B6  1  1.04517736  -0.12710430  0.08937054  1.0
  B  B7  1  0.54517736  0.58937054  0.37289570  1.0
  B  B8  1  1.37289570  0.54517736  -0.41062946  1.0
  B  B9  1  0.87289570  0.08937054  0.04517736  1.0
  B  B10  1  0.58937054  1.37289570  -0.45482264  1.0
  B  B11  1  1.08937054  0.04517736  -0.12710430  1.0
  B  B12  1  0.33991659  1.11592424  -0.73686874  1.0
  B  B13  1  0.83991659  0.76313126  0.61592424  1.0
  B  B14  1  1.61592424  0.83991659  -0.23686874  1.0
  B  B15  1  1.11592424  0.26313126  -0.66008341  1.0
  B  B16  1  0.76313126  1.61592424  -0.16008341  1.0
  B  B17  1  0.26313126  0.33991659  0.11592424  1.0
  O  O18  1  1.09277029  -0.24213362  0.17028503  1.0
  O  O19  1  0.59277029  0.67028503  0.25786638  1.0
  O  O20  1  1.25786638  0.59277029  -0.32971497  1.0
  O  O21  1  0.75786638  0.17028503  0.09277029  1.0
  O  O22  1  0.67028503  1.25786638  -0.40722971  1.0
  O  O23  1  1.17028503  0.09277029  -0.24213362  1.0
  O  O24  1  1.21855921  0.14538835  -0.63891450  1.0
  O  O25  1  1.71855921  -0.13891450  0.64538835  1.0
  O  O26  1  1.64538835  0.71855921  -0.13891450  1.0
  O  O27  1  1.14538835  -0.63891450  0.21855921  1.0
  O  O28  1  0.86108550  0.64538835  0.71855921  1.0
  O  O29  1  0.36108550  0.21855921  0.14538835  1.0
  O  O30  1  1.42444440  -0.00480356  0.28321090  1.0
  O  O31  1  0.92444440  0.78321090  0.49519644  1.0
  O  O32  1  1.49519644  0.92444440  -0.21678910  1.0
  O  O33  1  0.99519644  0.28321090  0.42444440  1.0
  O  O34  1  0.78321090  1.49519644  -0.07555560  1.0
  O  O35  1  1.28321090  0.42444440  -0.00480356  1.0
  O  O36  1  0.91771279  0.95908356  0.12516096  1.0
  O  O37  1  1.41771279  -0.37483904  0.45908356  1.0
  O  O38  1  1.45908356  0.41771279  -0.37483904  1.0
  O  O39  1  0.95908356  1.12516096  -0.08228721  1.0
  O  O40  1  0.62516096  0.45908356  0.41771279  1.0
  O  O41  1  1.12516096  0.91771279  -0.04091644  1.0
