# generated using pymatgen
data_Mn(CO)5
_symmetry_space_group_name_H-M   'P 1'
_cell_length_a   9.80932151
_cell_length_b   9.80932151
_cell_length_c   14.84135703
_cell_angle_alpha   56.88992294
_cell_angle_beta   123.11007706
_cell_angle_gamma   135.66540526
_symmetry_Int_Tables_number   1
_chemical_formula_structural   Mn(CO)5
_chemical_formula_sum   'Mn4 C20 O20'
_cell_volume   805.90596190
_cell_formula_units_Z   4
loop_
 _symmetry_equiv_pos_site_id
 _symmetry_equiv_pos_as_xyz
  1  'x, y, z'
loop_
 _atom_site_type_symbol
 _atom_site_label
 _atom_site_symmetry_multiplicity
 _atom_site_fract_x
 _atom_site_fract_y
 _atom_site_fract_z
 _atom_site_occupancy
  Mn  Mn0  1  0.33279572  0.19718020  0.72512075  1.0
  Mn  Mn1  1  0.80281980  0.66720428  0.22512075  1.0
  Mn  Mn2  1  1.19718020  -0.66720428  0.77487925  1.0
  Mn  Mn3  1  1.66720428  -0.19718020  0.27487925  1.0
  C  C4  1  1.46266975  -0.48348402  0.83867232  1.0
  C  C5  1  1.48348402  -0.46266975  0.33867232  1.0
  C  C6  1  0.51651598  0.46266975  0.66132768  1.0
  C  C7  1  0.53733025  0.48348402  0.16132768  1.0
  C  C8  1  0.41330766  0.10599377  0.70110986  1.0
  C  C9  1  0.89400623  -0.41330766  0.20110986  1.0
  C  C10  1  1.10599377  0.41330766  0.79889014  1.0
  C  C11  1  1.58669234  -0.10599377  0.29889014  1.0
  C  C12  1  0.51407164  0.22720903  0.86366053  1.0
  C  C13  1  0.77279097  0.48592836  0.36366053  1.0
  C  C14  1  1.22720903  -0.48592836  0.63633947  1.0
  C  C15  1  1.48592836  -0.22720903  0.13633947  1.0
  C  C16  1  0.13693278  -0.06155168  0.78871342  1.0
  C  C17  1  1.06155168  0.86306722  0.28871342  1.0
  C  C18  1  0.93844832  -0.86306722  0.71128658  1.0
  C  C19  1  1.86306722  0.06155168  0.21128658  1.0
  C  C20  1  0.18694880  0.14283989  0.91058718  1.0
  C  C21  1  0.85716011  0.81305120  0.41058718  1.0
  C  C22  1  1.14283989  -0.81305120  0.58941282  1.0
  C  C23  1  1.81305120  -0.14283989  0.08941282  1.0
  O  O24  1  1.63158034  -0.37393823  0.61813411  1.0
  O  O25  1  1.37393823  -0.63158034  0.11813411  1.0
  O  O26  1  0.62606177  0.63158034  0.88186589  1.0
  O  O27  1  0.36841966  0.37393823  0.38186589  1.0
  O  O28  1  0.81767265  -0.02731861  1.00299183  1.0
  O  O29  1  1.02731861  -0.81767265  0.50299183  1.0
  O  O30  1  0.97268139  0.81767265  0.49700817  1.0
  O  O31  1  1.18232735  0.02731861  -0.00299183  1.0
  O  O32  1  1.77434139  0.01541650  0.67321361  1.0
  O  O33  1  0.98458350  -0.77434139  0.17321361  1.0
  O  O34  1  1.01541650  0.77434139  0.82678639  1.0
  O  O35  1  0.22565861  -0.01541650  0.32678639  1.0
  O  O36  1  0.46591271  0.04635884  0.68683096  1.0
  O  O37  1  0.95364116  -0.46591271  0.18683096  1.0
  O  O38  1  1.04635884  0.46591271  0.81316904  1.0
  O  O39  1  1.53408729  -0.04635884  0.31316904  1.0
  O  O40  1  0.63059262  0.24499169  0.94977227  1.0
  O  O41  1  0.75500831  0.36940738  0.44977227  1.0
  O  O42  1  1.24499169  -0.36940738  0.55022773  1.0
  O  O43  1  1.36940738  -0.24499169  0.05022773  1.0
