# generated using pymatgen
data_Gd5CoSb2
_symmetry_space_group_name_H-M   'P 1'
_cell_length_a   12.24415821
_cell_length_b   8.92052599
_cell_length_c   7.98283350
_cell_angle_alpha   90.00000000
_cell_angle_beta   90.00000000
_cell_angle_gamma   90.00000000
_symmetry_Int_Tables_number   1
_chemical_formula_structural   Gd5CoSb2
_chemical_formula_sum   'Gd20 Co4 Sb8'
_cell_volume   871.91965246
_cell_formula_units_Z   4
loop_
 _symmetry_equiv_pos_site_id
 _symmetry_equiv_pos_as_xyz
  1  'x, y, z'
loop_
 _atom_site_type_symbol
 _atom_site_label
 _atom_site_symmetry_multiplicity
 _atom_site_fract_x
 _atom_site_fract_y
 _atom_site_fract_z
 _atom_site_occupancy
  Gd  Gd0  1  0.93398827  0.96207717  0.18142577  1.0
  Gd  Gd1  1  0.93398827  0.53792283  0.18142577  1.0
  Gd  Gd2  1  0.43398827  0.96207717  0.31857423  1.0
  Gd  Gd3  1  0.43398827  0.53792283  0.31857423  1.0
  Gd  Gd4  1  0.06601173  0.46207717  0.81857423  1.0
  Gd  Gd5  1  0.06601173  0.03792283  0.81857423  1.0
  Gd  Gd6  1  0.56601173  0.46207717  0.68142577  1.0
  Gd  Gd7  1  0.56601173  0.03792283  0.68142577  1.0
  Gd  Gd8  1  0.99782263  0.25000000  0.45009195  1.0
  Gd  Gd9  1  0.49782263  0.25000000  0.04990805  1.0
  Gd  Gd10  1  0.00217737  0.75000000  0.54990805  1.0
  Gd  Gd11  1  0.50217737  0.75000000  0.95009195  1.0
  Gd  Gd12  1  0.80611361  0.25000000  0.88040299  1.0
  Gd  Gd13  1  0.30611361  0.25000000  0.61959701  1.0
  Gd  Gd14  1  0.19388639  0.75000000  0.11959701  1.0
  Gd  Gd15  1  0.69388639  0.75000000  0.38040299  1.0
  Gd  Gd16  1  0.70384420  0.25000000  0.34768631  1.0
  Gd  Gd17  1  0.20384420  0.25000000  0.15231369  1.0
  Gd  Gd18  1  0.29615580  0.75000000  0.65231369  1.0
  Gd  Gd19  1  0.79615580  0.75000000  0.84768631  1.0
  Co  Co20  1  0.98940130  0.25000000  0.07131693  1.0
  Co  Co21  1  0.48940130  0.25000000  0.42868307  1.0
  Co  Co22  1  0.01059870  0.75000000  0.92868307  1.0
  Co  Co23  1  0.51059870  0.75000000  0.57131693  1.0
  Sb  Sb24  1  0.67219284  0.50782544  0.07416495  1.0
  Sb  Sb25  1  0.67219284  0.99217456  0.07416495  1.0
  Sb  Sb26  1  0.17219284  0.50782544  0.42583505  1.0
  Sb  Sb27  1  0.17219284  0.99217456  0.42583505  1.0
  Sb  Sb28  1  0.32780716  0.00782544  0.92583505  1.0
  Sb  Sb29  1  0.32780716  0.49217456  0.92583505  1.0
  Sb  Sb30  1  0.82780716  0.00782544  0.57416495  1.0
  Sb  Sb31  1  0.82780716  0.49217456  0.57416495  1.0
