# generated using pymatgen
data_KI(OF)2
_symmetry_space_group_name_H-M   'P 1'
_cell_length_a   8.43334488
_cell_length_b   6.17664067
_cell_length_c   8.51159906
_cell_angle_alpha   90.00000000
_cell_angle_beta   90.00000000
_cell_angle_gamma   90.00000000
_symmetry_Int_Tables_number   1
_chemical_formula_structural   KI(OF)2
_chemical_formula_sum   'K4 I4 O8 F8'
_cell_volume   443.36699009
_cell_formula_units_Z   4
loop_
 _symmetry_equiv_pos_site_id
 _symmetry_equiv_pos_as_xyz
  1  'x, y, z'
loop_
 _atom_site_type_symbol
 _atom_site_label
 _atom_site_symmetry_multiplicity
 _atom_site_fract_x
 _atom_site_fract_y
 _atom_site_fract_z
 _atom_site_occupancy
  K  K0  1  0.29563051  0.47230890  0.35631789  1.0
  K  K1  1  0.79563051  0.52769110  0.35631789  1.0
  K  K2  1  0.70436949  0.52769110  0.85631789  1.0
  K  K3  1  0.20436949  0.47230890  0.85631789  1.0
  I  I4  1  0.49506047  0.05359066  0.07576718  1.0
  I  I5  1  0.99506047  0.94640934  0.07576718  1.0
  I  I6  1  0.50493953  0.94640934  0.57576718  1.0
  I  I7  1  0.00493953  0.05359066  0.57576718  1.0
  O  O8  1  0.28754737  0.15190176  0.09969642  1.0
  O  O9  1  0.78754737  0.84809824  0.09969642  1.0
  O  O10  1  0.71245263  0.84809824  0.59969642  1.0
  O  O11  1  0.21245263  0.15190176  0.59969642  1.0
  O  O12  1  0.96048628  0.13567124  0.37056856  1.0
  O  O13  1  0.46048628  0.86432876  0.37056856  1.0
  O  O14  1  0.03951372  0.86432876  0.87056856  1.0
  O  O15  1  0.53951372  0.13567124  0.87056856  1.0
  F  F16  1  0.07814290  0.64473312  0.15626413  1.0
  F  F17  1  0.57814290  0.35526688  0.15626413  1.0
  F  F18  1  0.92185710  0.35526688  0.65626413  1.0
  F  F19  1  0.42185710  0.64473312  0.65626413  1.0
  F  F20  1  0.92601794  0.25335605  0.00428582  1.0
  F  F21  1  0.42601794  0.74664395  0.00428582  1.0
  F  F22  1  0.07398206  0.74664395  0.50428582  1.0
  F  F23  1  0.57398206  0.25335605  0.50428582  1.0
