# generated using pymatgen
data_MgV2O4
_symmetry_space_group_name_H-M   'P 1'
_cell_length_a   5.97047638
_cell_length_b   5.97047638
_cell_length_c   5.97047638
_cell_angle_alpha   60.00000000
_cell_angle_beta   60.00000000
_cell_angle_gamma   60.00000000
_symmetry_Int_Tables_number   1
_chemical_formula_structural   MgV2O4
_chemical_formula_sum   'Mg2 V4 O8'
_cell_volume   150.49149460
_cell_formula_units_Z   2
loop_
 _symmetry_equiv_pos_site_id
 _symmetry_equiv_pos_as_xyz
  1  'x, y, z'
loop_
 _atom_site_type_symbol
 _atom_site_label
 _atom_site_symmetry_multiplicity
 _atom_site_fract_x
 _atom_site_fract_y
 _atom_site_fract_z
 _atom_site_occupancy
  Mg  Mg0  1  0.25000000  0.25000000  0.25000000  1.0
  Mg  Mg1  1  0.00000000  0.00000000  0.00000000  1.0
  V  V2  1  -0.37499480  0.62500520  0.62500520  1.0
  V  V3  1  1.12498440  0.62500520  -0.37499480  1.0
  V  V4  1  -0.37499480  0.62500520  1.12498440  1.0
  V  V5  1  0.62500520  1.12498440  -0.37499480  1.0
  O  O6  1  0.86535977  0.86535977  -0.13464023  1.0
  O  O7  1  0.40392069  0.86535977  -0.13464023  1.0
  O  O8  1  0.86535977  0.86535977  -0.59607931  1.0
  O  O9  1  0.86535977  0.40392069  -0.13464023  1.0
  O  O10  1  0.38462928  1.38462928  0.38462928  1.0
  O  O11  1  -0.15388785  0.38462928  0.38462928  1.0
  O  O12  1  0.38462928  1.38462928  -0.15388785  1.0
  O  O13  1  0.38462928  -0.15388785  0.38462928  1.0
