# generated using pymatgen
data_V3Ag2TeS6
_symmetry_space_group_name_H-M   'P 1'
_cell_length_a   5.52777365
_cell_length_b   5.52777365
_cell_length_c   8.11457859
_cell_angle_alpha   90.00000000
_cell_angle_beta   90.00000000
_cell_angle_gamma   120.00000000
_symmetry_Int_Tables_number   1
_chemical_formula_structural   V3Ag2TeS6
_chemical_formula_sum   'V3 Ag2 Te1 S6'
_cell_volume   214.73216644
_cell_formula_units_Z   1
loop_
 _symmetry_equiv_pos_site_id
 _symmetry_equiv_pos_as_xyz
  1  'x, y, z'
loop_
 _atom_site_type_symbol
 _atom_site_label
 _atom_site_symmetry_multiplicity
 _atom_site_fract_x
 _atom_site_fract_y
 _atom_site_fract_z
 _atom_site_occupancy
  V  V0  1  0.65958572  0.65958572  0.50000000  1.0
  V  V1  1  -0.00000000  0.34041428  0.50000000  1.0
  V  V2  1  0.34041428  0.00000000  0.50000000  1.0
  Ag  Ag3  1  0.33333333  0.66666667  0.00000000  1.0
  Ag  Ag4  1  0.66666667  0.33333333  0.00000000  1.0
  Te  Te5  1  0.00000000  0.00000000  0.00000000  1.0
  S  S6  1  0.33333333  0.66666667  0.68194135  1.0
  S  S7  1  0.33333333  0.66666667  0.31805865  1.0
  S  S8  1  0.66666667  0.33333333  0.68194135  1.0
  S  S9  1  0.66666667  0.33333333  0.31805865  1.0
  S  S10  1  0.00000000  0.00000000  0.67234606  1.0
  S  S11  1  0.00000000  0.00000000  0.32765394  1.0
