# generated using pymatgen
data_CdAs2S2(OF3)4
_symmetry_space_group_name_H-M   'P 1'
_cell_length_a   10.54593119
_cell_length_b   9.39837438
_cell_length_c   12.33147130
_cell_angle_alpha   56.13056557
_cell_angle_beta   47.72796176
_cell_angle_gamma   76.14147267
_symmetry_Int_Tables_number   1
_chemical_formula_structural   CdAs2S2(OF3)4
_chemical_formula_sum   'Cd2 As4 S4 O8 F24'
_cell_volume   732.48501660
_cell_formula_units_Z   2
loop_
 _symmetry_equiv_pos_site_id
 _symmetry_equiv_pos_as_xyz
  1  'x, y, z'
loop_
 _atom_site_type_symbol
 _atom_site_label
 _atom_site_symmetry_multiplicity
 _atom_site_fract_x
 _atom_site_fract_y
 _atom_site_fract_z
 _atom_site_occupancy
  Cd  Cd0  1  0.97820594  -0.02179406  0.02179406  1.0
  Cd  Cd1  1  0.22820594  0.22820594  1.27179406  1.0
  As  As2  1  -0.11717420  0.46109367  1.22993171  1.0
  As  As3  1  1.02006829  -0.17614882  0.36717420  1.0
  As  As4  1  1.46109367  -0.11717420  0.42614882  1.0
  As  As5  1  0.82385118  1.02006829  0.78890633  1.0
  S  S6  1  0.38747702  0.50293707  1.29518271  1.0
  S  S7  1  0.95481729  -0.56440320  0.86252298  1.0
  S  S8  1  1.50293707  0.38747702  -0.18559680  1.0
  S  S9  1  0.43559680  -0.04518271  0.74706293  1.0
  O  O10  1  0.28744741  0.38769709  1.48187780  1.0
  O  O11  1  0.76812220  -0.59297771  0.96255259  1.0
  O  O12  1  1.38769709  0.28744741  -0.15702229  1.0
  O  O13  1  0.40702229  -0.23187780  0.86230291  1.0
  O  O14  1  0.36720761  0.44502585  1.21723017  1.0
  O  O15  1  1.03276982  -0.72053636  0.88279239  1.0
  O  O16  1  1.44502585  0.36720761  -0.02946364  1.0
  O  O17  1  0.27946364  1.03276983  0.80497415  1.0
  F  F18  1  -0.28088543  0.44685236  1.43082489  1.0
  F  F19  1  0.81917511  -0.15320818  0.53088543  1.0
  F  F20  1  1.44685236  -0.28088543  0.40320818  1.0
  F  F21  1  0.84679182  -0.18082489  0.80314764  1.0
  F  F22  1  -0.02300538  0.68840317  1.12573941  1.0
  F  F23  1  0.12426059  0.04113719  1.27300538  1.0
  F  F24  1  1.68840317  -0.02300538  0.20886281  1.0
  F  F25  1  0.04113719  0.12426059  1.56159683  1.0
  F  F26  1  0.71823544  1.07839113  0.70706792  1.0
  F  F27  1  0.54293208  -0.24630551  0.53176456  1.0
  F  F28  1  1.07839113  -0.28176456  0.49630551  1.0
  F  F29  1  0.75369449  0.54293208  1.17160887  1.0
  F  F30  1  0.02749326  0.39300674  1.27857754  1.0
  F  F31  1  0.97142246  -0.05092246  0.22250674  1.0
  F  F32  1  0.39300674  0.02749326  1.30092246  1.0
  F  F33  1  0.94907754  -0.02857754  0.85699326  1.0
  F  F34  1  -0.19592481  0.23999145  1.32933650  1.0
  F  F35  1  0.92066350  -0.37659686  0.44592481  1.0
  F  F36  1  1.23999145  -0.19592481  0.62659686  1.0
  F  F37  1  0.62340314  0.92066350  1.01000855  1.0
  F  F38  1  0.06180688  0.48591774  1.02323514  1.0
  F  F39  1  1.22676486  -0.17904024  0.18819312  1.0
  F  F40  1  0.48591774  0.06180688  1.42904024  1.0
  F  F41  1  -0.17904024  0.22676486  1.76408226  1.0
