# generated using pymatgen
data_ZrSn2
_symmetry_space_group_name_H-M   'P 1'
_cell_length_a   8.00694415
_cell_length_b   8.00144626
_cell_length_c   7.29517022
_cell_angle_alpha   62.92786997
_cell_angle_beta   62.85099837
_cell_angle_gamma   54.22113166
_symmetry_Int_Tables_number   1
_chemical_formula_structural   ZrSn2
_chemical_formula_sum   'Zr4 Sn8'
_cell_volume   325.71596511
_cell_formula_units_Z   4
loop_
 _symmetry_equiv_pos_site_id
 _symmetry_equiv_pos_as_xyz
  1  'x, y, z'
loop_
 _atom_site_type_symbol
 _atom_site_label
 _atom_site_symmetry_multiplicity
 _atom_site_fract_x
 _atom_site_fract_y
 _atom_site_fract_z
 _atom_site_occupancy
  Zr  Zr0  1  0.12500000  0.12500000  1.62500000  1.0
  Zr  Zr1  1  0.12500000  0.62500000  1.12500000  1.0
  Zr  Zr2  1  0.12500000  0.12500000  1.12500000  1.0
  Zr  Zr3  1  0.62500000  0.12500000  1.12500000  1.0
  Sn  Sn4  1  -0.18179243  0.44009932  0.37153725  1.0
  Sn  Sn5  1  0.37015587  0.37153725  1.44009932  1.0
  Sn  Sn6  1  -0.19009932  0.43179243  0.87984413  1.0
  Sn  Sn7  1  -0.12153725  0.87984413  0.43179243  1.0
  Sn  Sn8  1  0.37153725  0.37015587  -0.18179243  1.0
  Sn  Sn9  1  0.44009932  -0.18179243  1.37015587  1.0
  Sn  Sn10  1  -0.12015587  0.87846275  0.80990068  1.0
  Sn  Sn11  1  -0.56820757  0.80990068  0.87846275  1.0
