# generated using pymatgen
data_Ni3Sb
_symmetry_space_group_name_H-M   'P 1'
_cell_length_a   4.28836772
_cell_length_b   5.32503568
_cell_length_c   4.55146745
_cell_angle_alpha   90.00000000
_cell_angle_beta   90.00000000
_cell_angle_gamma   90.00000000
_symmetry_Int_Tables_number   1
_chemical_formula_structural   Ni3Sb
_chemical_formula_sum   'Ni6 Sb2'
_cell_volume   103.93599577
_cell_formula_units_Z   2
loop_
 _symmetry_equiv_pos_site_id
 _symmetry_equiv_pos_as_xyz
  1  'x, y, z'
loop_
 _atom_site_type_symbol
 _atom_site_label
 _atom_site_symmetry_multiplicity
 _atom_site_fract_x
 _atom_site_fract_y
 _atom_site_fract_z
 _atom_site_occupancy
  Ni  Ni0  1  0.50000000  0.74948464  0.67098787  1.0
  Ni  Ni1  1  0.50000000  0.25051536  0.67098787  1.0
  Ni  Ni2  1  0.00000000  0.24948464  0.32901213  1.0
  Ni  Ni3  1  0.00000000  0.75051536  0.32901213  1.0
  Ni  Ni4  1  0.50000000  0.50000000  0.18453586  1.0
  Ni  Ni5  1  0.00000000  0.00000000  0.81546414  1.0
  Sb  Sb6  1  0.50000000  0.00000000  0.17685165  1.0
  Sb  Sb7  1  0.00000000  0.50000000  0.82314835  1.0
