# generated using pymatgen
data_KMgAs(H6O5)2
_symmetry_space_group_name_H-M   'P 1'
_cell_length_a   7.27203469
_cell_length_b   6.30789711
_cell_length_c   11.14677305
_cell_angle_alpha   90.00000000
_cell_angle_beta   90.00000000
_cell_angle_gamma   90.00000000
_symmetry_Int_Tables_number   1
_chemical_formula_structural   KMgAs(H6O5)2
_chemical_formula_sum   'K2 Mg2 As2 H24 O20'
_cell_volume   511.31637525
_cell_formula_units_Z   2
loop_
 _symmetry_equiv_pos_site_id
 _symmetry_equiv_pos_as_xyz
  1  'x, y, z'
loop_
 _atom_site_type_symbol
 _atom_site_label
 _atom_site_symmetry_multiplicity
 _atom_site_fract_x
 _atom_site_fract_y
 _atom_site_fract_z
 _atom_site_occupancy
  K  K0  1  0.50000000  0.39595333  0.20474408  1.0
  K  K1  1  0.00000000  0.60404667  0.70474408  1.0
  Mg  Mg2  1  0.00000000  0.64838239  0.38037779  1.0
  Mg  Mg3  1  0.50000000  0.35161761  0.88037779  1.0
  As  As4  1  0.50000000  1.00717450  0.48690858  1.0
  As  As5  1  0.00000000  -0.00717450  -0.01309142  1.0
  H  H6  1  0.11139226  0.99914885  0.50777951  1.0
  H  H7  1  0.88860774  0.99914885  0.50777951  1.0
  H  H8  1  0.38860774  0.00085114  0.00777951  1.0
  H  H9  1  0.61139226  0.00085114  0.00777951  1.0
  H  H10  1  0.89890654  0.31066203  0.23582124  1.0
  H  H11  1  0.10109346  0.31066203  0.23582124  1.0
  H  H12  1  0.60109346  0.68933797  0.73582124  1.0
  H  H13  1  0.39890654  0.68933797  0.73582124  1.0
  H  H14  1  0.31693740  0.84303752  0.29420446  1.0
  H  H15  1  0.68306260  0.84303752  0.29420446  1.0
  H  H16  1  0.18306260  0.15696248  0.79420446  1.0
  H  H17  1  0.81693740  0.15696248  0.79420446  1.0
  H  H18  1  0.19455632  0.79495403  0.17993349  1.0
  H  H19  1  0.80544368  0.79495403  0.17993349  1.0
  H  H20  1  0.30544368  0.20504597  0.67993349  1.0
  H  H21  1  0.69455632  0.20504597  0.67993349  1.0
  H  H22  1  0.31933626  0.61405535  0.50898227  1.0
  H  H23  1  0.68066374  0.61405535  0.50898227  1.0
  H  H24  1  0.18066374  0.38594465  1.00898227  1.0
  H  H25  1  0.81933626  0.38594465  1.00898227  1.0
  H  H26  1  0.24506619  0.37396065  0.50094506  1.0
  H  H27  1  0.75493381  0.37396065  0.50094506  1.0
  H  H28  1  0.25493381  0.62603935  1.00094506  1.0
  H  H29  1  0.74506619  0.62603935  1.00094506  1.0
  O  O30  1  0.50000000  1.00168049  0.33112778  1.0
  O  O31  1  0.00000000  -0.00168049  0.83112778  1.0
  O  O32  1  0.50000000  0.75072372  0.54477691  1.0
  O  O33  1  0.00000000  0.24927628  0.04477691  1.0
  O  O34  1  0.30342164  0.13575041  0.53871932  1.0
  O  O35  1  0.69657836  0.13575041  0.53871932  1.0
  O  O36  1  0.19657836  0.86424959  0.03871932  1.0
  O  O37  1  0.80342164  0.86424959  0.03871932  1.0
  O  O38  1  0.21642805  0.74576046  0.26509900  1.0
  O  O39  1  0.78357195  0.74576046  0.26509900  1.0
  O  O40  1  0.28357195  0.25423954  0.76509900  1.0
  O  O41  1  0.71642805  0.25423954  0.76509900  1.0
  O  O42  1  0.20494676  0.52647127  0.49364040  1.0
  O  O43  1  0.79505324  0.52647127  0.49364040  1.0
  O  O44  1  0.29505324  0.47352873  0.99364040  1.0
  O  O45  1  0.70494676  0.47352873  0.99364040  1.0
  O  O46  1  0.00000000  0.34746674  0.28917687  1.0
  O  O47  1  0.50000000  0.65253326  0.78917687  1.0
  O  O48  1  0.00000000  0.90746505  0.49566052  1.0
  O  O49  1  0.50000000  0.09253495  0.99566052  1.0
