# generated using pymatgen
data_LuNiGe2
_symmetry_space_group_name_H-M   'P 1'
_cell_length_a   8.69968598
_cell_length_b   8.69968598
_cell_length_c   4.16212177
_cell_angle_alpha   90.00000000
_cell_angle_beta   90.00000000
_cell_angle_gamma   153.74388032
_symmetry_Int_Tables_number   1
_chemical_formula_structural   LuNiGe2
_chemical_formula_sum   'Lu2 Ni2 Ge4'
_cell_volume   139.35476380
_cell_formula_units_Z   2
loop_
 _symmetry_equiv_pos_site_id
 _symmetry_equiv_pos_as_xyz
  1  'x, y, z'
loop_
 _atom_site_type_symbol
 _atom_site_label
 _atom_site_symmetry_multiplicity
 _atom_site_fract_x
 _atom_site_fract_y
 _atom_site_fract_z
 _atom_site_occupancy
  Lu  Lu0  1  -0.10704202  0.10704202  0.25000000  1.0
  Lu  Lu1  1  0.10704202  0.89295798  0.75000000  1.0
  Ni  Ni2  1  -0.32569759  0.32569759  0.25000000  1.0
  Ni  Ni3  1  0.32569759  0.67430241  0.75000000  1.0
  Ge  Ge4  1  -0.46038824  0.46038824  0.25000000  1.0
  Ge  Ge5  1  0.46038824  0.53961176  0.75000000  1.0
  Ge  Ge6  1  0.25310479  0.74689521  0.25000000  1.0
  Ge  Ge7  1  -0.25310479  0.25310479  0.75000000  1.0
