# generated using pymatgen
data_KAsF6
_symmetry_space_group_name_H-M   'P 1'
_cell_length_a   7.33545223
_cell_length_b   7.33545223
_cell_length_c   6.85557682
_cell_angle_alpha   90.00000000
_cell_angle_beta   90.00000000
_cell_angle_gamma   120.00000000
_symmetry_Int_Tables_number   1
_chemical_formula_structural   KAsF6
_chemical_formula_sum   'K1 As1 F6'
_cell_volume   319.46877760
_cell_formula_units_Z   1
loop_
 _symmetry_equiv_pos_site_id
 _symmetry_equiv_pos_as_xyz
  1  'x, y, z'
loop_
 _atom_site_type_symbol
 _atom_site_label
 _atom_site_symmetry_multiplicity
 _atom_site_fract_x
 _atom_site_fract_y
 _atom_site_fract_z
 _atom_site_occupancy
  K  K0  1  0.00000000  0.00000000  0.50000000  1.0
  As  As1  1  0.00000000  0.00000000  0.00000000  1.0
  F  F2  1  0.11442052  0.88557948  0.15472066  1.0
  F  F3  1  0.88557948  0.77115896  0.84527934  1.0
  F  F4  1  0.77115896  0.88557948  0.15472066  1.0
  F  F5  1  0.11442052  0.22884104  0.15472066  1.0
  F  F6  1  0.88557948  0.11442052  0.84527934  1.0
  F  F7  1  0.22884104  0.11442052  0.84527934  1.0
