# generated using pymatgen
data_Ca6Si6O19
_symmetry_space_group_name_H-M   'P 1'
_cell_length_a   7.93343206
_cell_length_b   7.93343206
_cell_length_c   16.43972271
_cell_angle_alpha   91.99683106
_cell_angle_beta   88.00316894
_cell_angle_gamma   124.46965113
_symmetry_Int_Tables_number   1
_chemical_formula_structural   Ca6Si6O19
_chemical_formula_sum   'Ca12 Si12 O38'
_cell_volume   852.37647182
_cell_formula_units_Z   2
loop_
 _symmetry_equiv_pos_site_id
 _symmetry_equiv_pos_as_xyz
  1  'x, y, z'
loop_
 _atom_site_type_symbol
 _atom_site_label
 _atom_site_symmetry_multiplicity
 _atom_site_fract_x
 _atom_site_fract_y
 _atom_site_fract_z
 _atom_site_occupancy
  Si  Si0  1  0.47298766  0.21865824  0.39925814  1.0
  Si  Si1  1  0.78134176  0.52701234  0.89925814  1.0
  Si  Si2  1  0.52701234  -0.21865824  0.60074186  1.0
  Si  Si3  1  1.21865824  0.47298766  0.10074186  1.0
  Si  Si4  1  1.03204172  0.78157382  0.40046154  1.0
  Si  Si5  1  0.21842618  -0.03204172  0.90046154  1.0
  Si  Si6  1  0.96795828  0.21842618  0.59953846  1.0
  Si  Si7  1  0.78157382  0.03204172  0.09953846  1.0
  Si  Si8  1  0.61344843  -0.35990448  0.32044750  1.0
  Si  Si9  1  1.35990448  0.38655157  0.82044750  1.0
  Si  Si10  1  0.38655157  0.35990448  0.67955250  1.0
  Si  Si11  1  0.64009552  0.61344843  0.17955250  1.0
  O  O12  1  0.23544622  0.01690696  0.38560788  1.0
  O  O13  1  0.98309304  0.76455378  0.88560788  1.0
  O  O14  1  0.76455378  -0.01690696  0.61439212  1.0
  O  O15  1  1.01690696  0.23544622  0.11439212  1.0
  O  O16  1  1.06386953  0.63171077  0.34196729  1.0
  O  O17  1  0.36828923  -0.06386953  0.84196729  1.0
  O  O18  1  0.93613047  0.36828923  0.65803271  1.0
  O  O19  1  0.63171077  0.06386953  0.15803271  1.0
  O  O20  1  0.61750421  0.18334229  0.33845656  1.0
  O  O21  1  0.81665771  0.38249579  0.83845656  1.0
  O  O22  1  0.38249579  -0.18334229  0.66154344  1.0
  O  O23  1  1.18334229  0.61750421  0.16154344  1.0
  O  O24  1  0.47348550  0.41930385  0.36991018  1.0
  O  O25  1  0.58069615  0.52651450  0.86991018  1.0
  O  O26  1  0.52651450  -0.41930385  0.63008982  1.0
  O  O27  1  1.41930385  0.47348550  0.13008982  1.0
  O  O28  1  0.82942664  0.77886394  0.37276216  1.0
  O  O29  1  0.22113606  0.17057336  0.87276216  1.0
  O  O30  1  1.17057336  0.22113606  0.62723784  1.0
  O  O31  1  0.77886394  -0.17057336  0.12723784  1.0
  O  O32  1  1.01386458  0.73214764  0.49631637  1.0
  O  O33  1  0.26785236  -0.01386458  0.99631637  1.0
  O  O34  1  0.98613542  0.26785236  0.50368363  1.0
  O  O35  1  0.73214764  0.01386458  0.00368363  1.0
  O  O36  1  0.53042763  0.23417099  0.49371645  1.0
  O  O37  1  0.76582901  0.46957237  0.99371645  1.0
  O  O38  1  0.46957237  -0.23417099  0.50628355  1.0
  O  O39  1  1.23417099  0.53042763  0.00628355  1.0
  O  O40  1  0.49739589  -0.24653258  0.33405354  1.0
  O  O41  1  1.24653258  0.50260411  0.83405354  1.0
  O  O42  1  0.50260411  0.24653258  0.66594646  1.0
  O  O43  1  0.75346742  0.49739589  0.16594646  1.0
  O  O44  1  0.07718513  0.07718513  0.25000000  1.0
  O  O45  1  0.92281487  0.92281487  0.75000000  1.0
  O  O46  1  1.03471057  0.22138405  0.31183580  1.0
  O  O47  1  0.77861595  -0.03471057  0.81183580  1.0
  O  O48  1  0.96528943  0.77861595  0.68816420  1.0
  O  O49  1  0.22138405  0.03471057  0.18816420  1.0
  Ca  Ca50  1  0.36178931  -0.11092139  0.25617179  1.0
  Ca  Ca51  1  1.11092139  0.63821069  0.75617179  1.0
  Ca  Ca52  1  0.63821069  0.11092139  0.74382821  1.0
  Ca  Ca53  1  0.88907861  0.36178931  0.24382821  1.0
  Ca  Ca54  1  1.22402796  0.50767792  0.41695172  1.0
  Ca  Ca55  1  0.49232208  -0.22402796  0.91695172  1.0
  Ca  Ca56  1  0.77597204  0.49232208  0.58304828  1.0
  Ca  Ca57  1  0.50767792  0.22402796  0.08304828  1.0
  Ca  Ca58  1  0.73520113  0.02708601  0.41804013  1.0
  Ca  Ca59  1  0.97291399  0.26479887  0.91804013  1.0
  Ca  Ca60  1  0.26479887  -0.02708601  0.58195987  1.0
  Ca  Ca61  1  1.02708601  0.73520113  0.08195987  1.0
