# generated using pymatgen
data_Re8NiMo6
_symmetry_space_group_name_H-M   'P 1'
_cell_length_a   9.58185749
_cell_length_b   9.58185749
_cell_length_c   4.93972156
_cell_angle_alpha   90.00000000
_cell_angle_beta   90.00000000
_cell_angle_gamma   90.00000000
_symmetry_Int_Tables_number   1
_chemical_formula_structural   Re8NiMo6
_chemical_formula_sum   'Re16 Ni2 Mo12'
_cell_volume   453.52568137
_cell_formula_units_Z   2
loop_
 _symmetry_equiv_pos_site_id
 _symmetry_equiv_pos_as_xyz
  1  'x, y, z'
loop_
 _atom_site_type_symbol
 _atom_site_label
 _atom_site_symmetry_multiplicity
 _atom_site_fract_x
 _atom_site_fract_y
 _atom_site_fract_z
 _atom_site_occupancy
  Re  Re0  1  0.36783664  0.96194969  0.50000000  1.0
  Re  Re1  1  0.63216336  0.03805031  0.50000000  1.0
  Re  Re2  1  0.13216336  0.46194969  0.00000000  1.0
  Re  Re3  1  0.86783664  0.53805031  0.00000000  1.0
  Re  Re4  1  0.96194969  0.36783664  0.50000000  1.0
  Re  Re5  1  0.03805031  0.63216336  0.50000000  1.0
  Re  Re6  1  0.46194969  0.13216336  0.00000000  1.0
  Re  Re7  1  0.53805031  0.86783664  0.00000000  1.0
  Re  Re8  1  0.43555024  0.24136117  0.50000000  1.0
  Re  Re9  1  0.56444976  0.75863883  0.50000000  1.0
  Re  Re10  1  0.06444976  0.74136117  0.00000000  1.0
  Re  Re11  1  0.93555024  0.25863883  0.00000000  1.0
  Re  Re12  1  0.24136117  0.43555024  0.50000000  1.0
  Re  Re13  1  0.75863883  0.56444976  0.50000000  1.0
  Re  Re14  1  0.74136117  0.06444976  0.00000000  1.0
  Re  Re15  1  0.25863883  0.93555024  0.00000000  1.0
  Ni  Ni16  1  0.50000000  0.50000000  0.50000000  1.0
  Ni  Ni17  1  0.00000000  0.00000000  0.00000000  1.0
  Mo  Mo18  1  0.10342657  0.89657343  0.50000000  1.0
  Mo  Mo19  1  0.89657343  0.10342657  0.50000000  1.0
  Mo  Mo20  1  0.39657343  0.39657343  0.00000000  1.0
  Mo  Mo21  1  0.60342657  0.60342657  0.00000000  1.0
  Mo  Mo22  1  0.31991590  0.68008410  0.24918747  1.0
  Mo  Mo23  1  0.68008410  0.31991590  0.24918747  1.0
  Mo  Mo24  1  0.18008410  0.18008410  0.74918747  1.0
  Mo  Mo25  1  0.81991590  0.81991590  0.74918747  1.0
  Mo  Mo26  1  0.68008410  0.31991590  0.75081253  1.0
  Mo  Mo27  1  0.31991590  0.68008410  0.75081253  1.0
  Mo  Mo28  1  0.81991590  0.81991590  0.25081253  1.0
  Mo  Mo29  1  0.18008410  0.18008410  0.25081253  1.0
