# generated using pymatgen
data_AuO2F
_symmetry_space_group_name_H-M   'P 1'
_cell_length_a   5.62970209
_cell_length_b   4.30384483
_cell_length_c   5.69387216
_cell_angle_alpha   90.00000000
_cell_angle_beta   105.27113427
_cell_angle_gamma   90.00000000
_symmetry_Int_Tables_number   1
_chemical_formula_structural   AuO2F
_chemical_formula_sum   'Au2 O4 F2'
_cell_volume   133.08760610
_cell_formula_units_Z   2
loop_
 _symmetry_equiv_pos_site_id
 _symmetry_equiv_pos_as_xyz
  1  'x, y, z'
loop_
 _atom_site_type_symbol
 _atom_site_label
 _atom_site_symmetry_multiplicity
 _atom_site_fract_x
 _atom_site_fract_y
 _atom_site_fract_z
 _atom_site_occupancy
  Au  Au0  1  0.77551043  0.41697771  0.77556889  1.0
  Au  Au1  1  0.22448957  0.91697771  0.22443111  1.0
  O  O2  1  0.71150169  0.13515777  0.47978521  1.0
  O  O3  1  0.28849831  0.63515777  0.52021479  1.0
  O  O4  1  0.52385250  0.19866740  0.29207565  1.0
  O  O5  1  0.47614750  0.69866740  0.70792435  1.0
  F  F6  1  0.11085236  0.16721712  0.89266809  1.0
  F  F7  1  0.88914764  0.66721712  0.10733191  1.0
