# generated using pymatgen
data_CsSb(SO4)2
_symmetry_space_group_name_H-M   'P 1'
_cell_length_a   5.32636229
_cell_length_b   9.93354259
_cell_length_c   15.61838450
_cell_angle_alpha   90.00000000
_cell_angle_beta   90.00000000
_cell_angle_gamma   90.00000000
_symmetry_Int_Tables_number   1
_chemical_formula_structural   CsSb(SO4)2
_chemical_formula_sum   'Cs4 Sb4 S8 O32'
_cell_volume   826.36320524
_cell_formula_units_Z   4
loop_
 _symmetry_equiv_pos_site_id
 _symmetry_equiv_pos_as_xyz
  1  'x, y, z'
loop_
 _atom_site_type_symbol
 _atom_site_label
 _atom_site_symmetry_multiplicity
 _atom_site_fract_x
 _atom_site_fract_y
 _atom_site_fract_z
 _atom_site_occupancy
  Cs  Cs0  1  0.24869782  0.83249711  0.23748605  1.0
  Cs  Cs1  1  0.74869782  0.66750289  0.76251395  1.0
  Cs  Cs2  1  0.75130218  0.33249711  0.26251395  1.0
  Cs  Cs3  1  0.25130218  0.16750289  0.73748605  1.0
  Sb  Sb4  1  0.20887019  0.51315614  0.52097689  1.0
  Sb  Sb5  1  0.70887019  0.98684386  0.47902311  1.0
  Sb  Sb6  1  0.79112981  0.01315614  0.97902311  1.0
  Sb  Sb7  1  0.29112981  0.48684386  0.02097689  1.0
  S  S8  1  0.26603250  0.82714806  0.59638409  1.0
  S  S9  1  0.76603250  0.67285194  0.40361591  1.0
  S  S10  1  0.73396750  0.32714806  0.90361591  1.0
  S  S11  1  0.23396750  0.17285194  0.09638409  1.0
  S  S12  1  0.25420372  0.85009714  0.91473065  1.0
  S  S13  1  0.75420372  0.64990286  0.08526935  1.0
  S  S14  1  0.74579628  0.35009714  0.58526935  1.0
  S  S15  1  0.24579628  0.14990286  0.41473065  1.0
  O  O16  1  0.48946061  0.92752129  0.89010263  1.0
  O  O17  1  0.98946061  0.57247871  0.10989737  1.0
  O  O18  1  0.51053939  0.42752129  0.60989737  1.0
  O  O19  1  0.01053939  0.07247871  0.39010263  1.0
  O  O20  1  0.42296074  0.88304223  0.66435618  1.0
  O  O21  1  0.92296074  0.61695777  0.33564382  1.0
  O  O22  1  0.57703926  0.38304223  0.83564382  1.0
  O  O23  1  0.07703926  0.11695777  0.16435618  1.0
  O  O24  1  0.37090815  0.85683174  0.50820405  1.0
  O  O25  1  0.87090815  0.64316826  0.49179595  1.0
  O  O26  1  0.62909185  0.35683174  0.99179595  1.0
  O  O27  1  0.12909185  0.14316826  0.00820405  1.0
  O  O28  1  0.28116903  0.67033846  0.60687391  1.0
  O  O29  1  0.78116903  0.82966154  0.39312609  1.0
  O  O30  1  0.71883097  0.17033846  0.89312609  1.0
  O  O31  1  0.21883097  0.32966154  0.10687391  1.0
  O  O32  1  0.24563155  0.72318331  0.86734685  1.0
  O  O33  1  0.74563155  0.77681669  0.13265315  1.0
  O  O34  1  0.75436845  0.22318331  0.63265315  1.0
  O  O35  1  0.25436845  0.27681669  0.36734685  1.0
  O  O36  1  0.22580026  0.83902634  0.00813530  1.0
  O  O37  1  0.72580026  0.66097366  0.99186470  1.0
  O  O38  1  0.77419974  0.33902634  0.49186470  1.0
  O  O39  1  0.27419974  0.16097366  0.50813530  1.0
  O  O40  1  0.02994185  0.93966424  0.88124365  1.0
  O  O41  1  0.52994185  0.56033576  0.11875635  1.0
  O  O42  1  0.97005815  0.43966424  0.61875635  1.0
  O  O43  1  0.47005815  0.06033576  0.38124365  1.0
  O  O44  1  0.00138909  0.86913068  0.60087870  1.0
  O  O45  1  0.50138909  0.63086932  0.39912130  1.0
  O  O46  1  0.99861091  0.36913068  0.89912130  1.0
  O  O47  1  0.49861091  0.13086932  0.10087870  1.0
