# generated using pymatgen
data_Ca4Rh6Pb19
_symmetry_space_group_name_H-M   'P 1'
_cell_length_a   10.31153297
_cell_length_b   10.31153297
_cell_length_c   10.31153297
_cell_angle_alpha   109.47122063
_cell_angle_beta   109.47122063
_cell_angle_gamma   109.47122063
_symmetry_Int_Tables_number   1
_chemical_formula_structural   Ca4Rh6Pb19
_chemical_formula_sum   'Ca4 Rh6 Pb19'
_cell_volume   844.01043012
_cell_formula_units_Z   1
loop_
 _symmetry_equiv_pos_site_id
 _symmetry_equiv_pos_as_xyz
  1  'x, y, z'
loop_
 _atom_site_type_symbol
 _atom_site_label
 _atom_site_symmetry_multiplicity
 _atom_site_fract_x
 _atom_site_fract_y
 _atom_site_fract_z
 _atom_site_occupancy
  Ca  Ca0  1  0.66209515  0.66209515  0.66209515  1.0
  Ca  Ca1  1  1.00000000  1.00000000  0.33790485  1.0
  Ca  Ca2  1  1.00000000  0.33790485  1.00000000  1.0
  Ca  Ca3  1  0.33790485  1.00000000  1.00000000  1.0
  Rh  Rh4  1  0.38166754  0.88166754  0.50000000  1.0
  Rh  Rh5  1  0.50000000  0.38166754  0.88166754  1.0
  Rh  Rh6  1  0.50000000  0.61833246  0.11833246  1.0
  Rh  Rh7  1  0.88166754  0.50000000  0.38166754  1.0
  Rh  Rh8  1  0.11833246  0.50000000  0.61833246  1.0
  Rh  Rh9  1  0.61833246  0.11833246  0.50000000  1.0
  Pb  Pb10  1  0.38459069  0.61131576  0.33304232  1.0
  Pb  Pb11  1  1.27827344  1.05154837  0.66695768  1.0
  Pb  Pb12  1  0.33304232  0.38459069  0.61131576  1.0
  Pb  Pb13  1  0.77327493  0.72172656  0.38868424  1.0
  Pb  Pb14  1  0.61131576  0.33304232  0.38459069  1.0
  Pb  Pb15  1  0.94845163  1.22672507  1.61540931  1.0
  Pb  Pb16  1  0.72172656  0.38868424  0.77327493  1.0
  Pb  Pb17  1  1.61540931  0.94845163  1.22672507  1.0
  Pb  Pb18  1  1.22672507  1.61540931  0.94845163  1.0
  Pb  Pb19  1  0.66695768  1.27827344  1.05154837  1.0
  Pb  Pb20  1  1.05154837  0.66695768  1.27827344  1.0
  Pb  Pb21  1  0.38868424  0.77327493  0.72172656  1.0
  Pb  Pb22  1  0.69576390  0.69576390  -0.00000000  1.0
  Pb  Pb23  1  -0.00000000  0.69576390  0.69576390  1.0
  Pb  Pb24  1  0.00000000  0.30423610  0.30423610  1.0
  Pb  Pb25  1  0.69576390  0.00000000  0.69576390  1.0
  Pb  Pb26  1  0.30423610  0.00000000  0.30423610  1.0
  Pb  Pb27  1  0.30423610  0.30423610  0.00000000  1.0
  Pb  Pb28  1  -0.00000000  -0.00000000  -0.00000000  1.0
