# generated using pymatgen
data_Li2TiO3
_symmetry_space_group_name_H-M   'P 1'
_cell_length_a   5.09792125
_cell_length_b   5.09792125
_cell_length_c   9.78912086
_cell_angle_alpha   84.89650286
_cell_angle_beta   95.10349714
_cell_angle_gamma   59.87516226
_symmetry_Int_Tables_number   1
_chemical_formula_structural   Li2TiO3
_chemical_formula_sum   'Li8 Ti4 O12'
_cell_volume   216.52184680
_cell_formula_units_Z   4
loop_
 _symmetry_equiv_pos_site_id
 _symmetry_equiv_pos_as_xyz
  1  'x, y, z'
loop_
 _atom_site_type_symbol
 _atom_site_label
 _atom_site_symmetry_multiplicity
 _atom_site_fract_x
 _atom_site_fract_y
 _atom_site_fract_z
 _atom_site_occupancy
  Li  Li0  1  0.66037834  0.17962416  0.99941506  1.0
  Li  Li1  1  0.82037584  -0.66037834  0.49941506  1.0
  Li  Li2  1  1.17962416  -0.33962166  0.50058494  1.0
  Li  Li3  1  0.33962166  -0.17962416  0.00058494  1.0
  Li  Li4  1  0.58427587  -0.41572413  0.75000000  1.0
  Li  Li5  1  0.41572413  0.41572413  0.25000000  1.0
  Li  Li6  1  0.50000000  -0.00000000  0.50000000  1.0
  Li  Li7  1  1.00000000  -0.50000000  0.00000000  1.0
  Ti  Ti8  1  0.91738517  -0.08261483  0.75000000  1.0
  Ti  Ti9  1  0.08261483  0.08261483  0.25000000  1.0
  Ti  Ti10  1  0.24959078  0.24959078  0.75000000  1.0
  Ti  Ti11  1  0.75040922  -0.24959078  0.25000000  1.0
  O  O12  1  0.81074704  0.02057629  0.36312037  1.0
  O  O13  1  0.97942371  -0.81074704  0.86312037  1.0
  O  O14  1  1.02057629  -0.18925296  0.13687963  1.0
  O  O15  1  0.18925296  -0.02057629  0.63687963  1.0
  O  O16  1  0.62299953  -0.09596613  0.86319540  1.0
  O  O17  1  1.09596613  -0.62299953  0.36319540  1.0
  O  O18  1  0.90403387  -0.37700047  0.63680460  1.0
  O  O19  1  0.37700047  0.09596613  0.13680460  1.0
  O  O20  1  0.54490507  0.26651615  0.63413978  1.0
  O  O21  1  0.73348385  -0.54490507  0.13413978  1.0
  O  O22  1  1.26651615  -0.45509493  0.86586022  1.0
  O  O23  1  0.45509493  -0.26651615  0.36586022  1.0
