# generated using pymatgen
data_Ni3C
_symmetry_space_group_name_H-M   'P 1'
_cell_length_a   5.07472232
_cell_length_b   5.07472232
_cell_length_c   5.07472232
_cell_angle_alpha   53.82292404
_cell_angle_beta   53.82292404
_cell_angle_gamma   53.82292404
_symmetry_Int_Tables_number   1
_chemical_formula_structural   Ni3C
_chemical_formula_sum   'Ni6 C2'
_cell_volume   79.06889361
_cell_formula_units_Z   2
loop_
 _symmetry_equiv_pos_site_id
 _symmetry_equiv_pos_as_xyz
  1  'x, y, z'
loop_
 _atom_site_type_symbol
 _atom_site_label
 _atom_site_symmetry_multiplicity
 _atom_site_fract_x
 _atom_site_fract_y
 _atom_site_fract_z
 _atom_site_occupancy
  Ni  Ni0  1  1.42103395  -0.25000000  0.07896605  1.0
  Ni  Ni1  1  0.92103395  -0.42103395  0.25000000  1.0
  Ni  Ni2  1  0.25000000  0.92103395  -0.42103395  1.0
  Ni  Ni3  1  0.75000000  0.07896605  0.42103395  1.0
  Ni  Ni4  1  0.57896605  0.25000000  -0.07896605  1.0
  Ni  Ni5  1  1.07896605  0.42103395  -0.25000000  1.0
  C  C6  1  1.00000000  0.00000000  0.00000000  1.0
  C  C7  1  0.50000000  0.50000000  0.50000000  1.0
