# generated using pymatgen
data_La2MgTiO6
_symmetry_space_group_name_H-M   'P 1'
_cell_length_a   5.59153914
_cell_length_b   5.64342312
_cell_length_c   9.70624870
_cell_angle_alpha   90.00000000
_cell_angle_beta   125.29373645
_cell_angle_gamma   90.00000000
_symmetry_Int_Tables_number   1
_chemical_formula_structural   La2MgTiO6
_chemical_formula_sum   'La4 Mg2 Ti2 O12'
_cell_volume   249.98985851
_cell_formula_units_Z   2
loop_
 _symmetry_equiv_pos_site_id
 _symmetry_equiv_pos_as_xyz
  1  'x, y, z'
loop_
 _atom_site_type_symbol
 _atom_site_label
 _atom_site_symmetry_multiplicity
 _atom_site_fract_x
 _atom_site_fract_y
 _atom_site_fract_z
 _atom_site_occupancy
  La  La0  1  0.74165555  0.03757308  0.24943818  1.0
  La  La1  1  0.74165555  0.46242692  0.74943818  1.0
  La  La2  1  0.25834445  0.53757308  0.25056182  1.0
  La  La3  1  0.25834445  0.96242692  0.75056182  1.0
  Mg  Mg4  1  0.50000000  0.50000000  -0.00000000  1.0
  Mg  Mg5  1  0.50000000  0.00000000  0.50000000  1.0
  Ti  Ti6  1  -0.00000000  0.50000000  0.50000000  1.0
  Ti  Ti7  1  0.00000000  0.00000000  0.00000000  1.0
  O  O8  1  0.83865110  0.47892738  0.25751417  1.0
  O  O9  1  0.83865110  0.02107262  0.75751417  1.0
  O  O10  1  0.16134890  0.97892738  0.24248583  1.0
  O  O11  1  0.16134890  0.52107262  0.74248583  1.0
  O  O12  1  0.75146748  0.78169975  0.45557001  1.0
  O  O13  1  0.75146748  0.71830025  0.95557001  1.0
  O  O14  1  0.24853252  0.28169975  0.04442999  1.0
  O  O15  1  0.24853252  0.21830025  0.54442999  1.0
  O  O16  1  0.67830782  0.29549780  0.45797988  1.0
  O  O17  1  0.67830782  0.20450220  0.95797988  1.0
  O  O18  1  0.32169218  0.79549780  0.04202012  1.0
  O  O19  1  0.32169218  0.70450220  0.54202012  1.0
