# generated using pymatgen
data_Cs2LiPO4
_symmetry_space_group_name_H-M   'P 1'
_cell_length_a   6.82508210
_cell_length_b   6.82508210
_cell_length_c   8.18920563
_cell_angle_alpha   90.00000000
_cell_angle_beta   90.00000000
_cell_angle_gamma   128.85479954
_symmetry_Int_Tables_number   1
_chemical_formula_structural   Cs2LiPO4
_chemical_formula_sum   'Cs4 Li2 P2 O8'
_cell_volume   297.06334922
_cell_formula_units_Z   2
loop_
 _symmetry_equiv_pos_site_id
 _symmetry_equiv_pos_as_xyz
  1  'x, y, z'
loop_
 _atom_site_type_symbol
 _atom_site_label
 _atom_site_symmetry_multiplicity
 _atom_site_fract_x
 _atom_site_fract_y
 _atom_site_fract_z
 _atom_site_occupancy
  Cs  Cs0  1  -0.42061305  0.42061305  0.38708134  1.0
  Cs  Cs1  1  0.42061305  0.57938695  0.88708134  1.0
  Cs  Cs2  1  -0.10433124  0.10433124  0.25335246  1.0
  Cs  Cs3  1  0.10433124  0.89566876  0.75335246  1.0
  Li  Li4  1  0.28925393  0.71074607  0.47688152  1.0
  Li  Li5  1  -0.28925393  0.28925393  0.97688152  1.0
  P  P6  1  -0.20645882  0.20645882  0.69175423  1.0
  P  P7  1  0.20645882  0.79354118  0.19175423  1.0
  O  O8  1  0.60371731  0.95990422  0.59144767  1.0
  O  O9  1  0.04009578  0.39628269  0.59144767  1.0
  O  O10  1  0.39628269  1.04009578  0.09144767  1.0
  O  O11  1  -0.04009578  0.60371731  0.09144767  1.0
  O  O12  1  -0.33078963  0.33078963  0.73863812  1.0
  O  O13  1  0.33078963  0.66921037  0.23863812  1.0
  O  O14  1  -0.14239739  0.14239739  0.85813699  1.0
  O  O15  1  0.14239739  0.85760261  0.35813699  1.0
