# generated using pymatgen
data_Ba3LuRu2O9
_symmetry_space_group_name_H-M   'P 1'
_cell_length_a   5.91313396
_cell_length_b   5.91313396
_cell_length_c   14.44444900
_cell_angle_alpha   90.00000000
_cell_angle_beta   90.00000000
_cell_angle_gamma   120.00000000
_symmetry_Int_Tables_number   1
_chemical_formula_structural   Ba3LuRu2O9
_chemical_formula_sum   'Ba6 Lu2 Ru4 O18'
_cell_volume   437.38818452
_cell_formula_units_Z   2
loop_
 _symmetry_equiv_pos_site_id
 _symmetry_equiv_pos_as_xyz
  1  'x, y, z'
loop_
 _atom_site_type_symbol
 _atom_site_label
 _atom_site_symmetry_multiplicity
 _atom_site_fract_x
 _atom_site_fract_y
 _atom_site_fract_z
 _atom_site_occupancy
  Ba  Ba0  1  0.33333333  0.66666667  0.40689560  1.0
  Ba  Ba1  1  0.33333333  0.66666667  0.09310440  1.0
  Ba  Ba2  1  0.66666667  0.33333333  0.90689560  1.0
  Ba  Ba3  1  0.66666667  0.33333333  0.59310440  1.0
  Ba  Ba4  1  0.00000000  0.00000000  0.25000000  1.0
  Ba  Ba5  1  0.00000000  0.00000000  0.75000000  1.0
  Lu  Lu6  1  0.00000000  0.00000000  0.50000000  1.0
  Lu  Lu7  1  0.00000000  0.00000000  0.00000000  1.0
  Ru  Ru8  1  0.33333333  0.66666667  0.83614691  1.0
  Ru  Ru9  1  0.33333333  0.66666667  0.66385309  1.0
  Ru  Ru10  1  0.66666667  0.33333333  0.33614691  1.0
  Ru  Ru11  1  0.66666667  0.33333333  0.16385309  1.0
  O  O12  1  0.17507961  0.82492039  0.91286462  1.0
  O  O13  1  0.17507961  0.82492039  0.58713538  1.0
  O  O14  1  0.17507961  0.35015922  0.91286462  1.0
  O  O15  1  0.17507961  0.35015922  0.58713538  1.0
  O  O16  1  0.82492039  0.17507961  0.41286462  1.0
  O  O17  1  0.82492039  0.17507961  0.08713538  1.0
  O  O18  1  0.82492039  0.64984078  0.41286462  1.0
  O  O19  1  0.82492039  0.64984078  0.08713538  1.0
  O  O20  1  0.64984078  0.82492039  0.91286462  1.0
  O  O21  1  0.64984078  0.82492039  0.58713538  1.0
  O  O22  1  0.35015922  0.17507961  0.41286462  1.0
  O  O23  1  0.35015922  0.17507961  0.08713538  1.0
  O  O24  1  0.50987812  0.49012188  0.25000000  1.0
  O  O25  1  0.50987812  0.01975624  0.25000000  1.0
  O  O26  1  0.49012188  0.50987812  0.75000000  1.0
  O  O27  1  0.49012188  0.98024376  0.75000000  1.0
  O  O28  1  0.98024376  0.49012188  0.25000000  1.0
  O  O29  1  0.01975624  0.50987812  0.75000000  1.0
