# generated using pymatgen
data_LiV3O8
_symmetry_space_group_name_H-M   'P 1'
_cell_length_a   6.87298565
_cell_length_b   3.57500999
_cell_length_c   11.88940077
_cell_angle_alpha   90.00000000
_cell_angle_beta   104.77643178
_cell_angle_gamma   90.00000000
_symmetry_Int_Tables_number   1
_chemical_formula_structural   LiV3O8
_chemical_formula_sum   'Li2 V6 O16'
_cell_volume   282.47301938
_cell_formula_units_Z   2
loop_
 _symmetry_equiv_pos_site_id
 _symmetry_equiv_pos_as_xyz
  1  'x, y, z'
loop_
 _atom_site_type_symbol
 _atom_site_label
 _atom_site_symmetry_multiplicity
 _atom_site_fract_x
 _atom_site_fract_y
 _atom_site_fract_z
 _atom_site_occupancy
  Li  Li0  1  0.32038323  0.25000000  0.81738693  1.0
  Li  Li1  1  0.67961677  0.75000000  0.18261307  1.0
  V  V2  1  0.80680337  0.25000000  0.96223590  1.0
  V  V3  1  0.19319663  0.75000000  0.03776410  1.0
  V  V4  1  0.77114261  0.25000000  0.69121258  1.0
  V  V5  1  0.22885739  0.75000000  0.30878742  1.0
  V  V6  1  0.62461555  0.25000000  0.41810577  1.0
  V  V7  1  0.37538445  0.75000000  0.58189423  1.0
  O  O8  1  -0.00348718  0.25000000  0.77324312  1.0
  O  O9  1  0.00348718  0.75000000  0.22675688  1.0
  O  O10  1  0.82289472  0.25000000  0.54595030  1.0
  O  O11  1  0.17710528  0.75000000  0.45404970  1.0
  O  O12  1  0.72519879  0.25000000  0.30937173  1.0
  O  O13  1  0.27480121  0.75000000  0.69062827  1.0
  O  O14  1  0.68110977  0.25000000  0.06082458  1.0
  O  O15  1  0.31889023  0.75000000  0.93917542  1.0
  O  O16  1  0.63507863  0.25000000  0.82737511  1.0
  O  O17  1  0.36492137  0.75000000  0.17262489  1.0
  O  O18  1  0.45023959  0.25000000  0.57224591  1.0
  O  O19  1  0.54976041  0.75000000  0.42775409  1.0
  O  O20  1  0.31574628  0.25000000  0.32493721  1.0
  O  O21  1  0.68425372  0.75000000  0.67506279  1.0
  O  O22  1  0.10488871  0.25000000  0.03979922  1.0
  O  O23  1  0.89511129  0.75000000  0.96020078  1.0
