# generated using pymatgen
data_BaBe2Si2O7
_symmetry_space_group_name_H-M   'P 1'
_cell_length_a   9.91379909
_cell_length_b   4.73243559
_cell_length_c   11.84380215
_cell_angle_alpha   90.00000000
_cell_angle_beta   90.00000000
_cell_angle_gamma   90.00000000
_symmetry_Int_Tables_number   1
_chemical_formula_structural   BaBe2Si2O7
_chemical_formula_sum   'Ba4 Be8 Si8 O28'
_cell_volume   555.66874477
_cell_formula_units_Z   4
loop_
 _symmetry_equiv_pos_site_id
 _symmetry_equiv_pos_as_xyz
  1  'x, y, z'
loop_
 _atom_site_type_symbol
 _atom_site_label
 _atom_site_symmetry_multiplicity
 _atom_site_fract_x
 _atom_site_fract_y
 _atom_site_fract_z
 _atom_site_occupancy
  Ba  Ba0  1  0.34817642  0.74808676  0.75096085  1.0
  Ba  Ba1  1  0.84817642  0.75191324  0.75096085  1.0
  Ba  Ba2  1  0.65182358  0.25191324  0.25096085  1.0
  Ba  Ba3  1  0.15182358  0.24808676  0.25096085  1.0
  Be  Be4  1  0.33705981  1.29500373  0.00038118  1.0
  Be  Be5  1  0.83705981  0.20499627  0.00038118  1.0
  Be  Be6  1  0.66294019  -0.29500373  0.50038118  1.0
  Be  Be7  1  0.16294019  0.79500373  0.50038118  1.0
  Be  Be8  1  0.16298328  0.79499580  0.00145448  1.0
  Be  Be9  1  0.66298328  0.70500420  0.00145448  1.0
  Be  Be10  1  0.83701672  0.20500420  0.50145448  1.0
  Be  Be11  1  0.33701672  0.29499580  0.50145448  1.0
  Si  Si12  1  0.41117392  0.79769636  0.37917138  1.0
  Si  Si13  1  0.91117392  0.70230364  0.37917138  1.0
  Si  Si14  1  0.58882608  0.20230364  0.87917138  1.0
  Si  Si15  1  0.08882608  0.29769636  0.87917138  1.0
  Si  Si16  1  0.41121181  0.79770621  0.12265499  1.0
  Si  Si17  1  0.91121181  0.70229379  0.12265499  1.0
  Si  Si18  1  0.58878819  0.20229379  0.62265499  1.0
  Si  Si19  1  0.08878819  0.29770621  0.62265499  1.0
  O  O20  1  0.38995355  0.13845237  0.38850039  1.0
  O  O21  1  0.88995355  0.36154763  0.38850039  1.0
  O  O22  1  0.61004645  0.86154763  0.88850039  1.0
  O  O23  1  0.11004645  0.63845237  0.88850039  1.0
  O  O24  1  0.38999390  0.13846065  0.11332880  1.0
  O  O25  1  0.88999390  0.36153935  0.11332880  1.0
  O  O26  1  0.61000610  0.86153935  0.61332880  1.0
  O  O27  1  0.11000610  0.63846065  0.61332880  1.0
  O  O28  1  0.35571523  0.70241691  0.25090759  1.0
  O  O29  1  0.85571523  0.79758309  0.25090759  1.0
  O  O30  1  0.64428477  0.29758309  0.75090759  1.0
  O  O31  1  0.14428477  0.20241691  0.75090759  1.0
  O  O32  1  0.31102482  0.63710020  0.03175113  1.0
  O  O33  1  0.81102482  0.86289980  0.03175113  1.0
  O  O34  1  0.68897518  0.36289980  0.53175113  1.0
  O  O35  1  0.18897518  0.13710020  0.53175113  1.0
  O  O36  1  0.31097676  0.63706907  0.47005631  1.0
  O  O37  1  0.81097676  0.86293093  0.47005631  1.0
  O  O38  1  0.68902324  0.36293093  0.97005631  1.0
  O  O39  1  0.18902324  0.13706907  0.97005631  1.0
  O  O40  1  0.06978309  0.78473795  0.38756264  1.0
  O  O41  1  0.56978309  0.71526205  0.38756264  1.0
  O  O42  1  0.93021691  0.21526205  0.88756264  1.0
  O  O43  1  0.43021691  0.28473795  0.88756264  1.0
  O  O44  1  0.06982726  0.78469435  0.11427026  1.0
  O  O45  1  0.56982726  0.71530565  0.11427026  1.0
  O  O46  1  0.93017274  0.21530565  0.61427026  1.0
  O  O47  1  0.43017274  0.28469435  0.61427026  1.0
