# generated using pymatgen
data_ScB2C
_symmetry_space_group_name_H-M   'P 1'
_cell_length_a   6.64027050
_cell_length_b   6.64027050
_cell_length_c   6.78562152
_cell_angle_alpha   90.00000000
_cell_angle_beta   90.00000000
_cell_angle_gamma   90.00000000
_symmetry_Int_Tables_number   1
_chemical_formula_structural   ScB2C
_chemical_formula_sum   'Sc8 B16 C8'
_cell_volume   299.19971437
_cell_formula_units_Z   8
loop_
 _symmetry_equiv_pos_site_id
 _symmetry_equiv_pos_as_xyz
  1  'x, y, z'
loop_
 _atom_site_type_symbol
 _atom_site_label
 _atom_site_symmetry_multiplicity
 _atom_site_fract_x
 _atom_site_fract_y
 _atom_site_fract_z
 _atom_site_occupancy
  Sc  Sc0  1  0.30794376  0.19205624  0.75000000  1.0
  Sc  Sc1  1  0.30794376  0.19205624  0.25000000  1.0
  Sc  Sc2  1  0.80794376  0.30794376  0.75000000  1.0
  Sc  Sc3  1  0.80794376  0.30794376  0.25000000  1.0
  Sc  Sc4  1  0.69205624  0.80794376  0.75000000  1.0
  Sc  Sc5  1  0.69205624  0.80794376  0.25000000  1.0
  Sc  Sc6  1  0.19205624  0.69205624  0.75000000  1.0
  Sc  Sc7  1  0.19205624  0.69205624  0.25000000  1.0
  B  B8  1  0.46664760  0.65319036  0.00000000  1.0
  B  B9  1  0.96664760  0.84680964  0.00000000  1.0
  B  B10  1  0.34680964  0.46664760  0.50000000  1.0
  B  B11  1  0.84680964  0.03335240  0.50000000  1.0
  B  B12  1  0.53335240  0.34680964  0.00000000  1.0
  B  B13  1  0.03335240  0.15319036  0.00000000  1.0
  B  B14  1  0.65319036  0.53335240  0.50000000  1.0
  B  B15  1  0.15319036  0.96664760  0.50000000  1.0
  B  B16  1  0.40784580  0.90398323  0.00000000  1.0
  B  B17  1  0.90784580  0.59601677  0.00000000  1.0
  B  B18  1  0.09601677  0.40784580  0.50000000  1.0
  B  B19  1  0.59601677  0.09215420  0.50000000  1.0
  B  B20  1  0.59215420  0.09601677  0.00000000  1.0
  B  B21  1  0.09215420  0.40398323  0.00000000  1.0
  B  B22  1  0.90398323  0.59215420  0.50000000  1.0
  B  B23  1  0.40398323  0.90784580  0.50000000  1.0
  C  C24  1  0.17905223  0.95981203  0.00000000  1.0
  C  C25  1  0.67905223  0.54018797  0.00000000  1.0
  C  C26  1  0.04018797  0.17905223  0.50000000  1.0
  C  C27  1  0.54018797  0.32094777  0.50000000  1.0
  C  C28  1  0.82094777  0.04018797  0.00000000  1.0
  C  C29  1  0.32094777  0.45981203  0.00000000  1.0
  C  C30  1  0.95981203  0.82094777  0.50000000  1.0
  C  C31  1  0.45981203  0.67905223  0.50000000  1.0
