# generated using pymatgen
data_BrN2
_symmetry_space_group_name_H-M   'P 1'
_cell_length_a   6.29138671
_cell_length_b   6.29138671
_cell_length_c   12.34379283
_cell_angle_alpha   68.19097646
_cell_angle_beta   111.80902354
_cell_angle_gamma   113.40095680
_symmetry_Int_Tables_number   1
_chemical_formula_structural   BrN2
_chemical_formula_sum   'Br4 N8'
_cell_volume   401.66767795
_cell_formula_units_Z   4
loop_
 _symmetry_equiv_pos_site_id
 _symmetry_equiv_pos_as_xyz
  1  'x, y, z'
loop_
 _atom_site_type_symbol
 _atom_site_label
 _atom_site_symmetry_multiplicity
 _atom_site_fract_x
 _atom_site_fract_y
 _atom_site_fract_z
 _atom_site_occupancy
  Br  Br0  1  0.57976144  0.41970559  0.95885963  1.0
  Br  Br1  1  0.58029441  0.42023856  0.45885963  1.0
  Br  Br2  1  1.41970559  -0.42023856  0.54114037  1.0
  Br  Br3  1  1.42023856  -0.41970559  0.04114037  1.0
  N  N4  1  0.86759842  0.13286303  0.81083861  1.0
  N  N5  1  0.86713697  -0.86759842  0.31083861  1.0
  N  N6  1  1.13286303  0.86759842  0.68916139  1.0
  N  N7  1  1.13240158  -0.13286303  0.18916139  1.0
  N  N8  1  0.20717827  -0.20796410  0.64865155  1.0
  N  N9  1  1.20796410  -0.20717827  0.14865155  1.0
  N  N10  1  0.79203590  0.20717827  0.85134845  1.0
  N  N11  1  1.79282173  0.20796410  0.35134845  1.0
