# generated using pymatgen
data_Na2GeO3
_symmetry_space_group_name_H-M   'P 1'
_cell_length_a   6.33396606
_cell_length_b   6.33396606
_cell_length_c   5.00941876
_cell_angle_alpha   90.00000000
_cell_angle_beta   90.00000000
_cell_angle_gamma   59.88947148
_symmetry_Int_Tables_number   1
_chemical_formula_structural   Na2GeO3
_chemical_formula_sum   'Na4 Ge2 O6'
_cell_volume   173.85398744
_cell_formula_units_Z   2
loop_
 _symmetry_equiv_pos_site_id
 _symmetry_equiv_pos_as_xyz
  1  'x, y, z'
loop_
 _atom_site_type_symbol
 _atom_site_label
 _atom_site_symmetry_multiplicity
 _atom_site_fract_x
 _atom_site_fract_y
 _atom_site_fract_z
 _atom_site_occupancy
  Na  Na0  1  -0.49407134  0.82780232  0.52766377  1.0
  Na  Na1  1  -0.17219768  0.50592866  1.02766377  1.0
  Na  Na2  1  0.17219768  0.49407134  0.52766377  1.0
  Na  Na3  1  -0.50592866  1.17219768  1.02766377  1.0
  Ge  Ge4  1  -0.16354483  0.16354483  0.49574713  1.0
  Ge  Ge5  1  -0.83645517  0.83645517  -0.00425287  1.0
  O  O6  1  -0.56779018  0.84085478  0.05505712  1.0
  O  O7  1  -0.15914522  0.43220982  0.55505712  1.0
  O  O8  1  0.15914522  0.56779018  0.05505712  1.0
  O  O9  1  -0.43220982  1.15914522  0.55505712  1.0
  O  O10  1  -0.10411197  0.10411197  0.13401109  1.0
  O  O11  1  -0.89588803  0.89588803  0.63401109  1.0
