# generated using pymatgen
data_Nb5(PPd)4
_symmetry_space_group_name_H-M   'P 1'
_cell_length_a   7.59018249
_cell_length_b   7.59018249
_cell_length_c   7.59018249
_cell_angle_alpha   93.28588950
_cell_angle_beta   93.28588950
_cell_angle_gamma   152.29630941
_symmetry_Int_Tables_number   1
_chemical_formula_structural   Nb5(PPd)4
_chemical_formula_sum   'Nb5 P4 Pd4'
_cell_volume   197.37761926
_cell_formula_units_Z   1
loop_
 _symmetry_equiv_pos_site_id
 _symmetry_equiv_pos_as_xyz
  1  'x, y, z'
loop_
 _atom_site_type_symbol
 _atom_site_label
 _atom_site_symmetry_multiplicity
 _atom_site_fract_x
 _atom_site_fract_y
 _atom_site_fract_z
 _atom_site_occupancy
  Nb  Nb0  1  0.62216609  0.68746582  1.30963191  1.0
  Nb  Nb1  1  0.68746582  1.37783391  1.06529973  1.0
  Nb  Nb2  1  0.37783391  0.31253418  0.69036809  1.0
  Nb  Nb3  1  1.31253418  0.62216609  0.93470027  1.0
  Nb  Nb4  1  0.00000000  0.00000000  0.00000000  1.0
  P  P5  1  0.75734298  0.94081978  1.69816276  1.0
  P  P6  1  0.94081978  1.24265702  1.18347680  1.0
  P  P7  1  0.24265702  0.05918022  0.30183724  1.0
  P  P8  1  1.05918022  0.75734298  0.81652320  1.0
  Pd  Pd9  1  0.88422840  0.59551734  0.47974574  1.0
  Pd  Pd10  1  0.59551734  0.11577160  0.71128893  1.0
  Pd  Pd11  1  1.11577160  1.40448266  1.52025426  1.0
  Pd  Pd12  1  0.40448266  0.88422840  1.28871107  1.0
