# generated using pymatgen
data_BCl
_symmetry_space_group_name_H-M   'P 1'
_cell_length_a   8.28797846
_cell_length_b   13.87521415
_cell_length_c   15.01401175
_cell_angle_alpha   90.00000000
_cell_angle_beta   90.00000000
_cell_angle_gamma   90.00000000
_symmetry_Int_Tables_number   1
_chemical_formula_structural   BCl
_chemical_formula_sum   'B32 Cl32'
_cell_volume   1726.57345520
_cell_formula_units_Z   32
loop_
 _symmetry_equiv_pos_site_id
 _symmetry_equiv_pos_as_xyz
  1  'x, y, z'
loop_
 _atom_site_type_symbol
 _atom_site_label
 _atom_site_symmetry_multiplicity
 _atom_site_fract_x
 _atom_site_fract_y
 _atom_site_fract_z
 _atom_site_occupancy
  B  B0  1  0.48644808  0.99679672  0.54612061  1.0
  B  B1  1  0.98644808  0.50320328  0.45387939  1.0
  B  B2  1  0.51355192  0.49679672  0.95387939  1.0
  B  B3  1  0.01355192  0.00320328  0.04612061  1.0
  B  B4  1  0.48357410  0.56318704  0.85568172  1.0
  B  B5  1  0.98357410  0.93681296  0.14431828  1.0
  B  B6  1  0.51642590  0.06318704  0.64431828  1.0
  B  B7  1  0.01642590  0.43681296  0.35568172  1.0
  B  B8  1  0.45590811  0.94129621  0.66667675  1.0
  B  B9  1  0.95590811  0.55870379  0.33332325  1.0
  B  B10  1  0.54409189  0.44129621  0.83332325  1.0
  B  B11  1  0.04409189  0.05870379  0.16667675  1.0
  B  B12  1  0.36370283  0.89372742  0.57103004  1.0
  B  B13  1  0.86370283  0.60627258  0.42896996  1.0
  B  B14  1  0.63629717  0.39372742  0.92896996  1.0
  B  B15  1  0.13629717  0.10627258  0.07103004  1.0
  B  B16  1  0.24832913  0.99867987  0.55616987  1.0
  B  B17  1  0.74832913  0.50132013  0.44383013  1.0
  B  B18  1  0.75167087  0.49867987  0.94383013  1.0
  B  B19  1  0.25167087  0.00132013  0.05616987  1.0
  B  B20  1  0.24556580  0.93279332  0.65592837  1.0
  B  B21  1  0.74556580  0.56720668  0.34407163  1.0
  B  B22  1  0.75443420  0.43279332  0.84407163  1.0
  B  B23  1  0.25443420  0.06720668  0.15592837  1.0
  B  B24  1  0.18895482  0.94501159  0.17215506  1.0
  B  B25  1  0.68895482  0.55498841  0.82784494  1.0
  B  B26  1  0.81104518  0.44501159  0.32784494  1.0
  B  B27  1  0.31104518  0.05498841  0.67215506  1.0
  B  B28  1  0.12336466  0.89817916  0.06989882  1.0
  B  B29  1  0.62336466  0.60182084  0.93010118  1.0
  B  B30  1  0.87663534  0.39817916  0.43010118  1.0
  B  B31  1  0.37663534  0.10182084  0.56989882  1.0
  Cl  Cl32  1  0.41130970  0.98040496  0.98085357  1.0
  Cl  Cl33  1  0.91130970  0.51959504  0.01914643  1.0
  Cl  Cl34  1  0.58869030  0.48040496  0.51914643  1.0
  Cl  Cl35  1  0.08869030  0.01959504  0.48085357  1.0
  Cl  Cl36  1  0.41592377  0.38325877  0.75628550  1.0
  Cl  Cl37  1  0.91592377  0.11674123  0.24371450  1.0
  Cl  Cl38  1  0.58407623  0.88325877  0.74371450  1.0
  Cl  Cl39  1  0.08407623  0.61674123  0.25628550  1.0
  Cl  Cl40  1  0.36774814  0.78217113  0.51962054  1.0
  Cl  Cl41  1  0.86774814  0.71782887  0.48037946  1.0
  Cl  Cl42  1  0.63225186  0.28217113  0.98037946  1.0
  Cl  Cl43  1  0.13225186  0.21782887  0.01962054  1.0
  Cl  Cl44  1  0.29567676  0.88607141  0.25807871  1.0
  Cl  Cl45  1  0.79567676  0.61392859  0.74192129  1.0
  Cl  Cl46  1  0.70432324  0.38607141  0.24192129  1.0
  Cl  Cl47  1  0.20432324  0.11392859  0.75807871  1.0
  Cl  Cl48  1  0.32027339  0.62405132  0.81103379  1.0
  Cl  Cl49  1  0.82027339  0.87594868  0.18896621  1.0
  Cl  Cl50  1  0.67972661  0.12405132  0.68896621  1.0
  Cl  Cl51  1  0.17972661  0.37594868  0.31103379  1.0
  Cl  Cl52  1  0.14064490  0.78697479  0.01863863  1.0
  Cl  Cl53  1  0.64064490  0.71302521  0.98136137  1.0
  Cl  Cl54  1  0.85935510  0.28697479  0.48136137  1.0
  Cl  Cl55  1  0.35935510  0.21302521  0.51863863  1.0
  Cl  Cl56  1  0.12300395  0.52410362  0.54202592  1.0
  Cl  Cl57  1  0.62300395  0.97589638  0.45797408  1.0
  Cl  Cl58  1  0.87699605  0.02410362  0.95797408  1.0
  Cl  Cl59  1  0.37699605  0.47589638  0.04202592  1.0
  Cl  Cl60  1  0.09624944  0.87200349  0.71372600  1.0
  Cl  Cl61  1  0.59624944  0.62799651  0.28627400  1.0
  Cl  Cl62  1  0.90375056  0.37200349  0.78627400  1.0
  Cl  Cl63  1  0.40375056  0.12799651  0.21372600  1.0
