# generated using pymatgen
data_NiS2
_symmetry_space_group_name_H-M   'P 1'
_cell_length_a   4.50841674
_cell_length_b   6.56574168
_cell_length_c   6.17442818
_cell_angle_alpha   90.00000000
_cell_angle_beta   90.00000000
_cell_angle_gamma   90.00000000
_symmetry_Int_Tables_number   1
_chemical_formula_structural   NiS2
_chemical_formula_sum   'Ni4 S8'
_cell_volume   182.76986384
_cell_formula_units_Z   4
loop_
 _symmetry_equiv_pos_site_id
 _symmetry_equiv_pos_as_xyz
  1  'x, y, z'
loop_
 _atom_site_type_symbol
 _atom_site_label
 _atom_site_symmetry_multiplicity
 _atom_site_fract_x
 _atom_site_fract_y
 _atom_site_fract_z
 _atom_site_occupancy
  Ni  Ni0  1  -0.00000000  0.85052424  0.25000000  1.0
  Ni  Ni1  1  0.50000000  0.64947576  0.75000000  1.0
  Ni  Ni2  1  0.00000000  0.14947576  0.75000000  1.0
  Ni  Ni3  1  0.50000000  0.35052424  0.25000000  1.0
  S  S4  1  0.19314814  0.58684207  0.45389977  1.0
  S  S5  1  0.30685186  0.91315793  0.95389977  1.0
  S  S6  1  0.69314814  0.91315793  0.54610023  1.0
  S  S7  1  0.80685186  0.58684207  0.04610023  1.0
  S  S8  1  0.80685186  0.41315793  0.54610023  1.0
  S  S9  1  0.69314814  0.08684207  0.04610023  1.0
  S  S10  1  0.30685186  0.08684207  0.45389977  1.0
  S  S11  1  0.19314814  0.41315793  0.95389977  1.0
