# generated using pymatgen
data_GaCu2
_symmetry_space_group_name_H-M   'P 1'
_cell_length_a   4.94599303
_cell_length_b   4.94599303
_cell_length_c   4.94599303
_cell_angle_alpha   129.54467917
_cell_angle_beta   117.07077396
_cell_angle_gamma   84.73452929
_symmetry_Int_Tables_number   1
_chemical_formula_structural   GaCu2
_chemical_formula_sum   'Ga2 Cu4'
_cell_volume   79.55144452
_cell_formula_units_Z   2
loop_
 _symmetry_equiv_pos_site_id
 _symmetry_equiv_pos_as_xyz
  1  'x, y, z'
loop_
 _atom_site_type_symbol
 _atom_site_label
 _atom_site_symmetry_multiplicity
 _atom_site_fract_x
 _atom_site_fract_y
 _atom_site_fract_z
 _atom_site_occupancy
  Ga  Ga0  1  1.74998863  1.49998863  1.25000000  1.0
  Ga  Ga1  1  0.25001137  0.50001137  0.75000000  1.0
  Cu  Cu2  1  0.83342852  0.83343211  -0.00000359  1.0
  Cu  Cu3  1  1.16657148  0.16656789  1.00000359  1.0
  Cu  Cu4  1  0.66656430  1.16656789  0.49999641  1.0
  Cu  Cu5  1  1.33343570  0.83343211  1.50000359  1.0
