# generated using pymatgen
data_BaZnCO3F2
_symmetry_space_group_name_H-M   'P 1'
_cell_length_a   4.90712582
_cell_length_b   4.90712582
_cell_length_c   10.11145159
_cell_angle_alpha   90.00000000
_cell_angle_beta   90.00000000
_cell_angle_gamma   120.00000000
_symmetry_Int_Tables_number   1
_chemical_formula_structural   BaZnCO3F2
_chemical_formula_sum   'Ba2 Zn2 C2 O6 F4'
_cell_volume   210.86209928
_cell_formula_units_Z   2
loop_
 _symmetry_equiv_pos_site_id
 _symmetry_equiv_pos_as_xyz
  1  'x, y, z'
loop_
 _atom_site_type_symbol
 _atom_site_label
 _atom_site_symmetry_multiplicity
 _atom_site_fract_x
 _atom_site_fract_y
 _atom_site_fract_z
 _atom_site_occupancy
  Ba  Ba0  1  0.00000000  0.00000000  0.50000000  1.0
  Ba  Ba1  1  0.00000000  0.00000000  0.00000000  1.0
  Zn  Zn2  1  0.33333333  0.66666667  0.25000000  1.0
  Zn  Zn3  1  0.66666667  0.33333333  0.75000000  1.0
  C  C4  1  0.66666667  0.33333333  0.25000000  1.0
  C  C5  1  0.33333333  0.66666667  0.75000000  1.0
  O  O6  1  0.72434620  0.62107738  0.25000000  1.0
  O  O7  1  0.62107738  0.89673117  0.75000000  1.0
  O  O8  1  0.89673117  0.27565380  0.25000000  1.0
  O  O9  1  0.37892262  0.10326883  0.25000000  1.0
  O  O10  1  0.27565380  0.37892262  0.75000000  1.0
  O  O11  1  0.10326883  0.72434620  0.75000000  1.0
  F  F12  1  0.33333333  0.66666667  0.45234701  1.0
  F  F13  1  0.33333333  0.66666667  0.04765299  1.0
  F  F14  1  0.66666667  0.33333333  0.95234701  1.0
  F  F15  1  0.66666667  0.33333333  0.54765299  1.0
