# generated using pymatgen
data_CsHgBr3
_symmetry_space_group_name_H-M   'P 1'
_cell_length_a   8.49646651
_cell_length_b   8.49646651
_cell_length_c   9.89991141
_cell_angle_alpha   90.00000000
_cell_angle_beta   90.00000000
_cell_angle_gamma   120.00000000
_symmetry_Int_Tables_number   1
_chemical_formula_structural   CsHgBr3
_chemical_formula_sum   'Cs3 Hg3 Br9'
_cell_volume   618.92587594
_cell_formula_units_Z   3
loop_
 _symmetry_equiv_pos_site_id
 _symmetry_equiv_pos_as_xyz
  1  'x, y, z'
loop_
 _atom_site_type_symbol
 _atom_site_label
 _atom_site_symmetry_multiplicity
 _atom_site_fract_x
 _atom_site_fract_y
 _atom_site_fract_z
 _atom_site_occupancy
  Cs  Cs0  1  0.33838535  0.33844505  0.69931033  1.0
  Cs  Cs1  1  1.00005970  0.66161465  0.36597700  1.0
  Cs  Cs2  1  0.66155495  -0.00005970  0.03264366  1.0
  Hg  Hg3  1  0.97915158  0.65103095  0.86389432  1.0
  Hg  Hg4  1  0.67187936  0.02084842  0.53056099  1.0
  Hg  Hg5  1  0.34896905  0.32812064  0.19722765  1.0
  Br  Br6  1  0.92866653  0.84433367  0.69191006  1.0
  Br  Br7  1  0.91566714  0.07133347  0.35857673  1.0
  Br  Br8  1  0.15566633  0.08433286  0.02524339  1.0
  Br  Br9  1  0.42131598  0.83364872  0.69941316  1.0
  Br  Br10  1  0.41233274  0.57868402  0.36607983  1.0
  Br  Br11  1  0.16635128  0.58766726  0.03274650  1.0
  Br  Br12  1  0.65721842  0.53934665  0.02100546  1.0
  Br  Br13  1  0.88212823  0.34278158  0.68767213  1.0
  Br  Br14  1  0.46065335  0.11787177  0.35433879  1.0
