# generated using pymatgen
data_Sr2FeO3F
_symmetry_space_group_name_H-M   'P 1'
_cell_length_a   3.88196268
_cell_length_b   3.88196268
_cell_length_c   13.30733629
_cell_angle_alpha   90.00000000
_cell_angle_beta   90.00000000
_cell_angle_gamma   90.00000000
_symmetry_Int_Tables_number   1
_chemical_formula_structural   Sr2FeO3F
_chemical_formula_sum   'Sr4 Fe2 O6 F2'
_cell_volume   200.53669065
_cell_formula_units_Z   2
loop_
 _symmetry_equiv_pos_site_id
 _symmetry_equiv_pos_as_xyz
  1  'x, y, z'
loop_
 _atom_site_type_symbol
 _atom_site_label
 _atom_site_symmetry_multiplicity
 _atom_site_fract_x
 _atom_site_fract_y
 _atom_site_fract_z
 _atom_site_occupancy
  Sr  Sr0  1  0.00000000  0.50000000  0.62424584  1.0
  Sr  Sr1  1  0.50000000  0.00000000  0.37575416  1.0
  Sr  Sr2  1  0.00000000  0.50000000  0.89505040  1.0
  Sr  Sr3  1  0.50000000  0.00000000  0.10494960  1.0
  Fe  Fe4  1  0.00000000  0.50000000  0.22702630  1.0
  Fe  Fe5  1  0.50000000  0.00000000  0.77297370  1.0
  O  O6  1  0.00000000  0.50000000  0.08183394  1.0
  O  O7  1  0.50000000  0.00000000  0.91816606  1.0
  O  O8  1  0.50000000  0.50000000  0.25196275  1.0
  O  O9  1  0.50000000  0.50000000  0.74803725  1.0
  O  O10  1  0.00000000  0.00000000  0.25196275  1.0
  O  O11  1  0.00000000  0.00000000  0.74803725  1.0
  F  F12  1  0.00000000  0.50000000  0.43695022  1.0
  F  F13  1  0.50000000  0.00000000  0.56304978  1.0
