# generated using pymatgen
data_MnNbGe
_symmetry_space_group_name_H-M   'P 1'
_cell_length_a   6.56932896
_cell_length_b   6.56932896
_cell_length_c   3.64492549
_cell_angle_alpha   90.00000000
_cell_angle_beta   90.00000000
_cell_angle_gamma   120.00000000
_symmetry_Int_Tables_number   1
_chemical_formula_structural   MnNbGe
_chemical_formula_sum   'Mn3 Nb3 Ge3'
_cell_volume   136.22640825
_cell_formula_units_Z   3
loop_
 _symmetry_equiv_pos_site_id
 _symmetry_equiv_pos_as_xyz
  1  'x, y, z'
loop_
 _atom_site_type_symbol
 _atom_site_label
 _atom_site_symmetry_multiplicity
 _atom_site_fract_x
 _atom_site_fract_y
 _atom_site_fract_z
 _atom_site_occupancy
  Mn  Mn0  1  0.75001273  0.75001273  0.50000000  1.0
  Mn  Mn1  1  0.00000000  0.24998727  0.50000000  1.0
  Mn  Mn2  1  0.24998727  0.00000000  0.50000000  1.0
  Nb  Nb3  1  0.41616152  0.41616152  0.00000000  1.0
  Nb  Nb4  1  0.00000000  0.58383848  0.00000000  1.0
  Nb  Nb5  1  0.58383848  0.00000000  0.00000000  1.0
  Ge  Ge6  1  0.33333333  0.66666667  0.50000000  1.0
  Ge  Ge7  1  0.66666667  0.33333333  0.50000000  1.0
  Ge  Ge8  1  0.00000000  0.00000000  0.00000000  1.0
