# generated using pymatgen
data_NaAsO6
_symmetry_space_group_name_H-M   'P 1'
_cell_length_a   6.00912460
_cell_length_b   4.75018812
_cell_length_c   9.44104775
_cell_angle_alpha   90.00000000
_cell_angle_beta   71.08208949
_cell_angle_gamma   90.00000000
_symmetry_Int_Tables_number   1
_chemical_formula_structural   NaAsO6
_chemical_formula_sum   'Na2 As2 O12'
_cell_volume   254.93298403
_cell_formula_units_Z   2
loop_
 _symmetry_equiv_pos_site_id
 _symmetry_equiv_pos_as_xyz
  1  'x, y, z'
loop_
 _atom_site_type_symbol
 _atom_site_label
 _atom_site_symmetry_multiplicity
 _atom_site_fract_x
 _atom_site_fract_y
 _atom_site_fract_z
 _atom_site_occupancy
  O  O0  1  1.07784754  0.62997932  0.64222222  1.0
  O  O1  1  -0.07784754  0.12997932  0.35777778  1.0
  O  O2  1  0.61329947  0.19744648  0.75606887  1.0
  O  O3  1  0.38670053  0.69744648  0.24393113  1.0
  O  O4  1  0.54052087  0.44277313  0.79081820  1.0
  O  O5  1  0.45947913  -0.05722687  0.20918180  1.0
  O  O6  1  0.71758550  0.08829812  0.46903930  1.0
  O  O7  1  0.28241450  0.58829812  0.53096070  1.0
  O  O8  1  1.11054878  -0.09419178  0.73277599  1.0
  O  O9  1  -0.11054878  0.40580822  0.26722401  1.0
  O  O10  1  0.91846898  0.23691234  0.97069339  1.0
  O  O11  1  0.08153102  0.73691234  0.02930661  1.0
  As  As12  1  0.88742659  -0.13036337  0.92486652  1.0
  As  As13  1  0.11257341  0.36963663  0.07513348  1.0
  Na  Na14  1  0.70170773  0.59994576  0.51821497  1.0
  Na  Na15  1  0.29829227  0.09994576  0.48178503  1.0
