# generated using pymatgen
data_SbP(OF3)2
_symmetry_space_group_name_H-M   'P 1'
_cell_length_a   7.81408809
_cell_length_b   7.90894412
_cell_length_c   6.10918649
_cell_angle_alpha   106.43311713
_cell_angle_beta   98.55961173
_cell_angle_gamma   87.35592487
_symmetry_Int_Tables_number   1
_chemical_formula_structural   SbP(OF3)2
_chemical_formula_sum   'Sb2 P2 O4 F12'
_cell_volume   358.09526663
_cell_formula_units_Z   2
loop_
 _symmetry_equiv_pos_site_id
 _symmetry_equiv_pos_as_xyz
  1  'x, y, z'
loop_
 _atom_site_type_symbol
 _atom_site_label
 _atom_site_symmetry_multiplicity
 _atom_site_fract_x
 _atom_site_fract_y
 _atom_site_fract_z
 _atom_site_occupancy
  Sb  Sb0  1  -0.27716636  -0.74021020  0.91532790  1.0
  Sb  Sb1  1  -0.72283364  -0.25978980  0.08467210  1.0
  P  P2  1  -0.68987869  -0.66572312  0.73594819  1.0
  P  P3  1  -0.31012131  -0.33427688  0.26405181  1.0
  O  O4  1  -0.74994610  -0.52932181  0.94039444  1.0
  O  O5  1  -0.25005390  -0.47067819  0.05960556  1.0
  O  O6  1  -0.49770486  -0.68048083  0.71689710  1.0
  O  O7  1  -0.50229514  -0.31951917  0.28310290  1.0
  F  F8  1  -0.92771650  -0.22365654  0.89404305  1.0
  F  F9  1  -0.07228350  -0.77634346  0.10595695  1.0
  F  F10  1  -0.57850932  -0.26345129  0.85630306  1.0
  F  F11  1  -0.42149068  -0.73654871  0.14369694  1.0
  F  F12  1  -0.31816653  -0.98315088  0.76515596  1.0
  F  F13  1  -0.68183347  -0.01684912  0.23484404  1.0
  F  F14  1  -0.76183361  -0.84437655  0.73581555  1.0
  F  F15  1  -0.23816639  -0.15562345  0.26418445  1.0
  F  F16  1  -0.15609888  -0.70653061  0.68425152  1.0
  F  F17  1  -0.84390112  -0.29346939  0.31574848  1.0
  F  F18  1  -0.78141849  -0.63635771  0.50770857  1.0
  F  F19  1  -0.21858151  -0.36364229  0.49229143  1.0
