# generated using pymatgen
data_Gd(MnCo2)4
_symmetry_space_group_name_H-M   'P 1'
_cell_length_a   6.36564891
_cell_length_b   6.36564891
_cell_length_c   6.36564891
_cell_angle_alpha   97.26064567
_cell_angle_beta   97.26064567
_cell_angle_gamma   138.35129426
_symmetry_Int_Tables_number   1
_chemical_formula_structural   Gd(MnCo2)4
_chemical_formula_sum   'Gd1 Mn4 Co8'
_cell_volume   160.22260694
_cell_formula_units_Z   1
loop_
 _symmetry_equiv_pos_site_id
 _symmetry_equiv_pos_as_xyz
  1  'x, y, z'
loop_
 _atom_site_type_symbol
 _atom_site_label
 _atom_site_symmetry_multiplicity
 _atom_site_fract_x
 _atom_site_fract_y
 _atom_site_fract_z
 _atom_site_occupancy
  Gd  Gd0  1  0.00000000  0.00000000  0.00000000  1.0
  Mn  Mn1  1  1.00000000  1.00000000  0.50000000  1.0
  Mn  Mn2  1  0.50000000  0.50000000  0.50000000  1.0
  Mn  Mn3  1  1.00000000  0.50000000  1.00000000  1.0
  Mn  Mn4  1  1.50000000  1.00000000  1.00000000  1.0
  Co  Co5  1  1.35975292  1.00000000  1.35975292  1.0
  Co  Co6  1  0.64024708  1.00000000  0.64024708  1.0
  Co  Co7  1  -0.00000000  0.64024708  0.64024708  1.0
  Co  Co8  1  -0.00000000  0.35975292  0.35975292  1.0
  Co  Co9  1  0.27131893  0.50000000  0.77131893  1.0
  Co  Co10  1  0.72868107  0.50000000  1.22868107  1.0
  Co  Co11  1  0.50000000  0.72868107  0.22868107  1.0
  Co  Co12  1  0.50000000  1.27131893  0.77131893  1.0
