# generated using pymatgen
data_C4N3Cl
_symmetry_space_group_name_H-M   'P 1'
_cell_length_a   10.61842552
_cell_length_b   10.61842552
_cell_length_c   10.22433374
_cell_angle_alpha   90.00000000
_cell_angle_beta   90.00000000
_cell_angle_gamma   120.00000000
_symmetry_Int_Tables_number   1
_chemical_formula_structural   C4N3Cl
_chemical_formula_sum   'C24 N18 Cl6'
_cell_volume   998.35707373
_cell_formula_units_Z   6
loop_
 _symmetry_equiv_pos_site_id
 _symmetry_equiv_pos_as_xyz
  1  'x, y, z'
loop_
 _atom_site_type_symbol
 _atom_site_label
 _atom_site_symmetry_multiplicity
 _atom_site_fract_x
 _atom_site_fract_y
 _atom_site_fract_z
 _atom_site_occupancy
  C  C0  1  0.25530842  0.87661920  0.36832459  1.0
  C  C1  1  0.25530842  0.87661920  0.13167541  1.0
  C  C2  1  0.87661920  0.62131078  0.86832459  1.0
  C  C3  1  0.87661920  0.62131078  0.63167541  1.0
  C  C4  1  0.62131078  0.74469158  0.36832459  1.0
  C  C5  1  0.62131078  0.74469158  0.13167541  1.0
  C  C6  1  0.12338080  0.37868922  0.36832459  1.0
  C  C7  1  0.12338080  0.37868922  0.13167541  1.0
  C  C8  1  0.74469158  0.12338080  0.86832459  1.0
  C  C9  1  0.74469158  0.12338080  0.63167541  1.0
  C  C10  1  0.37868922  0.25530842  0.86832459  1.0
  C  C11  1  0.37868922  0.25530842  0.63167541  1.0
  C  C12  1  0.30631652  0.96776592  0.25000000  1.0
  C  C13  1  0.96776592  0.66144940  0.75000000  1.0
  C  C14  1  0.66144940  0.69368348  0.25000000  1.0
  C  C15  1  0.03223408  0.33855060  0.25000000  1.0
  C  C16  1  0.69368348  0.03223408  0.75000000  1.0
  C  C17  1  0.33855060  0.30631652  0.75000000  1.0
  C  C18  1  0.81837103  0.74450332  0.25000000  1.0
  C  C19  1  0.74450332  0.92613229  0.75000000  1.0
  C  C20  1  0.92613229  0.18162897  0.25000000  1.0
  C  C21  1  0.25549668  0.07386771  0.25000000  1.0
  C  C22  1  0.18162897  0.25549668  0.75000000  1.0
  C  C23  1  0.07386771  0.81837103  0.75000000  1.0
  N  N24  1  0.21636568  0.80450083  0.46144150  1.0
  N  N25  1  0.21636568  0.80450083  0.03855850  1.0
  N  N26  1  0.80450083  0.58813515  0.96144150  1.0
  N  N27  1  0.80450083  0.58813515  0.53855850  1.0
  N  N28  1  0.58813515  0.78363432  0.46144150  1.0
  N  N29  1  0.58813515  0.78363432  0.03855850  1.0
  N  N30  1  0.19549917  0.41186485  0.46144150  1.0
  N  N31  1  0.19549917  0.41186485  0.03855850  1.0
  N  N32  1  0.78363432  0.19549917  0.96144150  1.0
  N  N33  1  0.78363432  0.19549917  0.53855850  1.0
  N  N34  1  0.41186485  0.21636568  0.96144150  1.0
  N  N35  1  0.41186485  0.21636568  0.53855850  1.0
  N  N36  1  0.94210831  0.78530663  0.25000000  1.0
  N  N37  1  0.78530663  0.84319832  0.75000000  1.0
  N  N38  1  0.84319832  0.05789169  0.25000000  1.0
  N  N39  1  0.21469337  0.15680168  0.25000000  1.0
  N  N40  1  0.05789169  0.21469337  0.75000000  1.0
  N  N41  1  0.15680168  0.94210831  0.75000000  1.0
  Cl  Cl42  1  0.56071803  0.49599633  0.25000000  1.0
  Cl  Cl43  1  0.49599633  0.93527830  0.75000000  1.0
  Cl  Cl44  1  0.93527830  0.43928197  0.25000000  1.0
  Cl  Cl45  1  0.50400367  0.06472170  0.25000000  1.0
  Cl  Cl46  1  0.43928197  0.50400367  0.75000000  1.0
  Cl  Cl47  1  0.06472170  0.56071803  0.75000000  1.0
