# generated using pymatgen
data_ZnP2(H4O5)2
_symmetry_space_group_name_H-M   'P 1'
_cell_length_a   5.35984692
_cell_length_b   10.05616605
_cell_length_c   8.71030827
_cell_angle_alpha   90.00000000
_cell_angle_beta   124.00984076
_cell_angle_gamma   90.00000000
_symmetry_Int_Tables_number   1
_chemical_formula_structural   ZnP2(H4O5)2
_chemical_formula_sum   'Zn2 P4 H16 O20'
_cell_volume   389.17258508
_cell_formula_units_Z   2
loop_
 _symmetry_equiv_pos_site_id
 _symmetry_equiv_pos_as_xyz
  1  'x, y, z'
loop_
 _atom_site_type_symbol
 _atom_site_label
 _atom_site_symmetry_multiplicity
 _atom_site_fract_x
 _atom_site_fract_y
 _atom_site_fract_z
 _atom_site_occupancy
  Zn  Zn0  1  -0.00000000  0.50000000  0.50000000  1.0
  Zn  Zn1  1  0.00000000  0.00000000  0.00000000  1.0
  P  P2  1  0.90830810  0.71676647  0.16386141  1.0
  P  P3  1  0.90830810  0.78323353  0.66386141  1.0
  P  P4  1  0.09169190  0.21676647  0.33613859  1.0
  P  P5  1  0.09169190  0.28323353  0.83613859  1.0
  H  H6  1  0.87781705  0.22408239  0.48749730  1.0
  H  H7  1  0.87781705  0.27591761  0.98749730  1.0
  H  H8  1  0.12218295  0.72408239  0.01250270  1.0
  H  H9  1  0.12218295  0.77591761  0.51250270  1.0
  H  H10  1  0.55765546  0.89084178  0.40479648  1.0
  H  H11  1  0.55765546  0.60915822  0.90479648  1.0
  H  H12  1  0.44234454  0.39084178  0.09520352  1.0
  H  H13  1  0.44234454  0.10915822  0.59520352  1.0
  H  H14  1  0.58076643  0.04975213  0.26709082  1.0
  H  H15  1  0.58076643  0.45024787  0.76709082  1.0
  H  H16  1  0.41923357  0.54975213  0.23290918  1.0
  H  H17  1  0.41923357  0.95024787  0.73290918  1.0
  H  H18  1  0.40707695  0.42459322  0.33511889  1.0
  H  H19  1  0.40707695  0.07540678  0.83511889  1.0
  H  H20  1  0.59292305  0.92459322  0.16488111  1.0
  H  H21  1  0.59292305  0.57540678  0.66488111  1.0
  O  O22  1  0.98229877  0.17040676  0.14021575  1.0
  O  O23  1  0.98229877  0.32959324  0.64021575  1.0
  O  O24  1  0.01770123  0.67040676  0.35978425  1.0
  O  O25  1  0.01770123  0.82959324  0.85978425  1.0
  O  O26  1  0.85138879  0.17042176  0.37881826  1.0
  O  O27  1  0.85138879  0.32957824  0.87881826  1.0
  O  O28  1  0.14861121  0.67042176  0.12118174  1.0
  O  O29  1  0.14861121  0.82957824  0.62118174  1.0
  O  O30  1  0.86454684  0.86788518  0.13659917  1.0
  O  O31  1  0.86454684  0.63211482  0.63659917  1.0
  O  O32  1  0.13545316  0.36788518  0.36340083  1.0
  O  O33  1  0.13545316  0.13211482  0.86340083  1.0
  O  O34  1  0.52826198  0.46500470  0.29101840  1.0
  O  O35  1  0.52826198  0.03499530  0.79101840  1.0
  O  O36  1  0.47173802  0.96500470  0.20898160  1.0
  O  O37  1  0.47173802  0.53499530  0.70898160  1.0
  O  O38  1  0.39674888  0.14050956  0.47228412  1.0
  O  O39  1  0.39674888  0.35949044  0.97228412  1.0
  O  O40  1  0.60325112  0.64050956  0.02771588  1.0
  O  O41  1  0.60325112  0.85949044  0.52771588  1.0
