# generated using pymatgen
data_Lu3Co2Si3
_symmetry_space_group_name_H-M   'P 1'
_cell_length_a   5.47789084
_cell_length_b   5.47789084
_cell_length_c   13.26443554
_cell_angle_alpha   90.00000000
_cell_angle_beta   90.00000000
_cell_angle_gamma   136.79632652
_symmetry_Int_Tables_number   1
_chemical_formula_structural   Lu3Co2Si3
_chemical_formula_sum   'Lu6 Co4 Si6'
_cell_volume   272.48870744
_cell_formula_units_Z   2
loop_
 _symmetry_equiv_pos_site_id
 _symmetry_equiv_pos_as_xyz
  1  'x, y, z'
loop_
 _atom_site_type_symbol
 _atom_site_label
 _atom_site_symmetry_multiplicity
 _atom_site_fract_x
 _atom_site_fract_y
 _atom_site_fract_z
 _atom_site_occupancy
  Lu  Lu0  1  0.08044555  0.91955445  0.88731519  1.0
  Lu  Lu1  1  0.08044555  0.91955445  0.61268481  1.0
  Lu  Lu2  1  -0.08044555  0.08044555  0.38731519  1.0
  Lu  Lu3  1  -0.08044555  0.08044555  0.11268481  1.0
  Lu  Lu4  1  0.36130221  0.63869779  0.75000000  1.0
  Lu  Lu5  1  -0.36130221  0.36130221  0.25000000  1.0
  Co  Co6  1  0.21365930  0.78634070  0.41772003  1.0
  Co  Co7  1  0.21365930  0.78634070  0.08227997  1.0
  Co  Co8  1  -0.21365930  0.21365930  0.91772003  1.0
  Co  Co9  1  -0.21365930  0.21365930  0.58227997  1.0
  Si  Si10  1  0.38303534  0.61696466  0.96025855  1.0
  Si  Si11  1  0.38303534  0.61696466  0.53974145  1.0
  Si  Si12  1  -0.38303534  0.38303534  0.46025855  1.0
  Si  Si13  1  -0.38303534  0.38303534  0.03974145  1.0
  Si  Si14  1  -0.33314052  0.33314052  0.75000000  1.0
  Si  Si15  1  0.33314052  0.66685948  0.25000000  1.0
