# generated using pymatgen
data_Ba2InO3F
_symmetry_space_group_name_H-M   'P 1'
_cell_length_a   4.22259791
_cell_length_b   4.22259791
_cell_length_c   14.12630238
_cell_angle_alpha   90.00000000
_cell_angle_beta   90.00000000
_cell_angle_gamma   90.00000000
_symmetry_Int_Tables_number   1
_chemical_formula_structural   Ba2InO3F
_chemical_formula_sum   'Ba4 In2 O6 F2'
_cell_volume   251.87667720
_cell_formula_units_Z   2
loop_
 _symmetry_equiv_pos_site_id
 _symmetry_equiv_pos_as_xyz
  1  'x, y, z'
loop_
 _atom_site_type_symbol
 _atom_site_label
 _atom_site_symmetry_multiplicity
 _atom_site_fract_x
 _atom_site_fract_y
 _atom_site_fract_z
 _atom_site_occupancy
  Ba  Ba0  1  0.50000000  0.00000000  0.60179718  1.0
  Ba  Ba1  1  0.00000000  0.50000000  0.39820282  1.0
  Ba  Ba2  1  0.50000000  0.00000000  0.87939960  1.0
  Ba  Ba3  1  0.00000000  0.50000000  0.12060040  1.0
  In  In4  1  0.50000000  0.00000000  0.26816402  1.0
  In  In5  1  0.00000000  0.50000000  0.73183598  1.0
  O  O6  1  0.00000000  0.00000000  0.24141715  1.0
  O  O7  1  0.50000000  0.50000000  0.75858285  1.0
  O  O8  1  0.50000000  0.50000000  0.24141715  1.0
  O  O9  1  0.00000000  0.00000000  0.75858285  1.0
  O  O10  1  0.50000000  0.00000000  0.41929405  1.0
  O  O11  1  0.00000000  0.50000000  0.58070595  1.0
  F  F12  1  0.50000000  0.00000000  0.07121062  1.0
  F  F13  1  0.00000000  0.50000000  0.92878938  1.0
