# generated using pymatgen
data_Cs2TaAgS4
_symmetry_space_group_name_H-M   'P 1'
_cell_length_a   14.53143902
_cell_length_b   12.95041229
_cell_length_c   7.84477991
_cell_angle_alpha   84.89180976
_cell_angle_beta   62.58066562
_cell_angle_gamma   32.52752462
_symmetry_Int_Tables_number   1
_chemical_formula_structural   Cs2TaAgS4
_chemical_formula_sum   'Cs4 Ta2 Ag2 S8'
_cell_volume   548.97183496
_cell_formula_units_Z   2
loop_
 _symmetry_equiv_pos_site_id
 _symmetry_equiv_pos_as_xyz
  1  'x, y, z'
loop_
 _atom_site_type_symbol
 _atom_site_label
 _atom_site_symmetry_multiplicity
 _atom_site_fract_x
 _atom_site_fract_y
 _atom_site_fract_z
 _atom_site_occupancy
  Cs  Cs0  1  0.07210596  0.07210596  1.42789404  1.0
  Cs  Cs1  1  1.42789404  0.42789404  0.07210596  1.0
  Cs  Cs2  1  0.17789404  1.17789404  -0.17789404  1.0
  Cs  Cs3  1  0.82210596  0.82210596  -0.82210596  1.0
  Ta  Ta4  1  1.25000000  0.25000000  0.25000000  1.0
  Ta  Ta5  1  0.00000000  0.00000000  0.00000000  1.0
  Ag  Ag6  1  0.75000000  0.75000000  0.75000000  1.0
  Ag  Ag7  1  -0.50000000  0.50000000  0.50000000  1.0
  S  S8  1  0.74550892  -0.63911120  1.06678403  1.0
  S  S9  1  0.82681825  1.06678403  -0.63911120  1.0
  S  S10  1  1.06678403  0.82681825  0.74550892  1.0
  S  S11  1  -0.63911120  0.74550892  0.82681825  1.0
  S  S12  1  1.50449108  -0.11088880  0.18321597  1.0
  S  S13  1  1.42318175  0.18321597  -0.11088880  1.0
  S  S14  1  1.18321597  0.42318175  0.50449108  1.0
  S  S15  1  0.88911120  0.50449108  0.42318175  1.0
