# generated using pymatgen
data_FeAg(SeO3)2
_symmetry_space_group_name_H-M   'P 1'
_cell_length_a   14.11095173
_cell_length_b   5.35745033
_cell_length_c   7.87630427
_cell_angle_alpha   90.00000000
_cell_angle_beta   90.00000000
_cell_angle_gamma   90.00000000
_symmetry_Int_Tables_number   1
_chemical_formula_structural   FeAg(SeO3)2
_chemical_formula_sum   'Fe4 Ag4 Se8 O24'
_cell_volume   595.43854455
_cell_formula_units_Z   4
loop_
 _symmetry_equiv_pos_site_id
 _symmetry_equiv_pos_as_xyz
  1  'x, y, z'
loop_
 _atom_site_type_symbol
 _atom_site_label
 _atom_site_symmetry_multiplicity
 _atom_site_fract_x
 _atom_site_fract_y
 _atom_site_fract_z
 _atom_site_occupancy
  Fe  Fe0  1  0.37346400  0.69676534  0.56642670  1.0
  Fe  Fe1  1  0.87346400  0.80323466  0.56642670  1.0
  Fe  Fe2  1  0.62653600  0.30323466  0.06642670  1.0
  Fe  Fe3  1  0.12653600  0.19676534  0.06642670  1.0
  Ag  Ag4  1  0.11876281  0.89148964  0.58683298  1.0
  Ag  Ag5  1  0.61876281  0.60851036  0.58683298  1.0
  Ag  Ag6  1  0.88123719  0.10851036  0.08683298  1.0
  Ag  Ag7  1  0.38123719  0.39148964  0.08683298  1.0
  Se  Se8  1  0.47159268  0.18552659  0.75179134  1.0
  Se  Se9  1  0.97159268  0.31447341  0.75179134  1.0
  Se  Se10  1  0.52840732  0.81447341  0.25179134  1.0
  Se  Se11  1  0.02840732  0.68552659  0.25179134  1.0
  Se  Se12  1  0.22077775  0.71159411  0.88466188  1.0
  Se  Se13  1  0.72077775  0.78840589  0.88466188  1.0
  Se  Se14  1  0.77922225  0.28840589  0.38466188  1.0
  Se  Se15  1  0.27922225  0.21159411  0.38466188  1.0
  O  O16  1  0.96374816  0.09839464  0.58650087  1.0
  O  O17  1  0.46374816  0.40160536  0.58650087  1.0
  O  O18  1  0.03625184  0.90160536  0.08650087  1.0
  O  O19  1  0.53625184  0.59839464  0.08650087  1.0
  O  O20  1  0.48942464  0.91205966  0.63909144  1.0
  O  O21  1  0.98942464  0.58794034  0.63909144  1.0
  O  O22  1  0.51057536  0.08794034  0.13909144  1.0
  O  O23  1  0.01057536  0.41205966  0.13909144  1.0
  O  O24  1  0.41465625  0.74310321  0.31784522  1.0
  O  O25  1  0.91465625  0.75689679  0.31784522  1.0
  O  O26  1  0.58534375  0.25689679  0.81784522  1.0
  O  O27  1  0.08534375  0.24310321  0.81784522  1.0
  O  O28  1  0.33504952  0.65547717  0.81707371  1.0
  O  O29  1  0.83504952  0.84452283  0.81707371  1.0
  O  O30  1  0.66495048  0.34452283  0.31707371  1.0
  O  O31  1  0.16495048  0.15547717  0.31707371  1.0
  O  O32  1  0.28296937  -0.00376535  0.55245676  1.0
  O  O33  1  0.78296937  0.50376535  0.55245676  1.0
  O  O34  1  0.71703063  1.00376535  0.05245676  1.0
  O  O35  1  0.21703063  0.49623465  0.05245676  1.0
  O  O36  1  0.26349860  0.48713579  0.49191910  1.0
  O  O37  1  0.76349860  1.01286421  0.49191910  1.0
  O  O38  1  0.73650140  0.51286421  -0.00808090  1.0
  O  O39  1  0.23650140  -0.01286421  -0.00808090  1.0
