# generated using pymatgen
data_MnGaH4O2F5
_symmetry_space_group_name_H-M   'P 1'
_cell_length_a   7.46647034
_cell_length_b   7.46647034
_cell_length_c   7.46647034
_cell_angle_alpha   85.01718831
_cell_angle_beta   118.58641178
_cell_angle_gamma   127.47197215
_symmetry_Int_Tables_number   1
_chemical_formula_structural   MnGaH4O2F5
_chemical_formula_sum   'Mn2 Ga2 H8 O4 F10'
_cell_volume   277.34309178
_cell_formula_units_Z   2
loop_
 _symmetry_equiv_pos_site_id
 _symmetry_equiv_pos_as_xyz
  1  'x, y, z'
loop_
 _atom_site_type_symbol
 _atom_site_label
 _atom_site_symmetry_multiplicity
 _atom_site_fract_x
 _atom_site_fract_y
 _atom_site_fract_z
 _atom_site_occupancy
  Mn  Mn0  1  1.00000000  1.00000000  0.50000000  1.0
  Mn  Mn1  1  1.00000000  0.50000000  1.00000000  1.0
  Ga  Ga2  1  1.00000000  1.00000000  1.00000000  1.0
  Ga  Ga3  1  0.50000000  0.00000000  0.50000000  1.0
  H  H4  1  1.27936265  0.78886482  0.80363054  1.0
  H  H5  1  0.51476572  0.52426789  1.30363054  1.0
  H  H6  1  0.51476572  0.21113518  0.99049783  1.0
  H  H7  1  1.27936265  1.47573211  1.49049783  1.0
  H  H8  1  1.48523428  0.78886482  1.00950217  1.0
  H  H9  1  0.72063735  0.52426789  1.50950217  1.0
  H  H10  1  0.72063735  0.21113518  1.19636946  1.0
  H  H11  1  1.48523428  1.47573211  1.69636946  1.0
  O  O12  1  1.30029722  0.72844926  0.92815204  1.0
  O  O13  1  1.69970278  1.62785482  1.42815204  1.0
  O  O14  1  1.69970278  1.27155074  1.07184796  1.0
  O  O15  1  1.30029722  1.37214518  1.57184796  1.0
  F  F16  1  1.83621621  0.92400103  1.15934127  1.0
  F  F17  1  0.73534024  0.32312506  0.65934127  1.0
  F  F18  1  1.73534024  1.07599897  1.41221518  1.0
  F  F19  1  0.83621621  0.67687494  0.91221518  1.0
  F  F20  1  1.26465976  0.92400103  0.58778482  1.0
  F  F21  1  0.16378379  0.32312506  0.08778482  1.0
  F  F22  1  1.16378379  1.07599897  0.84065873  1.0
  F  F23  1  0.26465976  0.67687494  0.34065873  1.0
  F  F24  1  1.31744381  1.06744381  1.25000000  1.0
  F  F25  1  1.68255619  0.93255619  0.75000000  1.0
