# generated using pymatgen
data_LiBH2
_symmetry_space_group_name_H-M   'P 1'
_cell_length_a   8.35364694
_cell_length_b   3.03324915
_cell_length_c   5.50156133
_cell_angle_alpha   90.00000000
_cell_angle_beta   90.00000000
_cell_angle_gamma   90.00000000
_symmetry_Int_Tables_number   1
_chemical_formula_structural   LiBH2
_chemical_formula_sum   'Li4 B4 H8'
_cell_volume   139.40237094
_cell_formula_units_Z   4
loop_
 _symmetry_equiv_pos_site_id
 _symmetry_equiv_pos_as_xyz
  1  'x, y, z'
loop_
 _atom_site_type_symbol
 _atom_site_label
 _atom_site_symmetry_multiplicity
 _atom_site_fract_x
 _atom_site_fract_y
 _atom_site_fract_z
 _atom_site_occupancy
  Li  Li0  1  0.72404052  0.25000000  0.32520615  1.0
  Li  Li1  1  0.22404052  0.25000000  0.17479385  1.0
  Li  Li2  1  0.27595948  0.75000000  0.67479385  1.0
  Li  Li3  1  0.77595948  0.75000000  0.82520615  1.0
  B  B4  1  0.95446120  0.25000000  0.07599228  1.0
  B  B5  1  0.45446120  0.25000000  0.42400772  1.0
  B  B6  1  0.04553880  0.75000000  0.92400772  1.0
  B  B7  1  0.54553880  0.75000000  0.57599228  1.0
  H  H8  1  0.59093559  0.25000000  0.56278005  1.0
  H  H9  1  0.09093559  0.25000000  0.93721995  1.0
  H  H10  1  0.40906441  0.75000000  0.43721995  1.0
  H  H11  1  0.90906441  0.75000000  0.06278005  1.0
  H  H12  1  0.00290130  0.25000000  0.28692189  1.0
  H  H13  1  0.50290130  0.25000000  0.21307811  1.0
  H  H14  1  0.99709870  0.75000000  0.71307811  1.0
  H  H15  1  0.49709870  0.75000000  0.78692189  1.0
