# generated using pymatgen
data_Cs2As3
_symmetry_space_group_name_H-M   'P 1'
_cell_length_a   9.60723576
_cell_length_b   9.39233609
_cell_length_c   7.24448550
_cell_angle_alpha   69.16633642
_cell_angle_beta   66.02331280
_cell_angle_gamma   44.81035078
_symmetry_Int_Tables_number   1
_chemical_formula_structural   Cs2As3
_chemical_formula_sum   'Cs4 As6'
_cell_volume   418.64099811
_cell_formula_units_Z   2
loop_
 _symmetry_equiv_pos_site_id
 _symmetry_equiv_pos_as_xyz
  1  'x, y, z'
loop_
 _atom_site_type_symbol
 _atom_site_label
 _atom_site_symmetry_multiplicity
 _atom_site_fract_x
 _atom_site_fract_y
 _atom_site_fract_z
 _atom_site_occupancy
  Cs  Cs0  1  -0.26767994  0.26767994  0.73232006  1.0
  Cs  Cs1  1  0.26767994  -0.26767994  1.26767994  1.0
  Cs  Cs2  1  -0.25000000  0.75000000  0.75000000  1.0
  Cs  Cs3  1  0.25000000  0.25000000  1.25000000  1.0
  As  As4  1  0.13736719  0.71172095  -0.13736719  1.0
  As  As5  1  -0.71172095  0.86263281  0.71172095  1.0
  As  As6  1  -0.28827905  1.13736719  0.28827905  1.0
  As  As7  1  -0.13736719  0.28827905  0.13736719  1.0
  As  As8  1  -0.15195518  0.84804482  0.15195518  1.0
  As  As9  1  0.15195518  0.15195518  -0.15195518  1.0
