# generated using pymatgen
data_LiH4CN3
_symmetry_space_group_name_H-M   'P 1'
_cell_length_a   7.42127421
_cell_length_b   4.55614489
_cell_length_c   9.09767805
_cell_angle_alpha   90.00000000
_cell_angle_beta   102.63827589
_cell_angle_gamma   90.00000000
_symmetry_Int_Tables_number   1
_chemical_formula_structural   LiH4CN3
_chemical_formula_sum   'Li4 H16 C4 N12'
_cell_volume   300.16109002
_cell_formula_units_Z   4
loop_
 _symmetry_equiv_pos_site_id
 _symmetry_equiv_pos_as_xyz
  1  'x, y, z'
loop_
 _atom_site_type_symbol
 _atom_site_label
 _atom_site_symmetry_multiplicity
 _atom_site_fract_x
 _atom_site_fract_y
 _atom_site_fract_z
 _atom_site_occupancy
  Li  Li0  1  0.85262088  0.88183473  0.01954857  1.0
  Li  Li1  1  0.85262088  0.61816527  0.51954857  1.0
  Li  Li2  1  0.14737912  0.38183473  0.48045143  1.0
  Li  Li3  1  0.14737912  0.11816527  0.98045143  1.0
  H  H4  1  0.91441371  0.43368873  0.25340008  1.0
  H  H5  1  0.91441371  0.06631127  0.75340008  1.0
  H  H6  1  0.08558629  0.93368873  0.24659992  1.0
  H  H7  1  0.08558629  0.56631127  0.74659992  1.0
  H  H8  1  0.69038901  0.13013526  0.50847612  1.0
  H  H9  1  0.69038901  0.36986474  1.00847612  1.0
  H  H10  1  0.30961099  0.63013526  -0.00847612  1.0
  H  H11  1  0.30961099  0.86986474  0.49152388  1.0
  H  H12  1  0.43074464  0.38371487  0.11711982  1.0
  H  H13  1  0.43074464  0.11628513  0.61711982  1.0
  H  H14  1  0.56925536  0.88371487  0.38288018  1.0
  H  H15  1  0.56925536  0.61628513  0.88288018  1.0
  H  H16  1  0.41465391  0.40905894  0.34918916  1.0
  H  H17  1  0.41465391  0.09094106  0.84918916  1.0
  H  H18  1  0.58534609  0.90905894  0.15081084  1.0
  H  H19  1  0.58534609  0.59094106  0.65081084  1.0
  C  C20  1  0.75612291  0.13347510  0.30237117  1.0
  C  C21  1  0.75612291  0.36652490  0.80237117  1.0
  C  C22  1  0.24387709  0.63347510  0.19762883  1.0
  C  C23  1  0.24387709  0.86652490  0.69762883  1.0
  N  N24  1  0.88578573  0.33735985  0.34760913  1.0
  N  N25  1  0.88578573  0.16264015  0.84760913  1.0
  N  N26  1  0.11421427  0.83735985  0.15239087  1.0
  N  N27  1  0.11421427  0.66264015  0.65239087  1.0
  N  N28  1  0.69297582  0.98925239  0.41896170  1.0
  N  N29  1  0.69297582  0.51074761  0.91896170  1.0
  N  N30  1  0.30702418  0.48925239  0.08103830  1.0
  N  N31  1  0.30702418  0.01074761  0.58103830  1.0
  N  N32  1  0.68915813  0.05997107  0.15810054  1.0
  N  N33  1  0.68915813  0.44002893  0.65810054  1.0
  N  N34  1  0.31084187  0.55997107  0.34189946  1.0
  N  N35  1  0.31084187  0.94002893  0.84189946  1.0
