# generated using pymatgen
data_Na3GeP(OF)4
_symmetry_space_group_name_H-M   'P 1'
_cell_length_a   11.19676150
_cell_length_b   11.55650837
_cell_length_c   5.29315077
_cell_angle_alpha   90.00000000
_cell_angle_beta   90.00000000
_cell_angle_gamma   90.00000000
_symmetry_Int_Tables_number   1
_chemical_formula_structural   Na3GeP(OF)4
_chemical_formula_sum   'Na12 Ge4 P4 O16 F16'
_cell_volume   684.90972053
_cell_formula_units_Z   4
loop_
 _symmetry_equiv_pos_site_id
 _symmetry_equiv_pos_as_xyz
  1  'x, y, z'
loop_
 _atom_site_type_symbol
 _atom_site_label
 _atom_site_symmetry_multiplicity
 _atom_site_fract_x
 _atom_site_fract_y
 _atom_site_fract_z
 _atom_site_occupancy
  Na  Na0  1  0.29238646  0.60054430  0.46651657  1.0
  Na  Na1  1  0.79238646  0.89945570  0.03348343  1.0
  Na  Na2  1  0.70761354  0.10054430  0.53348343  1.0
  Na  Na3  1  0.20761354  0.39945570  0.96651657  1.0
  Na  Na4  1  0.70761354  0.39945570  0.53348343  1.0
  Na  Na5  1  0.20761354  0.10054430  0.96651657  1.0
  Na  Na6  1  0.29238646  0.89945570  0.46651657  1.0
  Na  Na7  1  0.79238646  0.60054430  0.03348343  1.0
  Na  Na8  1  0.56678182  0.75000000  0.50114983  1.0
  Na  Na9  1  0.06678182  0.75000000  -0.00114983  1.0
  Na  Na10  1  0.43321818  0.25000000  0.49885017  1.0
  Na  Na11  1  0.93321818  0.25000000  1.00114983  1.0
  Ge  Ge12  1  0.00000000  0.50000000  0.50000000  1.0
  Ge  Ge13  1  0.50000000  0.00000000  0.00000000  1.0
  Ge  Ge14  1  0.00000000  0.00000000  0.50000000  1.0
  Ge  Ge15  1  0.50000000  0.50000000  0.00000000  1.0
  P  P16  1  0.87970785  0.75000000  0.48386834  1.0
  P  P17  1  0.37970785  0.75000000  0.01613166  1.0
  P  P18  1  0.12029215  0.25000000  0.51613166  1.0
  P  P19  1  0.62029215  0.25000000  0.98386834  1.0
  O  O20  1  0.95400457  0.64390081  0.36637645  1.0
  O  O21  1  0.45400457  0.85609919  0.13362355  1.0
  O  O22  1  0.04599543  0.14390081  0.63362355  1.0
  O  O23  1  0.54599543  0.35609919  0.86637645  1.0
  O  O24  1  0.04599543  0.35609919  0.63362355  1.0
  O  O25  1  0.54599543  0.14390081  0.86637645  1.0
  O  O26  1  0.95400457  0.85609919  0.36637645  1.0
  O  O27  1  0.45400457  0.64390081  0.13362355  1.0
  O  O28  1  0.87936894  0.75000000  0.77178079  1.0
  O  O29  1  0.37936894  0.75000000  0.72821921  1.0
  O  O30  1  0.12063106  0.25000000  0.22821921  1.0
  O  O31  1  0.62063106  0.25000000  0.27178079  1.0
  O  O32  1  0.75813096  0.75000000  0.35207185  1.0
  O  O33  1  0.25813096  0.75000000  0.14792815  1.0
  O  O34  1  0.24186904  0.25000000  0.64792815  1.0
  O  O35  1  0.74186904  0.25000000  0.85207185  1.0
  F  F36  1  0.12965130  0.50532693  0.28581562  1.0
  F  F37  1  0.62965130  0.99467307  0.21418438  1.0
  F  F38  1  0.87034870  0.00532693  0.71418438  1.0
  F  F39  1  0.37034870  0.49467307  0.78581562  1.0
  F  F40  1  0.87034870  0.49467307  0.71418438  1.0
  F  F41  1  0.37034870  0.00532693  0.78581562  1.0
  F  F42  1  0.12965130  0.99467307  0.28581562  1.0
  F  F43  1  0.62965130  0.50532693  0.21418438  1.0
  F  F44  1  0.90397976  0.42854197  0.26008310  1.0
  F  F45  1  0.40397976  0.07145803  0.23991690  1.0
  F  F46  1  0.09602024  0.92854197  0.73991690  1.0
  F  F47  1  0.59602024  0.57145803  0.76008310  1.0
  F  F48  1  0.09602024  0.57145803  0.73991690  1.0
  F  F49  1  0.59602024  0.92854197  0.76008310  1.0
  F  F50  1  0.90397976  0.07145803  0.26008310  1.0
  F  F51  1  0.40397976  0.42854197  0.23991690  1.0
