# generated using pymatgen
data_NaMg4V3O12
_symmetry_space_group_name_H-M   'P 1'
_cell_length_a   10.90062606
_cell_length_b   10.90062606
_cell_length_c   10.90062606
_cell_angle_alpha   142.93936534
_cell_angle_beta   142.93936534
_cell_angle_gamma   53.41630738
_symmetry_Int_Tables_number   1
_chemical_formula_structural   NaMg4V3O12
_chemical_formula_sum   'Na2 Mg8 V6 O24'
_cell_volume   467.45580533
_cell_formula_units_Z   2
loop_
 _symmetry_equiv_pos_site_id
 _symmetry_equiv_pos_as_xyz
  1  'x, y, z'
loop_
 _atom_site_type_symbol
 _atom_site_label
 _atom_site_symmetry_multiplicity
 _atom_site_fract_x
 _atom_site_fract_y
 _atom_site_fract_z
 _atom_site_occupancy
  Na  Na0  1  0.25000000  0.75000000  0.50000000  1.0
  Na  Na1  1  0.50000000  0.50000000  -0.00000000  1.0
  Mg  Mg2  1  1.11616204  1.12500000  1.49116204  1.0
  Mg  Mg3  1  1.37500000  0.88383796  1.00883796  1.0
  Mg  Mg4  1  0.87500000  1.36616204  0.99116204  1.0
  Mg  Mg5  1  0.63383796  0.62500000  0.50883796  1.0
  Mg  Mg6  1  0.97582262  0.47582262  0.50000000  1.0
  Mg  Mg7  1  0.77417738  0.77417738  1.00000000  1.0
  Mg  Mg8  1  1.22582262  1.22582262  1.00000000  1.0
  Mg  Mg9  1  0.52417738  1.02417738  0.50000000  1.0
  V  V10  1  0.52507562  1.12500000  0.90007562  1.0
  V  V11  1  1.37500000  1.47492438  1.59992438  1.0
  V  V12  1  0.87500000  0.77507562  0.40007562  1.0
  V  V13  1  1.22492438  0.62500000  1.09992438  1.0
  V  V14  1  0.75000000  0.25000000  0.50000000  1.0
  V  V15  1  1.00000000  1.00000000  1.00000000  1.0
  O  O16  1  1.19583758  1.38046450  1.27247157  1.0
  O  O17  1  0.64200706  0.86953550  0.31537308  1.0
  O  O18  1  0.67336601  1.35799294  1.22752843  1.0
  O  O19  1  0.61953550  0.89200706  0.81537308  1.0
  O  O20  1  1.55416242  1.32663399  1.68462692  1.0
  O  O21  1  1.10799294  0.92336601  0.72752843  1.0
  O  O22  1  1.07663399  0.80416242  1.18462692  1.0
  O  O23  1  1.13046450  0.44583758  0.77247157  1.0
  O  O24  1  0.85149777  1.08906009  1.34985403  1.0
  O  O25  1  1.01079394  1.16093991  1.26243769  1.0
  O  O26  1  1.25164374  0.98920606  1.15014597  1.0
  O  O27  1  0.91093991  1.26079394  0.76243769  1.0
  O  O28  1  0.89850223  0.74835626  0.73756231  1.0
  O  O29  1  0.73920606  0.50164374  0.65014597  1.0
  O  O30  1  1.49835626  1.14850223  1.23756231  1.0
  O  O31  1  0.83906009  1.10149777  0.84985403  1.0
  O  O32  1  1.30087517  1.11109654  1.79340311  1.0
  O  O33  1  1.43230657  1.13890346  1.68977862  1.0
  O  O34  1  1.25747206  0.56769343  0.70659689  1.0
  O  O35  1  0.88890346  1.68230657  1.18977862  1.0
  O  O36  1  0.44912483  0.74252794  0.31022138  1.0
  O  O37  1  0.31769343  0.50747206  0.20659689  1.0
  O  O38  1  1.49252794  0.69912483  0.81022138  1.0
  O  O39  1  0.86109654  1.55087517  1.29340311  1.0
