# generated using pymatgen
data_Be4TeO7
_symmetry_space_group_name_H-M   'P 1'
_cell_length_a   5.46191113
_cell_length_b   5.46191113
_cell_length_c   5.46191113
_cell_angle_alpha   60.00000000
_cell_angle_beta   60.00000000
_cell_angle_gamma   60.00000000
_symmetry_Int_Tables_number   1
_chemical_formula_structural   Be4TeO7
_chemical_formula_sum   'Be4 Te1 O7'
_cell_volume   115.21761759
_cell_formula_units_Z   1
loop_
 _symmetry_equiv_pos_site_id
 _symmetry_equiv_pos_as_xyz
  1  'x, y, z'
loop_
 _atom_site_type_symbol
 _atom_site_label
 _atom_site_symmetry_multiplicity
 _atom_site_fract_x
 _atom_site_fract_y
 _atom_site_fract_z
 _atom_site_occupancy
  Be  Be0  1  -0.37266073  0.62733927  0.62733927  1.0
  Be  Be1  1  1.11798218  0.62733927  -0.37266073  1.0
  Be  Be2  1  -0.37266073  0.62733927  1.11798218  1.0
  Be  Be3  1  0.62733927  1.11798218  -0.37266073  1.0
  Te  Te4  1  -0.00000000  0.00000000  0.00000000  1.0
  O  O5  1  -0.74232931  0.74232931  0.74232931  1.0
  O  O6  1  -0.25767069  0.74232931  0.25767069  1.0
  O  O7  1  -0.25767069  0.25767069  0.74232931  1.0
  O  O8  1  0.25767069  1.25767069  -0.25767069  1.0
  O  O9  1  0.25767069  -0.25767069  0.25767069  1.0
  O  O10  1  -0.25767069  0.25767069  0.25767069  1.0
  O  O11  1  0.75000000  0.75000000  -0.25000000  1.0
