# generated using pymatgen
data_V(Mo3Se4)2
_symmetry_space_group_name_H-M   'P 1'
_cell_length_a   6.74020876
_cell_length_b   6.65377597
_cell_length_c   6.70452856
_cell_angle_alpha   92.90671811
_cell_angle_beta   94.68331497
_cell_angle_gamma   85.89994424
_symmetry_Int_Tables_number   1
_chemical_formula_structural   V(Mo3Se4)2
_chemical_formula_sum   'V1 Mo6 Se8'
_cell_volume   298.60806539
_cell_formula_units_Z   1
loop_
 _symmetry_equiv_pos_site_id
 _symmetry_equiv_pos_as_xyz
  1  'x, y, z'
loop_
 _atom_site_type_symbol
 _atom_site_label
 _atom_site_symmetry_multiplicity
 _atom_site_fract_x
 _atom_site_fract_y
 _atom_site_fract_z
 _atom_site_occupancy
  V  V0  1  0.00000000  0.00000000  0.00000000  1.0
  Mo  Mo1  1  -0.58871843  -0.44850792  -0.77445555  1.0
  Mo  Mo2  1  -0.41128157  -0.55149208  -0.22554445  1.0
  Mo  Mo3  1  -0.43951123  -0.77234707  -0.57569498  1.0
  Mo  Mo4  1  -0.56048877  -0.22765293  -0.42430502  1.0
  Mo  Mo5  1  -0.76898578  -0.56882118  -0.45755583  1.0
  Mo  Mo6  1  -0.23101422  -0.43117882  -0.54244417  1.0
  Se  Se7  1  -0.24820939  -0.65828356  -0.86474049  1.0
  Se  Se8  1  -0.75179061  -0.34171644  -0.13525951  1.0
  Se  Se9  1  -0.76964253  -0.76824988  -0.79288793  1.0
  Se  Se10  1  -0.23035747  -0.23175012  -0.20711207  1.0
  Se  Se11  1  -0.89579168  -0.23342920  -0.64484984  1.0
  Se  Se12  1  -0.10420832  -0.76657080  -0.35515016  1.0
  Se  Se13  1  -0.61041692  -0.86051876  -0.25540928  1.0
  Se  Se14  1  -0.38958308  -0.13948124  -0.74459072  1.0
