# generated using pymatgen
data_Ba2SbI
_symmetry_space_group_name_H-M   'P 1'
_cell_length_a   8.89267951
_cell_length_b   8.89267951
_cell_length_c   8.89267951
_cell_angle_alpha   33.15766374
_cell_angle_beta   33.15766374
_cell_angle_gamma   33.15766374
_symmetry_Int_Tables_number   1
_chemical_formula_structural   Ba2SbI
_chemical_formula_sum   'Ba2 Sb1 I1'
_cell_volume   187.25954050
_cell_formula_units_Z   1
loop_
 _symmetry_equiv_pos_site_id
 _symmetry_equiv_pos_as_xyz
  1  'x, y, z'
loop_
 _atom_site_type_symbol
 _atom_site_label
 _atom_site_symmetry_multiplicity
 _atom_site_fract_x
 _atom_site_fract_y
 _atom_site_fract_z
 _atom_site_occupancy
  Ba  Ba0  1  0.76114205  0.76114205  0.76114205  1.0
  Ba  Ba1  1  1.23885795  1.23885795  0.23885795  1.0
  Sb  Sb2  1  1.50000000  0.50000000  0.50000000  1.0
  I  I3  1  0.00000000  -0.00000000  0.00000000  1.0
