# generated using pymatgen
data_TiPO4
_symmetry_space_group_name_H-M   'P 1'
_cell_length_a   6.03012995
_cell_length_b   8.09963218
_cell_length_c   10.95959721
_cell_angle_alpha   90.00000000
_cell_angle_beta   90.00000000
_cell_angle_gamma   90.00000000
_symmetry_Int_Tables_number   1
_chemical_formula_structural   TiPO4
_chemical_formula_sum   'Ti8 P8 O32'
_cell_volume   535.28683380
_cell_formula_units_Z   8
loop_
 _symmetry_equiv_pos_site_id
 _symmetry_equiv_pos_as_xyz
  1  'x, y, z'
loop_
 _atom_site_type_symbol
 _atom_site_label
 _atom_site_symmetry_multiplicity
 _atom_site_fract_x
 _atom_site_fract_y
 _atom_site_fract_z
 _atom_site_occupancy
  Ti  Ti0  1  0.77439338  0.00117409  0.50021326  1.0
  Ti  Ti1  1  0.22560662  0.00117409  0.50021326  1.0
  Ti  Ti2  1  0.72560662  0.99882591  0.00021326  1.0
  Ti  Ti3  1  0.27439338  0.99882591  0.00021326  1.0
  Ti  Ti4  1  0.77439467  0.50118749  0.24978780  1.0
  Ti  Ti5  1  0.22560533  0.50118749  0.24978780  1.0
  Ti  Ti6  1  0.72560533  0.49881251  0.74978780  1.0
  Ti  Ti7  1  0.27439467  0.49881251  0.74978780  1.0
  P  P8  1  0.50000000  0.15663522  0.25680629  1.0
  P  P9  1  0.00000000  0.84336478  0.75680629  1.0
  P  P10  1  0.50000000  0.14874002  0.74335925  1.0
  P  P11  1  0.00000000  0.85125998  0.24335925  1.0
  P  P12  1  0.50000000  0.64875472  0.00663873  1.0
  P  P13  1  0.00000000  0.35124528  0.50663873  1.0
  P  P14  1  0.50000000  0.65662142  0.49319562  1.0
  P  P15  1  0.00000000  0.34337858  0.99319562  1.0
  O  O16  1  0.71035610  0.26349611  0.25288504  1.0
  O  O17  1  0.28964390  0.26349611  0.25288504  1.0
  O  O18  1  0.78964390  0.73650389  0.75288504  1.0
  O  O19  1  0.21035610  0.73650389  0.75288504  1.0
  O  O20  1  0.70934176  0.25675168  0.74731703  1.0
  O  O21  1  0.29065824  0.25675168  0.74731703  1.0
  O  O22  1  0.79065824  0.74324832  0.24731703  1.0
  O  O23  1  0.20934176  0.74324832  0.24731703  1.0
  O  O24  1  0.50000000  0.04267443  0.37252749  1.0
  O  O25  1  0.00000000  0.95732557  0.87252749  1.0
  O  O26  1  0.50000000  0.03451458  0.86204259  1.0
  O  O27  1  0.00000000  0.96548542  0.36204259  1.0
  O  O28  1  0.00000000  0.95797944  0.63782864  1.0
  O  O29  1  0.50000000  0.04202056  0.13782864  1.0
  O  O30  1  0.00000000  0.96439753  0.12741710  1.0
  O  O31  1  0.50000000  0.03560247  0.62741710  1.0
  O  O32  1  0.70933968  0.75676653  0.00268057  1.0
  O  O33  1  0.29066032  0.75676653  0.00268057  1.0
  O  O34  1  0.79066032  0.24323347  0.50268057  1.0
  O  O35  1  0.20933968  0.24323347  0.50268057  1.0
  O  O36  1  0.71035710  0.76348119  0.49711665  1.0
  O  O37  1  0.28964290  0.76348119  0.49711665  1.0
  O  O38  1  0.78964290  0.23651881  0.99711665  1.0
  O  O39  1  0.21035710  0.23651881  0.99711665  1.0
  O  O40  1  0.50000000  0.53562209  0.12258497  1.0
  O  O41  1  0.00000000  0.46437791  0.62258497  1.0
  O  O42  1  0.50000000  0.54200097  0.61216934  1.0
  O  O43  1  0.00000000  0.45799903  0.11216934  1.0
  O  O44  1  0.00000000  0.46548097  0.38795986  1.0
  O  O45  1  0.50000000  0.53451903  0.88795986  1.0
  O  O46  1  0.00000000  0.45732921  0.87746941  1.0
  O  O47  1  0.50000000  0.54267079  0.37746941  1.0
