# generated using pymatgen
data_Na3TaF8
_symmetry_space_group_name_H-M   'P 1'
_cell_length_a   6.49536662
_cell_length_b   6.49536662
_cell_length_c   11.41769971
_cell_angle_alpha   61.79633115
_cell_angle_beta   118.20366885
_cell_angle_gamma   130.27552195
_symmetry_Int_Tables_number   1
_chemical_formula_structural   Na3TaF8
_chemical_formula_sum   'Na6 Ta2 F16'
_cell_volume   313.72418486
_cell_formula_units_Z   2
loop_
 _symmetry_equiv_pos_site_id
 _symmetry_equiv_pos_as_xyz
  1  'x, y, z'
loop_
 _atom_site_type_symbol
 _atom_site_label
 _atom_site_symmetry_multiplicity
 _atom_site_fract_x
 _atom_site_fract_y
 _atom_site_fract_z
 _atom_site_occupancy
  Na  Na0  1  0.37834114  0.10955497  0.60306028  1.0
  Na  Na1  1  0.89044503  -0.37834114  0.10306028  1.0
  Na  Na2  1  1.10955497  0.37834114  0.89693972  1.0
  Na  Na3  1  1.62165886  -0.10955497  0.39693972  1.0
  Na  Na4  1  0.50000000  0.00000000  0.00000000  1.0
  Na  Na5  1  1.00000000  -0.50000000  0.50000000  1.0
  Ta  Ta6  1  0.68754544  0.68754544  0.75000000  1.0
  Ta  Ta7  1  0.31245456  0.31245456  0.25000000  1.0
  F  F8  1  1.81326957  -0.06510292  0.85943147  1.0
  F  F9  1  1.06510292  -0.81326957  0.35943147  1.0
  F  F10  1  0.93489708  0.81326957  0.64056853  1.0
  F  F11  1  0.18673043  0.06510292  0.14056853  1.0
  F  F12  1  1.73651083  0.04649327  0.61146310  1.0
  F  F13  1  0.95350673  -0.73651083  0.11146310  1.0
  F  F14  1  1.04649327  0.73651083  0.88853690  1.0
  F  F15  1  0.26348917  -0.04649327  0.38853690  1.0
  F  F16  1  0.65688072  0.32606307  0.78560025  1.0
  F  F17  1  0.67393693  -0.65688072  0.28560025  1.0
  F  F18  1  0.32606307  -0.34311928  0.71439975  1.0
  F  F19  1  1.34311928  -0.32606307  0.21439975  1.0
  F  F20  1  0.52712935  0.41033246  0.91593034  1.0
  F  F21  1  0.58966754  0.47287065  0.41593034  1.0
  F  F22  1  1.41033246  -0.47287065  0.58406966  1.0
  F  F23  1  1.47287065  -0.41033246  0.08406966  1.0
