# generated using pymatgen
data_CsPO3
_symmetry_space_group_name_H-M   'P 1'
_cell_length_a   6.93355573
_cell_length_b   4.42341319
_cell_length_c   14.05770501
_cell_angle_alpha   90.00000000
_cell_angle_beta   114.05601331
_cell_angle_gamma   90.00000000
_symmetry_Int_Tables_number   1
_chemical_formula_structural   CsPO3
_chemical_formula_sum   'Cs4 P4 O12'
_cell_volume   393.70309289
_cell_formula_units_Z   4
loop_
 _symmetry_equiv_pos_site_id
 _symmetry_equiv_pos_as_xyz
  1  'x, y, z'
loop_
 _atom_site_type_symbol
 _atom_site_label
 _atom_site_symmetry_multiplicity
 _atom_site_fract_x
 _atom_site_fract_y
 _atom_site_fract_z
 _atom_site_occupancy
  Cs  Cs0  1  0.31462716  0.12756911  0.09142310  1.0
  Cs  Cs1  1  0.31462716  0.37243089  0.59142310  1.0
  Cs  Cs2  1  0.68537284  0.62756911  0.40857690  1.0
  Cs  Cs3  1  0.68537284  0.87243089  0.90857690  1.0
  P  P4  1  0.86738114  0.49145633  0.18209042  1.0
  P  P5  1  0.86738114  0.00854367  0.68209042  1.0
  P  P6  1  0.13261886  0.99145633  0.31790958  1.0
  P  P7  1  0.13261886  0.50854367  0.81790958  1.0
  O  O8  1  0.94224291  0.24311877  0.27714591  1.0
  O  O9  1  0.94224291  0.25688123  0.77714591  1.0
  O  O10  1  0.05775709  0.74311877  0.22285409  1.0
  O  O11  1  0.05775709  0.75688123  0.72285409  1.0
  O  O12  1  0.87364453  0.35713433  0.08500382  1.0
  O  O13  1  0.87364453  0.14286567  0.58500382  1.0
  O  O14  1  0.12635547  0.85713433  0.41499618  1.0
  O  O15  1  0.12635547  0.64286567  0.91499618  1.0
  O  O16  1  0.33464060  0.12383724  0.32006512  1.0
  O  O17  1  0.33464060  0.37616276  0.82006512  1.0
  O  O18  1  0.66535940  0.62383724  0.17993488  1.0
  O  O19  1  0.66535940  0.87616276  0.67993488  1.0
