# generated using pymatgen
data_GaBi
_symmetry_space_group_name_H-M   'P 1'
_cell_length_a   4.54547128
_cell_length_b   4.54547128
_cell_length_c   7.47478323
_cell_angle_alpha   90.00000000
_cell_angle_beta   90.00000000
_cell_angle_gamma   120.00000000
_symmetry_Int_Tables_number   1
_chemical_formula_structural   GaBi
_chemical_formula_sum   'Ga2 Bi2'
_cell_volume   133.74793006
_cell_formula_units_Z   2
loop_
 _symmetry_equiv_pos_site_id
 _symmetry_equiv_pos_as_xyz
  1  'x, y, z'
loop_
 _atom_site_type_symbol
 _atom_site_label
 _atom_site_symmetry_multiplicity
 _atom_site_fract_x
 _atom_site_fract_y
 _atom_site_fract_z
 _atom_site_occupancy
  Ga  Ga0  1  0.66666667  0.33333333  0.50007097  1.0
  Ga  Ga1  1  0.33333333  0.66666667  0.00007097  1.0
  Bi  Bi2  1  0.66666667  0.33333333  0.87492903  1.0
  Bi  Bi3  1  0.33333333  0.66666667  0.37492903  1.0
