# generated using pymatgen
data_LuH9C5(NO4)2
_symmetry_space_group_name_H-M   'P 1'
_cell_length_a   6.68500115
_cell_length_b   6.68500115
_cell_length_c   6.54813648
_cell_angle_alpha   73.76707673
_cell_angle_beta   106.23292327
_cell_angle_gamma   114.54667481
_symmetry_Int_Tables_number   1
_chemical_formula_structural   LuH9C5(NO4)2
_chemical_formula_sum   'Lu1 H9 C5 N2 O8'
_cell_volume   251.05875220
_cell_formula_units_Z   1
loop_
 _symmetry_equiv_pos_site_id
 _symmetry_equiv_pos_as_xyz
  1  'x, y, z'
loop_
 _atom_site_type_symbol
 _atom_site_label
 _atom_site_symmetry_multiplicity
 _atom_site_fract_x
 _atom_site_fract_y
 _atom_site_fract_z
 _atom_site_occupancy
  Lu  Lu0  1  1.18222429  0.18222429  0.00000000  1.0
  H  H1  1  0.54215275  -0.02374537  0.40852096  1.0
  H  H2  1  0.97625463  -0.45784725  0.59147904  1.0
  H  H3  1  0.45054451  -0.31008025  0.53992116  1.0
  H  H4  1  0.68991975  -0.54945549  0.46007884  1.0
  H  H5  1  0.72732799  -0.25949332  0.82803679  1.0
  H  H6  1  0.74050668  -0.27267201  0.17196321  1.0
  H  H7  1  0.71629318  -0.65016134  0.88034270  1.0
  H  H8  1  0.34983866  -0.28370682  0.11965730  1.0
  H  H9  1  1.10022176  0.10022176  0.50000000  1.0
  C  C10  1  0.72160713  -0.10778226  0.70833156  1.0
  C  C11  1  0.89221774  -0.27839287  0.29166844  1.0
  C  C12  1  1.71007898  0.23552953  0.03989404  1.0
  C  C13  1  1.23552953  0.71007898  0.96010596  1.0
  C  C14  1  1.25214507  0.25214507  0.50000000  1.0
  N  N15  1  0.55734244  -0.14767757  0.53973835  1.0
  N  N16  1  0.85232243  -0.44265756  0.46026165  1.0
  O  O17  1  1.86229232  0.08239037  0.73663301  1.0
  O  O18  1  1.08239037  0.86229232  0.26336699  1.0
  O  O19  1  1.33943000  0.32919899  0.33133770  1.0
  O  O20  1  1.32919899  0.33943000  0.66866230  1.0
  O  O21  1  1.53877927  0.18372201  0.12205960  1.0
  O  O22  1  1.18372201  0.53877927  0.87794040  1.0
  O  O23  1  0.86790919  -0.83344965  0.12743147  1.0
  O  O24  1  0.16655035  -0.13209081  0.87256853  1.0
