# generated using pymatgen
data_KBaNbS4
_symmetry_space_group_name_H-M   'P 1'
_cell_length_a   9.30587599
_cell_length_b   7.07651913
_cell_length_c   12.73474784
_cell_angle_alpha   90.00000000
_cell_angle_beta   90.00000000
_cell_angle_gamma   90.00000000
_symmetry_Int_Tables_number   1
_chemical_formula_structural   KBaNbS4
_chemical_formula_sum   'K4 Ba4 Nb4 S16'
_cell_volume   838.62401727
_cell_formula_units_Z   4
loop_
 _symmetry_equiv_pos_site_id
 _symmetry_equiv_pos_as_xyz
  1  'x, y, z'
loop_
 _atom_site_type_symbol
 _atom_site_label
 _atom_site_symmetry_multiplicity
 _atom_site_fract_x
 _atom_site_fract_y
 _atom_site_fract_z
 _atom_site_occupancy
  K  K0  1  0.86501839  0.75000000  0.42670520  1.0
  K  K1  1  0.36501839  0.75000000  0.07329480  1.0
  K  K2  1  0.13498161  0.25000000  0.57329480  1.0
  K  K3  1  0.63498161  0.25000000  0.92670520  1.0
  Ba  Ba4  1  0.51887901  0.75000000  0.67665394  1.0
  Ba  Ba5  1  0.01887901  0.75000000  0.82334606  1.0
  Ba  Ba6  1  0.48112099  0.25000000  0.32334606  1.0
  Ba  Ba7  1  0.98112099  0.25000000  0.17665394  1.0
  Nb  Nb8  1  0.77170802  0.75000000  0.07743529  1.0
  Nb  Nb9  1  0.27170802  0.75000000  0.42256471  1.0
  Nb  Nb10  1  0.22829198  0.25000000  0.92256471  1.0
  Nb  Nb11  1  0.72829198  0.25000000  0.57743529  1.0
  S  S12  1  0.68333250  0.00917903  0.16022814  1.0
  S  S13  1  0.68333250  0.49082097  0.16022814  1.0
  S  S14  1  0.18333250  0.00917903  0.33977186  1.0
  S  S15  1  0.18333250  0.49082097  0.33977186  1.0
  S  S16  1  0.31666750  0.50917903  0.83977186  1.0
  S  S17  1  0.31666750  0.99082097  0.83977186  1.0
  S  S18  1  0.81666750  0.50917903  0.66022814  1.0
  S  S19  1  0.81666750  0.99082097  0.66022814  1.0
  S  S20  1  0.01670036  0.75000000  0.08163048  1.0
  S  S21  1  0.51670036  0.75000000  0.41836952  1.0
  S  S22  1  0.98329964  0.25000000  0.91836952  1.0
  S  S23  1  0.48329964  0.25000000  0.58163048  1.0
  S  S24  1  0.19272512  0.75000000  0.59268931  1.0
  S  S25  1  0.69272512  0.75000000  0.90731069  1.0
  S  S26  1  0.80727488  0.25000000  0.40731069  1.0
  S  S27  1  0.30727488  0.25000000  0.09268931  1.0
