# generated using pymatgen
data_KCu2AsS3
_symmetry_space_group_name_H-M   'P 1'
_cell_length_a   10.42695621
_cell_length_b   9.01128094
_cell_length_c   6.35725050
_cell_angle_alpha   90.45952094
_cell_angle_beta   91.15964690
_cell_angle_gamma   90.78625073
_symmetry_Int_Tables_number   1
_chemical_formula_structural   KCu2AsS3
_chemical_formula_sum   'K4 Cu8 As4 S12'
_cell_volume   597.12958813
_cell_formula_units_Z   4
loop_
 _symmetry_equiv_pos_site_id
 _symmetry_equiv_pos_as_xyz
  1  'x, y, z'
loop_
 _atom_site_type_symbol
 _atom_site_label
 _atom_site_symmetry_multiplicity
 _atom_site_fract_x
 _atom_site_fract_y
 _atom_site_fract_z
 _atom_site_occupancy
  K  K0  1  -0.62648856  -0.56320053  -0.78590259  1.0
  K  K1  1  -0.37351144  -0.43679947  -0.21409741  1.0
  K  K2  1  -0.87161554  -0.56932163  -0.29425729  1.0
  K  K3  1  -0.12838446  -0.43067837  -0.70574271  1.0
  Cu  Cu4  1  -0.85394245  -0.24934657  -0.98425216  1.0
  Cu  Cu5  1  -0.14605755  -0.75065343  -0.01574784  1.0
  Cu  Cu6  1  -0.54206154  -0.13709819  -0.93446331  1.0
  Cu  Cu7  1  -0.45793846  -0.86290181  -0.06553669  1.0
  Cu  Cu8  1  -0.66929099  -0.89954015  -0.50691669  1.0
  Cu  Cu9  1  -0.33070901  -0.10045985  -0.49308331  1.0
  Cu  Cu10  1  -0.95371916  -0.15600590  -0.42298920  1.0
  Cu  Cu11  1  -0.04628084  -0.84399410  -0.57701080  1.0
  As  As12  1  -0.85667345  -0.95043935  -0.98752555  1.0
  As  As13  1  -0.14332655  -0.04956065  -0.01247445  1.0
  As  As14  1  -0.34536625  -0.81850951  -0.53177010  1.0
  As  As15  1  -0.65463375  -0.18149049  -0.46822990  1.0
  S  S16  1  -0.33575545  -0.69765813  -0.85533846  1.0
  S  S17  1  -0.66424455  -0.30234187  -0.14466154  1.0
  S  S18  1  -0.64637838  -0.91311174  -0.86612658  1.0
  S  S19  1  -0.35362162  -0.08688826  -0.13387342  1.0
  S  S20  1  -0.94654385  -0.72902462  -0.85509699  1.0
  S  S21  1  -0.05345615  -0.27097538  -0.14490301  1.0
  S  S22  1  -0.82792094  -0.30372474  -0.63387058  1.0
  S  S23  1  -0.17207906  -0.69627526  -0.36612942  1.0
  S  S24  1  -0.52565291  -0.73326712  -0.36250982  1.0
  S  S25  1  -0.47434709  -0.26673288  -0.63749018  1.0
  S  S26  1  -0.86315965  -0.91950201  -0.35285579  1.0
  S  S27  1  -0.13684035  -0.08049799  -0.64714421  1.0
