# generated using pymatgen
data_Cd4BiB3O10
_symmetry_space_group_name_H-M   'P 1'
_cell_length_a   8.97038169
_cell_length_b   8.97038169
_cell_length_c   3.57505632
_cell_angle_alpha   85.43447422
_cell_angle_beta   94.56552578
_cell_angle_gamma   53.66873009
_symmetry_Int_Tables_number   1
_chemical_formula_structural   Cd4BiB3O10
_chemical_formula_sum   'Cd4 Bi1 B3 O10'
_cell_volume   228.12236336
_cell_formula_units_Z   1
loop_
 _symmetry_equiv_pos_site_id
 _symmetry_equiv_pos_as_xyz
  1  'x, y, z'
loop_
 _atom_site_type_symbol
 _atom_site_label
 _atom_site_symmetry_multiplicity
 _atom_site_fract_x
 _atom_site_fract_y
 _atom_site_fract_z
 _atom_site_occupancy
  Cd  Cd0  1  0.87853354  -0.24005074  0.05425535  1.0
  Cd  Cd1  1  0.24005074  0.12146646  0.05425535  1.0
  Cd  Cd2  1  1.32132974  -0.55024629  0.73848233  1.0
  Cd  Cd3  1  0.55024629  -0.32132974  0.73848233  1.0
  Bi  Bi4  1  0.79371265  -0.79371265  0.40657959  1.0
  B  B5  1  0.94276446  -0.54396704  0.49368000  1.0
  B  B6  1  0.54396704  0.05723554  0.49368000  1.0
  B  B7  1  0.17219227  -0.17219227  0.11616092  1.0
  O  O8  1  0.76432896  -0.40952446  0.29476937  1.0
  O  O9  1  0.40952446  0.23567104  0.29476937  1.0
  O  O10  1  1.18012352  -0.33151703  0.17232647  1.0
  O  O11  1  0.33151703  -0.18012352  0.17232647  1.0
  O  O12  1  1.03382498  -0.49017299  0.70401147  1.0
  O  O13  1  0.49017299  -0.03382498  0.70401147  1.0
  O  O14  1  1.02873970  -0.73548962  0.49308171  1.0
  O  O15  1  0.73548962  -0.02873970  0.49308171  1.0
  O  O16  1  -0.00074555  0.00074555  0.00029977  1.0
  O  O17  1  0.60742756  -0.60742756  0.82664633  1.0
