# generated using pymatgen
data_NaV4(CuO4)3
_symmetry_space_group_name_H-M   'P 1'
_cell_length_a   6.30149493
_cell_length_b   6.30149493
_cell_length_c   6.30149493
_cell_angle_alpha   109.47122063
_cell_angle_beta   109.47122063
_cell_angle_gamma   109.47122063
_symmetry_Int_Tables_number   1
_chemical_formula_structural   NaV4(CuO4)3
_chemical_formula_sum   'Na1 V4 Cu3 O12'
_cell_volume   192.62332880
_cell_formula_units_Z   1
loop_
 _symmetry_equiv_pos_site_id
 _symmetry_equiv_pos_as_xyz
  1  'x, y, z'
loop_
 _atom_site_type_symbol
 _atom_site_label
 _atom_site_symmetry_multiplicity
 _atom_site_fract_x
 _atom_site_fract_y
 _atom_site_fract_z
 _atom_site_occupancy
  Na  Na0  1  0.00000000  0.00000000  0.00000000  1.0
  V  V1  1  0.50000000  1.00000000  1.00000000  1.0
  V  V2  1  0.50000000  0.50000000  0.50000000  1.0
  V  V3  1  1.00000000  1.00000000  0.50000000  1.0
  V  V4  1  1.00000000  0.50000000  1.00000000  1.0
  Cu  Cu5  1  0.50000000  0.50000000  -0.00000000  1.0
  Cu  Cu6  1  0.00000000  0.50000000  0.50000000  1.0
  Cu  Cu7  1  0.50000000  0.00000000  0.50000000  1.0
  O  O8  1  0.81354748  1.30217818  1.11572566  1.0
  O  O9  1  0.81354748  0.69782182  0.51136931  1.0
  O  O10  1  0.18645252  0.30217818  0.48863069  1.0
  O  O11  1  0.18645252  0.69782182  0.88427434  1.0
  O  O12  1  0.51136931  0.81354748  0.69782182  1.0
  O  O13  1  1.11572566  0.81354748  1.30217818  1.0
  O  O14  1  0.69782182  0.88427434  0.18645252  1.0
  O  O15  1  0.69782182  0.51136931  0.81354748  1.0
  O  O16  1  0.88427434  0.18645252  0.69782182  1.0
  O  O17  1  0.48863069  0.18645252  0.30217818  1.0
  O  O18  1  0.30217818  0.48863069  0.18645252  1.0
  O  O19  1  1.30217818  1.11572566  0.81354748  1.0
