# generated using pymatgen
data_Na2PH3O5
_symmetry_space_group_name_H-M   'P 1'
_cell_length_a   5.78556434
_cell_length_b   5.73366451
_cell_length_c   8.20598899
_cell_angle_alpha   67.95817541
_cell_angle_beta   68.30305559
_cell_angle_gamma   79.14772161
_symmetry_Int_Tables_number   1
_chemical_formula_structural   Na2PH3O5
_chemical_formula_sum   'Na4 P2 H6 O10'
_cell_volume   234.05283611
_cell_formula_units_Z   2
loop_
 _symmetry_equiv_pos_site_id
 _symmetry_equiv_pos_as_xyz
  1  'x, y, z'
loop_
 _atom_site_type_symbol
 _atom_site_label
 _atom_site_symmetry_multiplicity
 _atom_site_fract_x
 _atom_site_fract_y
 _atom_site_fract_z
 _atom_site_occupancy
  Na  Na0  1  -0.34455748  -0.28950652  0.78667284  1.0
  Na  Na1  1  -0.65544252  0.28950652  0.21332716  1.0
  Na  Na2  1  -0.71917687  -0.31272888  0.57015699  1.0
  Na  Na3  1  -0.28082313  0.31272888  0.42984301  1.0
  P  P4  1  -0.08151178  -0.15999029  0.29268863  1.0
  P  P5  1  -0.91848822  0.15999029  0.70731137  1.0
  H  H6  1  -0.12153132  0.19123391  0.05627196  1.0
  H  H7  1  -0.87846868  -0.19123391  0.94372804  1.0
  H  H8  1  -0.71000110  -0.68449379  0.87896710  1.0
  H  H9  1  -0.28999890  0.68449379  0.12103290  1.0
  H  H10  1  -0.42107678  -0.77129614  0.83358522  1.0
  H  H11  1  -0.57892322  0.77129614  0.16641478  1.0
  O  O12  1  -0.28394080  -0.27759983  0.47845425  1.0
  O  O13  1  -0.71605920  0.27759983  0.52154575  1.0
  O  O14  1  -0.01688133  0.67569738  0.16530070  1.0
  O  O15  1  -0.98311867  -0.67569738  0.83469930  1.0
  O  O16  1  -0.84702222  -0.09621446  0.31082382  1.0
  O  O17  1  -0.15297778  0.09621446  0.68917618  1.0
  O  O18  1  -0.21436762  0.10857569  0.19439119  1.0
  O  O19  1  -0.78563238  -0.10857569  0.80560881  1.0
  O  O20  1  -0.55364137  -0.66504904  0.89529535  1.0
  O  O21  1  -0.44635863  0.66504904  0.10470465  1.0
