# generated using pymatgen
data_Ca2GePd3
_symmetry_space_group_name_H-M   'P 1'
_cell_length_a   5.26702427
_cell_length_b   5.26702427
_cell_length_c   5.26702427
_cell_angle_alpha   64.99283485
_cell_angle_beta   64.99283485
_cell_angle_gamma   64.99283485
_symmetry_Int_Tables_number   1
_chemical_formula_structural   Ca2GePd3
_chemical_formula_sum   'Ca2 Ge1 Pd3'
_cell_volume   114.58464945
_cell_formula_units_Z   1
loop_
 _symmetry_equiv_pos_site_id
 _symmetry_equiv_pos_as_xyz
  1  'x, y, z'
loop_
 _atom_site_type_symbol
 _atom_site_label
 _atom_site_symmetry_multiplicity
 _atom_site_fract_x
 _atom_site_fract_y
 _atom_site_fract_z
 _atom_site_occupancy
  Ca  Ca0  1  0.62816175  0.62816175  -0.37183825  1.0
  Ca  Ca1  1  0.37183825  0.37183825  -0.62816175  1.0
  Ge  Ge2  1  0.00000000  -0.00000000  -0.00000000  1.0
  Pd  Pd3  1  1.00000000  1.50000000  -0.00000000  1.0
  Pd  Pd4  1  1.00000000  0.00000000  -0.50000000  1.0
  Pd  Pd5  1  0.50000000  0.00000000  -0.00000000  1.0
