# generated using pymatgen
data_Sc4Ir
_symmetry_space_group_name_H-M   'P 1'
_cell_length_a   7.13810491
_cell_length_b   7.13810491
_cell_length_c   7.13810491
_cell_angle_alpha   60.00000000
_cell_angle_beta   60.00000000
_cell_angle_gamma   60.00000000
_symmetry_Int_Tables_number   1
_chemical_formula_structural   Sc4Ir
_chemical_formula_sum   'Sc8 Ir2'
_cell_volume   257.17798013
_cell_formula_units_Z   2
loop_
 _symmetry_equiv_pos_site_id
 _symmetry_equiv_pos_as_xyz
  1  'x, y, z'
loop_
 _atom_site_type_symbol
 _atom_site_label
 _atom_site_symmetry_multiplicity
 _atom_site_fract_x
 _atom_site_fract_y
 _atom_site_fract_z
 _atom_site_occupancy
  Sc  Sc0  1  -0.10952455  0.89047545  0.32857366  1.0
  Sc  Sc1  1  0.89047545  -0.67142634  0.89047545  1.0
  Sc  Sc2  1  0.35952455  0.35952455  0.35952455  1.0
  Sc  Sc3  1  -0.07857366  0.35952455  0.35952455  1.0
  Sc  Sc4  1  -0.67142634  0.89047545  0.89047545  1.0
  Sc  Sc5  1  0.89047545  -0.10952455  0.89047545  1.0
  Sc  Sc6  1  0.35952455  -0.07857366  0.35952455  1.0
  Sc  Sc7  1  0.35952455  0.35952455  -0.07857366  1.0
  Ir  Ir8  1  0.50000000  0.50000000  -0.50000000  1.0
  Ir  Ir9  1  0.75000000  -0.25000000  0.75000000  1.0
