# generated using pymatgen
data_NaH6CN2ClO2
_symmetry_space_group_name_H-M   'P 1'
_cell_length_a   9.81108787
_cell_length_b   9.81108787
_cell_length_c   6.68658504
_cell_angle_alpha   69.48313542
_cell_angle_beta   110.51686458
_cell_angle_gamma   149.53420498
_symmetry_Int_Tables_number   1
_chemical_formula_structural   NaH6CN2ClO2
_chemical_formula_sum   'Na2 H12 C2 N4 Cl2 O4'
_cell_volume   304.04662694
_cell_formula_units_Z   2
loop_
 _symmetry_equiv_pos_site_id
 _symmetry_equiv_pos_as_xyz
  1  'x, y, z'
loop_
 _atom_site_type_symbol
 _atom_site_label
 _atom_site_symmetry_multiplicity
 _atom_site_fract_x
 _atom_site_fract_y
 _atom_site_fract_z
 _atom_site_occupancy
  Na  Na0  1  1.65672131  -0.33805636  0.25954445  1.0
  Na  Na1  1  0.66194364  -0.34327869  0.74045555  1.0
  H  H2  1  1.08948834  -0.82513319  0.45719505  1.0
  H  H3  1  1.17486681  0.08948834  0.54280495  1.0
  H  H4  1  1.18424789  -0.72851715  0.95188740  1.0
  H  H5  1  1.27148285  0.18424789  0.04811260  1.0
  H  H6  1  1.01169318  -0.65428121  0.09928287  1.0
  H  H7  1  1.34571879  0.01169318  0.90071713  1.0
  H  H8  1  1.01260616  -0.47833858  0.11475906  1.0
  H  H9  1  1.52166142  0.01260616  0.88524094  1.0
  H  H10  1  1.31925622  -0.15942644  0.35202316  1.0
  H  H11  1  0.84057356  -0.68074378  0.64797684  1.0
  H  H12  1  0.86489141  -0.48873514  0.44383038  1.0
  H  H13  1  1.51126486  -0.13510859  0.55616962  1.0
  C  C14  1  1.28138542  -0.39800984  0.33672925  1.0
  C  C15  1  1.60199016  0.28138542  0.66327075  1.0
  N  N16  1  1.09316805  -0.51230645  0.16532452  1.0
  N  N17  1  1.48769355  0.09316805  0.83467548  1.0
  N  N18  1  1.38177503  -0.21222591  0.41890965  1.0
  N  N19  1  0.78777409  -0.61822497  0.58109035  1.0
  Cl  Cl20  1  1.01365299  -0.22414142  0.11232658  1.0
  Cl  Cl21  1  1.77585858  0.01365299  0.88767342  1.0
  O  O22  1  1.36208105  -0.46118239  0.41621663  1.0
  O  O23  1  1.53881761  0.36208105  0.58378337  1.0
  O  O24  1  0.34816360  0.34816360  0.00000000  1.0
  O  O25  1  0.00762344  0.00762344  0.50000000  1.0
