# generated using pymatgen
data_Zr4Cd(PO4)6
_symmetry_space_group_name_H-M   'P 1'
_cell_length_a   9.09714190
_cell_length_b   9.09714190
_cell_length_c   9.09714190
_cell_angle_alpha   59.06117363
_cell_angle_beta   59.06117363
_cell_angle_gamma   59.06117363
_symmetry_Int_Tables_number   1
_chemical_formula_structural   Zr4Cd(PO4)6
_chemical_formula_sum   'Zr4 Cd1 P6 O24'
_cell_volume   520.95694789
_cell_formula_units_Z   1
loop_
 _symmetry_equiv_pos_site_id
 _symmetry_equiv_pos_as_xyz
  1  'x, y, z'
loop_
 _atom_site_type_symbol
 _atom_site_label
 _atom_site_symmetry_multiplicity
 _atom_site_fract_x
 _atom_site_fract_y
 _atom_site_fract_z
 _atom_site_occupancy
  Zr  Zr0  1  0.14808457  0.14808457  0.14808457  1.0
  Zr  Zr1  1  0.85191543  -0.14808457  -0.14808457  1.0
  Zr  Zr2  1  0.36372876  0.36372876  -0.63627124  1.0
  Zr  Zr3  1  0.63627124  0.63627124  -0.36372876  1.0
  Cd  Cd4  1  0.00000000  0.00000000  0.00000000  1.0
  P  P5  1  0.54635222  0.24306900  -0.02863290  1.0
  P  P6  1  1.02863290  -0.54635222  -0.24306900  1.0
  P  P7  1  0.75693100  0.02863290  -0.54635222  1.0
  P  P8  1  0.45364778  -0.24306900  0.02863290  1.0
  P  P9  1  0.97136710  -0.45364778  0.24306900  1.0
  P  P10  1  1.24306900  -0.02863290  -0.45364778  1.0
  O  O11  1  0.18697385  1.00992308  -0.60886724  1.0
  O  O12  1  0.60886724  -0.18697385  -0.00992308  1.0
  O  O13  1  0.99007692  -0.39113276  -0.18697385  1.0
  O  O14  1  0.81302615  -0.00992308  -0.39113276  1.0
  O  O15  1  0.39113276  0.18697385  0.00992308  1.0
  O  O16  1  1.00992308  0.39113276  -0.81302615  1.0
  O  O17  1  0.59169837  0.20580524  -0.55946304  1.0
  O  O18  1  0.55946304  0.40830163  -0.20580524  1.0
  O  O19  1  0.79419476  0.55946304  -0.59169837  1.0
  O  O20  1  0.40830163  0.79419476  -0.44053696  1.0
  O  O21  1  0.44053696  0.59169837  -0.79419476  1.0
  O  O22  1  0.20580524  0.44053696  -0.40830163  1.0
  O  O23  1  0.26825694  -0.08055948  0.05571914  1.0
  O  O24  1  0.94428086  -0.26825694  0.08055948  1.0
  O  O25  1  1.08055948  -0.05571914  -0.26825694  1.0
  O  O26  1  0.73174306  0.08055948  -0.05571914  1.0
  O  O27  1  1.05571914  -0.73174306  -0.08055948  1.0
  O  O28  1  0.91944052  0.05571914  -0.73174306  1.0
  O  O29  1  0.50992120  0.28259991  0.13407690  1.0
  O  O30  1  0.86592310  -0.50992120  -0.28259991  1.0
  O  O31  1  0.71740009  -0.13407690  -0.50992120  1.0
  O  O32  1  0.49007880  -0.28259991  -0.13407690  1.0
  O  O33  1  1.13407690  -0.49007880  0.28259991  1.0
  O  O34  1  1.28259991  0.13407690  -0.49007880  1.0
