# generated using pymatgen
data_Hf7Cu10
_symmetry_space_group_name_H-M   'P 1'
_cell_length_a   7.83707950
_cell_length_b   7.83707950
_cell_length_c   9.30391966
_cell_angle_alpha   90.00000000
_cell_angle_beta   90.00000000
_cell_angle_gamma   72.50014202
_symmetry_Int_Tables_number   1
_chemical_formula_structural   Hf7Cu10
_chemical_formula_sum   'Hf14 Cu20'
_cell_volume   544.99723327
_cell_formula_units_Z   2
loop_
 _symmetry_equiv_pos_site_id
 _symmetry_equiv_pos_as_xyz
  1  'x, y, z'
loop_
 _atom_site_type_symbol
 _atom_site_label
 _atom_site_symmetry_multiplicity
 _atom_site_fract_x
 _atom_site_fract_y
 _atom_site_fract_z
 _atom_site_occupancy
  Hf  Hf0  1  -0.18852297  1.18852297  0.30805051  1.0
  Hf  Hf1  1  0.31147703  0.68852297  0.19194949  1.0
  Hf  Hf2  1  0.18852297  0.81147703  0.69194949  1.0
  Hf  Hf3  1  -0.31147703  1.31147703  0.80805051  1.0
  Hf  Hf4  1  -0.48602656  0.98602656  0.25000000  1.0
  Hf  Hf5  1  0.01397344  1.48602656  0.25000000  1.0
  Hf  Hf6  1  -0.01397344  0.51397344  0.75000000  1.0
  Hf  Hf7  1  0.48602656  1.01397344  0.75000000  1.0
  Hf  Hf8  1  0.18908761  1.18908761  0.50000000  1.0
  Hf  Hf9  1  -0.31091239  0.68908761  0.00000000  1.0
  Hf  Hf10  1  -0.18908761  0.81091239  0.50000000  1.0
  Hf  Hf11  1  0.31091239  1.31091239  0.00000000  1.0
  Hf  Hf12  1  -0.50000000  0.50000000  0.50000000  1.0
  Hf  Hf13  1  0.00000000  1.00000000  0.00000000  1.0
  Cu  Cu14  1  0.37175731  1.33728550  0.29476190  1.0
  Cu  Cu15  1  -0.12824269  0.83728550  0.20523810  1.0
  Cu  Cu16  1  0.33728550  1.37175731  0.70523810  1.0
  Cu  Cu17  1  -0.16271450  0.87175731  0.79476190  1.0
  Cu  Cu18  1  -0.33728550  0.62824269  0.29476190  1.0
  Cu  Cu19  1  0.16271450  1.12824269  0.20523810  1.0
  Cu  Cu20  1  -0.37175731  0.66271450  0.70523810  1.0
  Cu  Cu21  1  0.12824269  1.16271450  0.79476190  1.0
  Cu  Cu22  1  0.44202897  0.85056863  0.49348284  1.0
  Cu  Cu23  1  -0.05797103  1.35056863  0.00651716  1.0
  Cu  Cu24  1  -0.14943137  1.44202897  0.50651716  1.0
  Cu  Cu25  1  0.35056863  0.94202897  0.99348284  1.0
  Cu  Cu26  1  0.14943137  0.55797103  0.49348284  1.0
  Cu  Cu27  1  -0.35056863  1.05797103  0.00651716  1.0
  Cu  Cu28  1  -0.44202897  1.14943137  0.50651716  1.0
  Cu  Cu29  1  0.05797103  0.64943137  0.99348284  1.0
  Cu  Cu30  1  -0.39374663  1.39374663  0.10170732  1.0
  Cu  Cu31  1  0.10625337  0.89374663  0.39829268  1.0
  Cu  Cu32  1  0.39374663  0.60625337  0.89829268  1.0
  Cu  Cu33  1  -0.10625337  1.10625337  0.60170732  1.0
