# generated using pymatgen
data_Ti2P3NO12
_symmetry_space_group_name_H-M   'P 1'
_cell_length_a   9.03916929
_cell_length_b   9.03916929
_cell_length_c   9.03916929
_cell_angle_alpha   56.79823626
_cell_angle_beta   56.79823626
_cell_angle_gamma   56.79823626
_symmetry_Int_Tables_number   1
_chemical_formula_structural   Ti2P3NO12
_chemical_formula_sum   'Ti4 P6 N2 O24'
_cell_volume   483.64777303
_cell_formula_units_Z   2
loop_
 _symmetry_equiv_pos_site_id
 _symmetry_equiv_pos_as_xyz
  1  'x, y, z'
loop_
 _atom_site_type_symbol
 _atom_site_label
 _atom_site_symmetry_multiplicity
 _atom_site_fract_x
 _atom_site_fract_y
 _atom_site_fract_z
 _atom_site_occupancy
  Ti  Ti0  1  0.85513370  -0.14486630  -0.14486630  1.0
  Ti  Ti1  1  0.35513370  0.35513370  0.35513370  1.0
  Ti  Ti2  1  0.64486630  0.64486630  -0.35513370  1.0
  Ti  Ti3  1  1.14486630  0.14486630  0.14486630  1.0
  P  P4  1  0.46855581  0.75000000  0.03144419  1.0
  P  P5  1  0.96855581  -0.46855581  0.25000000  1.0
  P  P6  1  0.25000000  0.96855581  -0.46855581  1.0
  P  P7  1  0.75000000  1.03144419  -0.53144419  1.0
  P  P8  1  0.53144419  0.25000000  -0.03144419  1.0
  P  P9  1  1.03144419  0.46855581  -0.25000000  1.0
  N  N10  1  1.00000000  0.00000000  -0.00000000  1.0
  N  N11  1  0.50000000  0.50000000  0.50000000  1.0
  O  O12  1  0.76562601  1.00515385  -0.35614729  1.0
  O  O13  1  1.26562601  0.14385271  -0.49484615  1.0
  O  O14  1  0.85614729  0.49484615  -0.26562601  1.0
  O  O15  1  0.35614729  0.23437399  -0.00515385  1.0
  O  O16  1  0.99484615  0.35614729  -0.76562601  1.0
  O  O17  1  0.49484615  0.73437399  -0.14385271  1.0
  O  O18  1  0.23437399  0.99484615  -0.64385271  1.0
  O  O19  1  0.73437399  0.85614729  -0.50515385  1.0
  O  O20  1  0.64385271  0.76562601  0.00515385  1.0
  O  O21  1  1.14385271  -0.49484615  0.26562601  1.0
  O  O22  1  0.50515385  0.26562601  0.14385271  1.0
  O  O23  1  1.00515385  0.64385271  -0.23437399  1.0
  O  O24  1  0.70532215  0.07127634  -0.06323041  1.0
  O  O25  1  1.20532215  0.43676959  -0.42872366  1.0
  O  O26  1  0.56323041  0.42872366  -0.20532215  1.0
  O  O27  1  1.06323041  0.29467785  -0.07127634  1.0
  O  O28  1  0.92872366  0.06323041  0.29467785  1.0
  O  O29  1  0.42872366  0.79467785  -0.43676959  1.0
  O  O30  1  1.29467785  -0.07127634  0.06323041  1.0
  O  O31  1  0.79467785  0.56323041  -0.57127634  1.0
  O  O32  1  0.93676959  -0.29467785  0.07127634  1.0
  O  O33  1  0.43676959  0.57127634  0.20532215  1.0
  O  O34  1  0.57127634  1.20532215  -0.56323041  1.0
  O  O35  1  1.07127634  -0.06323041  -0.29467785  1.0
