# generated using pymatgen
data_FeBi3(MoO6)2
_symmetry_space_group_name_H-M   'P 1'
_cell_length_a   10.40785681
_cell_length_b   10.40785681
_cell_length_c   5.34192059
_cell_angle_alpha   75.56339554
_cell_angle_beta   104.43660446
_cell_angle_gamma   110.42582084
_symmetry_Int_Tables_number   1
_chemical_formula_structural   FeBi3(MoO6)2
_chemical_formula_sum   'Fe2 Bi6 Mo4 O24'
_cell_volume   516.68347534
_cell_formula_units_Z   2
loop_
 _symmetry_equiv_pos_site_id
 _symmetry_equiv_pos_as_xyz
  1  'x, y, z'
loop_
 _atom_site_type_symbol
 _atom_site_label
 _atom_site_symmetry_multiplicity
 _atom_site_fract_x
 _atom_site_fract_y
 _atom_site_fract_z
 _atom_site_occupancy
  Fe  Fe0  1  1.12001373  0.12001373  0.75000000  1.0
  Fe  Fe1  1  0.87998627  -0.12001373  0.25000000  1.0
  O  O2  1  0.59214515  -0.17510433  0.87793289  1.0
  O  O3  1  1.17510433  0.40785485  0.37793289  1.0
  O  O4  1  0.82489567  -0.40785485  0.62206711  1.0
  O  O5  1  1.40785485  0.17510433  0.12206711  1.0
  O  O6  1  0.29612221  -0.21060280  0.86046550  1.0
  O  O7  1  1.21060280  0.70387779  0.36046550  1.0
  O  O8  1  0.78939720  -0.70387779  0.63953450  1.0
  O  O9  1  1.70387779  0.21060280  0.13953450  1.0
  O  O10  1  1.50353770  0.07202951  0.73877854  1.0
  O  O11  1  0.92797049  -0.50353770  0.23877854  1.0
  O  O12  1  1.07202951  0.50353770  0.76122146  1.0
  O  O13  1  0.49646230  -0.07202951  0.26122146  1.0
  O  O14  1  1.54195852  0.35985689  0.70017574  1.0
  O  O15  1  0.64014311  -0.54195852  0.20017574  1.0
  O  O16  1  1.35985689  0.54195852  0.79982426  1.0
  O  O17  1  0.45804148  -0.35985689  0.29982426  1.0
  O  O18  1  0.74896565  -0.15314900  0.47355226  1.0
  O  O19  1  1.15314900  0.25103435  0.97355226  1.0
  O  O20  1  0.84685100  -0.25103435  0.02644774  1.0
  O  O21  1  1.25103435  0.15314900  0.52644774  1.0
  O  O22  1  1.86836400  0.04514756  0.99892792  1.0
  O  O23  1  0.95485244  -0.86836400  0.49892792  1.0
  O  O24  1  1.04514756  0.86836400  0.50107208  1.0
  O  O25  1  0.13163600  -0.04514756  0.00107208  1.0
  Bi  Bi26  1  1.73697516  0.04022701  0.59286259  1.0
  Bi  Bi27  1  0.95977299  -0.73697516  0.09286259  1.0
  Bi  Bi28  1  1.04022701  0.73697516  0.90713741  1.0
  Bi  Bi29  1  0.26302484  -0.04022701  0.40713741  1.0
  Bi  Bi30  1  0.65660170  -0.34339830  0.75000000  1.0
  Bi  Bi31  1  1.34339830  0.34339830  0.25000000  1.0
  Mo  Mo32  1  1.53954761  0.20302210  0.92518442  1.0
  Mo  Mo33  1  0.79697790  -0.53954761  0.42518442  1.0
  Mo  Mo34  1  1.20302210  0.53954761  0.57481558  1.0
  Mo  Mo35  1  0.46045239  -0.20302210  0.07481558  1.0
