# generated using pymatgen
data_TaMnGe
_symmetry_space_group_name_H-M   'P 1'
_cell_length_a   7.87773780
_cell_length_b   7.87773780
_cell_length_c   7.87773780
_cell_angle_alpha   132.22950521
_cell_angle_beta   75.28263382
_cell_angle_gamma   125.58775056
_symmetry_Int_Tables_number   1
_chemical_formula_structural   TaMnGe
_chemical_formula_sum   'Ta6 Mn6 Ge6'
_cell_volume   286.65607068
_cell_formula_units_Z   6
loop_
 _symmetry_equiv_pos_site_id
 _symmetry_equiv_pos_as_xyz
  1  'x, y, z'
loop_
 _atom_site_type_symbol
 _atom_site_label
 _atom_site_symmetry_multiplicity
 _atom_site_fract_x
 _atom_site_fract_y
 _atom_site_fract_z
 _atom_site_occupancy
  Ta  Ta0  1  0.50336133  1.36453085  1.13881619  1.0
  Ta  Ta1  1  1.22571466  1.36454514  0.86118381  1.0
  Ta  Ta2  1  0.50336133  0.86454514  0.63883048  1.0
  Ta  Ta3  1  1.22571466  1.86453085  1.36116952  1.0
  Ta  Ta4  1  0.78093864  1.28093864  0.50000000  1.0
  Ta  Ta5  1  0.78093864  0.78093864  0.00000000  1.0
  Mn  Mn6  1  0.50329233  0.94074251  1.06254982  1.0
  Mn  Mn7  1  0.87819270  1.44074251  0.93745018  1.0
  Mn  Mn8  1  0.87822649  0.94079136  0.43743513  1.0
  Mn  Mn9  1  0.50335624  0.44079136  0.56256487  1.0
  Mn  Mn10  1  0.12848352  0.37843461  0.25004891  1.0
  Mn  Mn11  1  1.12838571  0.87843461  0.74995109  1.0
  Ge  Ge12  1  0.83669629  1.50330023  1.33330594  1.0
  Ge  Ge13  1  0.16999429  0.50339035  0.66669406  1.0
  Ge  Ge14  1  0.83669629  1.00339035  0.83339606  1.0
  Ge  Ge15  1  0.16999429  1.00330023  1.16660394  1.0
  Ge  Ge16  1  0.50331425  0.75332630  0.24998795  1.0
  Ge  Ge17  1  1.50333835  1.25332630  0.75001205  1.0
