# generated using pymatgen
data_V5SiB2
_symmetry_space_group_name_H-M   'P 1'
_cell_length_a   6.74508132
_cell_length_b   6.74508132
_cell_length_c   6.74508132
_cell_angle_alpha   129.36348374
_cell_angle_beta   129.36348374
_cell_angle_gamma   74.42641196
_symmetry_Int_Tables_number   1
_chemical_formula_structural   V5SiB2
_chemical_formula_sum   'V10 Si2 B4'
_cell_volume   178.77894222
_cell_formula_units_Z   2
loop_
 _symmetry_equiv_pos_site_id
 _symmetry_equiv_pos_as_xyz
  1  'x, y, z'
loop_
 _atom_site_type_symbol
 _atom_site_label
 _atom_site_symmetry_multiplicity
 _atom_site_fract_x
 _atom_site_fract_y
 _atom_site_fract_z
 _atom_site_occupancy
  V  V0  1  0.50000000  0.50000000  1.00000000  1.0
  V  V1  1  -0.00000000  0.00000000  0.00000000  1.0
  V  V2  1  0.53284151  1.03284151  0.83940172  1.0
  V  V3  1  1.19343979  0.69343979  1.16059828  1.0
  V  V4  1  1.03284151  1.19343979  1.50000000  1.0
  V  V5  1  0.69343979  0.53284151  0.50000000  1.0
  V  V6  1  0.46715849  0.96715849  1.16059828  1.0
  V  V7  1  0.80656021  0.30656021  0.83940172  1.0
  V  V8  1  0.96715849  0.80656021  1.50000000  1.0
  V  V9  1  0.30656021  0.46715849  0.50000000  1.0
  Si  Si10  1  0.25000000  0.25000000  -0.00000000  1.0
  Si  Si11  1  0.75000000  0.75000000  1.00000000  1.0
  B  B12  1  0.88497783  0.38497783  1.26995567  1.0
  B  B13  1  0.11502217  0.61502217  0.73004433  1.0
  B  B14  1  0.38497783  0.11502217  0.50000000  1.0
  B  B15  1  0.61502217  0.88497783  1.50000000  1.0
