# generated using pymatgen
data_CsSn2(AsO4)3
_symmetry_space_group_name_H-M   'P 1'
_cell_length_a   10.01267689
_cell_length_b   10.01267689
_cell_length_c   10.01267689
_cell_angle_alpha   52.66936274
_cell_angle_beta   52.66936274
_cell_angle_gamma   52.66936274
_symmetry_Int_Tables_number   1
_chemical_formula_structural   CsSn2(AsO4)3
_chemical_formula_sum   'Cs2 Sn4 As6 O24'
_cell_volume   587.71175231
_cell_formula_units_Z   2
loop_
 _symmetry_equiv_pos_site_id
 _symmetry_equiv_pos_as_xyz
  1  'x, y, z'
loop_
 _atom_site_type_symbol
 _atom_site_label
 _atom_site_symmetry_multiplicity
 _atom_site_fract_x
 _atom_site_fract_y
 _atom_site_fract_z
 _atom_site_occupancy
  Cs  Cs0  1  1.00000000  -0.00000000  0.00000000  1.0
  Cs  Cs1  1  0.50000000  0.50000000  0.50000000  1.0
  Sn  Sn2  1  0.84692478  -0.15307522  -0.15307522  1.0
  Sn  Sn3  1  0.34692478  0.34692478  0.34692478  1.0
  Sn  Sn4  1  0.65307522  0.65307522  -0.34692478  1.0
  Sn  Sn5  1  1.15307522  0.15307522  0.15307522  1.0
  As  As6  1  0.47266447  0.75000000  0.02733553  1.0
  As  As7  1  0.97266447  -0.47266447  0.25000000  1.0
  As  As8  1  0.25000000  0.97266447  -0.47266447  1.0
  As  As9  1  0.75000000  1.02733553  -0.52733553  1.0
  As  As10  1  0.52733553  0.25000000  -0.02733553  1.0
  As  As11  1  1.02733553  0.47266447  -0.25000000  1.0
  O  O12  1  0.71600832  1.02382619  -0.33316374  1.0
  O  O13  1  1.21600832  0.16683626  -0.47617381  1.0
  O  O14  1  0.83316374  0.47617381  -0.21600832  1.0
  O  O15  1  0.33316374  0.28399168  -0.02382619  1.0
  O  O16  1  0.97617381  0.33316374  -0.71600832  1.0
  O  O17  1  0.47617381  0.78399168  -0.16683626  1.0
  O  O18  1  0.28399168  0.97617381  -0.66683626  1.0
  O  O19  1  0.78399168  0.83316374  -0.52382619  1.0
  O  O20  1  0.66683626  0.71600832  0.02382619  1.0
  O  O21  1  1.16683626  -0.47617381  0.21600832  1.0
  O  O22  1  0.52382619  0.21600832  0.16683626  1.0
  O  O23  1  1.02382619  0.66683626  -0.28399168  1.0
  O  O24  1  0.70614005  0.05566347  -0.06388824  1.0
  O  O25  1  1.20614005  0.43611176  -0.44433653  1.0
  O  O26  1  0.56388824  0.44433653  -0.20614005  1.0
  O  O27  1  1.06388824  0.29385995  -0.05566347  1.0
  O  O28  1  0.94433653  0.06388824  0.29385995  1.0
  O  O29  1  0.44433653  0.79385995  -0.43611176  1.0
  O  O30  1  1.29385995  -0.05566347  0.06388824  1.0
  O  O31  1  0.79385995  0.56388824  -0.55566347  1.0
  O  O32  1  0.93611176  -0.29385995  0.05566347  1.0
  O  O33  1  0.43611176  0.55566347  0.20614005  1.0
  O  O34  1  0.55566347  1.20614005  -0.56388824  1.0
  O  O35  1  1.05566347  -0.06388824  -0.29385995  1.0
