# generated using pymatgen
data_Li(Mo2O3)2
_symmetry_space_group_name_H-M   'P 1'
_cell_length_a   9.55987432
_cell_length_b   9.55987432
_cell_length_c   2.86010852
_cell_angle_alpha   90.00000000
_cell_angle_beta   90.00000000
_cell_angle_gamma   90.00000000
_symmetry_Int_Tables_number   1
_chemical_formula_structural   Li(Mo2O3)2
_chemical_formula_sum   'Li2 Mo8 O12'
_cell_volume   261.38874118
_cell_formula_units_Z   2
loop_
 _symmetry_equiv_pos_site_id
 _symmetry_equiv_pos_as_xyz
  1  'x, y, z'
loop_
 _atom_site_type_symbol
 _atom_site_label
 _atom_site_symmetry_multiplicity
 _atom_site_fract_x
 _atom_site_fract_y
 _atom_site_fract_z
 _atom_site_occupancy
  Li  Li0  1  0.50000000  0.50000000  0.00000000  1.0
  Li  Li1  1  0.00000000  0.00000000  0.00000000  1.0
  Mo  Mo2  1  0.39851322  0.10148678  0.50000000  1.0
  Mo  Mo3  1  0.89851322  0.39851322  0.50000000  1.0
  Mo  Mo4  1  0.60148678  0.89851322  0.50000000  1.0
  Mo  Mo5  1  0.10148678  0.60148678  0.50000000  1.0
  Mo  Mo6  1  0.85665534  0.64334466  0.00000000  1.0
  Mo  Mo7  1  0.35665534  0.85665534  0.00000000  1.0
  Mo  Mo8  1  0.14334466  0.35665534  0.00000000  1.0
  Mo  Mo9  1  0.64334466  0.14334466  0.00000000  1.0
  O  O10  1  0.45523928  0.73592805  0.50000000  1.0
  O  O11  1  0.95523928  0.76407195  0.50000000  1.0
  O  O12  1  0.26407195  0.45523928  0.50000000  1.0
  O  O13  1  0.76407195  0.04476072  0.50000000  1.0
  O  O14  1  0.54476072  0.26407195  0.50000000  1.0
  O  O15  1  0.04476072  0.23592805  0.50000000  1.0
  O  O16  1  0.73592805  0.54476072  0.50000000  1.0
  O  O17  1  0.23592805  0.95523928  0.50000000  1.0
  O  O18  1  0.29357441  0.20642559  0.00000000  1.0
  O  O19  1  0.79357441  0.29357441  0.00000000  1.0
  O  O20  1  0.70642559  0.79357441  0.00000000  1.0
  O  O21  1  0.20642559  0.70642559  0.00000000  1.0
