# generated using pymatgen
data_FeCoPO4F
_symmetry_space_group_name_H-M   'P 1'
_cell_length_a   7.32092302
_cell_length_b   7.32092302
_cell_length_c   9.79576169
_cell_angle_alpha   65.25022127
_cell_angle_beta   114.74977873
_cell_angle_gamma   127.41573571
_symmetry_Int_Tables_number   1
_chemical_formula_structural   FeCoPO4F
_chemical_formula_sum   'Fe4 Co4 P4 O16 F4'
_cell_volume   368.73437800
_cell_formula_units_Z   4
loop_
 _symmetry_equiv_pos_site_id
 _symmetry_equiv_pos_as_xyz
  1  'x, y, z'
loop_
 _atom_site_type_symbol
 _atom_site_label
 _atom_site_symmetry_multiplicity
 _atom_site_fract_x
 _atom_site_fract_y
 _atom_site_fract_z
 _atom_site_occupancy
  Fe  Fe0  1  0.89172502  0.88149007  0.51104416  1.0
  Fe  Fe1  1  0.11850993  0.10827498  0.01104416  1.0
  Fe  Fe2  1  1.61285593  -0.18990965  0.15953516  1.0
  Fe  Fe3  1  1.18990965  -0.61285593  0.65953516  1.0
  Co  Co4  1  1.58705104  0.21899225  0.27591784  1.0
  Co  Co5  1  0.78100775  0.41294896  0.77591784  1.0
  Co  Co6  1  1.04394485  -0.51518003  0.12704676  1.0
  Co  Co7  1  0.51518003  -0.04394485  0.62704676  1.0
  P  P8  1  1.07225096  0.73795716  0.33677746  1.0
  P  P9  1  0.26204284  -0.07225096  0.83677746  1.0
  P  P10  1  0.40404019  0.37620726  0.44857704  1.0
  P  P11  1  0.62379274  0.59595981  0.94857704  1.0
  O  O12  1  1.76946922  -0.17570650  0.01106885  1.0
  O  O13  1  1.17570650  -0.76946922  0.51106885  1.0
  O  O14  1  1.36272673  -0.47113274  0.28296025  1.0
  O  O15  1  1.47113274  -0.36272673  0.78296025  1.0
  O  O16  1  1.21868922  -0.30090355  0.50344906  1.0
  O  O17  1  0.30090355  -0.21868922  1.00344906  1.0
  O  O18  1  0.49041641  0.07606864  0.77561597  1.0
  O  O19  1  0.92393136  -0.49041641  0.27561597  1.0
  O  O20  1  1.23829055  -0.05919348  0.22450742  1.0
  O  O21  1  1.05919348  0.76170945  0.72450742  1.0
  O  O22  1  0.46528079  0.21340791  0.44015362  1.0
  O  O23  1  0.78659209  0.53471921  0.94015362  1.0
  O  O24  1  0.90336657  0.80137888  0.33884446  1.0
  O  O25  1  0.19862112  0.09663343  0.83884446  1.0
  O  O26  1  1.46078977  0.39340612  0.06299457  1.0
  O  O27  1  0.60659388  0.53921023  0.56299457  1.0
  F  F28  1  1.69111803  0.00218982  0.47840940  1.0
  F  F29  1  0.99781018  0.30888197  0.97840940  1.0
  F  F30  1  1.73727616  0.12141930  0.18679797  1.0
  F  F31  1  0.87858070  0.26272384  0.68679797  1.0
