# generated using pymatgen
data_NbGeRh
_symmetry_space_group_name_H-M   'P 1'
_cell_length_a   6.48170464
_cell_length_b   3.86670726
_cell_length_c   7.47691380
_cell_angle_alpha   90.00000000
_cell_angle_beta   90.00000000
_cell_angle_gamma   90.00000000
_symmetry_Int_Tables_number   1
_chemical_formula_structural   NbGeRh
_chemical_formula_sum   'Nb4 Ge4 Rh4'
_cell_volume   187.39280195
_cell_formula_units_Z   4
loop_
 _symmetry_equiv_pos_site_id
 _symmetry_equiv_pos_as_xyz
  1  'x, y, z'
loop_
 _atom_site_type_symbol
 _atom_site_label
 _atom_site_symmetry_multiplicity
 _atom_site_fract_x
 _atom_site_fract_y
 _atom_site_fract_z
 _atom_site_occupancy
  Nb  Nb0  1  0.97190979  0.75000000  0.67936672  1.0
  Nb  Nb1  1  0.47190979  0.75000000  0.82063328  1.0
  Nb  Nb2  1  0.02809021  0.25000000  0.32063328  1.0
  Nb  Nb3  1  0.52809021  0.25000000  0.17936672  1.0
  Ge  Ge4  1  0.74031720  0.75000000  0.37627575  1.0
  Ge  Ge5  1  0.24031720  0.75000000  0.12372425  1.0
  Ge  Ge6  1  0.25968280  0.25000000  0.62372425  1.0
  Ge  Ge7  1  0.75968280  0.25000000  0.87627575  1.0
  Rh  Rh8  1  0.85628478  0.75000000  0.06143392  1.0
  Rh  Rh9  1  0.35628478  0.75000000  0.43856608  1.0
  Rh  Rh10  1  0.14371522  0.25000000  0.93856608  1.0
  Rh  Rh11  1  0.64371522  0.25000000  0.56143392  1.0
