# generated using pymatgen
data_BaZr(PO4)2
_symmetry_space_group_name_H-M   'P 1'
_cell_length_a   5.32873183
_cell_length_b   5.32873183
_cell_length_c   7.65184911
_cell_angle_alpha   90.00000000
_cell_angle_beta   90.00000000
_cell_angle_gamma   120.00000000
_symmetry_Int_Tables_number   1
_chemical_formula_structural   BaZr(PO4)2
_chemical_formula_sum   'Ba1 Zr1 P2 O8'
_cell_volume   188.16756260
_cell_formula_units_Z   1
loop_
 _symmetry_equiv_pos_site_id
 _symmetry_equiv_pos_as_xyz
  1  'x, y, z'
loop_
 _atom_site_type_symbol
 _atom_site_label
 _atom_site_symmetry_multiplicity
 _atom_site_fract_x
 _atom_site_fract_y
 _atom_site_fract_z
 _atom_site_occupancy
  Ba  Ba0  1  0.00000000  0.00000000  0.00000000  1.0
  Zr  Zr1  1  0.00000000  0.00000000  0.50000000  1.0
  P  P2  1  0.33333333  0.66666667  0.25756595  1.0
  P  P3  1  0.66666667  0.33333333  0.74243405  1.0
  O  O4  1  0.33333333  0.66666667  0.05858060  1.0
  O  O5  1  0.66666667  0.33333333  0.94141940  1.0
  O  O6  1  0.64963535  0.82481768  0.33020331  1.0
  O  O7  1  0.82481768  0.64963535  0.66979669  1.0
  O  O8  1  0.82481768  0.17518232  0.66979669  1.0
  O  O9  1  0.17518232  0.82481768  0.33020331  1.0
  O  O10  1  0.17518232  0.35036465  0.33020331  1.0
  O  O11  1  0.35036465  0.17518232  0.66979669  1.0
