# generated using pymatgen
data_LaNiO3
_symmetry_space_group_name_H-M   'P 1'
_cell_length_a   5.40564198
_cell_length_b   5.40564198
_cell_length_c   5.40564198
_cell_angle_alpha   61.18966600
_cell_angle_beta   61.18966600
_cell_angle_gamma   61.18966600
_symmetry_Int_Tables_number   1
_chemical_formula_structural   LaNiO3
_chemical_formula_sum   'La2 Ni2 O6'
_cell_volume   114.68241341
_cell_formula_units_Z   2
loop_
 _symmetry_equiv_pos_site_id
 _symmetry_equiv_pos_as_xyz
  1  'x, y, z'
loop_
 _atom_site_type_symbol
 _atom_site_label
 _atom_site_symmetry_multiplicity
 _atom_site_fract_x
 _atom_site_fract_y
 _atom_site_fract_z
 _atom_site_occupancy
  La  La0  1  1.25000000  1.25000000  0.25000000  1.0
  La  La1  1  0.75000000  0.75000000  -0.25000000  1.0
  Ni  Ni2  1  0.50000000  0.50000000  -0.50000000  1.0
  Ni  Ni3  1  0.00000000  0.00000000  0.00000000  1.0
  O  O4  1  0.80460932  0.25000000  -0.30460932  1.0
  O  O5  1  0.30460932  0.19539068  -0.25000000  1.0
  O  O6  1  0.75000000  0.30460932  -0.80460932  1.0
  O  O7  1  0.25000000  0.69539068  -0.19539068  1.0
  O  O8  1  0.19539068  0.75000000  -0.69539068  1.0
  O  O9  1  0.69539068  -0.19539068  0.25000000  1.0
