# generated using pymatgen
data_Cs3As7
_symmetry_space_group_name_H-M   'P 1'
_cell_length_a   10.36940026
_cell_length_b   13.70553036
_cell_length_c   22.46736314
_cell_angle_alpha   90.00000000
_cell_angle_beta   90.00000000
_cell_angle_gamma   90.00000000
_symmetry_Int_Tables_number   1
_chemical_formula_structural   Cs3As7
_chemical_formula_sum   'Cs24 As56'
_cell_volume   3193.01963727
_cell_formula_units_Z   8
loop_
 _symmetry_equiv_pos_site_id
 _symmetry_equiv_pos_as_xyz
  1  'x, y, z'
loop_
 _atom_site_type_symbol
 _atom_site_label
 _atom_site_symmetry_multiplicity
 _atom_site_fract_x
 _atom_site_fract_y
 _atom_site_fract_z
 _atom_site_occupancy
  Cs  Cs0  1  0.24104858  0.54690343  0.97709251  1.0
  Cs  Cs1  1  0.24104858  0.95309657  0.47709251  1.0
  Cs  Cs2  1  0.74104858  0.54690343  0.52290749  1.0
  Cs  Cs3  1  0.74104858  0.95309657  0.02290749  1.0
  Cs  Cs4  1  0.75895142  0.04690343  0.52290749  1.0
  Cs  Cs5  1  0.75895142  0.45309657  0.02290749  1.0
  Cs  Cs6  1  0.25895142  0.04690343  0.97709251  1.0
  Cs  Cs7  1  0.25895142  0.45309657  0.47709251  1.0
  Cs  Cs8  1  0.20623063  0.96840157  0.77102992  1.0
  Cs  Cs9  1  0.20623063  0.53159843  0.27102992  1.0
  Cs  Cs10  1  0.70623063  0.96840157  0.72897008  1.0
  Cs  Cs11  1  0.70623063  0.53159843  0.22897008  1.0
  Cs  Cs12  1  0.79376937  0.46840157  0.72897008  1.0
  Cs  Cs13  1  0.79376937  0.03159843  0.22897008  1.0
  Cs  Cs14  1  0.29376937  0.46840157  0.77102992  1.0
  Cs  Cs15  1  0.29376937  0.03159843  0.27102992  1.0
  Cs  Cs16  1  0.10849586  0.72518538  0.62191792  1.0
  Cs  Cs17  1  0.10849586  0.77481462  0.12191792  1.0
  Cs  Cs18  1  0.60849586  0.72518538  0.87808208  1.0
  Cs  Cs19  1  0.60849586  0.77481462  0.37808208  1.0
  Cs  Cs20  1  0.89150414  0.22518538  0.87808208  1.0
  Cs  Cs21  1  0.89150414  0.27481462  0.37808208  1.0
  Cs  Cs22  1  0.39150414  0.22518538  0.62191792  1.0
  Cs  Cs23  1  0.39150414  0.27481462  0.12191792  1.0
  As  As24  1  0.45772947  0.61929765  0.64744784  1.0
  As  As25  1  0.45772947  0.88070235  0.14744784  1.0
  As  As26  1  0.95772947  0.61929765  0.85255216  1.0
  As  As27  1  0.95772947  0.88070235  0.35255216  1.0
  As  As28  1  0.54227053  0.11929765  0.85255216  1.0
  As  As29  1  0.54227053  0.38070235  0.35255216  1.0
  As  As30  1  0.04227053  0.11929765  0.64744784  1.0
  As  As31  1  0.04227053  0.38070235  0.14744784  1.0
  As  As32  1  0.43965977  0.77834954  0.70716251  1.0
  As  As33  1  0.43965977  0.72165046  0.20716251  1.0
  As  As34  1  0.93965977  0.77834954  0.79283749  1.0
  As  As35  1  0.93965977  0.72165046  0.29283749  1.0
  As  As36  1  0.56034023  0.27834954  0.79283749  1.0
  As  As37  1  0.56034023  0.22165046  0.29283749  1.0
  As  As38  1  0.06034023  0.27834954  0.70716251  1.0
  As  As39  1  0.06034023  0.22165046  0.20716251  1.0
  As  As40  1  0.42514999  0.66938275  0.54679535  1.0
  As  As41  1  0.42514999  0.83061725  0.04679535  1.0
  As  As42  1  0.92514999  0.66938275  0.95320465  1.0
  As  As43  1  0.92514999  0.83061725  0.45320465  1.0
  As  As44  1  0.57485001  0.16938275  0.95320465  1.0
  As  As45  1  0.57485001  0.33061725  0.45320465  1.0
  As  As46  1  0.07485001  0.16938275  0.54679535  1.0
  As  As47  1  0.07485001  0.33061725  0.04679535  1.0
  As  As48  1  0.41231480  0.90389069  0.63394782  1.0
  As  As49  1  0.41231480  0.59610931  0.13394782  1.0
  As  As50  1  0.91231480  0.90389069  0.86605218  1.0
  As  As51  1  0.91231480  0.59610931  0.36605218  1.0
  As  As52  1  0.58768520  0.40389069  0.86605218  1.0
  As  As53  1  0.58768520  0.09610931  0.36605218  1.0
  As  As54  1  0.08768520  0.40389069  0.63394782  1.0
  As  As55  1  0.08768520  0.09610931  0.13394782  1.0
  As  As56  1  0.23898875  0.79222404  0.90109382  1.0
  As  As57  1  0.23898875  0.70777596  0.40109382  1.0
  As  As58  1  0.73898875  0.79222404  0.59890618  1.0
  As  As59  1  0.73898875  0.70777596  0.09890618  1.0
  As  As60  1  0.76101125  0.29222404  0.59890618  1.0
  As  As61  1  0.76101125  0.20777596  0.09890618  1.0
  As  As62  1  0.26101125  0.29222404  0.90109382  1.0
  As  As63  1  0.26101125  0.20777596  0.40109382  1.0
  As  As64  1  0.16106143  0.70513497  0.81659977  1.0
  As  As65  1  0.16106143  0.79486503  0.31659977  1.0
  As  As66  1  0.66106143  0.70513497  0.68340023  1.0
  As  As67  1  0.66106143  0.79486503  0.18340023  1.0
  As  As68  1  0.83893857  0.20513497  0.68340023  1.0
  As  As69  1  0.83893857  0.29486503  0.18340023  1.0
  As  As70  1  0.33893857  0.20513497  0.81659977  1.0
  As  As71  1  0.33893857  0.29486503  0.31659977  1.0
  As  As72  1  0.03147579  0.82819308  0.94881350  1.0
  As  As73  1  0.03147579  0.67180692  0.44881350  1.0
  As  As74  1  0.53147579  0.82819308  0.55118650  1.0
  As  As75  1  0.53147579  0.67180692  0.05118650  1.0
  As  As76  1  0.96852421  0.32819308  0.55118650  1.0
  As  As77  1  0.96852421  0.17180692  0.05118650  1.0
  As  As78  1  0.46852421  0.32819308  0.94881350  1.0
  As  As79  1  0.46852421  0.17180692  0.44881350  1.0
