# generated using pymatgen
data_K2BiAu
_symmetry_space_group_name_H-M   'P 1'
_cell_length_a   6.70869249
_cell_length_b   6.70869249
_cell_length_c   6.84652661
_cell_angle_alpha   90.00000000
_cell_angle_beta   90.00000000
_cell_angle_gamma   72.28849614
_symmetry_Int_Tables_number   1
_chemical_formula_structural   K2BiAu
_chemical_formula_sum   'K4 Bi2 Au2'
_cell_volume   293.53293615
_cell_formula_units_Z   2
loop_
 _symmetry_equiv_pos_site_id
 _symmetry_equiv_pos_as_xyz
  1  'x, y, z'
loop_
 _atom_site_type_symbol
 _atom_site_label
 _atom_site_symmetry_multiplicity
 _atom_site_fract_x
 _atom_site_fract_y
 _atom_site_fract_z
 _atom_site_occupancy
  K  K0  1  -0.14750951  1.48926230  0.25000000  1.0
  K  K1  1  0.48926230  0.85249049  0.75000000  1.0
  K  K2  1  -0.48926230  1.14750951  0.25000000  1.0
  K  K3  1  0.14750951  0.51073770  0.75000000  1.0
  Bi  Bi4  1  0.27579888  0.72420112  0.25000000  1.0
  Bi  Bi5  1  -0.27579888  1.27579888  0.75000000  1.0
  Au  Au6  1  0.00000000  0.00000000  0.50000000  1.0
  Au  Au7  1  0.00000000  0.00000000  0.00000000  1.0
