# generated using pymatgen
data_CaAlSi
_symmetry_space_group_name_H-M   'P 1'
_cell_length_a   4.20701229
_cell_length_b   4.20701229
_cell_length_c   26.17369131
_cell_angle_alpha   90.00000000
_cell_angle_beta   90.00000000
_cell_angle_gamma   120.00000000
_symmetry_Int_Tables_number   1
_chemical_formula_structural   CaAlSi
_chemical_formula_sum   'Ca6 Al6 Si6'
_cell_volume   401.18359878
_cell_formula_units_Z   6
loop_
 _symmetry_equiv_pos_site_id
 _symmetry_equiv_pos_as_xyz
  1  'x, y, z'
loop_
 _atom_site_type_symbol
 _atom_site_label
 _atom_site_symmetry_multiplicity
 _atom_site_fract_x
 _atom_site_fract_y
 _atom_site_fract_z
 _atom_site_occupancy
  Ca  Ca0  1  0.00000000  0.00000000  0.00002360  1.0
  Ca  Ca1  1  0.00000000  0.00000000  0.50002360  1.0
  Ca  Ca2  1  0.00000000  0.00000000  0.16437422  1.0
  Ca  Ca3  1  0.00000000  0.00000000  0.66437422  1.0
  Ca  Ca4  1  0.00000000  0.00000000  0.33242014  1.0
  Ca  Ca5  1  0.00000000  0.00000000  0.83242014  1.0
  Al  Al6  1  0.33333333  0.66666667  0.42266509  1.0
  Al  Al7  1  0.66666667  0.33333333  0.92266509  1.0
  Al  Al8  1  0.33333333  0.66666667  0.58152710  1.0
  Al  Al9  1  0.66666667  0.33333333  0.08152710  1.0
  Al  Al10  1  0.33333333  0.66666667  0.74248162  1.0
  Al  Al11  1  0.66666667  0.33333333  0.24248162  1.0
  Si  Si12  1  0.33333333  0.66666667  0.08263858  1.0
  Si  Si13  1  0.66666667  0.33333333  0.58263858  1.0
  Si  Si14  1  0.33333333  0.66666667  0.25381752  1.0
  Si  Si15  1  0.66666667  0.33333333  0.75381752  1.0
  Si  Si16  1  0.33333333  0.66666667  0.91065213  1.0
  Si  Si17  1  0.66666667  0.33333333  0.41065213  1.0
