# generated using pymatgen
data_Al3Bi5Br12
_symmetry_space_group_name_H-M   'P 1'
_cell_length_a   13.30123087
_cell_length_b   13.30123087
_cell_length_c   13.30123087
_cell_angle_alpha   56.93307245
_cell_angle_beta   56.93307245
_cell_angle_gamma   56.93307245
_symmetry_Int_Tables_number   1
_chemical_formula_structural   Al3Bi5Br12
_chemical_formula_sum   'Al6 Bi10 Br24'
_cell_volume   1546.31474825
_cell_formula_units_Z   2
loop_
 _symmetry_equiv_pos_site_id
 _symmetry_equiv_pos_as_xyz
  1  'x, y, z'
loop_
 _atom_site_type_symbol
 _atom_site_label
 _atom_site_symmetry_multiplicity
 _atom_site_fract_x
 _atom_site_fract_y
 _atom_site_fract_z
 _atom_site_occupancy
  Al  Al0  1  0.80662558  -0.30662558  0.25000000  1.0
  Al  Al1  1  0.69337442  0.25000000  -0.19337442  1.0
  Al  Al2  1  0.25000000  0.80662558  -0.30662558  1.0
  Al  Al3  1  0.30662558  0.75000000  -0.80662558  1.0
  Al  Al4  1  0.75000000  0.19337442  -0.69337442  1.0
  Al  Al5  1  0.19337442  0.30662558  -0.25000000  1.0
  Bi  Bi6  1  1.40790147  1.09209853  0.25000000  1.0
  Bi  Bi7  1  1.09209853  1.25000000  0.40790147  1.0
  Bi  Bi8  1  1.25000000  1.40790147  0.09209853  1.0
  Bi  Bi9  1  0.90790147  0.75000000  -0.40790147  1.0
  Bi  Bi10  1  0.75000000  0.59209853  -0.09209853  1.0
  Bi  Bi11  1  0.59209853  0.90790147  -0.25000000  1.0
  Bi  Bi12  1  1.18106540  1.18106540  0.18106540  1.0
  Bi  Bi13  1  0.68106540  0.68106540  -0.31893460  1.0
  Bi  Bi14  1  0.81893460  0.81893460  -0.18106540  1.0
  Bi  Bi15  1  1.31893460  1.31893460  0.31893460  1.0
  Br  Br16  1  0.64352674  0.73448405  -0.80015695  1.0
  Br  Br17  1  0.73448405  0.19984305  -0.35647326  1.0
  Br  Br18  1  0.19984305  0.64352674  -0.26551595  1.0
  Br  Br19  1  0.14352674  0.69984305  -0.76551595  1.0
  Br  Br20  1  0.69984305  0.23448405  -0.85647326  1.0
  Br  Br21  1  0.23448405  0.14352674  -0.30015695  1.0
  Br  Br22  1  0.35647326  0.26551595  -0.19984305  1.0
  Br  Br23  1  0.26551595  0.80015695  -0.64352674  1.0
  Br  Br24  1  0.80015695  0.35647326  -0.73448405  1.0
  Br  Br25  1  0.85647326  0.30015695  -0.23448405  1.0
  Br  Br26  1  1.30015695  -0.23448405  -0.14352674  1.0
  Br  Br27  1  0.76551595  -0.14352674  0.30015695  1.0
  Br  Br28  1  0.83752461  0.50637849  -0.57027137  1.0
  Br  Br29  1  0.50637849  0.42972863  -0.16247539  1.0
  Br  Br30  1  0.42972863  0.83752461  -0.49362151  1.0
  Br  Br31  1  0.33752461  -0.07027137  0.00637849  1.0
  Br  Br32  1  0.92972863  0.00637849  -0.66247539  1.0
  Br  Br33  1  1.00637849  -0.66247539  -0.07027137  1.0
  Br  Br34  1  0.16247539  0.49362151  -0.42972863  1.0
  Br  Br35  1  0.49362151  0.57027137  -0.83752461  1.0
  Br  Br36  1  0.57027137  0.16247539  -0.50637849  1.0
  Br  Br37  1  0.66247539  0.07027137  -0.00637849  1.0
  Br  Br38  1  1.07027137  -0.00637849  -0.33752461  1.0
  Br  Br39  1  0.99362151  -0.33752461  0.07027137  1.0
