# generated using pymatgen
data_Lu2Zr3Ge4
_symmetry_space_group_name_H-M   'P 1'
_cell_length_a   7.40251104
_cell_length_b   7.40251104
_cell_length_c   13.47463077
_cell_angle_alpha   90.00000000
_cell_angle_beta   90.00000000
_cell_angle_gamma   90.00000000
_symmetry_Int_Tables_number   1
_chemical_formula_structural   Lu2Zr3Ge4
_chemical_formula_sum   'Lu8 Zr12 Ge16'
_cell_volume   738.37162884
_cell_formula_units_Z   4
loop_
 _symmetry_equiv_pos_site_id
 _symmetry_equiv_pos_as_xyz
  1  'x, y, z'
loop_
 _atom_site_type_symbol
 _atom_site_label
 _atom_site_symmetry_multiplicity
 _atom_site_fract_x
 _atom_site_fract_y
 _atom_site_fract_z
 _atom_site_occupancy
  Lu  Lu0  1  0.50134632  0.84213358  0.03192220  1.0
  Lu  Lu1  1  1.00134632  0.65786642  0.71807780  1.0
  Lu  Lu2  1  0.15786642  0.49865368  0.46807780  1.0
  Lu  Lu3  1  0.65786642  1.00134632  0.28192220  1.0
  Lu  Lu4  1  0.49865368  0.15786642  0.53192220  1.0
  Lu  Lu5  1  -0.00134632  0.34213358  0.21807780  1.0
  Lu  Lu6  1  0.84213358  0.50134632  0.96807780  1.0
  Lu  Lu7  1  0.34213358  -0.00134632  0.78192220  1.0
  Zr  Zr8  1  0.34589644  0.49707284  0.87444696  1.0
  Zr  Zr9  1  0.84589644  1.00292716  0.87555304  1.0
  Zr  Zr10  1  0.50292716  0.65410356  0.62555304  1.0
  Zr  Zr11  1  1.00292716  0.84589644  0.12444696  1.0
  Zr  Zr12  1  0.65410356  0.50292716  0.37444696  1.0
  Zr  Zr13  1  0.15410356  -0.00292716  0.37555304  1.0
  Zr  Zr14  1  0.49707284  0.34589644  0.12555304  1.0
  Zr  Zr15  1  -0.00292716  0.15410356  0.62444696  1.0
  Zr  Zr16  1  0.32844245  0.67155755  0.25000000  1.0
  Zr  Zr17  1  0.82844245  0.82844245  0.50000000  1.0
  Zr  Zr18  1  0.67155755  0.32844245  0.75000000  1.0
  Zr  Zr19  1  0.17155755  0.17155755  0.00000000  1.0
  Ge  Ge20  1  0.19872807  0.53633815  0.06772159  1.0
  Ge  Ge21  1  0.69872807  0.96366185  0.68227841  1.0
  Ge  Ge22  1  0.46366185  0.80127193  0.43227841  1.0
  Ge  Ge23  1  0.96366185  0.69872807  0.31772159  1.0
  Ge  Ge24  1  0.80127193  0.46366185  0.56772159  1.0
  Ge  Ge25  1  0.30127193  0.03633815  0.18227841  1.0
  Ge  Ge26  1  0.53633815  0.19872807  0.93227841  1.0
  Ge  Ge27  1  0.03633815  0.30127193  0.81772159  1.0
  Ge  Ge28  1  0.13810027  0.80022799  0.92541845  1.0
  Ge  Ge29  1  0.63810027  0.69977201  0.82458155  1.0
  Ge  Ge30  1  0.19977201  0.86189973  0.57458155  1.0
  Ge  Ge31  1  0.69977201  0.63810027  0.17541845  1.0
  Ge  Ge32  1  0.86189973  0.19977201  0.42541845  1.0
  Ge  Ge33  1  0.36189973  0.30022799  0.32458155  1.0
  Ge  Ge34  1  0.80022799  0.13810027  0.07458155  1.0
  Ge  Ge35  1  0.30022799  0.36189973  0.67541845  1.0
