# generated using pymatgen
data_La(ReB)4
_symmetry_space_group_name_H-M   'P 1'
_cell_length_a   5.42711990
_cell_length_b   5.42711990
_cell_length_c   7.71135959
_cell_angle_alpha   90.00000000
_cell_angle_beta   90.00000000
_cell_angle_gamma   90.00000000
_symmetry_Int_Tables_number   1
_chemical_formula_structural   La(ReB)4
_chemical_formula_sum   'La2 Re8 B8'
_cell_volume   227.12753541
_cell_formula_units_Z   2
loop_
 _symmetry_equiv_pos_site_id
 _symmetry_equiv_pos_as_xyz
  1  'x, y, z'
loop_
 _atom_site_type_symbol
 _atom_site_label
 _atom_site_symmetry_multiplicity
 _atom_site_fract_x
 _atom_site_fract_y
 _atom_site_fract_z
 _atom_site_occupancy
  La  La0  1  0.00000000  0.00000000  0.00000000  1.0
  La  La1  1  0.50000000  0.50000000  0.50000000  1.0
  Re  Re2  1  0.25227298  0.50000000  0.86157323  1.0
  Re  Re3  1  0.74772702  0.50000000  0.86157323  1.0
  Re  Re4  1  -0.00000000  0.75227298  0.36157323  1.0
  Re  Re5  1  -0.00000000  0.24772702  0.36157323  1.0
  Re  Re6  1  0.24772702  -0.00000000  0.63842677  1.0
  Re  Re7  1  0.75227298  0.00000000  0.63842677  1.0
  Re  Re8  1  0.50000000  0.74772702  0.13842677  1.0
  Re  Re9  1  0.50000000  0.25227298  0.13842677  1.0
  B  B10  1  0.82943786  0.50000000  0.14536281  1.0
  B  B11  1  0.17056214  0.50000000  0.14536281  1.0
  B  B12  1  0.00000000  0.32943786  0.64536281  1.0
  B  B13  1  -0.00000000  0.67056214  0.64536281  1.0
  B  B14  1  0.67056214  0.00000000  0.35463719  1.0
  B  B15  1  0.32943786  -0.00000000  0.35463719  1.0
  B  B16  1  0.50000000  0.17056214  0.85463719  1.0
  B  B17  1  0.50000000  0.82943786  0.85463719  1.0
