# generated using pymatgen
data_Tl2Pd(CN)4
_symmetry_space_group_name_H-M   'P 1'
_cell_length_a   6.52285598
_cell_length_b   7.56147366
_cell_length_c   10.04130578
_cell_angle_alpha   90.00000000
_cell_angle_beta   111.92918415
_cell_angle_gamma   90.00000000
_symmetry_Int_Tables_number   1
_chemical_formula_structural   Tl2Pd(CN)4
_chemical_formula_sum   'Tl4 Pd2 C8 N8'
_cell_volume   459.42727182
_cell_formula_units_Z   2
loop_
 _symmetry_equiv_pos_site_id
 _symmetry_equiv_pos_as_xyz
  1  'x, y, z'
loop_
 _atom_site_type_symbol
 _atom_site_label
 _atom_site_symmetry_multiplicity
 _atom_site_fract_x
 _atom_site_fract_y
 _atom_site_fract_z
 _atom_site_occupancy
  Tl  Tl0  1  0.69643283  0.85853845  0.41908537  1.0
  Tl  Tl1  1  0.69643283  0.64146155  0.91908537  1.0
  Tl  Tl2  1  0.30356717  0.35853845  0.08091463  1.0
  Tl  Tl3  1  0.30356717  0.14146155  0.58091463  1.0
  Pd  Pd4  1  0.00000000  0.50000000  0.50000000  1.0
  Pd  Pd5  1  0.00000000  0.00000000  0.00000000  1.0
  C  C6  1  0.99326660  0.50163718  0.30006001  1.0
  C  C7  1  0.99326660  0.99836282  0.80006001  1.0
  C  C8  1  0.00673340  0.00163718  0.19993999  1.0
  C  C9  1  0.00673340  0.49836282  0.69993999  1.0
  C  C10  1  0.73906351  0.33858992  0.43942553  1.0
  C  C11  1  0.73906351  0.16141008  0.93942553  1.0
  C  C12  1  0.26093649  0.83858992  0.06057447  1.0
  C  C13  1  0.26093649  0.66141008  0.56057447  1.0
  N  N14  1  0.98969843  0.99710539  0.68257113  1.0
  N  N15  1  0.98969843  0.50289461  0.18257113  1.0
  N  N16  1  0.01030157  0.49710539  0.81742887  1.0
  N  N17  1  0.01030157  0.00289461  0.31742887  1.0
  N  N18  1  0.58806285  0.24122150  0.40324938  1.0
  N  N19  1  0.58806285  0.25877850  0.90324938  1.0
  N  N20  1  0.41193715  0.74122150  0.09675062  1.0
  N  N21  1  0.41193715  0.75877850  0.59675062  1.0
