# generated using pymatgen
data_CuGeO3
_symmetry_space_group_name_H-M   'P 1'
_cell_length_a   2.96973030
_cell_length_b   9.60471214
_cell_length_c   5.48567053
_cell_angle_alpha   90.00000000
_cell_angle_beta   90.00000000
_cell_angle_gamma   90.00000000
_symmetry_Int_Tables_number   1
_chemical_formula_structural   CuGeO3
_chemical_formula_sum   'Cu2 Ge2 O6'
_cell_volume   156.47000028
_cell_formula_units_Z   2
loop_
 _symmetry_equiv_pos_site_id
 _symmetry_equiv_pos_as_xyz
  1  'x, y, z'
loop_
 _atom_site_type_symbol
 _atom_site_label
 _atom_site_symmetry_multiplicity
 _atom_site_fract_x
 _atom_site_fract_y
 _atom_site_fract_z
 _atom_site_occupancy
  Cu  Cu0  1  0.50000000  0.69446561  0.29214315  1.0
  Cu  Cu1  1  0.50000000  0.30553439  0.79214315  1.0
  Ge  Ge2  1  0.00000000  0.20392983  0.29222166  1.0
  Ge  Ge3  1  0.00000000  -0.20392983  0.79222166  1.0
  O  O4  1  0.50000000  0.09960280  0.29237692  1.0
  O  O5  1  0.50000000  -0.09960280  0.79237692  1.0
  O  O6  1  0.00000000  0.69264661  0.52157106  1.0
  O  O7  1  0.00000000  0.30735339  0.02157106  1.0
  O  O8  1  0.00000000  0.69247953  0.06268722  1.0
  O  O9  1  0.00000000  0.30752047  0.56268722  1.0
