# generated using pymatgen
data_YCrTeO6
_symmetry_space_group_name_H-M   'P 1'
_cell_length_a   5.42151751
_cell_length_b   5.42151751
_cell_length_c   8.62242967
_cell_angle_alpha   90.00000000
_cell_angle_beta   90.00000000
_cell_angle_gamma   120.00000000
_symmetry_Int_Tables_number   1
_chemical_formula_structural   YCrTeO6
_chemical_formula_sum   'Y2 Cr2 Te2 O12'
_cell_volume   219.48357305
_cell_formula_units_Z   2
loop_
 _symmetry_equiv_pos_site_id
 _symmetry_equiv_pos_as_xyz
  1  'x, y, z'
loop_
 _atom_site_type_symbol
 _atom_site_label
 _atom_site_symmetry_multiplicity
 _atom_site_fract_x
 _atom_site_fract_y
 _atom_site_fract_z
 _atom_site_occupancy
  Y  Y0  1  0.66666667  0.33333333  0.25000000  1.0
  Y  Y1  1  0.33333333  0.66666667  0.75000000  1.0
  Cr  Cr2  1  0.00000000  0.00000000  -0.00000000  1.0
  Cr  Cr3  1  -0.00000000  0.00000000  0.50000000  1.0
  Te  Te4  1  0.33333333  0.66666667  0.25000000  1.0
  Te  Te5  1  0.66666667  0.33333333  0.75000000  1.0
  O  O6  1  0.30903735  0.96704136  0.12079531  1.0
  O  O7  1  0.30903735  0.34199599  0.37920469  1.0
  O  O8  1  0.96704136  0.30903735  0.62079531  1.0
  O  O9  1  0.96704136  0.65800401  0.87920469  1.0
  O  O10  1  0.65800401  0.96704136  0.37920469  1.0
  O  O11  1  0.65800401  0.69096265  0.12079531  1.0
  O  O12  1  0.03295864  0.69096265  0.37920469  1.0
  O  O13  1  0.03295864  0.34199599  0.12079531  1.0
  O  O14  1  0.69096265  0.65800401  0.62079531  1.0
  O  O15  1  0.69096265  0.03295864  0.87920469  1.0
  O  O16  1  0.34199599  0.30903735  0.87920469  1.0
  O  O17  1  0.34199599  0.03295864  0.62079531  1.0
