# generated using pymatgen
data_KSn
_symmetry_space_group_name_H-M   'P 1'
_cell_length_a   12.47140683
_cell_length_b   12.47140683
_cell_length_c   12.47140683
_cell_angle_alpha   124.99933636
_cell_angle_beta   124.99933636
_cell_angle_gamma   81.53913199
_symmetry_Int_Tables_number   1
_chemical_formula_structural   KSn
_chemical_formula_sum   'K16 Sn16'
_cell_volume   1252.90820295
_cell_formula_units_Z   16
loop_
 _symmetry_equiv_pos_site_id
 _symmetry_equiv_pos_as_xyz
  1  'x, y, z'
loop_
 _atom_site_type_symbol
 _atom_site_label
 _atom_site_symmetry_multiplicity
 _atom_site_fract_x
 _atom_site_fract_y
 _atom_site_fract_z
 _atom_site_occupancy
  K  K0  1  0.87367114  0.87367114  1.24734228  1.0
  K  K1  1  0.62367114  0.87632886  1.50000000  1.0
  K  K2  1  0.62632886  0.62632886  0.75265772  1.0
  K  K3  1  0.37632886  0.12367114  0.50000000  1.0
  K  K4  1  0.87632886  0.37632886  1.25265772  1.0
  K  K5  1  1.12632886  0.37367114  1.00000000  1.0
  K  K6  1  0.12367114  0.62367114  0.74734228  1.0
  K  K7  1  0.37367114  1.12632886  1.00000000  1.0
  K  K8  1  0.75960989  0.37500000  0.88460989  1.0
  K  K9  1  1.12500000  0.74039011  1.11539011  1.0
  K  K10  1  0.49039011  0.87500000  1.11539011  1.0
  K  K11  1  0.62500000  1.00960989  0.88460989  1.0
  K  K12  1  0.99039011  0.87500000  1.61539011  1.0
  K  K13  1  0.62500000  0.50960989  0.38460989  1.0
  K  K14  1  0.25960989  0.37500000  0.38460989  1.0
  K  K15  1  1.12500000  1.24039011  1.61539011  1.0
  Sn  Sn16  1  1.00744328  1.05688153  1.17745205  1.0
  Sn  Sn17  1  0.80688153  1.12942948  1.54943825  1.0
  Sn  Sn18  1  0.87942948  0.82999123  0.82254795  1.0
  Sn  Sn19  1  0.57999123  0.25744328  0.45056175  1.0
  Sn  Sn20  1  1.24255672  0.92000877  1.54943825  1.0
  Sn  Sn21  1  0.67000877  0.62057052  1.17745205  1.0
  Sn  Sn22  1  0.37057052  0.69311847  0.45056175  1.0
  Sn  Sn23  1  0.44311847  0.49255672  0.82254795  1.0
  Sn  Sn24  1  0.74255672  1.19311847  1.32254795  1.0
  Sn  Sn25  1  0.94311847  0.12057052  0.95056175  1.0
  Sn  Sn26  1  0.87057052  0.42000877  0.67745205  1.0
  Sn  Sn27  1  0.17000877  0.99255672  1.04943825  1.0
  Sn  Sn28  1  0.50744328  1.32999123  0.95056175  1.0
  Sn  Sn29  1  1.07999123  0.62942948  1.32254795  1.0
  Sn  Sn30  1  1.37942948  0.55688153  1.04943825  1.0
  Sn  Sn31  1  0.30688153  0.75744328  0.67745205  1.0
