# generated using pymatgen
data_Sm(ClO4)3
_symmetry_space_group_name_H-M   'P 1'
_cell_length_a   9.86058643
_cell_length_b   9.86058643
_cell_length_c   5.77430087
_cell_angle_alpha   90.00000000
_cell_angle_beta   90.00000000
_cell_angle_gamma   120.00000000
_symmetry_Int_Tables_number   1
_chemical_formula_structural   Sm(ClO4)3
_chemical_formula_sum   'Sm2 Cl6 O24'
_cell_volume   486.22303366
_cell_formula_units_Z   2
loop_
 _symmetry_equiv_pos_site_id
 _symmetry_equiv_pos_as_xyz
  1  'x, y, z'
loop_
 _atom_site_type_symbol
 _atom_site_label
 _atom_site_symmetry_multiplicity
 _atom_site_fract_x
 _atom_site_fract_y
 _atom_site_fract_z
 _atom_site_occupancy
  Sm  Sm0  1  0.66666667  0.33333333  0.25000000  1.0
  Sm  Sm1  1  0.33333333  0.66666667  0.75000000  1.0
  Cl  Cl2  1  0.30086840  0.90680745  0.25000000  1.0
  Cl  Cl3  1  0.90680745  0.60593905  0.75000000  1.0
  Cl  Cl4  1  0.60593905  0.69913160  0.25000000  1.0
  Cl  Cl5  1  0.09319255  0.39406095  0.25000000  1.0
  Cl  Cl6  1  0.69913160  0.09319255  0.75000000  1.0
  Cl  Cl7  1  0.39406095  0.30086840  0.75000000  1.0
  O  O8  1  0.35090009  0.85351736  0.45606014  1.0
  O  O9  1  0.35090009  0.85351736  0.04393986  1.0
  O  O10  1  0.85351736  0.50261727  0.95606014  1.0
  O  O11  1  0.85351736  0.50261727  0.54393986  1.0
  O  O12  1  0.50261727  0.64909991  0.45606014  1.0
  O  O13  1  0.50261727  0.64909991  0.04393986  1.0
  O  O14  1  0.14648264  0.49738273  0.45606014  1.0
  O  O15  1  0.14648264  0.49738273  0.04393986  1.0
  O  O16  1  0.64909991  0.14648264  0.95606014  1.0
  O  O17  1  0.64909991  0.14648264  0.54393986  1.0
  O  O18  1  0.49738273  0.35090009  0.95606014  1.0
  O  O19  1  0.49738273  0.35090009  0.54393986  1.0
  O  O20  1  0.13543640  0.84669267  0.25000000  1.0
  O  O21  1  0.84669267  0.71125626  0.75000000  1.0
  O  O22  1  0.71125626  0.86456360  0.25000000  1.0
  O  O23  1  0.15330733  0.28874374  0.25000000  1.0
  O  O24  1  0.86456360  0.15330733  0.75000000  1.0
  O  O25  1  0.28874374  0.13543640  0.75000000  1.0
  O  O26  1  0.69158054  0.61360308  0.25000000  1.0
  O  O27  1  0.61360308  0.92202254  0.75000000  1.0
  O  O28  1  0.92202254  0.30841946  0.25000000  1.0
  O  O29  1  0.38639692  0.07797746  0.25000000  1.0
  O  O30  1  0.30841946  0.38639692  0.75000000  1.0
  O  O31  1  0.07797746  0.69158054  0.75000000  1.0
