# generated using pymatgen
data_Ba5Mn3ClO12
_symmetry_space_group_name_H-M   'P 1'
_cell_length_a   10.78646480
_cell_length_b   10.78646480
_cell_length_c   7.84075073
_cell_angle_alpha   90.00000000
_cell_angle_beta   90.00000000
_cell_angle_gamma   120.00000000
_symmetry_Int_Tables_number   1
_chemical_formula_structural   Ba5Mn3ClO12
_chemical_formula_sum   'Ba10 Mn6 Cl2 O24'
_cell_volume   790.03537925
_cell_formula_units_Z   2
loop_
 _symmetry_equiv_pos_site_id
 _symmetry_equiv_pos_as_xyz
  1  'x, y, z'
loop_
 _atom_site_type_symbol
 _atom_site_label
 _atom_site_symmetry_multiplicity
 _atom_site_fract_x
 _atom_site_fract_y
 _atom_site_fract_z
 _atom_site_occupancy
  Ba  Ba0  1  0.01204058  0.73156586  0.25000000  1.0
  Ba  Ba1  1  0.73156586  0.71952528  0.75000000  1.0
  Ba  Ba2  1  0.71952528  0.98795942  0.25000000  1.0
  Ba  Ba3  1  0.26843414  0.28047472  0.25000000  1.0
  Ba  Ba4  1  0.98795942  0.26843414  0.75000000  1.0
  Ba  Ba5  1  0.28047472  0.01204058  0.75000000  1.0
  Ba  Ba6  1  0.33333333  0.66666667  0.50030177  1.0
  Ba  Ba7  1  0.33333333  0.66666667  -0.00030177  1.0
  Ba  Ba8  1  0.66666667  0.33333333  1.00030177  1.0
  Ba  Ba9  1  0.66666667  0.33333333  0.49969823  1.0
  Mn  Mn10  1  0.63624710  0.59501213  0.25000000  1.0
  Mn  Mn11  1  0.59501213  0.95876503  0.75000000  1.0
  Mn  Mn12  1  0.95876503  0.36375290  0.25000000  1.0
  Mn  Mn13  1  0.40498787  0.04123497  0.25000000  1.0
  Mn  Mn14  1  0.36375290  0.40498787  0.75000000  1.0
  Mn  Mn15  1  0.04123497  0.63624710  0.75000000  1.0
  Cl  Cl16  1  0.00000000  0.00000000  0.25000000  1.0
  Cl  Cl17  1  0.00000000  0.00000000  0.75000000  1.0
  O  O18  1  0.74239961  0.63980550  0.42539989  1.0
  O  O19  1  0.74239961  0.63980550  0.07460011  1.0
  O  O20  1  0.63980550  0.89740590  0.92539989  1.0
  O  O21  1  0.63980550  0.89740590  0.57460011  1.0
  O  O22  1  0.89740590  0.25760039  0.42539989  1.0
  O  O23  1  0.89740590  0.25760039  0.07460011  1.0
  O  O24  1  0.36019450  0.10259410  0.42539989  1.0
  O  O25  1  0.36019450  0.10259410  0.07460011  1.0
  O  O26  1  0.25760039  0.36019450  0.92539989  1.0
  O  O27  1  0.25760039  0.36019450  0.57460011  1.0
  O  O28  1  0.10259410  0.74239961  0.92539989  1.0
  O  O29  1  0.10259410  0.74239961  0.57460011  1.0
  O  O30  1  0.34104680  0.86070309  0.25000000  1.0
  O  O31  1  0.86070309  0.51965629  0.75000000  1.0
  O  O32  1  0.51965629  0.65895320  0.25000000  1.0
  O  O33  1  0.13929691  0.48034371  0.25000000  1.0
  O  O34  1  0.65895320  0.13929691  0.75000000  1.0
  O  O35  1  0.48034371  0.34104680  0.75000000  1.0
  O  O36  1  0.54469306  0.41089943  0.25000000  1.0
  O  O37  1  0.41089943  0.86620638  0.75000000  1.0
  O  O38  1  0.86620638  0.45530694  0.25000000  1.0
  O  O39  1  0.58910057  0.13379362  0.25000000  1.0
  O  O40  1  0.45530694  0.58910057  0.75000000  1.0
  O  O41  1  0.13379362  0.54469306  0.75000000  1.0
