# generated using pymatgen
data_H5PbCSN5O6
_symmetry_space_group_name_H-M   'P 1'
_cell_length_a   5.28597718
_cell_length_b   12.88679963
_cell_length_c   7.61488580
_cell_angle_alpha   107.16387121
_cell_angle_beta   100.37330597
_cell_angle_gamma   86.37437420
_symmetry_Int_Tables_number   1
_chemical_formula_structural   H5PbCSN5O6
_chemical_formula_sum   'H10 Pb2 C2 S2 N10 O12'
_cell_volume   487.49066496
_cell_formula_units_Z   2
loop_
 _symmetry_equiv_pos_site_id
 _symmetry_equiv_pos_as_xyz
  1  'x, y, z'
loop_
 _atom_site_type_symbol
 _atom_site_label
 _atom_site_symmetry_multiplicity
 _atom_site_fract_x
 _atom_site_fract_y
 _atom_site_fract_z
 _atom_site_occupancy
  H  H0  1  0.97057796  0.49667787  -0.23281102  1.0
  H  H1  1  0.02942204  0.50332213  -0.76718898  1.0
  H  H2  1  0.84860293  0.11864523  -0.93475264  1.0
  H  H3  1  0.15139707  0.88135477  -0.06524736  1.0
  H  H4  1  0.78873129  0.76943985  -0.04618221  1.0
  H  H5  1  0.21126871  0.23056015  -0.95381779  1.0
  H  H6  1  0.85204083  0.90173688  -0.17646225  1.0
  H  H7  1  0.14795917  0.09826312  -0.82353775  1.0
  H  H8  1  0.18738769  0.41273001  -0.93537418  1.0
  H  H9  1  0.81261231  0.58726999  -0.06462582  1.0
  Pb  Pb10  1  0.85778178  0.19027583  -0.50296538  1.0
  Pb  Pb11  1  0.14221822  0.80972417  -0.49703462  1.0
  C  C12  1  1.00144931  0.65546308  -0.21710680  1.0
  C  C13  1  -0.00144931  0.34453692  -0.78289320  1.0
  S  S14  1  0.78206407  0.37135152  -0.63056923  1.0
  S  S15  1  0.21793593  0.62864848  -0.36943077  1.0
  N  N16  1  1.00298390  0.84762387  -0.17124966  1.0
  N  N17  1  -0.00298390  0.15237613  -0.82875034  1.0
  N  N18  1  0.91409878  0.75587161  -0.13930565  1.0
  N  N19  1  0.08590122  0.24412839  -0.86069435  1.0
  N  N20  1  0.91697426  0.57382052  -0.16998928  1.0
  N  N21  1  0.08302574  0.42617948  -0.83001072  1.0
  N  N22  1  0.62287050  0.95629538  -0.79356683  1.0
  N  N23  1  0.37712950  0.04370462  -0.20643317  1.0
  N  N24  1  0.60746897  0.68999414  -0.71082300  1.0
  N  N25  1  0.39253103  0.31000586  -0.28917700  1.0
  O  O26  1  0.86252004  0.95431335  -0.73669765  1.0
  O  O27  1  0.13747996  0.04568665  -0.26330235  1.0
  O  O28  1  0.80094643  0.65901820  -0.78975292  1.0
  O  O29  1  0.19905357  0.34098180  -0.21024708  1.0
  O  O30  1  0.64083466  0.76332958  -0.55181390  1.0
  O  O31  1  0.35916534  0.23667042  -0.44818610  1.0
  O  O32  1  0.50279383  0.95585862  -0.26204002  1.0
  O  O33  1  0.49720617  0.04414138  -0.73795998  1.0
  O  O34  1  0.50945219  0.87335143  -0.90422212  1.0
  O  O35  1  0.49054781  0.12664857  -0.09577788  1.0
  O  O36  1  0.38901984  0.65292671  -0.78112896  1.0
  O  O37  1  0.61098016  0.34707329  -0.21887104  1.0
