# generated using pymatgen
data_Sc2H6(SeO4)3
_symmetry_space_group_name_H-M   'P 1'
_cell_length_a   9.02051271
_cell_length_b   9.02051271
_cell_length_c   9.02051271
_cell_angle_alpha   65.58386703
_cell_angle_beta   65.58386703
_cell_angle_gamma   65.58386703
_symmetry_Int_Tables_number   1
_chemical_formula_structural   Sc2H6(SeO4)3
_chemical_formula_sum   'Sc4 H12 Se6 O24'
_cell_volume   581.97041925
_cell_formula_units_Z   2
loop_
 _symmetry_equiv_pos_site_id
 _symmetry_equiv_pos_as_xyz
  1  'x, y, z'
loop_
 _atom_site_type_symbol
 _atom_site_label
 _atom_site_symmetry_multiplicity
 _atom_site_fract_x
 _atom_site_fract_y
 _atom_site_fract_z
 _atom_site_occupancy
  Sc  Sc0  1  0.00082558  0.00082558  0.00082558  1.0
  Sc  Sc1  1  0.50082558  0.50082558  -0.49917442  1.0
  Sc  Sc2  1  1.23509514  1.23509514  0.23509514  1.0
  Sc  Sc3  1  0.73509514  0.73509514  -0.26490486  1.0
  H  H4  1  0.52668600  0.66111808  -0.86191990  1.0
  H  H5  1  1.02668600  1.63808010  0.16111808  1.0
  H  H6  1  1.16111808  1.02668600  0.63808010  1.0
  H  H7  1  0.66111808  0.13808010  -0.47331400  1.0
  H  H8  1  1.63808010  1.16111808  0.02668600  1.0
  H  H9  1  0.13808010  0.52668600  -0.33888192  1.0
  H  H10  1  0.47613041  0.18806009  -0.48786856  1.0
  H  H11  1  0.97613041  0.01213144  -0.31193991  1.0
  H  H12  1  0.68806009  -0.02386959  0.01213144  1.0
  H  H13  1  0.18806009  0.51213144  -0.52386959  1.0
  H  H14  1  1.01213144  -0.31193991  -0.02386959  1.0
  H  H15  1  0.51213144  0.47613041  -0.81193991  1.0
  Se  Se16  1  1.00486098  -0.05100176  -0.60342865  1.0
  Se  Se17  1  0.50486098  0.89657135  -0.55100176  1.0
  Se  Se18  1  0.44899824  0.50486098  -0.10342865  1.0
  Se  Se19  1  0.94899824  -0.60342865  0.00486098  1.0
  Se  Se20  1  0.89657135  0.44899824  -0.49513902  1.0
  Se  Se21  1  0.39657135  0.00486098  -0.05100176  1.0
  O  O22  1  0.56171204  0.23588777  -0.50007362  1.0
  O  O23  1  1.06171204  -0.00007362  -0.26411223  1.0
  O  O24  1  0.73588777  0.06171204  -0.00007362  1.0
  O  O25  1  0.23588777  0.49992638  -0.43828796  1.0
  O  O26  1  0.99992638  -0.26411223  0.06171204  1.0
  O  O27  1  0.49992638  0.56171204  -0.76411223  1.0
  O  O28  1  1.33692351  1.08432401  0.44758127  1.0
  O  O29  1  0.83692351  0.94758127  -0.41567599  1.0
  O  O30  1  0.58432401  0.83692351  -0.05241873  1.0
  O  O31  1  1.08432401  1.44758127  0.33692351  1.0
  O  O32  1  0.94758127  0.58432401  -0.16307649  1.0
  O  O33  1  1.44758127  1.33692351  0.08432401  1.0
  O  O34  1  1.02643496  1.13961585  0.36857696  1.0
  O  O35  1  0.52643496  0.86857696  -0.36038415  1.0
  O  O36  1  0.63961585  0.52643496  -0.13142304  1.0
  O  O37  1  1.13961585  1.36857696  0.02643496  1.0
  O  O38  1  0.86857696  0.63961585  -0.47356504  1.0
  O  O39  1  1.36857696  1.02643496  0.13961585  1.0
  O  O40  1  0.90265435  0.00586855  0.24793694  1.0
  O  O41  1  0.40265435  0.74793694  -0.49413145  1.0
  O  O42  1  0.50586855  0.40265435  -0.25206306  1.0
  O  O43  1  1.00586855  0.24793694  -0.09734565  1.0
  O  O44  1  0.74793694  0.50586855  -0.59734565  1.0
  O  O45  1  1.24793694  -0.09734565  0.00586855  1.0
