# generated using pymatgen
data_Cs2Zn(PSe3)2
_symmetry_space_group_name_H-M   'P 1'
_cell_length_a   13.29487580
_cell_length_b   7.97814083
_cell_length_c   8.04189661
_cell_angle_alpha   70.11779409
_cell_angle_beta   69.16484766
_cell_angle_gamma   72.03821626
_symmetry_Int_Tables_number   1
_chemical_formula_structural   Cs2Zn(PSe3)2
_chemical_formula_sum   'Cs4 Zn2 P4 Se12'
_cell_volume   732.44942327
_cell_formula_units_Z   2
loop_
 _symmetry_equiv_pos_site_id
 _symmetry_equiv_pos_as_xyz
  1  'x, y, z'
loop_
 _atom_site_type_symbol
 _atom_site_label
 _atom_site_symmetry_multiplicity
 _atom_site_fract_x
 _atom_site_fract_y
 _atom_site_fract_z
 _atom_site_occupancy
  Cs  Cs0  1  0.90842946  -0.60348438  -0.65262470  1.0
  Cs  Cs1  1  0.09157054  -0.39651562  0.65262470  1.0
  Cs  Cs2  1  0.59836047  -0.70299288  -0.19101689  1.0
  Cs  Cs3  1  0.40163953  -0.29700712  0.19101689  1.0
  Zn  Zn4  1  0.74847839  -0.05100939  0.22159365  1.0
  Zn  Zn5  1  0.25152161  -0.94899061  -0.22159365  1.0
  P  P6  1  0.47113422  -0.85282939  0.41958677  1.0
  P  P7  1  0.52886578  -0.14717061  -0.41958677  1.0
  P  P8  1  0.96158684  -0.91270184  -0.11829105  1.0
  P  P9  1  0.03841316  -0.08729816  0.11829105  1.0
  Se  Se10  1  0.37618128  -0.83630696  0.24347973  1.0
  Se  Se11  1  0.62381872  -0.16369304  -0.24347973  1.0
  Se  Se12  1  0.12864781  -0.35679288  0.08404297  1.0
  Se  Se13  1  0.87135219  -0.64320712  -0.08404297  1.0
  Se  Se14  1  0.36954788  -0.71934293  -0.35128297  1.0
  Se  Se15  1  0.63045212  -0.28065707  0.35128297  1.0
  Se  Se16  1  0.15204758  -0.92152563  0.10038798  1.0
  Se  Se17  1  0.84795242  -0.07847437  -0.10038798  1.0
  Se  Se18  1  0.89525686  -0.09010993  -0.62896480  1.0
  Se  Se19  1  0.10474314  -0.90989007  0.62896480  1.0
  Se  Se20  1  0.62738482  -0.75079607  0.27147408  1.0
  Se  Se21  1  0.37261518  -0.24920393  -0.27147408  1.0
