# generated using pymatgen
data_Nb4VSe8
_symmetry_space_group_name_H-M   'P 1'
_cell_length_a   6.96324565
_cell_length_b   6.96324565
_cell_length_c   12.83359509
_cell_angle_alpha   90.00000000
_cell_angle_beta   90.00000000
_cell_angle_gamma   120.00000000
_symmetry_Int_Tables_number   1
_chemical_formula_structural   Nb4VSe8
_chemical_formula_sum   'Nb8 V2 Se16'
_cell_volume   538.89282114
_cell_formula_units_Z   2
loop_
 _symmetry_equiv_pos_site_id
 _symmetry_equiv_pos_as_xyz
  1  'x, y, z'
loop_
 _atom_site_type_symbol
 _atom_site_label
 _atom_site_symmetry_multiplicity
 _atom_site_fract_x
 _atom_site_fract_y
 _atom_site_fract_z
 _atom_site_occupancy
  Nb  Nb0  1  0.50713962  0.49286038  0.25000000  1.0
  Nb  Nb1  1  0.50713962  0.01427925  0.25000000  1.0
  Nb  Nb2  1  0.49286038  0.50713962  0.75000000  1.0
  Nb  Nb3  1  0.49286038  -0.01427925  0.75000000  1.0
  Nb  Nb4  1  -0.01427925  0.49286038  0.25000000  1.0
  Nb  Nb5  1  0.01427925  0.50713962  0.75000000  1.0
  Nb  Nb6  1  -0.00000000  -0.00000000  0.25000000  1.0
  Nb  Nb7  1  -0.00000000  0.00000000  0.75000000  1.0
  V  V8  1  0.00000000  0.00000000  0.50000000  1.0
  V  V9  1  -0.00000000  -0.00000000  -0.00000000  1.0
  Se  Se10  1  0.33333333  0.66666667  0.88409875  1.0
  Se  Se11  1  0.33333333  0.66666667  0.61590125  1.0
  Se  Se12  1  0.66666667  0.33333333  0.38409875  1.0
  Se  Se13  1  0.66666667  0.33333333  0.11590125  1.0
  Se  Se14  1  0.16746507  0.83253493  0.37943835  1.0
  Se  Se15  1  0.16746507  0.83253493  0.12056165  1.0
  Se  Se16  1  0.16746507  0.33493014  0.37943835  1.0
  Se  Se17  1  0.16746507  0.33493014  0.12056165  1.0
  Se  Se18  1  0.83253493  0.16746507  0.87943835  1.0
  Se  Se19  1  0.83253493  0.16746507  0.62056165  1.0
  Se  Se20  1  0.83253493  0.66506986  0.87943835  1.0
  Se  Se21  1  0.83253493  0.66506986  0.62056165  1.0
  Se  Se22  1  0.66506986  0.83253493  0.37943835  1.0
  Se  Se23  1  0.66506986  0.83253493  0.12056165  1.0
  Se  Se24  1  0.33493014  0.16746507  0.87943835  1.0
  Se  Se25  1  0.33493014  0.16746507  0.62056165  1.0
