# generated using pymatgen
data_Tb2Fe3Si5
_symmetry_space_group_name_H-M   'P 1'
_cell_length_a   10.35139316
_cell_length_b   10.35139316
_cell_length_c   5.47419760
_cell_angle_alpha   90.00000000
_cell_angle_beta   90.00000000
_cell_angle_gamma   90.00000000
_symmetry_Int_Tables_number   1
_chemical_formula_structural   Tb2Fe3Si5
_chemical_formula_sum   'Tb8 Fe12 Si20'
_cell_volume   586.56761045
_cell_formula_units_Z   4
loop_
 _symmetry_equiv_pos_site_id
 _symmetry_equiv_pos_as_xyz
  1  'x, y, z'
loop_
 _atom_site_type_symbol
 _atom_site_label
 _atom_site_symmetry_multiplicity
 _atom_site_fract_x
 _atom_site_fract_y
 _atom_site_fract_z
 _atom_site_occupancy
  Tb  Tb0  1  0.23523051  0.93171908  0.50000000  1.0
  Tb  Tb1  1  0.73523051  0.56828092  0.00000000  1.0
  Tb  Tb2  1  0.06828092  0.23523051  0.50000000  1.0
  Tb  Tb3  1  0.56828092  0.26476949  0.00000000  1.0
  Tb  Tb4  1  0.76476949  0.06828092  0.50000000  1.0
  Tb  Tb5  1  0.26476949  0.43171908  0.00000000  1.0
  Tb  Tb6  1  0.93171908  0.76476949  0.50000000  1.0
  Tb  Tb7  1  0.43171908  0.73523051  0.00000000  1.0
  Si  Si8  1  0.47756459  0.81993245  0.50000000  1.0
  Si  Si9  1  0.97756459  0.68006755  0.00000000  1.0
  Si  Si10  1  0.18006755  0.47756459  0.50000000  1.0
  Si  Si11  1  0.68006755  0.02243541  0.00000000  1.0
  Si  Si12  1  0.52243541  0.18006755  0.50000000  1.0
  Si  Si13  1  0.02243541  0.31993245  0.00000000  1.0
  Si  Si14  1  0.81993245  0.52243541  0.50000000  1.0
  Si  Si15  1  0.31993245  0.97756459  0.00000000  1.0
  Si  Si16  1  0.32242244  0.17757756  0.25000000  1.0
  Si  Si17  1  0.32242244  0.17757756  0.75000000  1.0
  Si  Si18  1  0.82242244  0.32242244  0.75000000  1.0
  Si  Si19  1  0.82242244  0.32242244  0.25000000  1.0
  Si  Si20  1  0.67757756  0.82242244  0.25000000  1.0
  Si  Si21  1  0.67757756  0.82242244  0.75000000  1.0
  Si  Si22  1  0.17757756  0.67757756  0.75000000  1.0
  Si  Si23  1  0.17757756  0.67757756  0.25000000  1.0
  Si  Si24  1  0.50000000  0.50000000  0.26914910  1.0
  Si  Si25  1  0.50000000  0.50000000  0.73085090  1.0
  Si  Si26  1  0.00000000  0.00000000  0.76914910  1.0
  Si  Si27  1  0.00000000  0.00000000  0.23085090  1.0
  Fe  Fe28  1  0.35523808  0.62309372  0.50000000  1.0
  Fe  Fe29  1  0.85523808  0.87690628  0.00000000  1.0
  Fe  Fe30  1  0.37690628  0.35523808  0.50000000  1.0
  Fe  Fe31  1  0.87690628  0.14476192  0.00000000  1.0
  Fe  Fe32  1  0.64476192  0.37690628  0.50000000  1.0
  Fe  Fe33  1  0.14476192  0.12309372  0.00000000  1.0
  Fe  Fe34  1  0.62309372  0.64476192  0.50000000  1.0
  Fe  Fe35  1  0.12309372  0.85523808  0.00000000  1.0
  Fe  Fe36  1  0.50000000  0.00000000  0.25000000  1.0
  Fe  Fe37  1  0.50000000  0.00000000  0.75000000  1.0
  Fe  Fe38  1  0.00000000  0.50000000  0.75000000  1.0
  Fe  Fe39  1  0.00000000  0.50000000  0.25000000  1.0
