# generated using pymatgen
data_EuTa2O6
_symmetry_space_group_name_H-M   'P 1'
_cell_length_a   11.21203989
_cell_length_b   7.69454849
_cell_length_c   5.53464950
_cell_angle_alpha   90.00000000
_cell_angle_beta   90.00000000
_cell_angle_gamma   90.00000000
_symmetry_Int_Tables_number   1
_chemical_formula_structural   EuTa2O6
_chemical_formula_sum   'Eu4 Ta8 O24'
_cell_volume   477.48298226
_cell_formula_units_Z   4
loop_
 _symmetry_equiv_pos_site_id
 _symmetry_equiv_pos_as_xyz
  1  'x, y, z'
loop_
 _atom_site_type_symbol
 _atom_site_label
 _atom_site_symmetry_multiplicity
 _atom_site_fract_x
 _atom_site_fract_y
 _atom_site_fract_z
 _atom_site_occupancy
  Eu  Eu0  1  0.95745544  0.25000000  0.04536568  1.0
  Eu  Eu1  1  0.45745544  0.25000000  0.45463432  1.0
  Eu  Eu2  1  0.04254456  0.75000000  0.95463432  1.0
  Eu  Eu3  1  0.54254456  0.75000000  0.54536568  1.0
  Ta  Ta4  1  0.64111120  0.49661614  0.04157567  1.0
  Ta  Ta5  1  0.64111120  0.00338386  0.04157567  1.0
  Ta  Ta6  1  0.14111120  0.49661614  0.45842433  1.0
  Ta  Ta7  1  0.14111120  0.00338386  0.45842433  1.0
  Ta  Ta8  1  0.35888880  0.99661614  0.95842433  1.0
  Ta  Ta9  1  0.35888880  0.50338386  0.95842433  1.0
  Ta  Ta10  1  0.85888880  0.99661614  0.54157567  1.0
  Ta  Ta11  1  0.85888880  0.50338386  0.54157567  1.0
  O  O12  1  0.97673073  0.96270525  0.27531801  1.0
  O  O13  1  0.97673073  0.53729475  0.27531801  1.0
  O  O14  1  0.47673073  0.96270525  0.22468199  1.0
  O  O15  1  0.47673073  0.53729475  0.22468199  1.0
  O  O16  1  0.02326927  0.46270525  0.72468199  1.0
  O  O17  1  0.02326927  0.03729475  0.72468199  1.0
  O  O18  1  0.52326927  0.46270525  0.77531801  1.0
  O  O19  1  0.52326927  0.03729475  0.77531801  1.0
  O  O20  1  0.71265980  0.94854638  0.36692278  1.0
  O  O21  1  0.71265980  0.55145362  0.36692278  1.0
  O  O22  1  0.21265980  0.94854638  0.13307722  1.0
  O  O23  1  0.21265980  0.55145362  0.13307722  1.0
  O  O24  1  0.28734020  0.44854638  0.63307722  1.0
  O  O25  1  0.28734020  0.05145362  0.63307722  1.0
  O  O26  1  0.78734020  0.44854638  0.86692278  1.0
  O  O27  1  0.78734020  0.05145362  0.86692278  1.0
  O  O28  1  0.85484967  0.25000000  0.45955040  1.0
  O  O29  1  0.35484967  0.25000000  0.04044960  1.0
  O  O30  1  0.14515033  0.75000000  0.54044960  1.0
  O  O31  1  0.64515033  0.75000000  0.95955040  1.0
  O  O32  1  0.62599134  0.25000000  0.14139617  1.0
  O  O33  1  0.12599134  0.25000000  0.35860383  1.0
  O  O34  1  0.37400866  0.75000000  0.85860383  1.0
  O  O35  1  0.87400866  0.75000000  0.64139617  1.0
