# generated using pymatgen
data_LaB4ClO8
_symmetry_space_group_name_H-M   'P 1'
_cell_length_a   6.60565546
_cell_length_b   6.60565546
_cell_length_c   9.94190960
_cell_angle_alpha   81.73651318
_cell_angle_beta   98.26348682
_cell_angle_gamma   60.29933938
_symmetry_Int_Tables_number   1
_chemical_formula_structural   LaB4ClO8
_chemical_formula_sum   'La2 B8 Cl2 O16'
_cell_volume   361.06273120
_cell_formula_units_Z   2
loop_
 _symmetry_equiv_pos_site_id
 _symmetry_equiv_pos_as_xyz
  1  'x, y, z'
loop_
 _atom_site_type_symbol
 _atom_site_label
 _atom_site_symmetry_multiplicity
 _atom_site_fract_x
 _atom_site_fract_y
 _atom_site_fract_z
 _atom_site_occupancy
  La  La0  1  0.61089114  -0.01812794  0.04695489  1.0
  La  La1  1  1.01812794  0.38910886  0.54695489  1.0
  O  O2  1  0.52777978  -0.46055721  0.48943971  1.0
  O  O3  1  1.46055721  0.47222022  -0.01056029  1.0
  O  O4  1  1.80819917  0.15805813  0.47744674  1.0
  O  O5  1  0.84194187  -0.80819917  0.97744674  1.0
  O  O6  1  1.11224599  0.74106815  0.48265947  1.0
  O  O7  1  0.25893185  -0.11224599  0.98265947  1.0
  O  O8  1  0.29807547  -0.03134819  0.45873203  1.0
  O  O9  1  1.03134819  0.70192453  0.95873203  1.0
  O  O10  1  1.39344984  0.27058932  0.43026000  1.0
  O  O11  1  0.72941068  -0.39344984  0.93026000  1.0
  O  O12  1  1.44227128  0.03789835  0.25521561  1.0
  O  O13  1  0.96210165  -0.44227128  0.75521561  1.0
  O  O14  1  1.80044177  0.00651545  0.27030034  1.0
  O  O15  1  0.99348455  -0.80044177  0.77030034  1.0
  O  O16  1  0.71578573  -0.15132002  0.47037647  1.0
  O  O17  1  1.15132002  0.28421427  0.97037647  1.0
  Cl  Cl18  1  1.48511612  0.15339025  0.74226351  1.0
  Cl  Cl19  1  0.84660975  -0.48511612  0.24226351  1.0
  B  B20  1  0.86312652  -0.05861962  0.42401928  1.0
  B  B21  1  1.05861962  0.13687348  0.92401928  1.0
  B  B22  1  0.31171063  -0.24752078  0.47579893  1.0
  B  B23  1  1.24752078  0.68828937  0.97579893  1.0
  B  B24  1  1.46142665  0.02865549  0.40494361  1.0
  B  B25  1  0.97134451  -0.46142665  0.90494361  1.0
  B  B26  1  1.56932095  0.31935967  0.46698941  1.0
  B  B27  1  0.68064033  -0.56932095  0.96698941  1.0
