# generated using pymatgen
data_C8S3N4
_symmetry_space_group_name_H-M   'P 1'
_cell_length_a   7.41113560
_cell_length_b   8.21845587
_cell_length_c   9.97029842
_cell_angle_alpha   90.00000000
_cell_angle_beta   102.45739478
_cell_angle_gamma   90.00000000
_symmetry_Int_Tables_number   1
_chemical_formula_structural   C8S3N4
_chemical_formula_sum   'C16 S6 N8'
_cell_volume   592.97464794
_cell_formula_units_Z   2
loop_
 _symmetry_equiv_pos_site_id
 _symmetry_equiv_pos_as_xyz
  1  'x, y, z'
loop_
 _atom_site_type_symbol
 _atom_site_label
 _atom_site_symmetry_multiplicity
 _atom_site_fract_x
 _atom_site_fract_y
 _atom_site_fract_z
 _atom_site_occupancy
  C  C0  1  0.41218823  0.02031970  0.83921754  1.0
  C  C1  1  0.58781177  0.52031970  0.16078246  1.0
  C  C2  1  0.24479964  0.06442445  0.86532671  1.0
  C  C3  1  0.75520036  0.56442445  0.13467329  1.0
  C  C4  1  0.08484071  0.03162637  0.59452885  1.0
  C  C5  1  0.91515929  0.53162637  0.40547115  1.0
  C  C6  1  0.25764834  0.98039939  0.56975225  1.0
  C  C7  1  0.74235166  0.48039939  0.43024775  1.0
  C  C8  1  0.25161280  0.98338844  0.42934287  1.0
  C  C9  1  0.74838720  0.48338844  0.57065713  1.0
  C  C10  1  0.57796787  0.06130755  0.93389466  1.0
  C  C11  1  0.42203213  0.56130755  0.06610534  1.0
  C  C12  1  0.23694931  0.13938425  0.99207092  1.0
  C  C13  1  0.76305069  0.63938425  0.00792908  1.0
  C  C14  1  0.39171069  0.93224966  0.36322956  1.0
  C  C15  1  0.60828931  0.43224966  0.63677044  1.0
  S  S16  1  0.44789547  0.91330541  0.69368350  1.0
  S  S17  1  0.55210453  0.41330541  0.30631650  1.0
  S  S18  1  0.02595464  0.03429381  0.75701617  1.0
  S  S19  1  0.97404536  0.53429381  0.24298383  1.0
  S  S20  1  0.03372440  0.04803680  0.34426848  1.0
  S  S21  1  0.96627560  0.54803680  0.65573152  1.0
  N  N22  1  0.95645852  0.07258357  0.48585627  1.0
  N  N23  1  0.04354148  0.57258357  0.51414373  1.0
  N  N24  1  0.71548639  0.09596001  0.01004623  1.0
  N  N25  1  0.28451361  0.59596001  0.98995377  1.0
  N  N26  1  0.22846470  0.19609457  0.09782680  1.0
  N  N27  1  0.77153530  0.69609457  0.90217320  1.0
  N  N28  1  0.50782953  0.88569601  0.31020066  1.0
  N  N29  1  0.49217047  0.38569601  0.68979934  1.0
