# generated using pymatgen
data_Sr2Fe2S2OF2
_symmetry_space_group_name_H-M   'P 1'
_cell_length_a   9.55310466
_cell_length_b   9.55310466
_cell_length_c   9.55310466
_cell_angle_alpha   155.64770915
_cell_angle_beta   155.64770915
_cell_angle_gamma   34.70899492
_symmetry_Int_Tables_number   1
_chemical_formula_structural   Sr2Fe2S2OF2
_chemical_formula_sum   'Sr2 Fe2 S2 O1 F2'
_cell_volume   148.07642882
_cell_formula_units_Z   1
loop_
 _symmetry_equiv_pos_site_id
 _symmetry_equiv_pos_as_xyz
  1  'x, y, z'
loop_
 _atom_site_type_symbol
 _atom_site_label
 _atom_site_symmetry_multiplicity
 _atom_site_fract_x
 _atom_site_fract_y
 _atom_site_fract_z
 _atom_site_occupancy
  Sr  Sr0  1  0.82975406  0.82975406  1.00000000  1.0
  Sr  Sr1  1  0.17024594  0.17024594  -0.00000000  1.0
  Fe  Fe2  1  0.50000000  0.00000000  0.50000000  1.0
  Fe  Fe3  1  0.00000000  0.50000000  0.50000000  1.0
  S  S4  1  0.59190708  0.59190708  1.00000000  1.0
  S  S5  1  0.40809292  0.40809292  -0.00000000  1.0
  O  O6  1  0.00000000  0.00000000  0.00000000  1.0
  F  F7  1  0.25000000  0.75000000  0.50000000  1.0
  F  F8  1  0.75000000  0.25000000  0.50000000  1.0
