# generated using pymatgen
data_FeGe3H4PbO10
_symmetry_space_group_name_H-M   'P 1'
_cell_length_a   5.47825488
_cell_length_b   13.69671825
_cell_length_c   5.99447056
_cell_angle_alpha   90.00000000
_cell_angle_beta   111.92814516
_cell_angle_gamma   90.00000000
_symmetry_Int_Tables_number   1
_chemical_formula_structural   FeGe3H4PbO10
_chemical_formula_sum   'Fe2 Ge6 H8 Pb2 O20'
_cell_volume   417.24880774
_cell_formula_units_Z   2
loop_
 _symmetry_equiv_pos_site_id
 _symmetry_equiv_pos_as_xyz
  1  'x, y, z'
loop_
 _atom_site_type_symbol
 _atom_site_label
 _atom_site_symmetry_multiplicity
 _atom_site_fract_x
 _atom_site_fract_y
 _atom_site_fract_z
 _atom_site_occupancy
  Fe  Fe0  1  0.50000000  0.50000000  0.50000000  1.0
  Fe  Fe1  1  0.50000000  0.00000000  0.50000000  1.0
  Ge  Ge2  1  0.50057362  0.87129320  0.96181335  1.0
  Ge  Ge3  1  0.50057362  0.62870680  0.96181335  1.0
  Ge  Ge4  1  0.49942638  0.37129320  0.03818665  1.0
  Ge  Ge5  1  0.49942638  0.12870680  0.03818665  1.0
  Ge  Ge6  1  0.00000000  0.50000000  0.00000000  1.0
  Ge  Ge7  1  0.00000000  0.00000000  0.00000000  1.0
  H  H8  1  0.95584108  0.44034476  0.36574441  1.0
  H  H9  1  0.95584108  0.05965524  0.36574441  1.0
  H  H10  1  0.04415892  0.94034476  0.63425559  1.0
  H  H11  1  0.04415892  0.55965524  0.63425559  1.0
  H  H12  1  0.84479895  0.80958100  0.64051791  1.0
  H  H13  1  0.84479895  0.69041900  0.64051791  1.0
  H  H14  1  0.15520105  0.30958100  0.35948209  1.0
  H  H15  1  0.15520105  0.19041900  0.35948209  1.0
  Pb  Pb16  1  0.82794671  0.25000000  0.65170100  1.0
  Pb  Pb17  1  0.17205329  0.75000000  0.34829900  1.0
  O  O18  1  0.89406653  0.94332171  0.68855900  1.0
  O  O19  1  0.89406653  0.55667829  0.68855900  1.0
  O  O20  1  0.10593347  0.44332171  0.31144100  1.0
  O  O21  1  0.10593347  0.05667829  0.31144100  1.0
  O  O22  1  0.64161293  0.38980541  0.35305879  1.0
  O  O23  1  0.64161293  0.11019459  0.35305879  1.0
  O  O24  1  0.35838707  0.88980541  0.64694121  1.0
  O  O25  1  0.35838707  0.61019459  0.64694121  1.0
  O  O26  1  0.65775704  0.43862286  0.87223112  1.0
  O  O27  1  0.65775704  0.06137714  0.87223112  1.0
  O  O28  1  0.34224296  0.93862286  0.12776888  1.0
  O  O29  1  0.34224296  0.56137714  0.12776888  1.0
  O  O30  1  0.15379855  0.38670770  0.90183467  1.0
  O  O31  1  0.15379855  0.11329230  0.90183467  1.0
  O  O32  1  0.84620145  0.88670770  0.09816533  1.0
  O  O33  1  0.84620145  0.61329230  0.09816533  1.0
  O  O34  1  0.58407646  0.25000000  0.98026731  1.0
  O  O35  1  0.41592354  0.75000000  0.01973269  1.0
  O  O36  1  0.18545671  0.25000000  0.45988661  1.0
  O  O37  1  0.81454329  0.75000000  0.54011339  1.0
