# generated using pymatgen
data_Mg3Pd5
_symmetry_space_group_name_H-M   'P 1'
_cell_length_a   5.50851038
_cell_length_b   10.76858676
_cell_length_c   4.24784240
_cell_angle_alpha   90.00000000
_cell_angle_beta   90.00000000
_cell_angle_gamma   90.00000000
_symmetry_Int_Tables_number   1
_chemical_formula_structural   Mg3Pd5
_chemical_formula_sum   'Mg6 Pd10'
_cell_volume   251.97721906
_cell_formula_units_Z   2
loop_
 _symmetry_equiv_pos_site_id
 _symmetry_equiv_pos_as_xyz
  1  'x, y, z'
loop_
 _atom_site_type_symbol
 _atom_site_label
 _atom_site_symmetry_multiplicity
 _atom_site_fract_x
 _atom_site_fract_y
 _atom_site_fract_z
 _atom_site_occupancy
  Mg  Mg0  1  0.33109544  0.63801444  0.50000000  1.0
  Mg  Mg1  1  0.83109544  0.86198556  0.50000000  1.0
  Mg  Mg2  1  0.66890456  0.36198556  0.50000000  1.0
  Mg  Mg3  1  0.16890456  0.13801444  0.50000000  1.0
  Mg  Mg4  1  0.50000000  0.00000000  0.00000000  1.0
  Mg  Mg5  1  0.00000000  0.50000000  0.00000000  1.0
  Pd  Pd6  1  0.31834437  0.88850640  0.50000000  1.0
  Pd  Pd7  1  0.81834437  0.61149360  0.50000000  1.0
  Pd  Pd8  1  0.68165563  0.11149360  0.50000000  1.0
  Pd  Pd9  1  0.18165563  0.38850640  0.50000000  1.0
  Pd  Pd10  1  0.09649259  0.74430800  0.00000000  1.0
  Pd  Pd11  1  0.59649259  0.75569200  0.00000000  1.0
  Pd  Pd12  1  0.90350741  0.25569200  0.00000000  1.0
  Pd  Pd13  1  0.40350741  0.24430800  0.00000000  1.0
  Pd  Pd14  1  0.50000000  0.50000000  0.00000000  1.0
  Pd  Pd15  1  0.00000000  0.00000000  0.00000000  1.0
