# generated using pymatgen
data_MnV2Pb2O9
_symmetry_space_group_name_H-M   'P 1'
_cell_length_a   8.39426816
_cell_length_b   5.80314706
_cell_length_c   9.07261149
_cell_angle_alpha   90.00000000
_cell_angle_beta   113.89118359
_cell_angle_gamma   90.00000000
_symmetry_Int_Tables_number   1
_chemical_formula_structural   MnV2Pb2O9
_chemical_formula_sum   'Mn2 V4 Pb4 O18'
_cell_volume   404.08728422
_cell_formula_units_Z   2
loop_
 _symmetry_equiv_pos_site_id
 _symmetry_equiv_pos_as_xyz
  1  'x, y, z'
loop_
 _atom_site_type_symbol
 _atom_site_label
 _atom_site_symmetry_multiplicity
 _atom_site_fract_x
 _atom_site_fract_y
 _atom_site_fract_z
 _atom_site_occupancy
  Mn  Mn0  1  0.00000000  0.50000000  0.00000000  1.0
  Mn  Mn1  1  0.00000000  0.00000000  0.00000000  1.0
  V  V2  1  1.00280467  0.25000000  0.68770960  1.0
  V  V3  1  -0.00280467  0.75000000  0.31229040  1.0
  V  V4  1  0.59341091  0.25000000  0.81385453  1.0
  V  V5  1  0.40658909  0.75000000  0.18614547  1.0
  Pb  Pb6  1  0.68963049  0.25000000  0.26296411  1.0
  Pb  Pb7  1  0.31036951  0.75000000  0.73703589  1.0
  Pb  Pb8  1  0.28252450  0.25000000  0.38247172  1.0
  Pb  Pb9  1  0.71747550  0.75000000  0.61752828  1.0
  O  O10  1  0.95434297  0.99844893  0.19052637  1.0
  O  O11  1  0.95434297  0.50155107  0.19052637  1.0
  O  O12  1  0.04565703  0.49844893  0.80947363  1.0
  O  O13  1  0.04565703  0.00155107  0.80947363  1.0
  O  O14  1  0.51770998  0.49062709  0.69441194  1.0
  O  O15  1  0.51770998  0.00937291  0.69441194  1.0
  O  O16  1  0.48229002  0.99062709  0.30558806  1.0
  O  O17  1  0.48229002  0.50937291  0.30558806  1.0
  O  O18  1  0.83418248  0.25000000  0.91113772  1.0
  O  O19  1  0.16581752  0.75000000  0.08886228  1.0
  O  O20  1  0.78790155  0.25000000  0.55609288  1.0
  O  O21  1  0.21209845  0.75000000  0.44390712  1.0
  O  O22  1  0.51451430  0.25000000  0.95261613  1.0
  O  O23  1  0.48548570  0.75000000  0.04738387  1.0
  O  O24  1  0.15235313  0.25000000  0.08599546  1.0
  O  O25  1  0.84764687  0.75000000  0.91400454  1.0
  O  O26  1  0.13102982  0.25000000  0.58747226  1.0
  O  O27  1  0.86897018  0.75000000  0.41252774  1.0
