# generated using pymatgen
data_NbS
_symmetry_space_group_name_H-M   'P 1'
_cell_length_a   6.46834423
_cell_length_b   3.31459696
_cell_length_c   5.94052661
_cell_angle_alpha   90.00000000
_cell_angle_beta   90.00000000
_cell_angle_gamma   90.00000000
_symmetry_Int_Tables_number   1
_chemical_formula_structural   NbS
_chemical_formula_sum   'Nb4 S4'
_cell_volume   127.36461831
_cell_formula_units_Z   4
loop_
 _symmetry_equiv_pos_site_id
 _symmetry_equiv_pos_as_xyz
  1  'x, y, z'
loop_
 _atom_site_type_symbol
 _atom_site_label
 _atom_site_symmetry_multiplicity
 _atom_site_fract_x
 _atom_site_fract_y
 _atom_site_fract_z
 _atom_site_occupancy
  Nb  Nb0  1  0.99341829  0.75000000  0.20820156  1.0
  Nb  Nb1  1  0.49341829  0.75000000  0.29179844  1.0
  Nb  Nb2  1  0.00658171  0.25000000  0.79179844  1.0
  Nb  Nb3  1  0.50658171  0.25000000  0.70820156  1.0
  S  S4  1  0.77503873  0.75000000  0.57815278  1.0
  S  S5  1  0.27503873  0.75000000  0.92184722  1.0
  S  S6  1  0.22496127  0.25000000  0.42184722  1.0
  S  S7  1  0.72496127  0.25000000  0.07815278  1.0
