# generated using pymatgen
data_CuGeO4
_symmetry_space_group_name_H-M   'P 1'
_cell_length_a   9.11735394
_cell_length_b   9.11735394
_cell_length_c   9.11735394
_cell_angle_alpha   111.61777064
_cell_angle_beta   111.61777064
_cell_angle_gamma   111.61777064
_symmetry_Int_Tables_number   1
_chemical_formula_structural   CuGeO4
_chemical_formula_sum   'Cu6 Ge6 O24'
_cell_volume   532.04117553
_cell_formula_units_Z   6
loop_
 _symmetry_equiv_pos_site_id
 _symmetry_equiv_pos_as_xyz
  1  'x, y, z'
loop_
 _atom_site_type_symbol
 _atom_site_label
 _atom_site_symmetry_multiplicity
 _atom_site_fract_x
 _atom_site_fract_y
 _atom_site_fract_z
 _atom_site_occupancy
  O  O0  1  0.98832239  0.02649306  0.28132840  1.0
  O  O1  1  0.71867160  0.01167761  -0.02649306  1.0
  O  O2  1  0.97350694  0.71867160  0.01167761  1.0
  O  O3  1  1.01167761  0.97350694  0.71867160  1.0
  O  O4  1  0.28132840  -0.01167761  0.02649306  1.0
  O  O5  1  1.02649306  1.28132840  -0.01167761  1.0
  O  O6  1  0.52877518  0.45493941  -0.37172045  1.0
  O  O7  1  1.37172045  0.47122482  0.54506059  1.0
  O  O8  1  0.54506059  1.37172045  -0.52877518  1.0
  O  O9  1  0.47122482  0.54506059  -0.62827955  1.0
  O  O10  1  0.62827955  0.52877518  0.45493941  1.0
  O  O11  1  1.45493941  0.62827955  0.52877518  1.0
  O  O12  1  0.91715855  0.32914122  0.37683878  1.0
  O  O13  1  0.62316122  0.08284145  -0.32914122  1.0
  O  O14  1  0.67085878  0.62316122  0.08284145  1.0
  O  O15  1  1.08284145  0.67085878  0.62316122  1.0
  O  O16  1  0.37683878  0.91715855  -0.67085878  1.0
  O  O17  1  1.32914122  1.37683878  -0.08284145  1.0
  O  O18  1  1.06546108  0.78511302  0.38129025  1.0
  O  O19  1  0.61870975  -0.06546108  0.21488698  1.0
  O  O20  1  1.21488698  1.61870975  -0.06546108  1.0
  O  O21  1  0.93453892  1.21488698  -0.38129025  1.0
  O  O22  1  0.38129025  0.06546108  -0.21488698  1.0
  O  O23  1  0.78511302  0.38129025  0.06546108  1.0
  Cu  Cu24  1  0.95610327  0.53711608  0.34406656  1.0
  Cu  Cu25  1  0.65593344  1.04389673  -0.53711608  1.0
  Cu  Cu26  1  0.46288392  -0.34406656  0.04389673  1.0
  Cu  Cu27  1  1.04389673  0.46288392  0.65593344  1.0
  Cu  Cu28  1  1.34406656  0.95610327  0.53711608  1.0
  Cu  Cu29  1  0.53711608  0.34406656  -0.04389673  1.0
  Ge  Ge30  1  0.81529529  0.08017639  0.21529903  1.0
  Ge  Ge31  1  0.78470097  0.18470471  -0.08017639  1.0
  Ge  Ge32  1  0.91982361  0.78470097  0.18470471  1.0
  Ge  Ge33  1  1.18470471  0.91982361  0.78470097  1.0
  Ge  Ge34  1  0.21529903  0.81529529  -0.91982361  1.0
  Ge  Ge35  1  1.08017639  1.21529903  -0.18470471  1.0
