# generated using pymatgen
data_HfSiMo
_symmetry_space_group_name_H-M   'P 1'
_cell_length_a   6.95071105
_cell_length_b   3.50060586
_cell_length_c   8.19739534
_cell_angle_alpha   90.00000000
_cell_angle_beta   90.00000000
_cell_angle_gamma   90.00000000
_symmetry_Int_Tables_number   1
_chemical_formula_structural   HfSiMo
_chemical_formula_sum   'Hf4 Si4 Mo4'
_cell_volume   199.45656279
_cell_formula_units_Z   4
loop_
 _symmetry_equiv_pos_site_id
 _symmetry_equiv_pos_as_xyz
  1  'x, y, z'
loop_
 _atom_site_type_symbol
 _atom_site_label
 _atom_site_symmetry_multiplicity
 _atom_site_fract_x
 _atom_site_fract_y
 _atom_site_fract_z
 _atom_site_occupancy
  Hf  Hf0  1  0.95652724  0.75000000  0.66720369  1.0
  Hf  Hf1  1  0.45652724  0.75000000  0.83279631  1.0
  Hf  Hf2  1  0.04347276  0.25000000  0.33279631  1.0
  Hf  Hf3  1  0.54347276  0.25000000  0.16720369  1.0
  Si  Si4  1  0.74296653  0.75000000  0.36264099  1.0
  Si  Si5  1  0.24296653  0.75000000  0.13735901  1.0
  Si  Si6  1  0.25703347  0.25000000  0.63735901  1.0
  Si  Si7  1  0.75703347  0.25000000  0.86264099  1.0
  Mo  Mo8  1  0.86609914  0.75000000  0.06244856  1.0
  Mo  Mo9  1  0.36609914  0.75000000  0.43755144  1.0
  Mo  Mo10  1  0.13390086  0.25000000  0.93755144  1.0
  Mo  Mo11  1  0.63390086  0.25000000  0.56244856  1.0
