# generated using pymatgen
data_Zr2SN2
_symmetry_space_group_name_H-M   'P 1'
_cell_length_a   3.62458522
_cell_length_b   3.62458522
_cell_length_c   12.86988335
_cell_angle_alpha   90.00000000
_cell_angle_beta   90.00000000
_cell_angle_gamma   120.00000000
_symmetry_Int_Tables_number   1
_chemical_formula_structural   Zr2SN2
_chemical_formula_sum   'Zr4 S2 N4'
_cell_volume   146.42723844
_cell_formula_units_Z   2
loop_
 _symmetry_equiv_pos_site_id
 _symmetry_equiv_pos_as_xyz
  1  'x, y, z'
loop_
 _atom_site_type_symbol
 _atom_site_label
 _atom_site_symmetry_multiplicity
 _atom_site_fract_x
 _atom_site_fract_y
 _atom_site_fract_z
 _atom_site_occupancy
  Zr  Zr0  1  0.33333333  0.66666667  0.39782989  1.0
  Zr  Zr1  1  0.33333333  0.66666667  0.10217011  1.0
  Zr  Zr2  1  0.66666667  0.33333333  0.89782989  1.0
  Zr  Zr3  1  0.66666667  0.33333333  0.60217011  1.0
  S  S4  1  0.00000000  0.00000000  0.25000000  1.0
  S  S5  1  0.00000000  0.00000000  0.75000000  1.0
  N  N6  1  0.33333333  0.66666667  0.93200132  1.0
  N  N7  1  0.33333333  0.66666667  0.56799868  1.0
  N  N8  1  0.66666667  0.33333333  0.43200132  1.0
  N  N9  1  0.66666667  0.33333333  0.06799868  1.0
