# generated using pymatgen
data_Nb(SBr)2
_symmetry_space_group_name_H-M   'P 1'
_cell_length_a   8.02247672
_cell_length_b   6.71074081
_cell_length_c   6.63335624
_cell_angle_alpha   59.65267337
_cell_angle_beta   69.00487222
_cell_angle_gamma   69.02000485
_symmetry_Int_Tables_number   1
_chemical_formula_structural   Nb(SBr)2
_chemical_formula_sum   'Nb2 S4 Br4'
_cell_volume   280.69464042
_cell_formula_units_Z   2
loop_
 _symmetry_equiv_pos_site_id
 _symmetry_equiv_pos_as_xyz
  1  'x, y, z'
loop_
 _atom_site_type_symbol
 _atom_site_label
 _atom_site_symmetry_multiplicity
 _atom_site_fract_x
 _atom_site_fract_y
 _atom_site_fract_z
 _atom_site_occupancy
  Nb  Nb0  1  0.50008208  -0.37427829  0.74813526  1.0
  Nb  Nb1  1  0.49991792  -0.62572171  1.25186474  1.0
  S  S2  1  0.61867413  -0.26108764  0.96579807  1.0
  S  S3  1  0.38132587  -0.73891236  1.03420193  1.0
  S  S4  1  0.77860651  -0.55362040  0.92004070  1.0
  S  S5  1  0.22139349  -0.44637960  1.07995930  1.0
  Br  Br6  1  0.71181253  -0.07540767  0.34780462  1.0
  Br  Br7  1  0.28818747  -0.92459233  1.65219538  1.0
  Br  Br8  1  0.71179012  -0.66700768  1.53027814  1.0
  Br  Br9  1  0.28820988  -0.33299232  0.46972186  1.0
