# generated using pymatgen
data_HfO2
_symmetry_space_group_name_H-M   'P 1'
_cell_length_a   5.56295624
_cell_length_b   3.34238293
_cell_length_c   6.51528696
_cell_angle_alpha   90.00000000
_cell_angle_beta   90.00000000
_cell_angle_gamma   90.00000000
_symmetry_Int_Tables_number   1
_chemical_formula_structural   HfO2
_chemical_formula_sum   'Hf4 O8'
_cell_volume   121.14218331
_cell_formula_units_Z   4
loop_
 _symmetry_equiv_pos_site_id
 _symmetry_equiv_pos_as_xyz
  1  'x, y, z'
loop_
 _atom_site_type_symbol
 _atom_site_label
 _atom_site_symmetry_multiplicity
 _atom_site_fract_x
 _atom_site_fract_y
 _atom_site_fract_z
 _atom_site_occupancy
  Hf  Hf0  1  0.74911699  0.75000000  0.39281619  1.0
  Hf  Hf1  1  0.24911699  0.75000000  0.10718381  1.0
  Hf  Hf2  1  0.25088301  0.25000000  0.60718381  1.0
  Hf  Hf3  1  0.75088301  0.25000000  0.89281619  1.0
  O  O4  1  0.97962008  0.75000000  0.65829088  1.0
  O  O5  1  0.47962008  0.75000000  0.84170912  1.0
  O  O6  1  0.02037992  0.25000000  0.34170912  1.0
  O  O7  1  0.52037992  0.25000000  0.15829088  1.0
  O  O8  1  0.86063241  0.75000000  0.07705982  1.0
  O  O9  1  0.36063241  0.75000000  0.42294018  1.0
  O  O10  1  0.13936759  0.25000000  0.92294018  1.0
  O  O11  1  0.63936759  0.25000000  0.57705982  1.0
