# generated using pymatgen
data_Ba(CuTe)2
_symmetry_space_group_name_H-M   'P 1'
_cell_length_a   10.19811540
_cell_length_b   4.47612123
_cell_length_c   11.55495659
_cell_angle_alpha   90.00000000
_cell_angle_beta   90.00000000
_cell_angle_gamma   90.00000000
_symmetry_Int_Tables_number   1
_chemical_formula_structural   Ba(CuTe)2
_chemical_formula_sum   'Ba4 Cu8 Te8'
_cell_volume   527.46066892
_cell_formula_units_Z   4
loop_
 _symmetry_equiv_pos_site_id
 _symmetry_equiv_pos_as_xyz
  1  'x, y, z'
loop_
 _atom_site_type_symbol
 _atom_site_label
 _atom_site_symmetry_multiplicity
 _atom_site_fract_x
 _atom_site_fract_y
 _atom_site_fract_z
 _atom_site_occupancy
  Ba  Ba0  1  0.75431853  0.75000000  0.32132415  1.0
  Ba  Ba1  1  0.25431853  0.75000000  0.17867585  1.0
  Ba  Ba2  1  0.24568147  0.25000000  0.67867585  1.0
  Ba  Ba3  1  0.74568147  0.25000000  0.82132415  1.0
  Cu  Cu4  1  0.94396347  0.75000000  0.61246823  1.0
  Cu  Cu5  1  0.44396347  0.75000000  0.88753177  1.0
  Cu  Cu6  1  0.05603653  0.25000000  0.38753177  1.0
  Cu  Cu7  1  0.55603653  0.25000000  0.11246823  1.0
  Cu  Cu8  1  0.92489242  0.75000000  0.04327089  1.0
  Cu  Cu9  1  0.42489242  0.75000000  0.45672911  1.0
  Cu  Cu10  1  0.07510758  0.25000000  0.95672911  1.0
  Cu  Cu11  1  0.57510758  0.25000000  0.54327089  1.0
  Te  Te12  1  0.66079989  0.75000000  0.03637636  1.0
  Te  Te13  1  0.16079989  0.75000000  0.46362364  1.0
  Te  Te14  1  0.33920011  0.25000000  0.96362364  1.0
  Te  Te15  1  0.83920011  0.25000000  0.53637636  1.0
  Te  Te16  1  0.52584014  0.75000000  0.67028199  1.0
  Te  Te17  1  0.02584014  0.75000000  0.82971801  1.0
  Te  Te18  1  0.47415986  0.25000000  0.32971801  1.0
  Te  Te19  1  0.97415986  0.25000000  0.17028199  1.0
