# generated using pymatgen
data_CaB2
_symmetry_space_group_name_H-M   'P 1'
_cell_length_a   4.35239132
_cell_length_b   4.35239132
_cell_length_c   5.45277832
_cell_angle_alpha   90.00000000
_cell_angle_beta   90.00000000
_cell_angle_gamma   90.00000000
_symmetry_Int_Tables_number   1
_chemical_formula_structural   CaB2
_chemical_formula_sum   'Ca2 B4'
_cell_volume   103.29367125
_cell_formula_units_Z   2
loop_
 _symmetry_equiv_pos_site_id
 _symmetry_equiv_pos_as_xyz
  1  'x, y, z'
loop_
 _atom_site_type_symbol
 _atom_site_label
 _atom_site_symmetry_multiplicity
 _atom_site_fract_x
 _atom_site_fract_y
 _atom_site_fract_z
 _atom_site_occupancy
  Ca  Ca0  1  -0.00000000  0.50000000  0.00000000  1.0
  Ca  Ca1  1  0.50000000  0.00000000  0.50000000  1.0
  B  B2  1  0.67892358  1.00000068  0.00000000  1.0
  B  B3  1  1.00000068  0.32107642  0.50000000  1.0
  B  B4  1  0.32107642  -0.00000068  0.00000000  1.0
  B  B5  1  -0.00000068  0.67892358  0.50000000  1.0
