# generated using pymatgen
data_La(Cu2P)2
_symmetry_space_group_name_H-M   'P 1'
_cell_length_a   11.10795123
_cell_length_b   14.79912133
_cell_length_c   3.93237327
_cell_angle_alpha   90.00000000
_cell_angle_beta   90.00000000
_cell_angle_gamma   90.00000000
_symmetry_Int_Tables_number   1
_chemical_formula_structural   La(Cu2P)2
_chemical_formula_sum   'La6 Cu24 P12'
_cell_volume   646.43465520
_cell_formula_units_Z   6
loop_
 _symmetry_equiv_pos_site_id
 _symmetry_equiv_pos_as_xyz
  1  'x, y, z'
loop_
 _atom_site_type_symbol
 _atom_site_label
 _atom_site_symmetry_multiplicity
 _atom_site_fract_x
 _atom_site_fract_y
 _atom_site_fract_z
 _atom_site_occupancy
  La  La0  1  0.37714550  0.22718678  0.50000000  1.0
  La  La1  1  0.87714550  0.27281322  0.00000000  1.0
  La  La2  1  0.62285450  0.77281322  0.50000000  1.0
  La  La3  1  0.12285450  0.72718678  0.00000000  1.0
  La  La4  1  0.50000000  0.50000000  0.50000000  1.0
  La  La5  1  0.00000000  0.00000000  0.00000000  1.0
  Cu  Cu6  1  0.43021542  0.93755274  0.50000000  1.0
  Cu  Cu7  1  0.93021542  0.56244726  0.00000000  1.0
  Cu  Cu8  1  0.56978458  0.06244726  0.50000000  1.0
  Cu  Cu9  1  0.06978458  0.43755274  0.00000000  1.0
  Cu  Cu10  1  0.32988248  0.78609667  0.50000000  1.0
  Cu  Cu11  1  0.82988248  0.71390333  0.00000000  1.0
  Cu  Cu12  1  0.67011752  0.21390333  0.50000000  1.0
  Cu  Cu13  1  0.17011752  0.28609667  0.00000000  1.0
  Cu  Cu14  1  0.23595807  0.03669501  0.50000000  1.0
  Cu  Cu15  1  0.73595807  0.46330499  0.00000000  1.0
  Cu  Cu16  1  0.76404193  0.96330499  0.50000000  1.0
  Cu  Cu17  1  0.26404193  0.53669501  0.00000000  1.0
  Cu  Cu18  1  0.09934104  0.55320298  0.50000000  1.0
  Cu  Cu19  1  0.59934104  0.94679702  0.00000000  1.0
  Cu  Cu20  1  0.90065896  0.44679702  0.50000000  1.0
  Cu  Cu21  1  0.40065896  0.05320298  0.00000000  1.0
  Cu  Cu22  1  0.92443996  0.83099387  0.50000000  1.0
  Cu  Cu23  1  0.42443996  0.66900613  0.00000000  1.0
  Cu  Cu24  1  0.07556004  0.16900613  0.50000000  1.0
  Cu  Cu25  1  0.57556004  0.33099387  0.00000000  1.0
  Cu  Cu26  1  0.75907597  0.58757986  0.50000000  1.0
  Cu  Cu27  1  0.25907597  0.91242014  0.00000000  1.0
  Cu  Cu28  1  0.24092403  0.41242014  0.50000000  1.0
  Cu  Cu29  1  0.74092403  0.08757986  0.00000000  1.0
  P  P30  1  0.29350466  0.62998397  0.50000000  1.0
  P  P31  1  0.79350466  0.87001603  0.00000000  1.0
  P  P32  1  0.70649534  0.37001603  0.50000000  1.0
  P  P33  1  0.20649534  0.12998397  0.00000000  1.0
  P  P34  1  0.13685298  0.88643964  0.50000000  1.0
  P  P35  1  0.63685298  0.61356036  0.00000000  1.0
  P  P36  1  0.86314702  0.11356036  0.50000000  1.0
  P  P37  1  0.36314702  0.38643964  0.00000000  1.0
  P  P38  1  0.94008272  0.66456663  0.50000000  1.0
  P  P39  1  0.44008272  0.83543337  0.00000000  1.0
  P  P40  1  0.05991728  0.33543337  0.50000000  1.0
  P  P41  1  0.55991728  0.16456663  0.00000000  1.0
