# generated using pymatgen
data_RbBeH3
_symmetry_space_group_name_H-M   'P 1'
_cell_length_a   7.49805918
_cell_length_b   5.67613256
_cell_length_c   9.64353531
_cell_angle_alpha   90.00000000
_cell_angle_beta   109.53900775
_cell_angle_gamma   90.00000000
_symmetry_Int_Tables_number   1
_chemical_formula_structural   RbBeH3
_chemical_formula_sum   'Rb4 Be4 H12'
_cell_volume   386.79371061
_cell_formula_units_Z   4
loop_
 _symmetry_equiv_pos_site_id
 _symmetry_equiv_pos_as_xyz
  1  'x, y, z'
loop_
 _atom_site_type_symbol
 _atom_site_label
 _atom_site_symmetry_multiplicity
 _atom_site_fract_x
 _atom_site_fract_y
 _atom_site_fract_z
 _atom_site_occupancy
  Rb  Rb0  1  0.23069084  0.25027122  0.21005261  1.0
  Rb  Rb1  1  0.76930916  0.75027122  0.28994739  1.0
  Rb  Rb2  1  0.76930916  0.74972878  0.78994739  1.0
  Rb  Rb3  1  0.23069084  0.24972878  0.71005261  1.0
  Be  Be4  1  0.23907722  0.75022167  1.00472217  1.0
  Be  Be5  1  0.76092278  0.25022167  0.49527783  1.0
  Be  Be6  1  0.76092278  0.24977833  -0.00472217  1.0
  Be  Be7  1  0.23907722  0.74977833  0.50472217  1.0
  H  H8  1  0.36620671  0.75030617  0.14990774  1.0
  H  H9  1  0.63379329  0.25030617  0.35009226  1.0
  H  H10  1  0.63379329  0.24969383  0.85009226  1.0
  H  H11  1  0.36620671  0.74969383  0.64990774  1.0
  H  H12  1  0.16936407  0.53628305  0.93492624  1.0
  H  H13  1  0.83063593  0.03628305  0.56507376  1.0
  H  H14  1  0.83063593  0.46371695  0.06507376  1.0
  H  H15  1  0.16936407  0.96371695  0.43492624  1.0
  H  H16  1  0.16924314  0.96407717  0.93487303  1.0
  H  H17  1  0.83075686  0.46407717  0.56512697  1.0
  H  H18  1  0.83075686  0.03592283  0.06512697  1.0
  H  H19  1  0.16924314  0.53592283  0.43487303  1.0
