# generated using pymatgen
data_Na2ZnGeO4
_symmetry_space_group_name_H-M   'P 1'
_cell_length_a   5.42683791
_cell_length_b   5.67736455
_cell_length_c   9.01005717
_cell_angle_alpha   90.00000000
_cell_angle_beta   126.91181982
_cell_angle_gamma   90.00000000
_symmetry_Int_Tables_number   1
_chemical_formula_structural   Na2ZnGeO4
_chemical_formula_sum   'Na4 Zn2 Ge2 O8'
_cell_volume   221.95894914
_cell_formula_units_Z   2
loop_
 _symmetry_equiv_pos_site_id
 _symmetry_equiv_pos_as_xyz
  1  'x, y, z'
loop_
 _atom_site_type_symbol
 _atom_site_label
 _atom_site_symmetry_multiplicity
 _atom_site_fract_x
 _atom_site_fract_y
 _atom_site_fract_z
 _atom_site_occupancy
  Na  Na0  1  0.48036829  0.17758782  0.05235804  1.0
  Na  Na1  1  0.48036829  0.82241218  0.55235804  1.0
  Na  Na2  1  0.22721102  0.32450504  0.29689978  1.0
  Na  Na3  1  0.22721102  0.67549496  0.79689978  1.0
  Zn  Zn4  1  0.96630983  0.81293283  0.04676325  1.0
  Zn  Zn5  1  0.96630983  0.18706717  0.54676325  1.0
  Ge  Ge6  1  0.71539602  0.68575478  0.29950348  1.0
  Ge  Ge7  1  0.71539602  0.31424522  0.79950348  1.0
  O  O8  1  0.00411997  0.84755375  0.50252341  1.0
  O  O9  1  0.00411997  0.15244625  0.00252340  1.0
  O  O10  1  0.82541241  0.38275827  0.32557393  1.0
  O  O11  1  0.82541241  0.61724173  0.82557393  1.0
  O  O12  1  0.65071208  0.79489120  0.09349847  1.0
  O  O13  1  0.65071208  0.20510880  0.59349847  1.0
  O  O14  1  0.36317039  0.70647332  0.27357963  1.0
  O  O15  1  0.36317039  0.29352668  0.77357963  1.0
