# generated using pymatgen
data_KLaFe(CN)6
_symmetry_space_group_name_H-M   'P 1'
_cell_length_a   7.20512822
_cell_length_b   7.20512822
_cell_length_c   12.52425571
_cell_angle_alpha   90.00000000
_cell_angle_beta   90.00000000
_cell_angle_gamma   120.00000000
_symmetry_Int_Tables_number   1
_chemical_formula_structural   KLaFe(CN)6
_chemical_formula_sum   'K2 La2 Fe2 C12 N12'
_cell_volume   563.07466281
_cell_formula_units_Z   2
loop_
 _symmetry_equiv_pos_site_id
 _symmetry_equiv_pos_as_xyz
  1  'x, y, z'
loop_
 _atom_site_type_symbol
 _atom_site_label
 _atom_site_symmetry_multiplicity
 _atom_site_fract_x
 _atom_site_fract_y
 _atom_site_fract_z
 _atom_site_occupancy
  K  K0  1  0.33333333  0.66666667  0.25000000  1.0
  K  K1  1  0.66666667  0.33333333  0.75000000  1.0
  La  La2  1  0.66666667  0.33333333  0.25000000  1.0
  La  La3  1  0.33333333  0.66666667  0.75000000  1.0
  Fe  Fe4  1  0.00000000  0.00000000  0.50000000  1.0
  Fe  Fe5  1  0.00000000  0.00000000  0.00000000  1.0
  C  C6  1  0.22448445  0.02564938  0.41352751  1.0
  C  C7  1  0.80116492  0.77551555  0.41352751  1.0
  C  C8  1  0.97435062  0.19883508  0.41352751  1.0
  C  C9  1  0.77551555  0.80116492  0.91352751  1.0
  C  C10  1  0.02564938  0.22448445  0.91352751  1.0
  C  C11  1  0.19883508  0.97435062  0.91352751  1.0
  C  C12  1  0.77551555  0.97435062  0.58647249  1.0
  C  C13  1  0.19883508  0.22448445  0.58647249  1.0
  C  C14  1  0.02564938  0.80116492  0.58647249  1.0
  C  C15  1  0.22448445  0.19883508  0.08647249  1.0
  C  C16  1  0.97435062  0.77551555  0.08647249  1.0
  C  C17  1  0.80116492  0.02564938  0.08647249  1.0
  N  N18  1  0.36613010  0.04336201  0.35873986  1.0
  N  N19  1  0.67723191  0.63386990  0.35873986  1.0
  N  N20  1  0.95663799  0.32276809  0.35873986  1.0
  N  N21  1  0.63386990  0.67723191  0.85873986  1.0
  N  N22  1  0.04336201  0.36613010  0.85873986  1.0
  N  N23  1  0.32276809  0.95663799  0.85873986  1.0
  N  N24  1  0.63386990  0.95663799  0.64126014  1.0
  N  N25  1  0.32276809  0.36613010  0.64126014  1.0
  N  N26  1  0.04336201  0.67723191  0.64126014  1.0
  N  N27  1  0.36613010  0.32276809  0.14126014  1.0
  N  N28  1  0.95663799  0.63386990  0.14126014  1.0
  N  N29  1  0.67723191  0.04336201  0.14126014  1.0
