# generated using pymatgen
data_KSiO3
_symmetry_space_group_name_H-M   'P 1'
_cell_length_a   7.85147157
_cell_length_b   7.85147157
_cell_length_c   11.01443555
_cell_angle_alpha   90.00000000
_cell_angle_beta   90.00000000
_cell_angle_gamma   82.09211186
_symmetry_Int_Tables_number   1
_chemical_formula_structural   KSiO3
_chemical_formula_sum   'K8 Si8 O24'
_cell_volume   672.53470340
_cell_formula_units_Z   8
loop_
 _symmetry_equiv_pos_site_id
 _symmetry_equiv_pos_as_xyz
  1  'x, y, z'
loop_
 _atom_site_type_symbol
 _atom_site_label
 _atom_site_symmetry_multiplicity
 _atom_site_fract_x
 _atom_site_fract_y
 _atom_site_fract_z
 _atom_site_occupancy
  Si  Si0  1  -0.49169769  1.49169769  0.18475902  1.0
  Si  Si1  1  0.00830231  0.99169769  0.31524098  1.0
  Si  Si2  1  0.49169769  0.50830231  0.81524098  1.0
  Si  Si3  1  -0.00830231  1.00830231  0.68475902  1.0
  Si  Si4  1  0.19490533  1.19490533  0.50000000  1.0
  Si  Si5  1  -0.30509468  0.69490532  0.00000000  1.0
  Si  Si6  1  -0.19490532  0.80509468  0.50000000  1.0
  Si  Si7  1  0.30509468  1.30509468  -0.00000000  1.0
  O  O8  1  -0.16262324  0.94058877  0.38885009  1.0
  O  O9  1  0.33737676  1.44058877  0.11114991  1.0
  O  O10  1  -0.05941123  0.83737676  0.61114991  1.0
  O  O11  1  0.44058877  1.33737676  0.88885009  1.0
  O  O12  1  0.05941123  1.16262324  0.38885009  1.0
  O  O13  1  -0.44058877  0.66262324  0.11114991  1.0
  O  O14  1  0.16262324  1.05941123  0.61114991  1.0
  O  O15  1  -0.33737676  0.55941123  0.88885009  1.0
  O  O16  1  -0.03507342  1.03507342  0.17444294  1.0
  O  O17  1  0.46492658  0.53507342  0.32555706  1.0
  O  O18  1  0.03507342  0.96492658  0.82555706  1.0
  O  O19  1  -0.46492658  1.46492658  0.67444294  1.0
  O  O20  1  0.39583114  1.16161576  0.46169279  1.0
  O  O21  1  -0.10416886  0.66161576  0.03830721  1.0
  O  O22  1  0.16161576  1.39583114  0.53830721  1.0
  O  O23  1  -0.33838424  0.89583114  0.96169279  1.0
  O  O24  1  -0.16161576  0.60416886  0.46169279  1.0
  O  O25  1  0.33838424  1.10416886  0.03830721  1.0
  O  O26  1  -0.39583114  0.83838424  0.53830721  1.0
  O  O27  1  0.10416886  1.33838424  0.96169279  1.0
  O  O28  1  -0.33536930  1.33536930  0.19911687  1.0
  O  O29  1  0.16463070  0.83536930  0.30088313  1.0
  O  O30  1  0.33536930  0.66463070  0.80088313  1.0
  O  O31  1  -0.16463070  1.16463070  0.69911687  1.0
  K  K32  1  -0.31878440  1.31878440  0.47750246  1.0
  K  K33  1  0.18121560  0.81878440  0.02249754  1.0
  K  K34  1  0.31878440  0.68121560  0.52249754  1.0
  K  K35  1  -0.18121560  1.18121560  0.97750246  1.0
  K  K36  1  -0.48895398  0.98895398  0.25000000  1.0
  K  K37  1  0.01104602  1.48895398  0.25000000  1.0
  K  K38  1  -0.01104602  0.51104602  0.75000000  1.0
  K  K39  1  0.48895398  1.01104602  0.75000000  1.0
