# generated using pymatgen
data_Na2TiO3
_symmetry_space_group_name_H-M   'P 1'
_cell_length_a   5.76364033
_cell_length_b   5.76364033
_cell_length_c   5.76364033
_cell_angle_alpha   149.59216555
_cell_angle_beta   136.79078843
_cell_angle_gamma   53.75047025
_symmetry_Int_Tables_number   1
_chemical_formula_structural   Na2TiO3
_chemical_formula_sum   'Na2 Ti1 O3'
_cell_volume   65.96583085
_cell_formula_units_Z   1
loop_
 _symmetry_equiv_pos_site_id
 _symmetry_equiv_pos_as_xyz
  1  'x, y, z'
loop_
 _atom_site_type_symbol
 _atom_site_label
 _atom_site_symmetry_multiplicity
 _atom_site_fract_x
 _atom_site_fract_y
 _atom_site_fract_z
 _atom_site_occupancy
  Na  Na0  1  0.67592007  0.67592007  1.00000000  1.0
  Na  Na1  1  0.32407993  0.32407993  0.00000000  1.0
  Ti  Ti2  1  0.00000000  0.00000000  0.00000000  1.0
  O  O3  1  0.12728630  0.62728630  0.50000000  1.0
  O  O4  1  0.87271370  0.37271370  0.50000000  1.0
  O  O5  1  0.50000000  -0.00000000  0.50000000  1.0
