# generated using pymatgen
data_Ti3Sb
_symmetry_space_group_name_H-M   'P 1'
_cell_length_a   5.87618688
_cell_length_b   5.87618688
_cell_length_c   4.76103486
_cell_angle_alpha   90.00000000
_cell_angle_beta   90.00000000
_cell_angle_gamma   120.00000000
_symmetry_Int_Tables_number   1
_chemical_formula_structural   Ti3Sb
_chemical_formula_sum   'Ti6 Sb2'
_cell_volume   142.37154265
_cell_formula_units_Z   2
loop_
 _symmetry_equiv_pos_site_id
 _symmetry_equiv_pos_as_xyz
  1  'x, y, z'
loop_
 _atom_site_type_symbol
 _atom_site_label
 _atom_site_symmetry_multiplicity
 _atom_site_fract_x
 _atom_site_fract_y
 _atom_site_fract_z
 _atom_site_occupancy
  Ti  Ti0  1  0.16256578  0.83743422  0.25000000  1.0
  Ti  Ti1  1  0.16256578  0.32513155  0.25000000  1.0
  Ti  Ti2  1  0.83743422  0.16256578  0.75000000  1.0
  Ti  Ti3  1  0.83743422  0.67486845  0.75000000  1.0
  Ti  Ti4  1  0.67486845  0.83743422  0.25000000  1.0
  Ti  Ti5  1  0.32513155  0.16256578  0.75000000  1.0
  Sb  Sb6  1  0.33333333  0.66666667  0.75000000  1.0
  Sb  Sb7  1  0.66666667  0.33333333  0.25000000  1.0
