# generated using pymatgen
data_Hf2Ni2Sn
_symmetry_space_group_name_H-M   'P 1'
_cell_length_a   7.09044368
_cell_length_b   7.09044368
_cell_length_c   3.39775045
_cell_angle_alpha   90.00000000
_cell_angle_beta   90.00000000
_cell_angle_gamma   90.00000000
_symmetry_Int_Tables_number   1
_chemical_formula_structural   Hf2Ni2Sn
_chemical_formula_sum   'Hf4 Ni4 Sn2'
_cell_volume   170.81983659
_cell_formula_units_Z   2
loop_
 _symmetry_equiv_pos_site_id
 _symmetry_equiv_pos_as_xyz
  1  'x, y, z'
loop_
 _atom_site_type_symbol
 _atom_site_label
 _atom_site_symmetry_multiplicity
 _atom_site_fract_x
 _atom_site_fract_y
 _atom_site_fract_z
 _atom_site_occupancy
  Hf  Hf0  1  0.33397212  0.16602788  0.50000000  1.0
  Hf  Hf1  1  0.83397212  0.33397212  0.50000000  1.0
  Hf  Hf2  1  0.66602788  0.83397212  0.50000000  1.0
  Hf  Hf3  1  0.16602788  0.66602788  0.50000000  1.0
  Ni  Ni4  1  0.87420694  0.62579306  0.00000000  1.0
  Ni  Ni5  1  0.37420694  0.87420694  0.00000000  1.0
  Ni  Ni6  1  0.12579306  0.37420694  0.00000000  1.0
  Ni  Ni7  1  0.62579306  0.12579306  0.00000000  1.0
  Sn  Sn8  1  0.50000000  0.50000000  0.00000000  1.0
  Sn  Sn9  1  0.00000000  0.00000000  0.00000000  1.0
