# generated using pymatgen
data_CePOs2C
_symmetry_space_group_name_H-M   'P 1'
_cell_length_a   5.88383762
_cell_length_b   5.88383762
_cell_length_c   7.08570120
_cell_angle_alpha   90.00000000
_cell_angle_beta   90.00000000
_cell_angle_gamma   141.27513097
_symmetry_Int_Tables_number   1
_chemical_formula_structural   CePOs2C
_chemical_formula_sum   'Ce2 P2 Os4 C2'
_cell_volume   153.45745043
_cell_formula_units_Z   2
loop_
 _symmetry_equiv_pos_site_id
 _symmetry_equiv_pos_as_xyz
  1  'x, y, z'
loop_
 _atom_site_type_symbol
 _atom_site_label
 _atom_site_symmetry_multiplicity
 _atom_site_fract_x
 _atom_site_fract_y
 _atom_site_fract_z
 _atom_site_occupancy
  Ce  Ce0  1  0.45186288  0.54813712  0.75000000  1.0
  Ce  Ce1  1  -0.45186288  0.45186288  0.25000000  1.0
  P  P2  1  -0.27220457  0.27220457  0.75000000  1.0
  P  P3  1  0.27220457  0.72779543  0.25000000  1.0
  Os  Os4  1  0.16735176  0.83264824  0.94629064  1.0
  Os  Os5  1  0.16735176  0.83264824  0.55370936  1.0
  Os  Os6  1  -0.16735176  0.16735176  0.44629064  1.0
  Os  Os7  1  -0.16735176  0.16735176  0.05370936  1.0
  C  C8  1  0.00000000  0.00000000  0.00000000  1.0
  C  C9  1  0.00000000  0.00000000  0.50000000  1.0
