# generated using pymatgen
data_La2HfS5
_symmetry_space_group_name_H-M   'P 1'
_cell_length_a   11.51961956
_cell_length_b   8.23046172
_cell_length_c   7.42399751
_cell_angle_alpha   90.00000000
_cell_angle_beta   90.00000000
_cell_angle_gamma   90.00000000
_symmetry_Int_Tables_number   1
_chemical_formula_structural   La2HfS5
_chemical_formula_sum   'La8 Hf4 S20'
_cell_volume   703.88247692
_cell_formula_units_Z   4
loop_
 _symmetry_equiv_pos_site_id
 _symmetry_equiv_pos_as_xyz
  1  'x, y, z'
loop_
 _atom_site_type_symbol
 _atom_site_label
 _atom_site_symmetry_multiplicity
 _atom_site_fract_x
 _atom_site_fract_y
 _atom_site_fract_z
 _atom_site_occupancy
  La  La0  1  0.32888234  0.50136729  0.55906145  1.0
  La  La1  1  0.82888234  -0.00136729  0.94093855  1.0
  La  La2  1  0.67111766  0.00136729  0.44093855  1.0
  La  La3  1  0.17111766  0.49863271  0.05906145  1.0
  La  La4  1  0.67111766  0.49863271  0.44093855  1.0
  La  La5  1  0.17111766  0.00136729  0.05906145  1.0
  La  La6  1  0.32888234  -0.00136729  0.55906145  1.0
  La  La7  1  0.82888234  0.50136729  0.94093855  1.0
  Hf  Hf8  1  0.49081021  0.75000000  0.07106678  1.0
  Hf  Hf9  1  0.99081021  0.75000000  0.42893322  1.0
  Hf  Hf10  1  0.50918979  0.25000000  0.92893322  1.0
  Hf  Hf11  1  0.00918979  0.25000000  0.57106678  1.0
  S  S12  1  0.57222205  0.96612751  0.82327673  1.0
  S  S13  1  0.07222205  0.53387249  0.67672327  1.0
  S  S14  1  0.42777795  0.46612751  0.17672327  1.0
  S  S15  1  0.92777795  0.03387249  0.32327673  1.0
  S  S16  1  0.42777795  0.03387249  0.17672327  1.0
  S  S17  1  0.92777795  0.46612751  0.32327673  1.0
  S  S18  1  0.57222205  0.53387249  0.82327673  1.0
  S  S19  1  0.07222205  0.96612751  0.67672327  1.0
  S  S20  1  0.30850208  0.75000000  0.86263386  1.0
  S  S21  1  0.80850208  0.75000000  0.63736614  1.0
  S  S22  1  0.69149792  0.25000000  0.13736614  1.0
  S  S23  1  0.19149792  0.25000000  0.36263386  1.0
  S  S24  1  0.49452805  0.75000000  0.43917887  1.0
  S  S25  1  0.99452805  0.75000000  0.06082113  1.0
  S  S26  1  0.50547195  0.25000000  0.56082113  1.0
  S  S27  1  0.00547195  0.25000000  0.93917887  1.0
  S  S28  1  0.70657145  0.75000000  0.15757825  1.0
  S  S29  1  0.20657145  0.75000000  0.34242175  1.0
  S  S30  1  0.29342855  0.25000000  0.84242175  1.0
  S  S31  1  0.79342855  0.25000000  0.65757825  1.0
