# generated using pymatgen
data_Li2CdGeO4
_symmetry_space_group_name_H-M   'P 1'
_cell_length_a   11.11371434
_cell_length_b   6.68498448
_cell_length_c   5.26649524
_cell_angle_alpha   90.00000000
_cell_angle_beta   90.00000000
_cell_angle_gamma   90.00000000
_symmetry_Int_Tables_number   1
_chemical_formula_structural   Li2CdGeO4
_chemical_formula_sum   'Li8 Cd4 Ge4 O16'
_cell_volume   391.27430542
_cell_formula_units_Z   4
loop_
 _symmetry_equiv_pos_site_id
 _symmetry_equiv_pos_as_xyz
  1  'x, y, z'
loop_
 _atom_site_type_symbol
 _atom_site_label
 _atom_site_symmetry_multiplicity
 _atom_site_fract_x
 _atom_site_fract_y
 _atom_site_fract_z
 _atom_site_occupancy
  Li  Li0  1  0.91212868  0.50051557  0.17009000  1.0
  Li  Li1  1  0.91212868  -0.00051557  0.17009000  1.0
  Li  Li2  1  0.41212868  0.50051557  0.32991000  1.0
  Li  Li3  1  0.41212868  -0.00051557  0.32991000  1.0
  Li  Li4  1  0.08787132  1.00051557  0.82991000  1.0
  Li  Li5  1  0.08787132  0.49948443  0.82991000  1.0
  Li  Li6  1  0.58787132  1.00051557  0.67009000  1.0
  Li  Li7  1  0.58787132  0.49948443  0.67009000  1.0
  Cd  Cd8  1  0.66125069  0.25000000  0.17228961  1.0
  Cd  Cd9  1  0.16125069  0.25000000  0.32771039  1.0
  Cd  Cd10  1  0.33874931  0.75000000  0.82771039  1.0
  Cd  Cd11  1  0.83874931  0.75000000  0.67228961  1.0
  Ge  Ge12  1  0.84209746  0.25000000  0.66551757  1.0
  Ge  Ge13  1  0.34209746  0.25000000  0.83448243  1.0
  Ge  Ge14  1  0.15790254  0.75000000  0.33448243  1.0
  Ge  Ge15  1  0.65790254  0.75000000  0.16551757  1.0
  O  O16  1  0.58557843  0.96387774  0.29509451  1.0
  O  O17  1  0.58557843  0.53612226  0.29509451  1.0
  O  O18  1  0.08557843  0.96387774  0.20490549  1.0
  O  O19  1  0.08557843  0.53612226  0.20490549  1.0
  O  O20  1  0.41442157  0.46387774  0.70490549  1.0
  O  O21  1  0.41442157  0.03612226  0.70490549  1.0
  O  O22  1  0.91442157  0.46387774  0.79509451  1.0
  O  O23  1  0.91442157  0.03612226  0.79509451  1.0
  O  O24  1  0.85190945  0.25000000  0.32755267  1.0
  O  O25  1  0.35190945  0.25000000  0.17244733  1.0
  O  O26  1  0.14809055  0.75000000  0.67244733  1.0
  O  O27  1  0.64809055  0.75000000  0.82755267  1.0
  O  O28  1  0.68480392  0.25000000  0.74760416  1.0
  O  O29  1  0.18480392  0.25000000  0.75239584  1.0
  O  O30  1  0.31519608  0.75000000  0.25239584  1.0
  O  O31  1  0.81519608  0.75000000  0.24760416  1.0
