# generated using pymatgen
data_CrF3
_symmetry_space_group_name_H-M   'P 1'
_cell_length_a   5.32303996
_cell_length_b   5.32303996
_cell_length_c   5.32303996
_cell_angle_alpha   56.86274159
_cell_angle_beta   56.86274159
_cell_angle_gamma   56.86274159
_symmetry_Int_Tables_number   1
_chemical_formula_structural   CrF3
_chemical_formula_sum   'Cr2 F6'
_cell_volume   98.93070145
_cell_formula_units_Z   2
loop_
 _symmetry_equiv_pos_site_id
 _symmetry_equiv_pos_as_xyz
  1  'x, y, z'
loop_
 _atom_site_type_symbol
 _atom_site_label
 _atom_site_symmetry_multiplicity
 _atom_site_fract_x
 _atom_site_fract_y
 _atom_site_fract_z
 _atom_site_occupancy
  Cr  Cr0  1  1.00000000  0.00000000  -0.00000000  1.0
  Cr  Cr1  1  0.50000000  0.50000000  0.50000000  1.0
  F  F2  1  1.36591994  -0.25000000  0.13408006  1.0
  F  F3  1  0.86591994  -0.36591994  0.25000000  1.0
  F  F4  1  0.25000000  0.86591994  -0.36591994  1.0
  F  F5  1  0.75000000  0.13408006  0.36591994  1.0
  F  F6  1  0.63408006  0.25000000  -0.13408006  1.0
  F  F7  1  1.13408006  0.36591994  -0.25000000  1.0
