# generated using pymatgen
data_La(CoB)2
_symmetry_space_group_name_H-M   'P 1'
_cell_length_a   5.72892307
_cell_length_b   5.72892307
_cell_length_c   5.72892307
_cell_angle_alpha   143.42207757
_cell_angle_beta   143.42207757
_cell_angle_gamma   52.69237098
_symmetry_Int_Tables_number   1
_chemical_formula_structural   La(CoB)2
_chemical_formula_sum   'La1 Co2 B2'
_cell_volume   66.37151733
_cell_formula_units_Z   1
loop_
 _symmetry_equiv_pos_site_id
 _symmetry_equiv_pos_as_xyz
  1  'x, y, z'
loop_
 _atom_site_type_symbol
 _atom_site_label
 _atom_site_symmetry_multiplicity
 _atom_site_fract_x
 _atom_site_fract_y
 _atom_site_fract_z
 _atom_site_occupancy
  La  La0  1  0.00000000  0.00000000  0.00000000  1.0
  Co  Co1  1  0.25000000  0.75000000  0.50000000  1.0
  Co  Co2  1  0.75000000  0.25000000  0.50000000  1.0
  B  B3  1  0.66740257  0.66740257  1.00000000  1.0
  B  B4  1  0.33259743  0.33259743  0.00000000  1.0
