# generated using pymatgen
data_Cu15Si4
_symmetry_space_group_name_H-M   'P 1'
_cell_length_a   8.42677945
_cell_length_b   8.42677945
_cell_length_c   8.42677945
_cell_angle_alpha   109.47122063
_cell_angle_beta   109.47122063
_cell_angle_gamma   109.47122063
_symmetry_Int_Tables_number   1
_chemical_formula_structural   Cu15Si4
_chemical_formula_sum   'Cu30 Si8'
_cell_volume   460.64142643
_cell_formula_units_Z   2
loop_
 _symmetry_equiv_pos_site_id
 _symmetry_equiv_pos_as_xyz
  1  'x, y, z'
loop_
 _atom_site_type_symbol
 _atom_site_label
 _atom_site_symmetry_multiplicity
 _atom_site_fract_x
 _atom_site_fract_y
 _atom_site_fract_z
 _atom_site_occupancy
  Cu  Cu0  1  1.07350634  0.29855031  0.95002123  1.0
  Cu  Cu1  1  0.84852908  1.12348511  0.54997877  1.0
  Cu  Cu2  1  0.79855031  0.57350634  0.45002123  1.0
  Cu  Cu3  1  1.62348511  1.34852908  1.04997877  1.0
  Cu  Cu4  1  0.95002123  1.07350634  0.29855031  1.0
  Cu  Cu5  1  1.27495603  0.65147092  1.20144969  1.0
  Cu  Cu6  1  1.57350634  1.45002123  1.79855031  1.0
  Cu  Cu7  1  0.15147092  0.77495603  0.70144969  1.0
  Cu  Cu8  1  1.29855031  0.95002123  1.07350634  1.0
  Cu  Cu9  1  1.37651489  1.22504397  1.42649366  1.0
  Cu  Cu10  1  0.45002123  0.79855031  0.57350634  1.0
  Cu  Cu11  1  0.72504397  0.87651489  0.92649366  1.0
  Cu  Cu12  1  1.65147092  1.20144969  1.27495603  1.0
  Cu  Cu13  1  1.42649366  1.37651489  1.22504397  1.0
  Cu  Cu14  1  0.87651489  0.92649366  0.72504397  1.0
  Cu  Cu15  1  0.70144969  1.15147092  0.77495603  1.0
  Cu  Cu16  1  1.22504397  1.42649366  1.37651489  1.0
  Cu  Cu17  1  1.54997877  0.84852908  1.12348511  1.0
  Cu  Cu18  1  1.34852908  1.04997877  1.62348511  1.0
  Cu  Cu19  1  0.92649366  0.72504397  0.87651489  1.0
  Cu  Cu20  1  1.12348511  1.54997877  0.84852908  1.0
  Cu  Cu21  1  1.20144969  1.27495603  1.65147092  1.0
  Cu  Cu22  1  0.77495603  0.70144969  0.15147092  1.0
  Cu  Cu23  1  1.04997877  0.62348511  1.34852908  1.0
  Cu  Cu24  1  1.12500000  0.87500000  1.25000000  1.0
  Cu  Cu25  1  0.37500000  0.62500000  0.75000000  1.0
  Cu  Cu26  1  0.25000000  1.12500000  0.87500000  1.0
  Cu  Cu27  1  0.75000000  1.37500000  0.62500000  1.0
  Cu  Cu28  1  0.62500000  0.75000000  0.37500000  1.0
  Cu  Cu29  1  0.87500000  0.25000000  1.12500000  1.0
  Si  Si30  1  1.08844692  1.08844692  1.08844692  1.0
  Si  Si31  1  1.50000000  1.00000000  1.41155308  1.0
  Si  Si32  1  0.58844692  0.58844692  0.58844692  1.0
  Si  Si33  1  0.50000000  1.00000000  0.91155308  1.0
  Si  Si34  1  1.00000000  1.41155308  1.50000000  1.0
  Si  Si35  1  1.41155308  0.50000000  1.00000000  1.0
  Si  Si36  1  1.00000000  0.91155308  1.50000000  1.0
  Si  Si37  1  0.91155308  1.50000000  1.00000000  1.0
