# generated using pymatgen
data_La6Si7Br3
_symmetry_space_group_name_H-M   'P 1'
_cell_length_a   4.15073431
_cell_length_b   16.96021892
_cell_length_c   11.94722331
_cell_angle_alpha   90.00000000
_cell_angle_beta   90.00000000
_cell_angle_gamma   90.00000000
_symmetry_Int_Tables_number   1
_chemical_formula_structural   La6Si7Br3
_chemical_formula_sum   'La12 Si14 Br6'
_cell_volume   841.05301021
_cell_formula_units_Z   2
loop_
 _symmetry_equiv_pos_site_id
 _symmetry_equiv_pos_as_xyz
  1  'x, y, z'
loop_
 _atom_site_type_symbol
 _atom_site_label
 _atom_site_symmetry_multiplicity
 _atom_site_fract_x
 _atom_site_fract_y
 _atom_site_fract_z
 _atom_site_occupancy
  La  La0  1  0.50000000  0.74439199  0.35756950  1.0
  La  La1  1  0.50000000  0.25560801  0.35756950  1.0
  La  La2  1  -0.00000000  0.24439199  0.64243050  1.0
  La  La3  1  -0.00000000  0.75560801  0.64243050  1.0
  La  La4  1  0.50000000  0.61951880  0.06559222  1.0
  La  La5  1  0.50000000  0.38048120  0.06559222  1.0
  La  La6  1  -0.00000000  0.11951880  0.93440778  1.0
  La  La7  1  0.00000000  0.88048120  0.93440778  1.0
  La  La8  1  0.50000000  0.00000000  0.34415777  1.0
  La  La9  1  0.00000000  0.50000000  0.65584223  1.0
  La  La10  1  0.50000000  0.50000000  0.35782078  1.0
  La  La11  1  0.00000000  0.00000000  0.64217922  1.0
  Si  Si12  1  0.50000000  0.62320391  0.56462670  1.0
  Si  Si13  1  0.50000000  0.37679609  0.56462670  1.0
  Si  Si14  1  -0.00000000  0.12320391  0.43537330  1.0
  Si  Si15  1  -0.00000000  0.87679609  0.43537330  1.0
  Si  Si16  1  0.50000000  0.12434001  0.74485697  1.0
  Si  Si17  1  0.50000000  0.87565999  0.74485697  1.0
  Si  Si18  1  -0.00000000  0.62434001  0.25514303  1.0
  Si  Si19  1  0.00000000  0.37565999  0.25514303  1.0
  Si  Si20  1  0.50000000  0.12409472  0.54222044  1.0
  Si  Si21  1  0.50000000  0.87590528  0.54222044  1.0
  Si  Si22  1  -0.00000000  0.62409472  0.45777956  1.0
  Si  Si23  1  -0.00000000  0.37590528  0.45777956  1.0
  Si  Si24  1  0.50000000  0.00000000  0.84589686  1.0
  Si  Si25  1  0.00000000  0.50000000  0.15410314  1.0
  Br  Br26  1  0.50000000  0.19264528  0.10774677  1.0
  Br  Br27  1  0.50000000  0.80735472  0.10774677  1.0
  Br  Br28  1  -0.00000000  0.69264528  0.89225323  1.0
  Br  Br29  1  0.00000000  0.30735472  0.89225323  1.0
  Br  Br30  1  0.50000000  0.50000000  0.86165284  1.0
  Br  Br31  1  0.00000000  0.00000000  0.13834716  1.0
