# generated using pymatgen
data_NiPt(CN)6
_symmetry_space_group_name_H-M   'P 1'
_cell_length_a   7.37782890
_cell_length_b   7.37782890
_cell_length_c   7.37782890
_cell_angle_alpha   60.00000000
_cell_angle_beta   60.00000000
_cell_angle_gamma   60.00000000
_symmetry_Int_Tables_number   1
_chemical_formula_structural   NiPt(CN)6
_chemical_formula_sum   'Ni1 Pt1 C6 N6'
_cell_volume   283.96887472
_cell_formula_units_Z   1
loop_
 _symmetry_equiv_pos_site_id
 _symmetry_equiv_pos_as_xyz
  1  'x, y, z'
loop_
 _atom_site_type_symbol
 _atom_site_label
 _atom_site_symmetry_multiplicity
 _atom_site_fract_x
 _atom_site_fract_y
 _atom_site_fract_z
 _atom_site_occupancy
  Ni  Ni0  1  -0.50000000  0.50000000  0.50000000  1.0
  Pt  Pt1  1  0.00000000  0.00000000  0.00000000  1.0
  C  C2  1  -0.80664968  0.80664968  0.80664968  1.0
  C  C3  1  -0.19335032  0.19335032  0.80664968  1.0
  C  C4  1  0.80664968  0.80664968  -0.80664968  1.0
  C  C5  1  0.19335032  1.19335032  -0.19335032  1.0
  C  C6  1  0.19335032  -0.19335032  1.19335032  1.0
  C  C7  1  -0.19335032  0.19335032  0.19335032  1.0
  N  N8  1  -0.69547673  0.69547673  0.69547673  1.0
  N  N9  1  -0.30452327  0.30452327  0.69547673  1.0
  N  N10  1  0.69547673  0.69547673  -0.69547673  1.0
  N  N11  1  0.30452327  1.30452327  -0.30452327  1.0
  N  N12  1  0.30452327  -0.30452327  1.30452327  1.0
  N  N13  1  -0.30452327  0.30452327  0.30452327  1.0
