# generated using pymatgen
data_LuV2O2
_symmetry_space_group_name_H-M   'P 1'
_cell_length_a   7.28748424
_cell_length_b   7.28748424
_cell_length_c   7.28748424
_cell_angle_alpha   109.66316498
_cell_angle_beta   109.66316498
_cell_angle_gamma   109.08801023
_symmetry_Int_Tables_number   1
_chemical_formula_structural   LuV2O2
_chemical_formula_sum   'Lu4 V8 O8'
_cell_volume   297.91778835
_cell_formula_units_Z   4
loop_
 _symmetry_equiv_pos_site_id
 _symmetry_equiv_pos_as_xyz
  1  'x, y, z'
loop_
 _atom_site_type_symbol
 _atom_site_label
 _atom_site_symmetry_multiplicity
 _atom_site_fract_x
 _atom_site_fract_y
 _atom_site_fract_z
 _atom_site_occupancy
  Lu  Lu0  1  1.37500000  1.12500000  1.25000000  1.0
  Lu  Lu1  1  0.87500000  1.12500000  0.75000000  1.0
  Lu  Lu2  1  0.87500000  1.12500000  0.25000000  1.0
  Lu  Lu3  1  0.87500000  1.62500000  0.75000000  1.0
  V  V4  1  1.21655608  1.53333853  0.68321754  1.0
  V  V5  1  0.89987901  0.71666147  0.18321754  1.0
  V  V6  1  0.85012099  0.53333853  0.31678246  1.0
  V  V7  1  1.53344392  0.71666147  0.81678246  1.0
  V  V8  1  0.46666147  0.14987901  0.68321754  1.0
  V  V9  1  1.28333853  1.46655608  1.18321754  1.0
  V  V10  1  0.46666147  0.78344392  0.31678246  1.0
  V  V11  1  1.28333853  1.10012099  0.81678246  1.0
  O  O12  1  1.20607847  1.35816585  0.84791263  1.0
  O  O13  1  1.23974678  0.89183415  1.34791263  1.0
  O  O14  1  0.51025322  0.35816585  0.15208737  1.0
  O  O15  1  0.54392153  0.89183415  0.65208737  1.0
  O  O16  1  0.64183415  0.48974678  0.84791263  1.0
  O  O17  1  1.10816585  1.45607847  0.34791263  1.0
  O  O18  1  0.64183415  0.79392153  0.15208737  1.0
  O  O19  1  1.10816585  1.76025322  0.65208737  1.0
