# generated using pymatgen
data_SrGe(HO2)2
_symmetry_space_group_name_H-M   'P 1'
_cell_length_a   6.24320395
_cell_length_b   6.24320395
_cell_length_c   6.24320395
_cell_angle_alpha   107.25946045
_cell_angle_beta   107.25946045
_cell_angle_gamma   113.99152313
_symmetry_Int_Tables_number   1
_chemical_formula_structural   SrGe(HO2)2
_chemical_formula_sum   'Sr2 Ge2 H4 O8'
_cell_volume   186.44548410
_cell_formula_units_Z   2
loop_
 _symmetry_equiv_pos_site_id
 _symmetry_equiv_pos_as_xyz
  1  'x, y, z'
loop_
 _atom_site_type_symbol
 _atom_site_label
 _atom_site_symmetry_multiplicity
 _atom_site_fract_x
 _atom_site_fract_y
 _atom_site_fract_z
 _atom_site_occupancy
  Sr  Sr0  1  1.25000000  0.75000000  0.50000000  1.0
  Sr  Sr1  1  0.50000000  0.50000000  -0.00000000  1.0
  Ge  Ge2  1  0.75000000  1.25000000  0.50000000  1.0
  Ge  Ge3  1  0.00000000  0.00000000  0.00000000  1.0
  H  H4  1  1.37500000  0.95139376  1.07639376  1.0
  H  H5  1  0.87500000  0.29860624  0.92360624  1.0
  H  H6  1  0.70139376  0.62500000  0.57639376  1.0
  H  H7  1  1.04860624  1.12500000  0.42360624  1.0
  O  O8  1  1.50505508  0.92124027  1.24064391  1.0
  O  O9  1  1.06940364  1.32875973  1.08381481  1.0
  O  O10  1  0.68059636  0.26441117  0.75935609  1.0
  O  O11  1  1.24494492  0.98558883  0.91618519  1.0
  O  O12  1  0.73558883  0.49494492  0.41618519  1.0
  O  O13  1  0.67124027  0.75505508  0.74064391  1.0
  O  O14  1  1.07875973  1.31940364  0.58381481  1.0
  O  O15  1  1.01441117  0.93059636  0.25935609  1.0
