# generated using pymatgen
data_C2Se(SN)2
_symmetry_space_group_name_H-M   'P 1'
_cell_length_a   10.03175543
_cell_length_b   13.68914304
_cell_length_c   4.81843223
_cell_angle_alpha   90.00000000
_cell_angle_beta   90.00000000
_cell_angle_gamma   90.00000000
_symmetry_Int_Tables_number   1
_chemical_formula_structural   C2Se(SN)2
_chemical_formula_sum   'C8 Se4 S8 N8'
_cell_volume   661.69667436
_cell_formula_units_Z   4
loop_
 _symmetry_equiv_pos_site_id
 _symmetry_equiv_pos_as_xyz
  1  'x, y, z'
loop_
 _atom_site_type_symbol
 _atom_site_label
 _atom_site_symmetry_multiplicity
 _atom_site_fract_x
 _atom_site_fract_y
 _atom_site_fract_z
 _atom_site_occupancy
  C  C0  1  0.28895482  0.88526698  0.47231439  1.0
  C  C1  1  0.28895482  0.61473302  0.47231439  1.0
  C  C2  1  0.78895482  0.88526698  1.02768561  1.0
  C  C3  1  0.78895482  0.61473302  1.02768561  1.0
  C  C4  1  0.71104518  0.38526698  0.52768561  1.0
  C  C5  1  0.71104518  0.11473302  0.52768561  1.0
  C  C6  1  0.21104518  0.38526698  -0.02768561  1.0
  C  C7  1  0.21104518  0.11473302  -0.02768561  1.0
  Se  Se8  1  0.02765422  0.75000000  0.04944151  1.0
  Se  Se9  1  0.52765422  0.75000000  0.45055849  1.0
  Se  Se10  1  0.97234578  0.25000000  0.95055849  1.0
  Se  Se11  1  0.47234578  0.25000000  0.54944151  1.0
  S  S12  1  0.42822138  0.87675634  0.66566945  1.0
  S  S13  1  0.42822138  0.62324366  0.66566945  1.0
  S  S14  1  0.92822138  0.87675634  0.83433055  1.0
  S  S15  1  0.92822138  0.62324366  0.83433055  1.0
  S  S16  1  0.57177862  0.37675634  0.33433055  1.0
  S  S17  1  0.57177862  0.12324366  0.33433055  1.0
  S  S18  1  0.07177862  0.37675634  0.16566945  1.0
  S  S19  1  0.07177862  0.12324366  0.16566945  1.0
  N  N20  1  0.31006094  0.39206292  0.84430116  1.0
  N  N21  1  0.31006094  0.10793708  0.84430116  1.0
  N  N22  1  0.81006094  0.39206292  0.65569884  1.0
  N  N23  1  0.81006094  0.10793708  0.65569884  1.0
  N  N24  1  0.68993906  0.89206292  0.15569884  1.0
  N  N25  1  0.68993906  0.60793708  0.15569884  1.0
  N  N26  1  0.18993906  0.89206292  0.34430116  1.0
  N  N27  1  0.18993906  0.60793708  0.34430116  1.0
