# generated using pymatgen
data_NaPO3
_symmetry_space_group_name_H-M   'P 1'
_cell_length_a   7.19118119
_cell_length_b   7.13784207
_cell_length_c   8.15806794
_cell_angle_alpha   103.90747938
_cell_angle_beta   94.03821273
_cell_angle_gamma   90.30954480
_symmetry_Int_Tables_number   1
_chemical_formula_structural   NaPO3
_chemical_formula_sum   'Na6 P6 O18'
_cell_volume   405.35710210
_cell_formula_units_Z   6
loop_
 _symmetry_equiv_pos_site_id
 _symmetry_equiv_pos_as_xyz
  1  'x, y, z'
loop_
 _atom_site_type_symbol
 _atom_site_label
 _atom_site_symmetry_multiplicity
 _atom_site_fract_x
 _atom_site_fract_y
 _atom_site_fract_z
 _atom_site_occupancy
  Na  Na0  1  1.02480158  0.74584679  -1.01486130  1.0
  Na  Na1  1  -0.02480158  0.25415321  0.01486130  1.0
  Na  Na2  1  0.76475423  0.56979584  -0.68308373  1.0
  Na  Na3  1  0.23524577  0.43020416  -0.31691627  1.0
  Na  Na4  1  0.25099622  0.94913152  -0.28339794  1.0
  Na  Na5  1  0.74900378  0.05086848  -0.71660206  1.0
  P  P6  1  0.76602574  0.95706609  -0.31942253  1.0
  P  P7  1  0.23397426  0.04293391  -0.68057747  1.0
  P  P8  1  0.76668160  0.37518189  -0.31678612  1.0
  P  P9  1  0.23331840  0.62481811  -0.68321388  1.0
  P  P10  1  0.55688314  0.71902037  -0.12400852  1.0
  P  P11  1  0.44311686  0.28097963  -0.87599148  1.0
  O  O12  1  0.94017090  0.95424471  -0.20501155  1.0
  O  O13  1  0.05982910  0.04575529  -0.79498845  1.0
  O  O14  1  0.94060108  0.44029934  -0.20097789  1.0
  O  O15  1  0.05939892  0.55970066  -0.79902211  1.0
  O  O16  1  0.76858140  0.87510536  -0.50702989  1.0
  O  O17  1  0.23141860  0.12489464  -0.49297011  1.0
  O  O18  1  0.77273524  0.35794179  -0.50315488  1.0
  O  O19  1  0.22726476  0.64205821  -0.49684512  1.0
  O  O20  1  0.69464727  0.76415085  -0.97207052  1.0
  O  O21  1  0.30535273  0.23584915  -0.02792948  1.0
  O  O22  1  0.68636569  0.17493379  -0.28335852  1.0
  O  O23  1  0.31363431  0.82506621  -0.71664148  1.0
  O  O24  1  0.59017288  0.86062936  -0.25153079  1.0
  O  O25  1  0.40982712  0.13937064  -0.74846921  1.0
  O  O26  1  0.58987355  0.50599638  -0.24765121  1.0
  O  O27  1  0.41012645  0.49400362  -0.75234879  1.0
  O  O28  1  0.34919117  0.72336967  -0.10885807  1.0
  O  O29  1  0.65080883  0.27663033  -0.89114193  1.0
