# generated using pymatgen
data_InGaS3
_symmetry_space_group_name_H-M   'P 1'
_cell_length_a   10.63812773
_cell_length_b   10.63812773
_cell_length_c   6.24188484
_cell_angle_alpha   90.00000000
_cell_angle_beta   90.00000000
_cell_angle_gamma   159.38534168
_symmetry_Int_Tables_number   1
_chemical_formula_structural   InGaS3
_chemical_formula_sum   'In2 Ga2 S6'
_cell_volume   248.70750070
_cell_formula_units_Z   2
loop_
 _symmetry_equiv_pos_site_id
 _symmetry_equiv_pos_as_xyz
  1  'x, y, z'
loop_
 _atom_site_type_symbol
 _atom_site_label
 _atom_site_symmetry_multiplicity
 _atom_site_fract_x
 _atom_site_fract_y
 _atom_site_fract_z
 _atom_site_occupancy
  In  In0  1  -0.82795443  0.82795443  0.19049640  1.0
  In  In1  1  -0.17204557  1.17204557  0.69049640  1.0
  Ga  Ga2  1  -0.62429400  0.62429400  0.13539417  1.0
  Ga  Ga3  1  -0.37570600  1.37570600  0.63539417  1.0
  S  S4  1  -0.92241963  0.92241963  0.48546475  1.0
  S  S5  1  -0.07758037  1.07758037  0.98546475  1.0
  S  S6  1  -0.72196994  0.72196994  0.94899612  1.0
  S  S7  1  -0.27803006  1.27803006  0.44899612  1.0
  S  S8  1  -0.61282729  0.61282729  0.49574856  1.0
  S  S9  1  -0.38717271  1.38717271  -0.00425144  1.0
