# generated using pymatgen
data_Rb3CrO8
_symmetry_space_group_name_H-M   'P 1'
_cell_length_a   6.42120321
_cell_length_b   6.42120321
_cell_length_c   6.42120321
_cell_angle_alpha   113.15073476
_cell_angle_beta   113.15073476
_cell_angle_gamma   102.33909976
_symmetry_Int_Tables_number   1
_chemical_formula_structural   Rb3CrO8
_chemical_formula_sum   'Rb3 Cr1 O8'
_cell_volume   201.48350486
_cell_formula_units_Z   1
loop_
 _symmetry_equiv_pos_site_id
 _symmetry_equiv_pos_as_xyz
  1  'x, y, z'
loop_
 _atom_site_type_symbol
 _atom_site_label
 _atom_site_symmetry_multiplicity
 _atom_site_fract_x
 _atom_site_fract_y
 _atom_site_fract_z
 _atom_site_occupancy
  Rb  Rb0  1  0.75000000  1.25000000  0.50000000  1.0
  Rb  Rb1  1  1.25000000  0.75000000  0.50000000  1.0
  Rb  Rb2  1  0.50000000  0.50000000  -0.00000000  1.0
  Cr  Cr3  1  0.00000000  0.00000000  0.00000000  1.0
  O  O4  1  1.04466715  1.04466715  0.74434538  1.0
  O  O5  1  0.95533285  1.69967823  1.00000000  1.0
  O  O6  1  1.69967823  0.95533285  1.00000000  1.0
  O  O7  1  0.30032177  0.30032177  0.25565462  1.0
  O  O8  1  0.81797419  0.81797419  0.60630785  1.0
  O  O9  1  1.18202581  0.78833366  1.00000000  1.0
  O  O10  1  0.78833366  1.18202581  1.00000000  1.0
  O  O11  1  0.21166634  0.21166634  0.39369215  1.0
