# generated using pymatgen
data_MgVBiO5
_symmetry_space_group_name_H-M   'P 1'
_cell_length_a   5.39143747
_cell_length_b   11.67514051
_cell_length_c   7.96124333
_cell_angle_alpha   90.00000000
_cell_angle_beta   112.84493897
_cell_angle_gamma   90.00000000
_symmetry_Int_Tables_number   1
_chemical_formula_structural   MgVBiO5
_chemical_formula_sum   'Mg4 V4 Bi4 O20'
_cell_volume   461.81783111
_cell_formula_units_Z   4
loop_
 _symmetry_equiv_pos_site_id
 _symmetry_equiv_pos_as_xyz
  1  'x, y, z'
loop_
 _atom_site_type_symbol
 _atom_site_label
 _atom_site_symmetry_multiplicity
 _atom_site_fract_x
 _atom_site_fract_y
 _atom_site_fract_z
 _atom_site_occupancy
  Mg  Mg0  1  0.94935086  0.92099907  0.32326472  1.0
  Mg  Mg1  1  0.94935086  0.57900093  0.82326472  1.0
  Mg  Mg2  1  0.05064914  0.42099907  0.17673528  1.0
  Mg  Mg3  1  0.05064914  0.07900093  0.67673528  1.0
  V  V4  1  0.68709701  0.35131063  0.47065452  1.0
  V  V5  1  0.68709701  0.14868937  0.97065452  1.0
  V  V6  1  0.31290299  0.85131063  0.02934548  1.0
  V  V7  1  0.31290299  0.64868937  0.52934548  1.0
  Bi  Bi8  1  0.43985686  0.09477706  0.32260183  1.0
  Bi  Bi9  1  0.43985686  0.40522294  0.82260183  1.0
  Bi  Bi10  1  0.56014314  0.59477706  0.17739817  1.0
  Bi  Bi11  1  0.56014314  0.90522294  0.67739817  1.0
  O  O12  1  0.82591748  0.28422161  0.01604421  1.0
  O  O13  1  0.82591748  0.21577839  0.51604421  1.0
  O  O14  1  0.17408252  0.78422161  0.48395579  1.0
  O  O15  1  0.17408252  0.71577839  0.98395579  1.0
  O  O16  1  0.79759938  0.43064683  0.32701539  1.0
  O  O17  1  0.79759938  0.06935317  0.82701539  1.0
  O  O18  1  0.20240062  0.93064683  0.17298461  1.0
  O  O19  1  0.20240062  0.56935317  0.67298461  1.0
  O  O20  1  0.74757341  0.07247477  0.16945332  1.0
  O  O21  1  0.74757341  0.42752523  0.66945332  1.0
  O  O22  1  0.25242659  0.57247477  0.33054668  1.0
  O  O23  1  0.25242659  0.92752523  0.83054668  1.0
  O  O24  1  0.74096332  0.97374131  0.48545843  1.0
  O  O25  1  0.74096332  0.52625869  0.98545843  1.0
  O  O26  1  0.25903668  0.47374131  0.01454157  1.0
  O  O27  1  0.25903668  0.02625869  0.51454157  1.0
  O  O28  1  0.35233846  0.32561464  0.36216979  1.0
  O  O29  1  0.35233846  0.17438536  0.86216979  1.0
  O  O30  1  0.64766154  0.82561464  0.13783021  1.0
  O  O31  1  0.64766154  0.67438536  0.63783021  1.0
