# generated using pymatgen
data_SrEu2Al2O7
_symmetry_space_group_name_H-M   'P 1'
_cell_length_a   10.33818947
_cell_length_b   10.33818947
_cell_length_c   10.33818947
_cell_angle_alpha   159.04541883
_cell_angle_beta   159.04541883
_cell_angle_gamma   29.80426828
_symmetry_Int_Tables_number   1
_chemical_formula_structural   SrEu2Al2O7
_chemical_formula_sum   'Sr1 Eu2 Al2 O7'
_cell_volume   141.23483990
_cell_formula_units_Z   1
loop_
 _symmetry_equiv_pos_site_id
 _symmetry_equiv_pos_as_xyz
  1  'x, y, z'
loop_
 _atom_site_type_symbol
 _atom_site_label
 _atom_site_symmetry_multiplicity
 _atom_site_fract_x
 _atom_site_fract_y
 _atom_site_fract_z
 _atom_site_occupancy
  Al  Al0  1  0.90541439  0.90541439  1.00000000  1.0
  Al  Al1  1  0.09458561  0.09458561  -0.00000000  1.0
  O  O2  1  0.00000000  0.00000000  0.00000000  1.0
  O  O3  1  0.89722290  0.39722290  0.50000000  1.0
  O  O4  1  0.39722290  0.89722290  0.50000000  1.0
  O  O5  1  0.10277710  0.60277710  0.50000000  1.0
  O  O6  1  0.60277710  0.10277710  0.50000000  1.0
  O  O7  1  0.79856371  0.79856371  1.00000000  1.0
  O  O8  1  0.20143629  0.20143629  0.00000000  1.0
  Sr  Sr9  1  0.50000000  0.50000000  1.00000000  1.0
  Eu  Eu10  1  0.68203425  0.68203425  1.00000000  1.0
  Eu  Eu11  1  0.31796575  0.31796575  0.00000000  1.0
