# generated using pymatgen
data_CrPb6(Cl3O4)2
_symmetry_space_group_name_H-M   'P 1'
_cell_length_a   8.84149895
_cell_length_b   8.84149895
_cell_length_c   8.84149895
_cell_angle_alpha   101.78804298
_cell_angle_beta   101.78804298
_cell_angle_gamma   101.78804298
_symmetry_Int_Tables_number   1
_chemical_formula_structural   CrPb6(Cl3O4)2
_chemical_formula_sum   'Cr1 Pb6 Cl6 O8'
_cell_volume   640.11222648
_cell_formula_units_Z   1
loop_
 _symmetry_equiv_pos_site_id
 _symmetry_equiv_pos_as_xyz
  1  'x, y, z'
loop_
 _atom_site_type_symbol
 _atom_site_label
 _atom_site_symmetry_multiplicity
 _atom_site_fract_x
 _atom_site_fract_y
 _atom_site_fract_z
 _atom_site_occupancy
  Cr  Cr0  1  0.00000000  0.00000000  0.00000000  1.0
  Pb  Pb1  1  1.67422223  0.87647731  0.06802608  1.0
  Pb  Pb2  1  0.12352269  0.93197392  -0.67422223  1.0
  Pb  Pb3  1  0.93197392  0.32577777  -0.87647731  1.0
  Pb  Pb4  1  0.32577777  0.12352269  -0.06802608  1.0
  Pb  Pb5  1  1.87647731  0.06802608  0.67422223  1.0
  Pb  Pb6  1  1.06802608  0.67422223  0.87647731  1.0
  Cl  Cl7  1  0.82493207  0.79955834  0.38250376  1.0
  Cl  Cl8  1  1.20044166  -0.38250376  0.17506793  1.0
  Cl  Cl9  1  0.61749624  0.17506793  0.20044166  1.0
  Cl  Cl10  1  1.17506793  0.20044166  -0.38250376  1.0
  Cl  Cl11  1  0.79955834  1.38250376  -0.17506793  1.0
  Cl  Cl12  1  1.38250376  0.82493207  -0.20044166  1.0
  O  O13  1  1.79848529  1.02260259  -0.08308822  1.0
  O  O14  1  0.97739741  0.08308822  -0.79848529  1.0
  O  O15  1  1.08308822  -0.79848529  -0.02260259  1.0
  O  O16  1  0.20151471  -0.02260259  0.08308822  1.0
  O  O17  1  1.02260259  0.91691178  0.79848529  1.0
  O  O18  1  0.91691178  1.79848529  0.02260259  1.0
  O  O19  1  0.55186309  0.55186309  0.55186309  1.0
  O  O20  1  0.44813691  0.44813691  0.44813691  1.0
