# generated using pymatgen
data_BaCu2Si2O7
_symmetry_space_group_name_H-M   'P 1'
_cell_length_a   6.90669949
_cell_length_b   13.19193633
_cell_length_c   7.09661438
_cell_angle_alpha   90.00000000
_cell_angle_beta   90.00000000
_cell_angle_gamma   90.00000000
_symmetry_Int_Tables_number   1
_chemical_formula_structural   BaCu2Si2O7
_chemical_formula_sum   'Ba4 Si8 Cu8 O28'
_cell_volume   646.59197959
_cell_formula_units_Z   4
loop_
 _symmetry_equiv_pos_site_id
 _symmetry_equiv_pos_as_xyz
  1  'x, y, z'
loop_
 _atom_site_type_symbol
 _atom_site_label
 _atom_site_symmetry_multiplicity
 _atom_site_fract_x
 _atom_site_fract_y
 _atom_site_fract_z
 _atom_site_occupancy
  Ba  Ba0  1  0.01330632  0.25000000  0.96533753  1.0
  Ba  Ba1  1  0.51330632  0.25000000  0.53466247  1.0
  Ba  Ba2  1  0.98669368  0.75000000  0.03466247  1.0
  Ba  Ba3  1  0.48669368  0.75000000  0.46533753  1.0
  Si  Si4  1  0.50276796  0.36645486  0.01980564  1.0
  Si  Si5  1  0.50276796  0.13354514  0.01980564  1.0
  Si  Si6  1  1.00276796  0.36645486  0.48019436  1.0
  Si  Si7  1  1.00276796  0.13354514  0.48019436  1.0
  Si  Si8  1  0.49723204  0.86645486  0.98019436  1.0
  Si  Si9  1  0.49723204  0.63354514  0.98019436  1.0
  Si  Si10  1  -0.00276796  0.86645486  0.51980564  1.0
  Si  Si11  1  -0.00276796  0.63354514  0.51980564  1.0
  Cu  Cu12  1  0.27524907  0.49662832  0.71511321  1.0
  Cu  Cu13  1  0.27524907  0.00337168  0.71511321  1.0
  Cu  Cu14  1  0.77524907  0.49662832  0.78488679  1.0
  Cu  Cu15  1  0.77524907  0.00337168  0.78488679  1.0
  Cu  Cu16  1  0.72475093  0.99662832  0.28488679  1.0
  Cu  Cu17  1  0.72475093  0.50337168  0.28488679  1.0
  Cu  Cu18  1  0.22475093  0.99662832  0.21511321  1.0
  Cu  Cu19  1  0.22475093  0.50337168  0.21511321  1.0
  O  O20  1  0.41880438  0.88124888  0.76497237  1.0
  O  O21  1  0.41880438  0.61875112  0.76497237  1.0
  O  O22  1  0.91880438  0.88124888  0.73502763  1.0
  O  O23  1  0.91880438  0.61875112  0.73502763  1.0
  O  O24  1  0.58119562  0.38124888  0.23502763  1.0
  O  O25  1  0.58119562  0.11875112  0.23502763  1.0
  O  O26  1  0.08119562  0.38124888  0.26497237  1.0
  O  O27  1  0.08119562  0.11875112  0.26497237  1.0
  O  O28  1  0.16917915  0.36648176  0.64537342  1.0
  O  O29  1  0.16917915  0.13351824  0.64537342  1.0
  O  O30  1  0.66917915  0.36648176  0.85462658  1.0
  O  O31  1  0.66917915  0.13351824  0.85462658  1.0
  O  O32  1  0.83082085  0.86648176  0.35462658  1.0
  O  O33  1  0.83082085  0.63351824  0.35462658  1.0
  O  O34  1  0.33082085  0.86648176  0.14537342  1.0
  O  O35  1  0.33082085  0.63351824  0.14537342  1.0
  O  O36  1  0.40488859  0.25000000  0.00768836  1.0
  O  O37  1  0.90488859  0.25000000  0.49231164  1.0
  O  O38  1  0.59511141  0.75000000  0.99231164  1.0
  O  O39  1  0.09511141  0.75000000  0.50768836  1.0
  O  O40  1  0.31798362  0.44404791  0.97362770  1.0
  O  O41  1  0.31798362  0.05595209  0.97362770  1.0
  O  O42  1  0.81798362  0.44404791  0.52637230  1.0
  O  O43  1  0.81798362  0.05595209  0.52637230  1.0
  O  O44  1  0.68201638  0.94404791  0.02637230  1.0
  O  O45  1  0.68201638  0.55595209  0.02637230  1.0
  O  O46  1  0.18201638  0.94404791  0.47362770  1.0
  O  O47  1  0.18201638  0.55595209  0.47362770  1.0
