# generated using pymatgen
data_CuSb2(XeF4)6
_symmetry_space_group_name_H-M   'P 1'
_cell_length_a   9.87236067
_cell_length_b   9.87236067
_cell_length_c   9.87236067
_cell_angle_alpha   64.57821930
_cell_angle_beta   64.57821930
_cell_angle_gamma   64.57821930
_symmetry_Int_Tables_number   1
_chemical_formula_structural   CuSb2(XeF4)6
_chemical_formula_sum   'Cu1 Sb2 Xe6 F24'
_cell_volume   748.64376963
_cell_formula_units_Z   1
loop_
 _symmetry_equiv_pos_site_id
 _symmetry_equiv_pos_as_xyz
  1  'x, y, z'
loop_
 _atom_site_type_symbol
 _atom_site_label
 _atom_site_symmetry_multiplicity
 _atom_site_fract_x
 _atom_site_fract_y
 _atom_site_fract_z
 _atom_site_occupancy
  Cu  Cu0  1  0.00000000  0.00000000  0.00000000  1.0
  Sb  Sb1  1  0.74561749  0.74561749  -0.25438251  1.0
  Sb  Sb2  1  1.25438251  1.25438251  0.25438251  1.0
  Xe  Xe3  1  0.68200269  0.79862923  -0.73040436  1.0
  Xe  Xe4  1  0.20137077  0.73040436  -0.68200269  1.0
  Xe  Xe5  1  0.73040436  0.31799731  -0.79862923  1.0
  Xe  Xe6  1  0.31799731  0.20137077  -0.26959564  1.0
  Xe  Xe7  1  0.79862923  0.26959564  -0.31799731  1.0
  Xe  Xe8  1  0.26959564  0.68200269  -0.20137077  1.0
  F  F9  1  0.91288191  -0.18453814  0.12509068  1.0
  F  F10  1  0.18453814  0.87490932  -0.91288191  1.0
  F  F11  1  0.87490932  0.08711809  -0.81546186  1.0
  F  F12  1  0.08711809  0.18453814  -0.12509068  1.0
  F  F13  1  0.81546186  0.12509068  -0.08711809  1.0
  F  F14  1  1.12509068  -0.08711809  -0.18453814  1.0
  F  F15  1  0.64199415  0.58345743  -0.13504906  1.0
  F  F16  1  1.41654257  1.13504906  0.35800585  1.0
  F  F17  1  1.13504906  1.35800585  0.41654257  1.0
  F  F18  1  1.35800585  1.41654257  0.13504906  1.0
  F  F19  1  0.58345743  0.86495094  -0.35800585  1.0
  F  F20  1  0.86495094  0.64199415  -0.41654257  1.0
  F  F21  1  0.40733461  0.46951605  -0.22586144  1.0
  F  F22  1  0.53048395  0.22586144  -0.40733461  1.0
  F  F23  1  0.22586144  0.59266539  -0.46951605  1.0
  F  F24  1  0.59266539  0.53048395  -0.77413856  1.0
  F  F25  1  0.46951605  0.77413856  -0.59266539  1.0
  F  F26  1  0.77413856  0.40733461  -0.53048395  1.0
  F  F27  1  0.62227829  0.85348049  -0.09683584  1.0
  F  F28  1  1.14651951  1.09683584  0.37772171  1.0
  F  F29  1  1.09683584  1.37772171  0.14651951  1.0
  F  F30  1  1.37772171  1.14651951  0.09683584  1.0
  F  F31  1  0.85348049  0.90316416  -0.37772171  1.0
  F  F32  1  0.90316416  0.62227829  -0.14651951  1.0
