# generated using pymatgen
data_Ti2O3
_symmetry_space_group_name_H-M   'P 1'
_cell_length_a   5.51884940
_cell_length_b   5.51884940
_cell_length_c   5.51884940
_cell_angle_alpha   55.03663568
_cell_angle_beta   55.03663568
_cell_angle_gamma   55.03663567
_symmetry_Int_Tables_number   1
_chemical_formula_structural   Ti2O3
_chemical_formula_sum   'Ti4 O6'
_cell_volume   105.13457215
_cell_formula_units_Z   2
loop_
 _symmetry_equiv_pos_site_id
 _symmetry_equiv_pos_as_xyz
  1  'x, y, z'
loop_
 _atom_site_type_symbol
 _atom_site_label
 _atom_site_symmetry_multiplicity
 _atom_site_fract_x
 _atom_site_fract_y
 _atom_site_fract_z
 _atom_site_occupancy
  Ti  Ti0  1  0.84531822  -0.15468178  -0.15468178  1.0
  Ti  Ti1  1  0.34531822  0.34531822  0.34531822  1.0
  Ti  Ti2  1  0.65468178  0.65468178  -0.34531822  1.0
  Ti  Ti3  1  1.15468178  0.15468178  0.15468178  1.0
  O  O4  1  0.43777098  0.75000000  0.06222902  1.0
  O  O5  1  0.93777098  -0.43777098  0.25000000  1.0
  O  O6  1  0.25000000  0.93777098  -0.43777098  1.0
  O  O7  1  0.75000000  1.06222902  -0.56222902  1.0
  O  O8  1  0.56222902  0.25000000  -0.06222902  1.0
  O  O9  1  1.06222902  0.43777098  -0.25000000  1.0
