# generated using pymatgen
data_FeReP
_symmetry_space_group_name_H-M   'P 1'
_cell_length_a   5.75501335
_cell_length_b   3.77338180
_cell_length_c   6.57655661
_cell_angle_alpha   90.00000000
_cell_angle_beta   90.00000000
_cell_angle_gamma   90.00000000
_symmetry_Int_Tables_number   1
_chemical_formula_structural   FeReP
_chemical_formula_sum   'Fe4 Re4 P4'
_cell_volume   142.81559974
_cell_formula_units_Z   4
loop_
 _symmetry_equiv_pos_site_id
 _symmetry_equiv_pos_as_xyz
  1  'x, y, z'
loop_
 _atom_site_type_symbol
 _atom_site_label
 _atom_site_symmetry_multiplicity
 _atom_site_fract_x
 _atom_site_fract_y
 _atom_site_fract_z
 _atom_site_occupancy
  Fe  Fe0  1  0.86074847  0.75000000  0.06845304  1.0
  Fe  Fe1  1  0.36074847  0.75000000  0.43154696  1.0
  Fe  Fe2  1  0.13925153  0.25000000  0.93154696  1.0
  Fe  Fe3  1  0.63925153  0.25000000  0.56845304  1.0
  Re  Re4  1  0.96799340  0.75000000  0.66479846  1.0
  Re  Re5  1  0.46799340  0.75000000  0.83520154  1.0
  Re  Re6  1  0.03200660  0.25000000  0.33520154  1.0
  Re  Re7  1  0.53200660  0.25000000  0.16479846  1.0
  P  P8  1  0.73385381  0.75000000  0.37897889  1.0
  P  P9  1  0.23385381  0.75000000  0.12102111  1.0
  P  P10  1  0.26614619  0.25000000  0.62102111  1.0
  P  P11  1  0.76614619  0.25000000  0.87897889  1.0
