# generated using pymatgen
data_CaMgNiH4
_symmetry_space_group_name_H-M   'P 1'
_cell_length_a   6.74127249
_cell_length_b   6.74127249
_cell_length_c   6.74127249
_cell_angle_alpha   90.00000000
_cell_angle_beta   90.00000000
_cell_angle_gamma   90.00000000
_symmetry_Int_Tables_number   1
_chemical_formula_structural   CaMgNiH4
_chemical_formula_sum   'Ca4 Mg4 Ni4 H16'
_cell_volume   306.35547530
_cell_formula_units_Z   4
loop_
 _symmetry_equiv_pos_site_id
 _symmetry_equiv_pos_as_xyz
  1  'x, y, z'
loop_
 _atom_site_type_symbol
 _atom_site_label
 _atom_site_symmetry_multiplicity
 _atom_site_fract_x
 _atom_site_fract_y
 _atom_site_fract_z
 _atom_site_occupancy
  Ca  Ca0  1  0.68078680  0.18078680  0.31921320  1.0
  Ca  Ca1  1  0.18078680  0.31921320  0.68078680  1.0
  Ca  Ca2  1  0.31921320  0.68078680  0.18078680  1.0
  Ca  Ca3  1  0.81921320  0.81921320  0.81921320  1.0
  Mg  Mg4  1  0.33321981  0.83321981  0.66678019  1.0
  Mg  Mg5  1  0.83321981  0.66678019  0.33321981  1.0
  Mg  Mg6  1  0.66678019  0.33321981  0.83321981  1.0
  Mg  Mg7  1  0.16678019  0.16678019  0.16678019  1.0
  Ni  Ni8  1  0.95501127  0.45501127  0.04498873  1.0
  Ni  Ni9  1  0.45501127  0.04498873  0.95501127  1.0
  Ni  Ni10  1  0.04498873  0.95501127  0.45501127  1.0
  Ni  Ni11  1  0.54498873  0.54498873  0.54498873  1.0
  H  H12  1  0.45145525  0.55924727  0.76029882  1.0
  H  H13  1  0.95145525  0.94075273  0.23970118  1.0
  H  H14  1  0.05924727  0.73970118  0.54854475  1.0
  H  H15  1  0.55924727  0.76029882  0.45145525  1.0
  H  H16  1  0.23970118  0.95145525  0.94075273  1.0
  H  H17  1  0.73970118  0.54854475  0.05924727  1.0
  H  H18  1  0.54854475  0.05924727  0.73970118  1.0
  H  H19  1  0.04854475  0.44075273  0.26029882  1.0
  H  H20  1  0.94075273  0.23970118  0.95145525  1.0
  H  H21  1  0.44075273  0.26029882  0.04854475  1.0
  H  H22  1  0.76029882  0.45145525  0.55924727  1.0
  H  H23  1  0.26029882  0.04854475  0.44075273  1.0
  H  H24  1  0.09185888  0.59185888  0.90814112  1.0
  H  H25  1  0.59185888  0.90814112  0.09185888  1.0
  H  H26  1  0.90814112  0.09185888  0.59185888  1.0
  H  H27  1  0.40814112  0.40814112  0.40814112  1.0
