# generated using pymatgen
data_C11N4
_symmetry_space_group_name_H-M   'P 1'
_cell_length_a   3.53904862
_cell_length_b   3.53904862
_cell_length_c   6.99031639
_cell_angle_alpha   90.00000000
_cell_angle_beta   90.00000000
_cell_angle_gamma   90.00000000
_symmetry_Int_Tables_number   1
_chemical_formula_structural   C11N4
_chemical_formula_sum   'C11 N4'
_cell_volume   87.55277021
_cell_formula_units_Z   1
loop_
 _symmetry_equiv_pos_site_id
 _symmetry_equiv_pos_as_xyz
  1  'x, y, z'
loop_
 _atom_site_type_symbol
 _atom_site_label
 _atom_site_symmetry_multiplicity
 _atom_site_fract_x
 _atom_site_fract_y
 _atom_site_fract_z
 _atom_site_occupancy
  C  C0  1  0.00000000  0.50000000  0.25692113  1.0
  C  C1  1  0.00000000  0.50000000  0.74307887  1.0
  C  C2  1  0.50000000  0.00000000  0.74307887  1.0
  C  C3  1  0.50000000  0.00000000  0.25692113  1.0
  C  C4  1  0.00000000  0.00000000  0.00000000  1.0
  C  C5  1  0.50000000  0.50000000  0.00000000  1.0
  C  C6  1  0.25535400  0.74464600  0.12813395  1.0
  C  C7  1  0.74464600  0.25535400  0.12813395  1.0
  C  C8  1  0.25535400  0.25535400  0.87186605  1.0
  C  C9  1  0.74464600  0.74464600  0.87186605  1.0
  C  C10  1  0.00000000  0.00000000  0.50000000  1.0
  N  N11  1  0.23645697  0.76354303  0.62485722  1.0
  N  N12  1  0.76354303  0.23645697  0.62485722  1.0
  N  N13  1  0.23645697  0.23645697  0.37514278  1.0
  N  N14  1  0.76354303  0.76354303  0.37514278  1.0
