# generated using pymatgen
data_La3TaO7
_symmetry_space_group_name_H-M   'P 1'
_cell_length_a   6.79286613
_cell_length_b   6.79286613
_cell_length_c   7.83522943
_cell_angle_alpha   90.00000000
_cell_angle_beta   90.00000000
_cell_angle_gamma   68.50092832
_symmetry_Int_Tables_number   1
_chemical_formula_structural   La3TaO7
_chemical_formula_sum   'La6 Ta2 O14'
_cell_volume   336.38645776
_cell_formula_units_Z   2
loop_
 _symmetry_equiv_pos_site_id
 _symmetry_equiv_pos_as_xyz
  1  'x, y, z'
loop_
 _atom_site_type_symbol
 _atom_site_label
 _atom_site_symmetry_multiplicity
 _atom_site_fract_x
 _atom_site_fract_y
 _atom_site_fract_z
 _atom_site_occupancy
  La  La0  1  0.06612770  0.47799275  0.25000000  1.0
  La  La1  1  -0.52200725  1.06612770  0.75000000  1.0
  La  La2  1  0.52200725  0.93387230  0.25000000  1.0
  La  La3  1  -0.06612770  1.52200725  0.75000000  1.0
  La  La4  1  0.00000000  0.00000000  0.50000000  1.0
  La  La5  1  0.00000000  0.00000000  0.00000000  1.0
  Ta  Ta6  1  0.50000000  0.50000000  0.50000000  1.0
  Ta  Ta7  1  0.50000000  0.50000000  0.00000000  1.0
  O  O8  1  -0.18944021  1.43828287  0.46938501  1.0
  O  O9  1  -0.18944021  1.43828287  0.03061499  1.0
  O  O10  1  0.43828287  0.81055979  0.96938501  1.0
  O  O11  1  0.43828287  0.81055979  0.53061499  1.0
  O  O12  1  -0.43828287  1.18944021  0.46938501  1.0
  O  O13  1  -0.43828287  1.18944021  0.03061499  1.0
  O  O14  1  0.18944021  0.56171713  0.96938501  1.0
  O  O15  1  0.18944021  0.56171713  0.53061499  1.0
  O  O16  1  -0.10795555  1.84738522  0.25000000  1.0
  O  O17  1  0.84738522  0.89204445  0.75000000  1.0
  O  O18  1  -0.84738522  1.10795555  0.25000000  1.0
  O  O19  1  0.10795555  0.15261478  0.75000000  1.0
  O  O20  1  0.44132585  0.55867415  0.25000000  1.0
  O  O21  1  -0.44132585  1.44132585  0.75000000  1.0
