# generated using pymatgen
data_Zr3NiO
_symmetry_space_group_name_H-M   'P 1'
_cell_length_a   5.72480642
_cell_length_b   5.72480642
_cell_length_c   8.82007157
_cell_angle_alpha   90.00000000
_cell_angle_beta   90.00000000
_cell_angle_gamma   145.96278983
_symmetry_Int_Tables_number   1
_chemical_formula_structural   Zr3NiO
_chemical_formula_sum   'Zr6 Ni2 O2'
_cell_volume   161.79803159
_cell_formula_units_Z   2
loop_
 _symmetry_equiv_pos_site_id
 _symmetry_equiv_pos_as_xyz
  1  'x, y, z'
loop_
 _atom_site_type_symbol
 _atom_site_label
 _atom_site_symmetry_multiplicity
 _atom_site_fract_x
 _atom_site_fract_y
 _atom_site_fract_z
 _atom_site_occupancy
  Zr  Zr0  1  0.36510530  0.63489470  0.94121164  1.0
  Zr  Zr1  1  0.36510530  0.63489470  0.55878836  1.0
  Zr  Zr2  1  -0.36510530  0.36510530  0.44121164  1.0
  Zr  Zr3  1  -0.36510530  0.36510530  0.05878836  1.0
  Zr  Zr4  1  0.06465233  0.93534767  0.75000000  1.0
  Zr  Zr5  1  -0.06465233  0.06465233  0.25000000  1.0
  Ni  Ni6  1  -0.24486067  0.24486067  0.75000000  1.0
  Ni  Ni7  1  0.24486067  0.75513933  0.25000000  1.0
  O  O8  1  0.00000000  0.00000000  0.00000000  1.0
  O  O9  1  0.00000000  0.00000000  0.50000000  1.0
