# generated using pymatgen
data_Rb(MoSe)3
_symmetry_space_group_name_H-M   'P 1'
_cell_length_a   9.53367443
_cell_length_b   9.53367443
_cell_length_c   4.51685147
_cell_angle_alpha   90.00000000
_cell_angle_beta   90.00000000
_cell_angle_gamma   120.00000000
_symmetry_Int_Tables_number   1
_chemical_formula_structural   Rb(MoSe)3
_chemical_formula_sum   'Rb2 Mo6 Se6'
_cell_volume   355.53885936
_cell_formula_units_Z   2
loop_
 _symmetry_equiv_pos_site_id
 _symmetry_equiv_pos_as_xyz
  1  'x, y, z'
loop_
 _atom_site_type_symbol
 _atom_site_label
 _atom_site_symmetry_multiplicity
 _atom_site_fract_x
 _atom_site_fract_y
 _atom_site_fract_z
 _atom_site_occupancy
  Rb  Rb0  1  0.33333333  0.66666667  0.25000000  1.0
  Rb  Rb1  1  0.66666667  0.33333333  0.75000000  1.0
  Mo  Mo2  1  1.02771703  0.85486790  0.25000000  1.0
  Mo  Mo3  1  0.82715087  -0.02771703  0.25000000  1.0
  Mo  Mo4  1  0.14513210  0.17284913  0.25000000  1.0
  Mo  Mo5  1  -0.02771703  0.14513210  0.75000000  1.0
  Mo  Mo6  1  0.17284913  1.02771703  0.75000000  1.0
  Mo  Mo7  1  0.85486790  0.82715087  0.75000000  1.0
  Se  Se8  1  0.34325644  1.05579540  0.25000000  1.0
  Se  Se9  1  0.71253896  0.65674356  0.25000000  1.0
  Se  Se10  1  -0.05579540  0.28746104  0.25000000  1.0
  Se  Se11  1  0.65674356  -0.05579540  0.75000000  1.0
  Se  Se12  1  0.28746104  0.34325644  0.75000000  1.0
  Se  Se13  1  1.05579540  0.71253896  0.75000000  1.0
