# generated using pymatgen
data_AlC3S2NCl5
_symmetry_space_group_name_H-M   'P 1'
_cell_length_a   10.24597641
_cell_length_b   8.46400282
_cell_length_c   7.74250958
_cell_angle_alpha   101.61896745
_cell_angle_beta   97.06306104
_cell_angle_gamma   97.14820144
_symmetry_Int_Tables_number   1
_chemical_formula_structural   AlC3S2NCl5
_chemical_formula_sum   'Al2 C6 S4 N2 Cl10'
_cell_volume   644.96193840
_cell_formula_units_Z   2
loop_
 _symmetry_equiv_pos_site_id
 _symmetry_equiv_pos_as_xyz
  1  'x, y, z'
loop_
 _atom_site_type_symbol
 _atom_site_label
 _atom_site_symmetry_multiplicity
 _atom_site_fract_x
 _atom_site_fract_y
 _atom_site_fract_z
 _atom_site_occupancy
  Al  Al0  1  0.17983064  0.28008639  0.82831879  1.0
  Al  Al1  1  0.82016936  0.71991361  0.17168121  1.0
  C  C2  1  0.41473123  0.84978497  0.45725269  1.0
  C  C3  1  0.58526877  0.15021503  0.54274731  1.0
  C  C4  1  0.53218691  0.86666268  0.58158070  1.0
  C  C5  1  0.46781309  0.13333732  0.41841930  1.0
  C  C6  1  0.61590938  0.01624270  0.62286846  1.0
  C  C7  1  0.38409062  0.98375730  0.37713154  1.0
  S  S8  1  0.20096899  0.70940485  0.26925701  1.0
  S  S9  1  0.79903101  0.29059515  0.73074299  1.0
  S  S10  1  0.76303461  0.05633689  0.77060461  1.0
  S  S11  1  0.23696539  0.94366311  0.22939539  1.0
  N  N12  1  0.32692539  0.71059560  0.40812047  1.0
  N  N13  1  0.67307461  0.28940440  0.59187953  1.0
  Cl  Cl14  1  0.56845551  0.70973487  0.67689148  1.0
  Cl  Cl15  1  0.43154449  0.29026513  0.32310852  1.0
  Cl  Cl16  1  0.07393521  0.27056259  0.56640912  1.0
  Cl  Cl17  1  0.92606479  0.72943741  0.43359088  1.0
  Cl  Cl18  1  0.03388044  0.25537970  1.00746472  1.0
  Cl  Cl19  1  0.96611956  0.74462030  -0.00746472  1.0
  Cl  Cl20  1  0.29631883  0.08408566  0.81965786  1.0
  Cl  Cl21  1  0.70368117  0.91591434  0.18034214  1.0
  Cl  Cl22  1  0.30804082  0.51157916  0.93016433  1.0
  Cl  Cl23  1  0.69195918  0.48842084  0.06983567  1.0
