# generated using pymatgen
data_VSiP2O9
_symmetry_space_group_name_H-M   'P 1'
_cell_length_a   8.90698003
_cell_length_b   8.90698003
_cell_length_c   8.43342759
_cell_angle_alpha   90.00000000
_cell_angle_beta   90.00000000
_cell_angle_gamma   90.00000000
_symmetry_Int_Tables_number   1
_chemical_formula_structural   VSiP2O9
_chemical_formula_sum   'V4 Si4 P8 O36'
_cell_volume   669.06001843
_cell_formula_units_Z   4
loop_
 _symmetry_equiv_pos_site_id
 _symmetry_equiv_pos_as_xyz
  1  'x, y, z'
loop_
 _atom_site_type_symbol
 _atom_site_label
 _atom_site_symmetry_multiplicity
 _atom_site_fract_x
 _atom_site_fract_y
 _atom_site_fract_z
 _atom_site_occupancy
  V  V0  1  0.00000000  0.50000000  0.15802641  1.0
  V  V1  1  0.00000000  0.50000000  0.65802641  1.0
  V  V2  1  0.50000000  0.00000000  0.84197359  1.0
  V  V3  1  0.50000000  0.00000000  0.34197359  1.0
  Si  Si4  1  0.00000000  0.00000000  0.00000000  1.0
  Si  Si5  1  0.00000000  0.00000000  0.50000000  1.0
  Si  Si6  1  0.50000000  0.50000000  0.50000000  1.0
  Si  Si7  1  0.50000000  0.50000000  0.00000000  1.0
  P  P8  1  0.82131695  0.17868305  0.25000000  1.0
  P  P9  1  0.17868305  0.17868305  0.75000000  1.0
  P  P10  1  0.82131695  0.82131695  0.75000000  1.0
  P  P11  1  0.17868305  0.82131695  0.25000000  1.0
  P  P12  1  0.67868305  0.32131695  0.75000000  1.0
  P  P13  1  0.32131695  0.32131695  0.25000000  1.0
  P  P14  1  0.67868305  0.67868305  0.25000000  1.0
  P  P15  1  0.32131695  0.67868305  0.75000000  1.0
  O  O16  1  0.00000000  0.50000000  0.96894437  1.0
  O  O17  1  0.00000000  0.50000000  0.46894437  1.0
  O  O18  1  0.50000000  0.00000000  0.03105563  1.0
  O  O19  1  0.50000000  0.00000000  0.53105563  1.0
  O  O20  1  0.15065352  0.65996349  0.20412281  1.0
  O  O21  1  0.84934648  0.65996349  0.70412281  1.0
  O  O22  1  0.15065352  0.34003651  0.70412281  1.0
  O  O23  1  0.84934648  0.34003651  0.20412281  1.0
  O  O24  1  0.15996349  0.65065352  0.70412281  1.0
  O  O25  1  0.84003651  0.65065352  0.20412281  1.0
  O  O26  1  0.15996349  0.34934648  0.20412281  1.0
  O  O27  1  0.84003651  0.34934648  0.70412281  1.0
  O  O28  1  0.34934648  0.84003651  0.79587719  1.0
  O  O29  1  0.65065352  0.84003651  0.29587719  1.0
  O  O30  1  0.34934648  0.15996349  0.29587719  1.0
  O  O31  1  0.65065352  0.15996349  0.79587719  1.0
  O  O32  1  0.34003651  0.84934648  0.29587719  1.0
  O  O33  1  0.65996349  0.84934648  0.79587719  1.0
  O  O34  1  0.34003651  0.15065352  0.79587719  1.0
  O  O35  1  0.65996349  0.15065352  0.29587719  1.0
  O  O36  1  0.13451341  0.93227102  0.10927454  1.0
  O  O37  1  0.86548659  0.93227102  0.60927454  1.0
  O  O38  1  0.13451341  0.06772898  0.60927454  1.0
  O  O39  1  0.86548659  0.06772898  0.10927454  1.0
  O  O40  1  0.43227102  0.63451341  0.60927454  1.0
  O  O41  1  0.56772898  0.63451341  0.10927454  1.0
  O  O42  1  0.43227102  0.36548659  0.10927454  1.0
  O  O43  1  0.56772898  0.36548659  0.60927454  1.0
  O  O44  1  0.36548659  0.56772898  0.89072546  1.0
  O  O45  1  0.63451341  0.56772898  0.39072546  1.0
  O  O46  1  0.36548659  0.43227102  0.39072546  1.0
  O  O47  1  0.63451341  0.43227102  0.89072546  1.0
  O  O48  1  0.06772898  0.86548659  0.39072546  1.0
  O  O49  1  0.93227102  0.86548659  0.89072546  1.0
  O  O50  1  0.06772898  0.13451341  0.89072546  1.0
  O  O51  1  0.93227102  0.13451341  0.39072546  1.0
