# generated using pymatgen
data_Ni7Te6(ClO9)2
_symmetry_space_group_name_H-M   'P 1'
_cell_length_a   7.93341288
_cell_length_b   7.93341288
_cell_length_c   7.93341288
_cell_angle_alpha   90.29634973
_cell_angle_beta   90.29634973
_cell_angle_gamma   90.29634973
_symmetry_Int_Tables_number   1
_chemical_formula_structural   Ni7Te6(ClO9)2
_chemical_formula_sum   'Ni7 Te6 Cl2 O18'
_cell_volume   499.30128449
_cell_formula_units_Z   1
loop_
 _symmetry_equiv_pos_site_id
 _symmetry_equiv_pos_as_xyz
  1  'x, y, z'
loop_
 _atom_site_type_symbol
 _atom_site_label
 _atom_site_symmetry_multiplicity
 _atom_site_fract_x
 _atom_site_fract_y
 _atom_site_fract_z
 _atom_site_occupancy
  O  O0  1  0.69720319  0.50503611  0.07865614  1.0
  O  O1  1  1.49496389  -0.07865614  0.30279681  1.0
  O  O2  1  0.92134386  0.30279681  0.49496389  1.0
  O  O3  1  1.30279681  0.49496389  -0.07865614  1.0
  O  O4  1  0.50503611  1.07865614  -0.30279681  1.0
  O  O5  1  1.07865614  0.69720319  -0.49496389  1.0
  O  O6  1  0.79061056  0.85386768  0.06065072  1.0
  O  O7  1  1.14613232  -0.06065072  0.20938944  1.0
  O  O8  1  0.93934928  0.20938944  0.14613232  1.0
  O  O9  1  1.20938944  0.14613232  -0.06065072  1.0
  O  O10  1  0.85386768  1.06065072  -0.20938944  1.0
  O  O11  1  1.06065072  0.79061056  -0.14613232  1.0
  O  O12  1  0.57844491  0.15698160  0.03147342  1.0
  O  O13  1  0.84301840  0.96852658  0.42155509  1.0
  O  O14  1  0.96852658  1.42155509  -0.15698160  1.0
  O  O15  1  1.42155509  0.84301840  -0.03147342  1.0
  O  O16  1  1.15698160  0.03147342  -0.42155509  1.0
  O  O17  1  1.03147342  -0.42155509  0.15698160  1.0
  Cl  Cl18  1  0.70417533  0.70417533  0.70417533  1.0
  Cl  Cl19  1  0.29582467  0.29582467  0.29582467  1.0
  Ni  Ni20  1  0.00000000  0.00000000  0.00000000  1.0
  Ni  Ni21  1  1.63201066  0.95867646  -0.12065337  1.0
  Ni  Ni22  1  1.04132354  0.12065337  -0.63201066  1.0
  Ni  Ni23  1  1.12065337  -0.63201066  0.04132354  1.0
  Ni  Ni24  1  0.36798934  0.04132354  0.12065337  1.0
  Ni  Ni25  1  0.95867646  0.87934663  0.63201066  1.0
  Ni  Ni26  1  0.87934663  1.63201066  -0.04132354  1.0
  Te  Te27  1  0.70541730  0.80093176  0.29584182  1.0
  Te  Te28  1  1.19906824  -0.29584182  0.29458270  1.0
  Te  Te29  1  0.70415818  0.29458270  0.19906824  1.0
  Te  Te30  1  1.29458270  0.19906824  -0.29584182  1.0
  Te  Te31  1  0.80093176  1.29584182  -0.29458270  1.0
  Te  Te32  1  1.29584182  0.70541730  -0.19906824  1.0
