# generated using pymatgen
data_BaPr2CoO5
_symmetry_space_group_name_H-M   'P 1'
_cell_length_a   6.91717420
_cell_length_b   6.91717420
_cell_length_c   6.91717420
_cell_angle_alpha   148.28538259
_cell_angle_beta   128.90901348
_cell_angle_gamma   61.39538981
_symmetry_Int_Tables_number   1
_chemical_formula_structural   BaPr2CoO5
_chemical_formula_sum   'Ba1 Pr2 Co1 O5'
_cell_volume   134.13287680
_cell_formula_units_Z   1
loop_
 _symmetry_equiv_pos_site_id
 _symmetry_equiv_pos_as_xyz
  1  'x, y, z'
loop_
 _atom_site_type_symbol
 _atom_site_label
 _atom_site_symmetry_multiplicity
 _atom_site_fract_x
 _atom_site_fract_y
 _atom_site_fract_z
 _atom_site_occupancy
  Ba  Ba0  1  0.50000000  0.00000000  0.50000000  1.0
  Pr  Pr1  1  0.79669442  0.79669442  1.00000000  1.0
  Pr  Pr2  1  0.20330558  0.20330558  -0.00000000  1.0
  Co  Co3  1  -0.00000000  0.50000000  0.50000000  1.0
  O  O4  1  0.39321057  0.64729694  0.74591363  1.0
  O  O5  1  1.09861669  0.35270306  0.74591363  1.0
  O  O6  1  0.90138331  0.64729694  1.25408637  1.0
  O  O7  1  0.60678943  0.35270306  0.25408637  1.0
  O  O8  1  0.00000000  0.00000000  0.00000000  1.0
