# generated using pymatgen
data_ZnTe
_symmetry_space_group_name_H-M   'P 1'
_cell_length_a   4.36257431
_cell_length_b   4.36257431
_cell_length_c   5.50555389
_cell_angle_alpha   90.00000000
_cell_angle_beta   90.00000000
_cell_angle_gamma   101.95420455
_symmetry_Int_Tables_number   1
_chemical_formula_structural   ZnTe
_chemical_formula_sum   'Zn2 Te2'
_cell_volume   102.50964412
_cell_formula_units_Z   2
loop_
 _symmetry_equiv_pos_site_id
 _symmetry_equiv_pos_as_xyz
  1  'x, y, z'
loop_
 _atom_site_type_symbol
 _atom_site_label
 _atom_site_symmetry_multiplicity
 _atom_site_fract_x
 _atom_site_fract_y
 _atom_site_fract_z
 _atom_site_occupancy
  Zn  Zn0  1  -0.36257903  1.36257903  0.25000000  1.0
  Zn  Zn1  1  0.36257903  0.63742097  0.75000000  1.0
  Te  Te2  1  0.23633537  0.76366463  0.25000000  1.0
  Te  Te3  1  -0.23633537  1.23633537  0.75000000  1.0
