# generated using pymatgen
data_SnGeS3
_symmetry_space_group_name_H-M   'P 1'
_cell_length_a   7.86228545
_cell_length_b   10.64579131
_cell_length_c   6.92441073
_cell_angle_alpha   90.00000000
_cell_angle_beta   105.25152912
_cell_angle_gamma   90.00000000
_symmetry_Int_Tables_number   1
_chemical_formula_structural   SnGeS3
_chemical_formula_sum   'Sn4 Ge4 S12'
_cell_volume   559.16245723
_cell_formula_units_Z   4
loop_
 _symmetry_equiv_pos_site_id
 _symmetry_equiv_pos_as_xyz
  1  'x, y, z'
loop_
 _atom_site_type_symbol
 _atom_site_label
 _atom_site_symmetry_multiplicity
 _atom_site_fract_x
 _atom_site_fract_y
 _atom_site_fract_z
 _atom_site_occupancy
  Sn  Sn0  1  0.38153091  0.93119209  0.72163782  1.0
  Sn  Sn1  1  0.38153091  0.56880791  0.22163782  1.0
  Sn  Sn2  1  0.61846909  0.43119209  0.77836218  1.0
  Sn  Sn3  1  0.61846909  0.06880791  0.27836218  1.0
  Ge  Ge4  1  0.79768630  0.78079878  0.98600662  1.0
  Ge  Ge5  1  0.79768630  0.71920122  0.48600662  1.0
  Ge  Ge6  1  0.20231370  0.28079878  0.51399338  1.0
  Ge  Ge7  1  0.20231370  0.21920122  0.01399338  1.0
  S  S8  1  1.01630342  0.23129743  0.70281576  1.0
  S  S9  1  1.01630342  0.26870257  0.20281576  1.0
  S  S10  1  -0.01630342  0.73129743  0.79718424  1.0
  S  S11  1  -0.01630342  0.76870257  0.29718424  1.0
  S  S12  1  0.70738002  0.97981895  0.92659719  1.0
  S  S13  1  0.70738002  0.52018105  0.42659719  1.0
  S  S14  1  0.29261998  0.47981895  0.57340281  1.0
  S  S15  1  0.29261998  0.02018105  0.07340281  1.0
  S  S16  1  0.55378166  0.66507502  0.90663618  1.0
  S  S17  1  0.55378166  0.83492498  0.40663618  1.0
  S  S18  1  0.44621834  0.16507502  0.59336382  1.0
  S  S19  1  0.44621834  0.33492498  0.09336382  1.0
