# generated using pymatgen
data_Zr6Al16Ru7
_symmetry_space_group_name_H-M   'P 1'
_cell_length_a   8.73105665
_cell_length_b   8.73105665
_cell_length_c   8.73105665
_cell_angle_alpha   60.00000000
_cell_angle_beta   60.00000000
_cell_angle_gamma   60.00000000
_symmetry_Int_Tables_number   1
_chemical_formula_structural   Zr6Al16Ru7
_chemical_formula_sum   'Zr6 Al16 Ru7'
_cell_volume   470.63629845
_cell_formula_units_Z   1
loop_
 _symmetry_equiv_pos_site_id
 _symmetry_equiv_pos_as_xyz
  1  'x, y, z'
loop_
 _atom_site_type_symbol
 _atom_site_label
 _atom_site_symmetry_multiplicity
 _atom_site_fract_x
 _atom_site_fract_y
 _atom_site_fract_z
 _atom_site_occupancy
  Zr  Zr0  1  -0.70576129  0.70576129  0.70576129  1.0
  Zr  Zr1  1  -0.29423871  0.29423871  0.70576129  1.0
  Zr  Zr2  1  0.70576129  0.70576129  -0.70576129  1.0
  Zr  Zr3  1  0.29423871  1.29423871  -0.29423871  1.0
  Zr  Zr4  1  0.29423871  -0.29423871  1.29423871  1.0
  Zr  Zr5  1  -0.29423871  0.29423871  0.29423871  1.0
  Al  Al6  1  0.66334379  0.66334379  -0.33665621  1.0
  Al  Al7  1  1.33665621  0.33665621  -0.00996862  1.0
  Al  Al8  1  1.33665621  -0.00996862  0.33665621  1.0
  Al  Al9  1  1.00996862  0.66334379  -0.33665621  1.0
  Al  Al10  1  0.99003138  0.33665621  0.33665621  1.0
  Al  Al11  1  0.66334379  1.00996862  -0.33665621  1.0
  Al  Al12  1  0.66334379  0.66334379  0.00996862  1.0
  Al  Al13  1  1.33665621  0.33665621  0.33665621  1.0
  Al  Al14  1  0.88045064  0.88045064  -0.11954936  1.0
  Al  Al15  1  1.11954936  0.11954936  0.64135193  1.0
  Al  Al16  1  1.11954936  0.64135193  0.11954936  1.0
  Al  Al17  1  0.35864807  0.88045064  -0.11954936  1.0
  Al  Al18  1  1.64135193  0.11954936  0.11954936  1.0
  Al  Al19  1  0.88045064  0.35864807  -0.11954936  1.0
  Al  Al20  1  0.88045064  0.88045064  -0.64135193  1.0
  Al  Al21  1  1.11954936  0.11954936  0.11954936  1.0
  Ru  Ru22  1  1.50000000  0.00000000  -0.00000000  1.0
  Ru  Ru23  1  1.00000000  0.50000000  -0.50000000  1.0
  Ru  Ru24  1  0.00000000  1.50000000  -0.00000000  1.0
  Ru  Ru25  1  0.50000000  1.00000000  -0.50000000  1.0
  Ru  Ru26  1  0.00000000  0.00000000  0.50000000  1.0
  Ru  Ru27  1  0.50000000  -0.50000000  1.00000000  1.0
  Ru  Ru28  1  0.00000000  0.00000000  0.00000000  1.0
