# generated using pymatgen
data_YSiRu2C
_symmetry_space_group_name_H-M   'P 1'
_cell_length_a   5.86583126
_cell_length_b   5.86583126
_cell_length_c   7.14734179
_cell_angle_alpha   90.00000000
_cell_angle_beta   90.00000000
_cell_angle_gamma   142.09047895
_symmetry_Int_Tables_number   1
_chemical_formula_structural   YSiRu2C
_chemical_formula_sum   'Y2 Si2 Ru4 C2'
_cell_volume   151.10068158
_cell_formula_units_Z   2
loop_
 _symmetry_equiv_pos_site_id
 _symmetry_equiv_pos_as_xyz
  1  'x, y, z'
loop_
 _atom_site_type_symbol
 _atom_site_label
 _atom_site_symmetry_multiplicity
 _atom_site_fract_x
 _atom_site_fract_y
 _atom_site_fract_z
 _atom_site_occupancy
  Y  Y0  1  0.45215960  0.54784040  0.75000000  1.0
  Y  Y1  1  -0.45215960  0.45215960  0.25000000  1.0
  Si  Si2  1  -0.26904757  0.26904757  0.75000000  1.0
  Si  Si3  1  0.26904757  0.73095243  0.25000000  1.0
  Ru  Ru4  1  0.16378155  0.83621845  0.94300832  1.0
  Ru  Ru5  1  0.16378155  0.83621845  0.55699168  1.0
  Ru  Ru6  1  -0.16378155  0.16378155  0.44300832  1.0
  Ru  Ru7  1  -0.16378155  0.16378155  0.05699168  1.0
  C  C8  1  0.00000000  0.00000000  0.00000000  1.0
  C  C9  1  0.00000000  0.00000000  0.50000000  1.0
