# generated using pymatgen
data_K2SeO4
_symmetry_space_group_name_H-M   'P 1'
_cell_length_a   11.99536843
_cell_length_b   10.69732189
_cell_length_c   7.70840762
_cell_angle_alpha   79.53202973
_cell_angle_beta   61.27604804
_cell_angle_gamma   39.19192223
_symmetry_Int_Tables_number   1
_chemical_formula_structural   K2SeO4
_chemical_formula_sum   'K8 Se4 O16'
_cell_volume   514.62578870
_cell_formula_units_Z   4
loop_
 _symmetry_equiv_pos_site_id
 _symmetry_equiv_pos_as_xyz
  1  'x, y, z'
loop_
 _atom_site_type_symbol
 _atom_site_label
 _atom_site_symmetry_multiplicity
 _atom_site_fract_x
 _atom_site_fract_y
 _atom_site_fract_z
 _atom_site_occupancy
  K  K0  1  0.10060620  -0.00207827  1.66179119  1.0
  K  K1  1  0.23968088  0.66179119  0.99792173  1.0
  K  K2  1  0.25207827  0.14939380  1.01031912  1.0
  K  K3  1  0.58820881  0.01031912  1.14939380  1.0
  K  K4  1  0.66179119  0.23968088  1.10060620  1.0
  K  K5  1  -0.00207827  0.10060620  1.23968088  1.0
  K  K6  1  0.01031912  0.58820881  1.25207827  1.0
  K  K7  1  0.14939380  0.25207827  1.58820881  1.0
  O  O8  1  0.34517139  -0.18199307  1.81398277  1.0
  O  O9  1  0.02283891  0.81398277  -0.18199307  1.0
  O  O10  1  0.43199307  -0.09517139  1.22716109  1.0
  O  O11  1  -0.56398277  1.22716109  0.90482861  1.0
  O  O12  1  0.81398277  0.02283891  1.34517139  1.0
  O  O13  1  -0.18199307  0.34517139  0.02283891  1.0
  O  O14  1  1.22716109  -0.56398277  0.43199307  1.0
  O  O15  1  -0.09517139  0.43199307  0.43601723  1.0
  O  O16  1  -0.25740528  0.32499938  0.63175414  1.0
  O  O17  1  0.30065176  0.63175414  1.32499938  1.0
  O  O18  1  -0.07499938  0.50740528  0.94934824  1.0
  O  O19  1  -0.38175414  0.94934824  0.50740528  1.0
  O  O20  1  0.63175414  0.30065176  -0.25740528  1.0
  O  O21  1  0.32499938  -0.25740528  1.30065176  1.0
  O  O22  1  -0.05065176  0.61824586  0.92500062  1.0
  O  O23  1  -0.49259472  0.92500062  0.61824586  1.0
  Se  Se24  1  0.62500000  -0.37500000  1.12500000  1.0
  Se  Se25  1  -0.37500000  1.12500000  0.62500000  1.0
  Se  Se26  1  -0.37500000  0.62500000  0.62500000  1.0
  Se  Se27  1  1.12500000  -0.37500000  0.62500000  1.0
