# generated using pymatgen
data_Na2PtO2
_symmetry_space_group_name_H-M   'P 1'
_cell_length_a   5.56247700
_cell_length_b   5.56247700
_cell_length_c   5.56247700
_cell_angle_alpha   146.82855524
_cell_angle_beta   130.58249534
_cell_angle_gamma   60.81839860
_symmetry_Int_Tables_number   1
_chemical_formula_structural   Na2PtO2
_chemical_formula_sum   'Na2 Pt1 O2'
_cell_volume   70.84373853
_cell_formula_units_Z   1
loop_
 _symmetry_equiv_pos_site_id
 _symmetry_equiv_pos_as_xyz
  1  'x, y, z'
loop_
 _atom_site_type_symbol
 _atom_site_label
 _atom_site_symmetry_multiplicity
 _atom_site_fract_x
 _atom_site_fract_y
 _atom_site_fract_z
 _atom_site_occupancy
  Na  Na0  1  0.67520845  0.67520845  1.00000000  1.0
  Na  Na1  1  0.32479155  0.32479155  0.00000000  1.0
  Pt  Pt2  1  0.00000000  0.00000000  0.00000000  1.0
  O  O3  1  0.86205605  0.36205605  0.50000000  1.0
  O  O4  1  0.13794395  0.63794395  0.50000000  1.0
