# generated using pymatgen
data_Yb2(GePt3)3
_symmetry_space_group_name_H-M   'P 1'
_cell_length_a   7.75489908
_cell_length_b   7.75489908
_cell_length_c   10.10497659
_cell_angle_alpha   67.55983126
_cell_angle_beta   112.44016874
_cell_angle_gamma   119.53971084
_symmetry_Int_Tables_number   1
_chemical_formula_structural   Yb2(GePt3)3
_chemical_formula_sum   'Yb4 Ge6 Pt18'
_cell_volume   474.30936751
_cell_formula_units_Z   2
loop_
 _symmetry_equiv_pos_site_id
 _symmetry_equiv_pos_as_xyz
  1  'x, y, z'
loop_
 _atom_site_type_symbol
 _atom_site_label
 _atom_site_symmetry_multiplicity
 _atom_site_fract_x
 _atom_site_fract_y
 _atom_site_fract_z
 _atom_site_occupancy
  Yb  Yb0  1  0.41525176  -0.24606291  0.74920132  1.0
  Yb  Yb1  1  1.24606291  0.58474824  0.24920132  1.0
  Yb  Yb2  1  0.75393709  0.41525176  0.75079868  1.0
  Yb  Yb3  1  0.58474824  0.24606291  0.25079868  1.0
  Ge  Ge4  1  1.63814076  -0.18228269  0.50211762  1.0
  Ge  Ge5  1  1.18228269  -0.63814076  0.00211762  1.0
  Ge  Ge6  1  0.81771731  -0.36185924  0.99788238  1.0
  Ge  Ge7  1  1.36185924  0.18228269  0.49788238  1.0
  Ge  Ge8  1  1.50000000  0.00000000  0.00000000  1.0
  Ge  Ge9  1  1.00000000  0.50000000  0.50000000  1.0
  Pt  Pt10  1  1.80301825  0.02005655  0.92855006  1.0
  Pt  Pt11  1  0.97994345  0.19698175  0.42855006  1.0
  Pt  Pt12  1  1.02005655  0.80301825  0.57144994  1.0
  Pt  Pt13  1  1.19698175  -0.02005655  0.07144994  1.0
  Pt  Pt14  1  0.69552238  0.14066881  0.57842119  1.0
  Pt  Pt15  1  0.85933119  0.30447762  0.07842119  1.0
  Pt  Pt16  1  1.14066881  0.69552238  0.92157881  1.0
  Pt  Pt17  1  0.30447762  -0.14066881  0.42157881  1.0
  Pt  Pt18  1  1.29525845  0.08340768  0.74284018  1.0
  Pt  Pt19  1  0.91659232  0.70474155  0.24284018  1.0
  Pt  Pt20  1  1.08340768  0.29525845  0.75715982  1.0
  Pt  Pt21  1  1.70474155  -0.08340768  0.25715982  1.0
  Pt  Pt22  1  1.47576638  0.35781203  0.92240731  1.0
  Pt  Pt23  1  0.64218797  0.52423362  0.42240731  1.0
  Pt  Pt24  1  1.35781203  0.47576638  0.57759269  1.0
  Pt  Pt25  1  1.52423362  -0.35781203  0.07759269  1.0
  Pt  Pt26  1  0.86397334  0.86397334  0.75000000  1.0
  Pt  Pt27  1  1.13602666  0.13602666  0.25000000  1.0
