# generated using pymatgen
data_Hg5Au6
_symmetry_space_group_name_H-M   'P 1'
_cell_length_a   7.15462440
_cell_length_b   7.15462440
_cell_length_c   10.36415404
_cell_angle_alpha   90.00000000
_cell_angle_beta   90.00000000
_cell_angle_gamma   120.00000000
_symmetry_Int_Tables_number   1
_chemical_formula_structural   Hg5Au6
_chemical_formula_sum   'Hg10 Au12'
_cell_volume   459.44990844
_cell_formula_units_Z   2
loop_
 _symmetry_equiv_pos_site_id
 _symmetry_equiv_pos_as_xyz
  1  'x, y, z'
loop_
 _atom_site_type_symbol
 _atom_site_label
 _atom_site_symmetry_multiplicity
 _atom_site_fract_x
 _atom_site_fract_y
 _atom_site_fract_z
 _atom_site_occupancy
  Hg  Hg0  1  0.41401272  0.41401272  0.25000000  1.0
  Hg  Hg1  1  0.41401272  0.00000000  0.75000000  1.0
  Hg  Hg2  1  -0.00000000  0.41401272  0.75000000  1.0
  Hg  Hg3  1  -0.00000000  0.58598728  0.25000000  1.0
  Hg  Hg4  1  0.58598728  0.58598728  0.75000000  1.0
  Hg  Hg5  1  0.58598728  -0.00000000  0.25000000  1.0
  Hg  Hg6  1  0.33333333  0.66666667  0.50000000  1.0
  Hg  Hg7  1  0.33333333  0.66666667  -0.00000000  1.0
  Hg  Hg8  1  0.66666667  0.33333333  0.50000000  1.0
  Hg  Hg9  1  0.66666667  0.33333333  -0.00000000  1.0
  Au  Au10  1  0.76026179  0.76026179  0.38942723  1.0
  Au  Au11  1  0.76026179  0.76026179  0.11057277  1.0
  Au  Au12  1  0.76026179  -0.00000000  0.88942723  1.0
  Au  Au13  1  0.76026179  -0.00000000  0.61057277  1.0
  Au  Au14  1  -0.00000000  0.76026179  0.88942723  1.0
  Au  Au15  1  -0.00000000  0.76026179  0.61057277  1.0
  Au  Au16  1  -0.00000000  0.23973821  0.38942723  1.0
  Au  Au17  1  -0.00000000  0.23973821  0.11057277  1.0
  Au  Au18  1  0.23973821  0.23973821  0.88942723  1.0
  Au  Au19  1  0.23973821  0.23973821  0.61057277  1.0
  Au  Au20  1  0.23973821  0.00000000  0.38942723  1.0
  Au  Au21  1  0.23973821  0.00000000  0.11057277  1.0
