# generated using pymatgen
data_Sr2YRuO6
_symmetry_space_group_name_H-M   'P 1'
_cell_length_a   5.79798081
_cell_length_b   5.85879072
_cell_length_c   10.03089727
_cell_angle_alpha   90.00000000
_cell_angle_beta   124.92609398
_cell_angle_gamma   90.00000000
_symmetry_Int_Tables_number   1
_chemical_formula_structural   Sr2YRuO6
_chemical_formula_sum   'Sr4 Y2 Ru2 O12'
_cell_volume   279.37064954
_cell_formula_units_Z   2
loop_
 _symmetry_equiv_pos_site_id
 _symmetry_equiv_pos_as_xyz
  1  'x, y, z'
loop_
 _atom_site_type_symbol
 _atom_site_label
 _atom_site_symmetry_multiplicity
 _atom_site_fract_x
 _atom_site_fract_y
 _atom_site_fract_z
 _atom_site_occupancy
  Sr  Sr0  1  0.24083946  0.46402904  0.24926330  1.0
  Sr  Sr1  1  0.24083946  0.03597096  0.74926330  1.0
  Sr  Sr2  1  0.75916054  0.96402904  0.25073670  1.0
  Sr  Sr3  1  0.75916054  0.53597096  0.75073670  1.0
  Y  Y4  1  0.50000000  0.00000000  0.50000000  1.0
  Y  Y5  1  0.50000000  0.50000000  -0.00000000  1.0
  Ru  Ru6  1  0.00000000  0.00000000  0.00000000  1.0
  Ru  Ru7  1  -0.00000000  0.50000000  0.50000000  1.0
  O  O8  1  0.30825180  0.01960415  0.23374750  1.0
  O  O9  1  0.30825180  0.48039585  0.73374750  1.0
  O  O10  1  0.69174820  0.51960415  0.26625250  1.0
  O  O11  1  0.69174820  0.98039585  0.76625250  1.0
  O  O12  1  0.84424129  0.72882710  0.04075072  1.0
  O  O13  1  0.84424129  0.77117290  0.54075072  1.0
  O  O14  1  0.15575871  0.22882710  0.45924928  1.0
  O  O15  1  0.15575871  0.27117290  0.95924928  1.0
  O  O16  1  0.76888481  0.19950569  0.03856735  1.0
  O  O17  1  0.76888481  0.30049431  0.53856735  1.0
  O  O18  1  0.23111519  0.69950569  0.46143265  1.0
  O  O19  1  0.23111519  0.80049431  0.96143265  1.0
