# generated using pymatgen
data_GaBH6
_symmetry_space_group_name_H-M   'P 1'
_cell_length_a   8.86608495
_cell_length_b   8.86608495
_cell_length_c   11.22592495
_cell_angle_alpha   57.65302072
_cell_angle_beta   122.34697928
_cell_angle_gamma   110.22646502
_symmetry_Int_Tables_number   1
_chemical_formula_structural   GaBH6
_chemical_formula_sum   'Ga6 B6 H36'
_cell_volume   627.63265561
_cell_formula_units_Z   6
loop_
 _symmetry_equiv_pos_site_id
 _symmetry_equiv_pos_as_xyz
  1  'x, y, z'
loop_
 _atom_site_type_symbol
 _atom_site_label
 _atom_site_symmetry_multiplicity
 _atom_site_fract_x
 _atom_site_fract_y
 _atom_site_fract_z
 _atom_site_occupancy
  Ga  Ga0  1  1.71132087  0.08528413  0.70481728  1.0
  Ga  Ga1  1  0.91471587  0.28867913  0.20481728  1.0
  Ga  Ga2  1  1.08528413  0.71132087  0.79518272  1.0
  Ga  Ga3  1  1.28867913  -0.08528413  0.29518272  1.0
  Ga  Ga4  1  1.33906105  0.33906105  0.75000000  1.0
  Ga  Ga5  1  0.66093895  0.66093895  0.25000000  1.0
  B  B6  1  0.40276283  -0.29354698  0.99221181  1.0
  B  B7  1  1.29354698  0.59723717  0.49221181  1.0
  B  B8  1  0.70645302  0.40276283  0.50778819  1.0
  B  B9  1  0.59723717  0.29354698  0.00778819  1.0
  B  B10  1  0.84999023  0.84999023  0.75000000  1.0
  B  B11  1  1.15000977  0.15000977  0.25000000  1.0
  H  H12  1  0.77489214  -0.20995186  0.83245564  1.0
  H  H13  1  1.20995186  0.22510786  0.33245564  1.0
  H  H14  1  0.79004814  0.77489214  0.66754436  1.0
  H  H15  1  0.22510786  0.20995186  0.16754436  1.0
  H  H16  1  1.84227822  0.01325012  0.65698699  1.0
  H  H17  1  0.98674988  0.15772178  0.15698699  1.0
  H  H18  1  1.01325012  0.84227822  0.84301301  1.0
  H  H19  1  1.15772178  -0.01325012  0.34301301  1.0
  H  H20  1  0.37529056  -0.36416689  0.91432231  1.0
  H  H21  1  1.36416689  0.62470944  0.41432231  1.0
  H  H22  1  0.63583311  0.37529056  0.58567769  1.0
  H  H23  1  0.62470944  0.36416689  0.08567769  1.0
  H  H24  1  1.84900478  0.11204110  0.85333599  1.0
  H  H25  1  0.88795890  0.15099522  0.35333599  1.0
  H  H26  1  1.11204110  0.84900478  0.64666401  1.0
  H  H27  1  1.15099522  -0.11204110  0.14666401  1.0
  H  H28  1  0.51580473  -0.16828226  0.98019795  1.0
  H  H29  1  1.16828226  0.48419527  0.48019795  1.0
  H  H30  1  0.83171774  0.51580473  0.51980205  1.0
  H  H31  1  0.48419527  0.16828226  0.01980205  1.0
  H  H32  1  0.27257430  -0.23242475  0.96231062  1.0
  H  H33  1  1.23242475  0.72742570  0.46231062  1.0
  H  H34  1  0.76757525  0.27257430  0.53768938  1.0
  H  H35  1  0.72742570  0.23242475  0.03768938  1.0
  H  H36  1  1.51313290  0.02335199  0.62568195  1.0
  H  H37  1  0.97664801  0.48686710  0.12568195  1.0
  H  H38  1  1.02335199  0.51313290  0.87431805  1.0
  H  H39  1  1.48686710  -0.02335199  0.37431805  1.0
  H  H40  1  1.56573952  0.41920585  0.87272921  1.0
  H  H41  1  0.58079415  0.43426048  0.37272921  1.0
  H  H42  1  1.41920585  0.56573952  0.62727079  1.0
  H  H43  1  1.43426048  -0.41920585  0.12727079  1.0
  H  H44  1  1.37154299  0.20148140  0.72385172  1.0
  H  H45  1  0.79851860  0.62845701  0.22385172  1.0
  H  H46  1  1.20148140  0.37154299  0.77614828  1.0
  H  H47  1  1.62845701  -0.20148140  0.27614828  1.0
