# generated using pymatgen
data_YPtF7
_symmetry_space_group_name_H-M   'P 1'
_cell_length_a   8.87679617
_cell_length_b   5.55841423
_cell_length_c   11.98230420
_cell_angle_alpha   90.00000000
_cell_angle_beta   117.47140673
_cell_angle_gamma   90.00000000
_symmetry_Int_Tables_number   1
_chemical_formula_structural   YPtF7
_chemical_formula_sum   'Y4 Pt4 F28'
_cell_volume   524.55276124
_cell_formula_units_Z   4
loop_
 _symmetry_equiv_pos_site_id
 _symmetry_equiv_pos_as_xyz
  1  'x, y, z'
loop_
 _atom_site_type_symbol
 _atom_site_label
 _atom_site_symmetry_multiplicity
 _atom_site_fract_x
 _atom_site_fract_y
 _atom_site_fract_z
 _atom_site_occupancy
  Y  Y0  1  0.81385288  0.76101966  0.23554085  1.0
  Y  Y1  1  0.81385288  0.73898034  0.73554085  1.0
  Y  Y2  1  0.18614712  0.26101966  0.26445915  1.0
  Y  Y3  1  0.18614712  0.23898034  0.76445915  1.0
  Pt  Pt4  1  0.72725981  0.25913760  0.45650921  1.0
  Pt  Pt5  1  0.72725981  0.24086240  0.95650921  1.0
  Pt  Pt6  1  0.27274019  0.75913760  0.04349079  1.0
  Pt  Pt7  1  0.27274019  0.74086240  0.54349079  1.0
  F  F8  1  0.97081871  0.08277037  0.26720727  1.0
  F  F9  1  0.97081871  0.41722963  0.76720727  1.0
  F  F10  1  0.02918129  0.58277037  0.23279273  1.0
  F  F11  1  0.02918129  0.91722963  0.73279273  1.0
  F  F12  1  0.97508379  0.24522752  0.04991030  1.0
  F  F13  1  0.97508379  0.25477248  0.54991030  1.0
  F  F14  1  0.02491621  0.74522752  0.45008970  1.0
  F  F15  1  0.02491621  0.75477248  0.95008970  1.0
  F  F16  1  0.74608462  0.44988720  0.32542601  1.0
  F  F17  1  0.74608462  0.05011280  0.82542601  1.0
  F  F18  1  0.25391538  0.94988720  0.17457399  1.0
  F  F19  1  0.25391538  0.55011280  0.67457399  1.0
  F  F20  1  0.72623441  0.96878067  0.36359841  1.0
  F  F21  1  0.72623441  0.53121933  0.86359841  1.0
  F  F22  1  0.27376559  0.46878067  0.13640159  1.0
  F  F23  1  0.27376559  0.03121933  0.63640159  1.0
  F  F24  1  0.70294212  0.43660327  0.08301042  1.0
  F  F25  1  0.70294212  0.06339673  0.58301042  1.0
  F  F26  1  0.29705788  0.93660327  0.41698958  1.0
  F  F27  1  0.29705788  0.56339673  0.91698958  1.0
  F  F28  1  0.47901963  0.27327297  0.35807188  1.0
  F  F29  1  0.47901963  0.22672703  0.85807188  1.0
  F  F30  1  0.52098037  0.77327297  0.14192812  1.0
  F  F31  1  0.52098037  0.72672703  0.64192812  1.0
  F  F32  1  0.27907625  0.44319939  0.45724153  1.0
  F  F33  1  0.27907625  0.05680061  0.95724153  1.0
  F  F34  1  0.72092375  0.94319939  0.04275847  1.0
  F  F35  1  0.72092375  0.55680061  0.54275847  1.0
