# generated using pymatgen
data_C8S2N3F4
_symmetry_space_group_name_H-M   'P 1'
_cell_length_a   10.43556053
_cell_length_b   8.35141828
_cell_length_c   10.30964068
_cell_angle_alpha   67.05422315
_cell_angle_beta   47.47321663
_cell_angle_gamma   65.47256022
_symmetry_Int_Tables_number   1
_chemical_formula_structural   C8S2N3F4
_chemical_formula_sum   'C16 S4 N6 F8'
_cell_volume   594.35744130
_cell_formula_units_Z   2
loop_
 _symmetry_equiv_pos_site_id
 _symmetry_equiv_pos_as_xyz
  1  'x, y, z'
loop_
 _atom_site_type_symbol
 _atom_site_label
 _atom_site_symmetry_multiplicity
 _atom_site_fract_x
 _atom_site_fract_y
 _atom_site_fract_z
 _atom_site_occupancy
  F  F0  1  1.37037002  0.07326667  0.53924388  1.0
  F  F1  1  0.71075612  0.23288058  0.87962998  1.0
  F  F2  1  1.07326667  0.37037002  0.01711942  1.0
  F  F3  1  0.23288058  0.71075612  1.17673333  1.0
  F  F4  1  0.59436564  0.29609795  1.31466203  1.0
  F  F5  1  0.93533797  -0.54487437  0.65563436  1.0
  F  F6  1  0.29609795  0.59436564  0.79487437  1.0
  F  F7  1  0.45512563  -0.06466203  0.95390205  1.0
  C  C8  1  0.57627886  0.57627886  0.42372114  1.0
  C  C9  1  0.82627886  -0.17372114  0.67372114  1.0
  C  C10  1  0.46589901  0.31859403  1.48668079  1.0
  C  C11  1  0.76331921  -0.47882617  0.78410099  1.0
  C  C12  1  0.31859403  0.46589901  0.72882617  1.0
  C  C13  1  0.52117383  -0.23668079  0.93140597  1.0
  C  C14  1  0.35116272  0.20211773  1.60193790  1.0
  C  C15  1  0.64806210  0.40521834  0.89883728  1.0
  C  C16  1  0.20211773  0.35116272  0.84478166  1.0
  C  C17  1  0.40521834  0.64806210  1.04788227  1.0
  C  C18  1  0.09856003  0.09856003  0.90143997  1.0
  C  C19  1  1.34856003  0.34856003  0.15143997  1.0
  C  C20  1  0.21655199  0.21655199  0.78344801  1.0
  C  C21  1  1.46655199  0.46655199  0.03344801  1.0
  C  C22  1  0.45270924  0.45270924  0.54729076  1.0
  C  C23  1  0.70270924  -0.29729076  0.79729076  1.0
  S  S24  1  0.79223258  0.73742768  0.32583183  1.0
  S  S25  1  1.10549210  -0.07583183  0.51257232  1.0
  S  S26  1  0.73742768  0.79223258  1.14450790  1.0
  S  S27  1  0.92416817  0.10549210  0.45776742  1.0
  N  N28  1  1.00180402  0.00180402  -0.00180402  1.0
  N  N29  1  1.25180402  0.25180402  0.24819598  1.0
  N  N30  1  0.59926179  0.65900003  1.27117145  1.0
  N  N31  1  0.77943326  -0.02117145  0.59099997  1.0
  N  N32  1  0.97882855  -0.22056674  0.65073821  1.0
  N  N33  1  0.65900003  0.59926179  0.47056674  1.0
