# generated using pymatgen
data_Lu4B3C4
_symmetry_space_group_name_H-M   'P 1'
_cell_length_a   3.49542093
_cell_length_b   3.40662396
_cell_length_c   11.77868426
_cell_angle_alpha   97.47784614
_cell_angle_beta   92.32852875
_cell_angle_gamma   90.04732940
_symmetry_Int_Tables_number   1
_chemical_formula_structural   Lu4B3C4
_chemical_formula_sum   'Lu4 B3 C4'
_cell_volume   138.94537018
_cell_formula_units_Z   1
loop_
 _symmetry_equiv_pos_site_id
 _symmetry_equiv_pos_as_xyz
  1  'x, y, z'
loop_
 _atom_site_type_symbol
 _atom_site_label
 _atom_site_symmetry_multiplicity
 _atom_site_fract_x
 _atom_site_fract_y
 _atom_site_fract_z
 _atom_site_occupancy
  Lu  Lu0  1  0.97993855  0.18276417  -0.65027318  1.0
  Lu  Lu1  1  0.02006145  0.81723583  -0.34972682  1.0
  Lu  Lu2  1  0.45404433  0.58815512  -0.85808417  1.0
  Lu  Lu3  1  0.54595567  0.41184488  -0.14191583  1.0
  B  B4  1  0.00000000  0.00000000  0.00000000  1.0
  B  B5  1  0.49465568  0.73290901  -0.53997646  1.0
  B  B6  1  0.50534432  0.26709099  -0.46002354  1.0
  C  C7  1  0.94745633  0.08127035  -0.87595094  1.0
  C  C8  1  0.05254367  0.91872965  -0.12404906  1.0
  C  C9  1  0.47713141  0.67444006  -0.66870267  1.0
  C  C10  1  0.52286859  0.32555994  -0.33129733  1.0
