# generated using pymatgen
data_Gd(FeSn)6
_symmetry_space_group_name_H-M   'P 1'
_cell_length_a   10.39932538
_cell_length_b   10.39932538
_cell_length_c   5.43435012
_cell_angle_alpha   90.00000000
_cell_angle_beta   90.00000000
_cell_angle_gamma   128.86240080
_symmetry_Int_Tables_number   1
_chemical_formula_structural   Gd(FeSn)6
_chemical_formula_sum   'Gd2 Fe12 Sn12'
_cell_volume   457.61796387
_cell_formula_units_Z   2
loop_
 _symmetry_equiv_pos_site_id
 _symmetry_equiv_pos_as_xyz
  1  'x, y, z'
loop_
 _atom_site_type_symbol
 _atom_site_label
 _atom_site_symmetry_multiplicity
 _atom_site_fract_x
 _atom_site_fract_y
 _atom_site_fract_z
 _atom_site_occupancy
  Gd  Gd0  1  0.37184848  0.62815152  0.75000000  1.0
  Gd  Gd1  1  -0.37184848  0.37184848  0.25000000  1.0
  Fe  Fe2  1  -0.12805531  0.62217265  0.75000000  1.0
  Fe  Fe3  1  0.62217265  0.87194469  0.25000000  1.0
  Fe  Fe4  1  0.37782735  1.12805531  0.75000000  1.0
  Fe  Fe5  1  0.12805531  0.37782735  0.25000000  1.0
  Fe  Fe6  1  0.74656712  0.74656712  -0.00000000  1.0
  Fe  Fe7  1  0.74656712  0.74656712  0.50000000  1.0
  Fe  Fe8  1  0.25343288  0.25343288  0.00000000  1.0
  Fe  Fe9  1  0.25343288  0.25343288  0.50000000  1.0
  Fe  Fe10  1  -0.00000000  0.50000000  -0.00000000  1.0
  Fe  Fe11  1  -0.00000000  0.50000000  0.50000000  1.0
  Fe  Fe12  1  0.50000000  1.00000000  0.50000000  1.0
  Fe  Fe13  1  0.50000000  1.00000000  0.00000000  1.0
  Sn  Sn14  1  0.03847793  0.28724619  0.75000000  1.0
  Sn  Sn15  1  0.28724619  1.03847793  0.25000000  1.0
  Sn  Sn16  1  0.71275381  0.96152207  0.75000000  1.0
  Sn  Sn17  1  -0.03847793  0.71275381  0.25000000  1.0
  Sn  Sn18  1  0.04029317  0.95970683  0.75000000  1.0
  Sn  Sn19  1  -0.04029317  0.04029317  0.25000000  1.0
  Sn  Sn20  1  0.20446842  0.79553158  0.75000000  1.0
  Sn  Sn21  1  -0.20446842  0.20446842  0.25000000  1.0
  Sn  Sn22  1  -0.45811729  0.45811729  0.75000000  1.0
  Sn  Sn23  1  0.45811729  0.54188271  0.25000000  1.0
  Sn  Sn24  1  -0.28904290  0.28904290  0.75000000  1.0
  Sn  Sn25  1  0.28904290  0.71095710  0.25000000  1.0
