# generated using pymatgen
data_Ba2MnV2HO9
_symmetry_space_group_name_H-M   'P 1'
_cell_length_a   7.95147105
_cell_length_b   6.28004930
_cell_length_c   9.07065381
_cell_angle_alpha   90.00000000
_cell_angle_beta   111.72021678
_cell_angle_gamma   90.00000000
_symmetry_Int_Tables_number   1
_chemical_formula_structural   Ba2MnV2HO9
_chemical_formula_sum   'Ba4 Mn2 V4 H2 O18'
_cell_volume   420.79037670
_cell_formula_units_Z   2
loop_
 _symmetry_equiv_pos_site_id
 _symmetry_equiv_pos_as_xyz
  1  'x, y, z'
loop_
 _atom_site_type_symbol
 _atom_site_label
 _atom_site_symmetry_multiplicity
 _atom_site_fract_x
 _atom_site_fract_y
 _atom_site_fract_z
 _atom_site_occupancy
  O  O0  1  0.00446288  0.98659723  0.21305317  1.0
  O  O1  1  0.00446288  0.51340277  0.21305317  1.0
  O  O2  1  0.99553712  0.48659723  0.78694683  1.0
  O  O3  1  0.99553712  0.01340277  0.78694683  1.0
  O  O4  1  0.49359820  0.46869768  0.70395458  1.0
  O  O5  1  0.49359820  0.03130232  0.70395458  1.0
  O  O6  1  0.50640180  0.96869768  0.29604542  1.0
  O  O7  1  0.50640180  0.53130232  0.29604542  1.0
  O  O8  1  0.73409276  0.25000000  0.54826608  1.0
  O  O9  1  0.26590724  0.75000000  0.45173392  1.0
  O  O10  1  0.43102131  0.25000000  0.94762626  1.0
  O  O11  1  0.56897869  0.75000000  0.05237374  1.0
  O  O12  1  0.16085201  0.25000000  0.05959860  1.0
  O  O13  1  0.83914799  0.75000000  0.94040140  1.0
  O  O14  1  0.07365088  0.25000000  0.55366507  1.0
  O  O15  1  0.92634912  0.75000000  0.44633493  1.0
  O  O16  1  0.78408877  0.25000000  0.94791277  1.0
  O  O17  1  0.21591123  0.75000000  0.05208723  1.0
  V  V18  1  0.95213973  0.25000000  0.67007454  1.0
  V  V19  1  0.04786027  0.75000000  0.32992546  1.0
  V  V20  1  0.55069938  0.25000000  0.82583024  1.0
  V  V21  1  0.44930062  0.75000000  0.17416976  1.0
  Mn  Mn22  1  0.00000000  0.50000000  0.00000000  1.0
  Mn  Mn23  1  0.00000000  0.00000000  0.00000000  1.0
  Ba  Ba24  1  0.73251658  0.25000000  0.24009359  1.0
  Ba  Ba25  1  0.26748342  0.75000000  0.75990641  1.0
  Ba  Ba26  1  0.32330979  0.25000000  0.41006028  1.0
  Ba  Ba27  1  0.67669021  0.75000000  0.58993972  1.0
  H  H28  1  0.25622231  0.25000000  0.01014905  1.0
  H  H29  1  0.74377769  0.75000000  0.98985095  1.0
