# generated using pymatgen
data_RbH2CN4O
_symmetry_space_group_name_H-M   'P 1'
_cell_length_a   4.26736048
_cell_length_b   11.33570540
_cell_length_c   10.17994295
_cell_angle_alpha   90.00000000
_cell_angle_beta   96.25998790
_cell_angle_gamma   90.00000000
_symmetry_Int_Tables_number   1
_chemical_formula_structural   RbH2CN4O
_chemical_formula_sum   'Rb4 H8 C4 N16 O4'
_cell_volume   489.50364140
_cell_formula_units_Z   4
loop_
 _symmetry_equiv_pos_site_id
 _symmetry_equiv_pos_as_xyz
  1  'x, y, z'
loop_
 _atom_site_type_symbol
 _atom_site_label
 _atom_site_symmetry_multiplicity
 _atom_site_fract_x
 _atom_site_fract_y
 _atom_site_fract_z
 _atom_site_occupancy
  Rb  Rb0  1  0.24977542  0.09381562  0.32933993  1.0
  Rb  Rb1  1  0.24977542  0.40618438  0.82933993  1.0
  Rb  Rb2  1  0.75022458  0.59381562  0.17066007  1.0
  Rb  Rb3  1  0.75022458  0.90618438  0.67066007  1.0
  H  H4  1  0.91409337  0.83696167  0.38875569  1.0
  H  H5  1  0.91409337  0.66303833  0.88875569  1.0
  H  H6  1  0.08590663  0.33696167  0.11124431  1.0
  H  H7  1  0.08590663  0.16303833  0.61124431  1.0
  H  H8  1  0.66150477  0.89373915  0.28201863  1.0
  H  H9  1  0.66150477  0.60626085  0.78201863  1.0
  H  H10  1  0.33849523  0.39373915  0.21798137  1.0
  H  H11  1  0.33849523  0.10626085  0.71798137  1.0
  C  C12  1  0.57867115  0.44358171  0.49472299  1.0
  C  C13  1  0.57867115  0.05641829  0.99472299  1.0
  C  C14  1  0.42132885  0.94358171  0.00527701  1.0
  C  C15  1  0.42132885  0.55641829  0.50527701  1.0
  N  N16  1  0.84354524  0.21179147  0.04407074  1.0
  N  N17  1  0.84354524  0.28820853  0.54407074  1.0
  N  N18  1  0.15645476  0.71179147  0.45592926  1.0
  N  N19  1  0.15645476  0.78820853  0.95592926  1.0
  N  N20  1  0.75579242  0.28568810  0.41559215  1.0
  N  N21  1  0.75579242  0.21431190  0.91559215  1.0
  N  N22  1  0.24420758  0.78568810  0.08440785  1.0
  N  N23  1  0.24420758  0.71431190  0.58440785  1.0
  N  N24  1  0.73671096  0.11365562  0.09738354  1.0
  N  N25  1  0.73671096  0.38634438  0.59738354  1.0
  N  N26  1  0.26328904  0.61365562  0.40261646  1.0
  N  N27  1  0.26328904  0.88634438  0.90261646  1.0
  N  N28  1  0.58656703  0.38277322  0.38118649  1.0
  N  N29  1  0.58656703  0.11722678  0.88118649  1.0
  N  N30  1  0.41343297  0.88277322  0.11881351  1.0
  N  N31  1  0.41343297  0.61722678  0.61881351  1.0
  O  O32  1  0.78362853  0.90892175  0.36918294  1.0
  O  O33  1  0.78362853  0.59107825  0.86918294  1.0
  O  O34  1  0.21637147  0.40892175  0.13081706  1.0
  O  O35  1  0.21637147  0.09107825  0.63081706  1.0
