# generated using pymatgen
data_Sc2CrB6
_symmetry_space_group_name_H-M   'P 1'
_cell_length_a   8.89497957
_cell_length_b   11.16613843
_cell_length_c   3.37016394
_cell_angle_alpha   90.00000000
_cell_angle_beta   90.00000000
_cell_angle_gamma   90.00000000
_symmetry_Int_Tables_number   1
_chemical_formula_structural   Sc2CrB6
_chemical_formula_sum   'Sc8 Cr4 B24'
_cell_volume   334.73335434
_cell_formula_units_Z   4
loop_
 _symmetry_equiv_pos_site_id
 _symmetry_equiv_pos_as_xyz
  1  'x, y, z'
loop_
 _atom_site_type_symbol
 _atom_site_label
 _atom_site_symmetry_multiplicity
 _atom_site_fract_x
 _atom_site_fract_y
 _atom_site_fract_z
 _atom_site_occupancy
  Sc  Sc0  1  0.05719460  0.63073878  0.50000000  1.0
  Sc  Sc1  1  0.55719460  0.86926122  0.50000000  1.0
  Sc  Sc2  1  0.94280540  0.36926122  0.50000000  1.0
  Sc  Sc3  1  0.44280540  0.13073878  0.50000000  1.0
  Sc  Sc4  1  0.17728784  0.91431902  0.50000000  1.0
  Sc  Sc5  1  0.67728784  0.58568098  0.50000000  1.0
  Sc  Sc6  1  0.82271216  0.08568098  0.50000000  1.0
  Sc  Sc7  1  0.32271216  0.41431902  0.50000000  1.0
  Cr  Cr8  1  0.35937048  0.68045721  0.50000000  1.0
  Cr  Cr9  1  0.85937048  0.81954279  0.50000000  1.0
  Cr  Cr10  1  0.64062952  0.31954279  0.50000000  1.0
  Cr  Cr11  1  0.14062952  0.18045721  0.50000000  1.0
  B  B12  1  0.44641586  0.56536552  0.00000000  1.0
  B  B13  1  0.94641586  0.93463448  -0.00000000  1.0
  B  B14  1  0.55358414  0.43463448  0.00000000  1.0
  B  B15  1  0.05358414  0.06536552  -0.00000000  1.0
  B  B16  1  0.40144129  0.97294662  0.00000000  1.0
  B  B17  1  0.90144129  0.52705338  -0.00000000  1.0
  B  B18  1  0.59855871  0.02705338  0.00000000  1.0
  B  B19  1  0.09855871  0.47294662  -0.00000000  1.0
  B  B20  1  0.36929026  0.81737962  -0.00000000  1.0
  B  B21  1  0.86929026  0.68262038  0.00000000  1.0
  B  B22  1  0.63070974  0.18262038  -0.00000000  1.0
  B  B23  1  0.13070974  0.31737962  0.00000000  1.0
  B  B24  1  0.24817374  0.57957720  0.00000000  1.0
  B  B25  1  0.74817374  0.92042280  0.00000000  1.0
  B  B26  1  0.75182626  0.42042280  0.00000000  1.0
  B  B27  1  0.25182626  0.07957720  0.00000000  1.0
  B  B28  1  0.20543002  0.73696431  0.00000000  1.0
  B  B29  1  0.70543002  0.76303569  0.00000000  1.0
  B  B30  1  0.79456998  0.26303569  0.00000000  1.0
  B  B31  1  0.29456998  0.23696431  0.00000000  1.0
  B  B32  1  0.01953953  0.78844606  0.00000000  1.0
  B  B33  1  0.51953953  0.71155394  0.00000000  1.0
  B  B34  1  0.98046047  0.21155394  0.00000000  1.0
  B  B35  1  0.48046047  0.28844606  0.00000000  1.0
