# generated using pymatgen
data_Li2MnP2O7
_symmetry_space_group_name_H-M   'P 1'
_cell_length_a   5.02253545
_cell_length_b   13.11991849
_cell_length_c   9.50076921
_cell_angle_alpha   90.00000000
_cell_angle_beta   118.81311773
_cell_angle_gamma   90.00000000
_symmetry_Int_Tables_number   1
_chemical_formula_structural   Li2MnP2O7
_chemical_formula_sum   'Li8 Mn4 P8 O28'
_cell_volume   548.54765304
_cell_formula_units_Z   4
loop_
 _symmetry_equiv_pos_site_id
 _symmetry_equiv_pos_as_xyz
  1  'x, y, z'
loop_
 _atom_site_type_symbol
 _atom_site_label
 _atom_site_symmetry_multiplicity
 _atom_site_fract_x
 _atom_site_fract_y
 _atom_site_fract_z
 _atom_site_occupancy
  Li  Li0  1  0.88619098  0.35660361  0.15787720  1.0
  Li  Li1  1  0.88619098  0.14339639  0.65787720  1.0
  Li  Li2  1  0.11380902  0.85660361  0.34212280  1.0
  Li  Li3  1  0.11380902  0.64339639  0.84212280  1.0
  Li  Li4  1  0.46704296  0.19783997  0.15031978  1.0
  Li  Li5  1  0.46704296  0.30216003  0.65031978  1.0
  Li  Li6  1  0.53295704  0.69783997  0.34968022  1.0
  Li  Li7  1  0.53295704  0.80216003  0.84968022  1.0
  Mn  Mn8  1  0.87042870  0.62878640  0.14317498  1.0
  Mn  Mn9  1  0.87042870  0.87121360  0.64317498  1.0
  Mn  Mn10  1  0.12957130  0.12878640  0.35682502  1.0
  Mn  Mn11  1  0.12957130  0.37121360  0.85682502  1.0
  P  P12  1  0.77359841  0.30949892  0.45719693  1.0
  P  P13  1  0.77359841  0.19050108  0.95719693  1.0
  P  P14  1  0.22640159  0.80949892  0.04280307  1.0
  P  P15  1  0.22640159  0.69050108  0.54280307  1.0
  P  P16  1  0.45498120  0.47078944  0.22150695  1.0
  P  P17  1  0.45498120  0.02921056  0.72150695  1.0
  P  P18  1  0.54501880  0.97078944  0.27849305  1.0
  P  P19  1  0.54501880  0.52921056  0.77849305  1.0
  O  O20  1  0.60535179  0.41899428  0.40090704  1.0
  O  O21  1  0.60535179  0.08100572  0.90090704  1.0
  O  O22  1  0.39464821  0.91899428  0.09909296  1.0
  O  O23  1  0.39464821  0.58100572  0.59909296  1.0
  O  O24  1  0.93817502  0.67473451  0.38066379  1.0
  O  O25  1  0.93817502  0.82526549  0.88066379  1.0
  O  O26  1  0.06182498  0.17473451  0.11933621  1.0
  O  O27  1  0.06182498  0.32526549  0.61933621  1.0
  O  O28  1  0.84654139  0.27298303  0.32511938  1.0
  O  O29  1  0.84654139  0.22701697  0.82511938  1.0
  O  O30  1  0.15345861  0.77298303  0.17488062  1.0
  O  O31  1  0.15345861  0.72701697  0.67488062  1.0
  O  O32  1  0.78808507  0.89518467  0.39463969  1.0
  O  O33  1  0.78808507  0.60481533  0.89463969  1.0
  O  O34  1  0.21191493  0.39518467  0.10536031  1.0
  O  O35  1  0.21191493  0.10481533  0.60536031  1.0
  O  O36  1  0.71117864  0.48494913  0.17804472  1.0
  O  O37  1  0.71117864  0.01505087  0.67804472  1.0
  O  O38  1  0.28882136  0.98494913  0.32195528  1.0
  O  O39  1  0.28882136  0.51505087  0.82195528  1.0
  O  O40  1  0.67455524  0.07144458  0.25726212  1.0
  O  O41  1  0.67455524  0.42855542  0.75726212  1.0
  O  O42  1  0.32544476  0.57144458  0.24273788  1.0
  O  O43  1  0.32544476  0.92855542  0.74273788  1.0
  O  O44  1  0.55155665  0.23746147  0.47916777  1.0
  O  O45  1  0.55155665  0.26253853  0.97916777  1.0
  O  O46  1  0.44844335  0.73746147  0.02083223  1.0
  O  O47  1  0.44844335  0.76253853  0.52083223  1.0
