# generated using pymatgen
data_Ta5Si3
_symmetry_space_group_name_H-M   'P 1'
_cell_length_a   7.51508156
_cell_length_b   7.51508156
_cell_length_c   5.26654180
_cell_angle_alpha   90.00000000
_cell_angle_beta   90.00000000
_cell_angle_gamma   120.00000000
_symmetry_Int_Tables_number   1
_chemical_formula_structural   Ta5Si3
_chemical_formula_sum   'Ta10 Si6'
_cell_volume   257.58677633
_cell_formula_units_Z   2
loop_
 _symmetry_equiv_pos_site_id
 _symmetry_equiv_pos_as_xyz
  1  'x, y, z'
loop_
 _atom_site_type_symbol
 _atom_site_label
 _atom_site_symmetry_multiplicity
 _atom_site_fract_x
 _atom_site_fract_y
 _atom_site_fract_z
 _atom_site_occupancy
  Ta  Ta0  1  0.75486925  0.75486925  0.25000000  1.0
  Ta  Ta1  1  0.75486925  0.00000000  0.75000000  1.0
  Ta  Ta2  1  0.00000000  0.75486925  0.75000000  1.0
  Ta  Ta3  1  -0.00000000  0.24513075  0.25000000  1.0
  Ta  Ta4  1  0.24513075  0.24513075  0.75000000  1.0
  Ta  Ta5  1  0.24513075  -0.00000000  0.25000000  1.0
  Ta  Ta6  1  0.33333333  0.66666667  0.50000000  1.0
  Ta  Ta7  1  0.33333333  0.66666667  -0.00000000  1.0
  Ta  Ta8  1  0.66666667  0.33333333  0.50000000  1.0
  Ta  Ta9  1  0.66666667  0.33333333  -0.00000000  1.0
  Si  Si10  1  0.39581085  0.39581085  0.25000000  1.0
  Si  Si11  1  0.39581085  0.00000000  0.75000000  1.0
  Si  Si12  1  0.00000000  0.39581085  0.75000000  1.0
  Si  Si13  1  -0.00000000  0.60418915  0.25000000  1.0
  Si  Si14  1  0.60418915  0.60418915  0.75000000  1.0
  Si  Si15  1  0.60418915  -0.00000000  0.25000000  1.0
