# generated using pymatgen
data_NaFeH4SO6F
_symmetry_space_group_name_H-M   'P 1'
_cell_length_a   5.84324353
_cell_length_b   7.50602036
_cell_length_c   7.29512727
_cell_angle_alpha   90.00000000
_cell_angle_beta   112.40534882
_cell_angle_gamma   90.00000000
_symmetry_Int_Tables_number   1
_chemical_formula_structural   NaFeH4SO6F
_chemical_formula_sum   'Na2 Fe2 H8 S2 O12 F2'
_cell_volume   295.80698461
_cell_formula_units_Z   2
loop_
 _symmetry_equiv_pos_site_id
 _symmetry_equiv_pos_as_xyz
  1  'x, y, z'
loop_
 _atom_site_type_symbol
 _atom_site_label
 _atom_site_symmetry_multiplicity
 _atom_site_fract_x
 _atom_site_fract_y
 _atom_site_fract_z
 _atom_site_occupancy
  Na  Na0  1  0.63258699  0.75000000  0.20384701  1.0
  Na  Na1  1  0.36741301  0.25000000  0.79615299  1.0
  Fe  Fe2  1  0.00000000  0.00000000  0.00000000  1.0
  Fe  Fe3  1  0.00000000  0.50000000  0.00000000  1.0
  H  H4  1  0.30482645  0.91072248  0.37800224  1.0
  H  H5  1  0.30482645  0.58927752  0.37800224  1.0
  H  H6  1  0.69517355  0.41072248  0.62199776  1.0
  H  H7  1  0.69517355  0.08927752  0.62199776  1.0
  H  H8  1  0.56943984  0.93100025  0.69351726  1.0
  H  H9  1  0.56943984  0.56899975  0.69351726  1.0
  H  H10  1  0.43056016  0.43100025  0.30648274  1.0
  H  H11  1  0.43056016  0.06899975  0.30648274  1.0
  S  S12  1  0.15546363  0.75000000  0.69419596  1.0
  S  S13  1  0.84453637  0.25000000  0.30580404  1.0
  O  O14  1  0.20569276  0.91260473  0.82486930  1.0
  O  O15  1  0.20569276  0.58739527  0.82486930  1.0
  O  O16  1  0.79430724  0.41260473  0.17513070  1.0
  O  O17  1  0.79430724  0.08739527  0.17513070  1.0
  O  O18  1  0.33721004  0.95609149  0.26353859  1.0
  O  O19  1  0.33721004  0.54390851  0.26353859  1.0
  O  O20  1  0.66278996  0.45609149  0.73646141  1.0
  O  O21  1  0.66278996  0.04390851  0.73646141  1.0
  O  O22  1  0.34601415  0.75000000  0.59740000  1.0
  O  O23  1  0.65398585  0.25000000  0.40260000  1.0
  O  O24  1  0.90321655  0.75000000  0.54189267  1.0
  O  O25  1  0.09678345  0.25000000  0.45810733  1.0
  F  F26  1  0.88706143  0.75000000  0.02854803  1.0
  F  F27  1  0.11293857  0.25000000  0.97145197  1.0
