# generated using pymatgen
data_Al7FeCu2
_symmetry_space_group_name_H-M   'P 1'
_cell_length_a   6.33094862
_cell_length_b   6.33094862
_cell_length_c   14.76326821
_cell_angle_alpha   90.00000000
_cell_angle_beta   90.00000000
_cell_angle_gamma   90.00000000
_symmetry_Int_Tables_number   1
_chemical_formula_structural   Al7FeCu2
_chemical_formula_sum   'Al28 Fe4 Cu8'
_cell_volume   591.72523156
_cell_formula_units_Z   4
loop_
 _symmetry_equiv_pos_site_id
 _symmetry_equiv_pos_as_xyz
  1  'x, y, z'
loop_
 _atom_site_type_symbol
 _atom_site_label
 _atom_site_symmetry_multiplicity
 _atom_site_fract_x
 _atom_site_fract_y
 _atom_site_fract_z
 _atom_site_occupancy
  Al  Al0  1  0.29376723  0.91577913  0.40016457  1.0
  Al  Al1  1  0.29376723  0.91577913  0.59983543  1.0
  Al  Al2  1  0.79376723  0.58422087  0.90016457  1.0
  Al  Al3  1  0.79376723  0.58422087  0.09983543  1.0
  Al  Al4  1  0.08422087  0.29376723  0.40016457  1.0
  Al  Al5  1  0.08422087  0.29376723  0.59983543  1.0
  Al  Al6  1  0.58422087  0.20623277  0.90016457  1.0
  Al  Al7  1  0.58422087  0.20623277  0.09983543  1.0
  Al  Al8  1  0.70623277  0.08422087  0.40016457  1.0
  Al  Al9  1  0.70623277  0.08422087  0.59983543  1.0
  Al  Al10  1  0.20623277  0.41577913  0.90016457  1.0
  Al  Al11  1  0.20623277  0.41577913  0.09983543  1.0
  Al  Al12  1  0.91577913  0.70623277  0.40016457  1.0
  Al  Al13  1  0.91577913  0.70623277  0.59983543  1.0
  Al  Al14  1  0.41577913  0.79376723  0.90016457  1.0
  Al  Al15  1  0.41577913  0.79376723  0.09983543  1.0
  Al  Al16  1  0.33650430  0.16349570  0.25000000  1.0
  Al  Al17  1  0.33650430  0.16349570  0.75000000  1.0
  Al  Al18  1  0.83650430  0.33650430  0.75000000  1.0
  Al  Al19  1  0.83650430  0.33650430  0.25000000  1.0
  Al  Al20  1  0.66349570  0.83650430  0.25000000  1.0
  Al  Al21  1  0.66349570  0.83650430  0.75000000  1.0
  Al  Al22  1  0.16349570  0.66349570  0.75000000  1.0
  Al  Al23  1  0.16349570  0.66349570  0.25000000  1.0
  Al  Al24  1  0.50000000  0.50000000  0.36659150  1.0
  Al  Al25  1  0.50000000  0.50000000  0.63340850  1.0
  Al  Al26  1  0.00000000  0.00000000  0.86659150  1.0
  Al  Al27  1  0.00000000  0.00000000  0.13340850  1.0
  Fe  Fe28  1  0.50000000  0.50000000  0.20085857  1.0
  Fe  Fe29  1  0.50000000  0.50000000  0.79914143  1.0
  Fe  Fe30  1  0.00000000  0.00000000  0.70085857  1.0
  Fe  Fe31  1  0.00000000  0.00000000  0.29914143  1.0
  Cu  Cu32  1  0.22844972  0.58640391  0.50000000  1.0
  Cu  Cu33  1  0.72844972  0.91359609  0.00000000  1.0
  Cu  Cu34  1  0.41359609  0.22844972  0.50000000  1.0
  Cu  Cu35  1  0.91359609  0.27155028  0.00000000  1.0
  Cu  Cu36  1  0.77155028  0.41359609  0.50000000  1.0
  Cu  Cu37  1  0.27155028  0.08640391  0.00000000  1.0
  Cu  Cu38  1  0.58640391  0.77155028  0.50000000  1.0
  Cu  Cu39  1  0.08640391  0.72844972  -0.00000000  1.0
