# generated using pymatgen
data_K2MnTe2
_symmetry_space_group_name_H-M   'P 1'
_cell_length_a   8.80301056
_cell_length_b   8.80301056
_cell_length_c   8.80301056
_cell_angle_alpha   129.55643359
_cell_angle_beta   71.35709695
_cell_angle_gamma   133.06526414
_symmetry_Int_Tables_number   1
_chemical_formula_structural   K2MnTe2
_chemical_formula_sum   'K4 Mn2 Te4'
_cell_volume   376.12896682
_cell_formula_units_Z   2
loop_
 _symmetry_equiv_pos_site_id
 _symmetry_equiv_pos_as_xyz
  1  'x, y, z'
loop_
 _atom_site_type_symbol
 _atom_site_label
 _atom_site_symmetry_multiplicity
 _atom_site_fract_x
 _atom_site_fract_y
 _atom_site_fract_z
 _atom_site_occupancy
  K  K0  1  0.14239954  0.32257972  0.46497926  1.0
  K  K1  1  0.35760046  0.82257972  1.18018019  1.0
  K  K2  1  0.64239954  1.17742028  0.81981981  1.0
  K  K3  1  0.85760046  0.67742028  0.53502074  1.0
  Mn  Mn4  1  0.25000000  0.25000000  0.00000000  1.0
  Mn  Mn5  1  0.75000000  0.75000000  -0.00000000  1.0
  Te  Te6  1  0.39233971  0.30245397  0.69479369  1.0
  Te  Te7  1  0.10766029  0.80245397  0.91011426  1.0
  Te  Te8  1  0.89233971  1.19754603  1.08988574  1.0
  Te  Te9  1  0.60766029  0.69754603  0.30520631  1.0
