# generated using pymatgen
data_RbMgCl3
_symmetry_space_group_name_H-M   'P 1'
_cell_length_a   7.19154474
_cell_length_b   7.19154474
_cell_length_c   17.79852989
_cell_angle_alpha   90.00000000
_cell_angle_beta   90.00000000
_cell_angle_gamma   120.00000000
_symmetry_Int_Tables_number   1
_chemical_formula_structural   RbMgCl3
_chemical_formula_sum   'Rb6 Mg6 Cl18'
_cell_volume   797.18503486
_cell_formula_units_Z   6
loop_
 _symmetry_equiv_pos_site_id
 _symmetry_equiv_pos_as_xyz
  1  'x, y, z'
loop_
 _atom_site_type_symbol
 _atom_site_label
 _atom_site_symmetry_multiplicity
 _atom_site_fract_x
 _atom_site_fract_y
 _atom_site_fract_z
 _atom_site_occupancy
  Rb  Rb0  1  0.33333333  0.66666667  0.41307241  1.0
  Rb  Rb1  1  0.33333333  0.66666667  0.08692759  1.0
  Rb  Rb2  1  0.66666667  0.33333333  0.91307241  1.0
  Rb  Rb3  1  0.66666667  0.33333333  0.58692759  1.0
  Rb  Rb4  1  0.00000000  0.00000000  0.25000000  1.0
  Rb  Rb5  1  0.00000000  0.00000000  0.75000000  1.0
  Mg  Mg6  1  0.33333333  0.66666667  0.83950375  1.0
  Mg  Mg7  1  0.33333333  0.66666667  0.66049625  1.0
  Mg  Mg8  1  0.66666667  0.33333333  0.33950375  1.0
  Mg  Mg9  1  0.66666667  0.33333333  0.16049625  1.0
  Mg  Mg10  1  0.00000000  0.00000000  0.50000000  1.0
  Mg  Mg11  1  0.00000000  0.00000000  0.00000000  1.0
  Cl  Cl12  1  0.16600291  0.83399709  0.91838544  1.0
  Cl  Cl13  1  0.16600291  0.83399709  0.58161456  1.0
  Cl  Cl14  1  0.16600291  0.33200582  0.91838544  1.0
  Cl  Cl15  1  0.16600291  0.33200582  0.58161456  1.0
  Cl  Cl16  1  0.83399709  0.16600291  0.41838544  1.0
  Cl  Cl17  1  0.83399709  0.16600291  0.08161456  1.0
  Cl  Cl18  1  0.83399709  0.66799418  0.41838544  1.0
  Cl  Cl19  1  0.83399709  0.66799418  0.08161456  1.0
  Cl  Cl20  1  0.66799418  0.83399709  0.91838544  1.0
  Cl  Cl21  1  0.66799418  0.83399709  0.58161456  1.0
  Cl  Cl22  1  0.33200582  0.16600291  0.41838544  1.0
  Cl  Cl23  1  0.33200582  0.16600291  0.08161456  1.0
  Cl  Cl24  1  0.50958273  0.49041727  0.25000000  1.0
  Cl  Cl25  1  0.50958273  0.01916545  0.25000000  1.0
  Cl  Cl26  1  0.49041727  0.50958273  0.75000000  1.0
  Cl  Cl27  1  0.49041727  0.98083455  0.75000000  1.0
  Cl  Cl28  1  0.98083455  0.49041727  0.25000000  1.0
  Cl  Cl29  1  0.01916545  0.50958273  0.75000000  1.0
