# generated using pymatgen
data_Tl2Pt
_symmetry_space_group_name_H-M   'P 1'
_cell_length_a   5.72100477
_cell_length_b   5.72100477
_cell_length_c   5.72100477
_cell_angle_alpha   104.26184654
_cell_angle_beta   104.26184654
_cell_angle_gamma   120.48366058
_symmetry_Int_Tables_number   1
_chemical_formula_structural   Tl2Pt
_chemical_formula_sum   'Tl4 Pt2'
_cell_volume   140.08577533
_cell_formula_units_Z   2
loop_
 _symmetry_equiv_pos_site_id
 _symmetry_equiv_pos_as_xyz
  1  'x, y, z'
loop_
 _atom_site_type_symbol
 _atom_site_label
 _atom_site_symmetry_multiplicity
 _atom_site_fract_x
 _atom_site_fract_y
 _atom_site_fract_z
 _atom_site_occupancy
  Tl  Tl0  1  0.83942948  0.33942948  1.17885896  1.0
  Tl  Tl1  1  0.66057052  0.83942948  0.50000000  1.0
  Tl  Tl2  1  1.33942948  1.16057052  1.50000000  1.0
  Tl  Tl3  1  0.16057052  0.66057052  0.82114103  1.0
  Pt  Pt4  1  0.25000000  0.25000000  -0.00000000  1.0
  Pt  Pt5  1  0.75000000  0.75000000  -0.00000000  1.0
