# generated using pymatgen
data_SnI4
_symmetry_space_group_name_H-M   'P 1'
_cell_length_a   13.21825887
_cell_length_b   13.21825887
_cell_length_c   13.21825887
_cell_angle_alpha   90.00000000
_cell_angle_beta   90.00000000
_cell_angle_gamma   90.00000000
_symmetry_Int_Tables_number   1
_chemical_formula_structural   SnI4
_chemical_formula_sum   'Sn8 I32'
_cell_volume   2309.52548283
_cell_formula_units_Z   8
loop_
 _symmetry_equiv_pos_site_id
 _symmetry_equiv_pos_as_xyz
  1  'x, y, z'
loop_
 _atom_site_type_symbol
 _atom_site_label
 _atom_site_symmetry_multiplicity
 _atom_site_fract_x
 _atom_site_fract_y
 _atom_site_fract_z
 _atom_site_occupancy
  Sn  Sn0  1  0.36521569  0.86521569  0.63478431  1.0
  Sn  Sn1  1  0.36521569  0.63478431  0.13478431  1.0
  Sn  Sn2  1  0.86521569  0.86521569  0.86521569  1.0
  Sn  Sn3  1  0.86521569  0.63478431  0.36521569  1.0
  Sn  Sn4  1  0.63478431  0.36521569  0.86521569  1.0
  Sn  Sn5  1  0.63478431  0.13478431  0.36521569  1.0
  Sn  Sn6  1  0.13478431  0.36521569  0.63478431  1.0
  Sn  Sn7  1  0.13478431  0.13478431  0.13478431  1.0
  I  I8  1  0.53109451  0.49720113  0.74673183  1.0
  I  I9  1  0.53109451  1.00279887  0.24673183  1.0
  I  I10  1  1.03109451  0.49720113  0.75326817  1.0
  I  I11  1  1.03109451  1.00279887  0.25326817  1.0
  I  I12  1  -0.00279887  0.75326817  0.46890549  1.0
  I  I13  1  -0.00279887  0.74673183  -0.03109451  1.0
  I  I14  1  0.49720113  0.75326817  1.03109451  1.0
  I  I15  1  0.49720113  0.74673183  0.53109451  1.0
  I  I16  1  0.25326817  1.03109451  1.00279887  1.0
  I  I17  1  0.25326817  0.46890549  0.50279887  1.0
  I  I18  1  0.75326817  1.03109451  0.49720113  1.0
  I  I19  1  0.75326817  0.46890549  -0.00279887  1.0
  I  I20  1  0.46890549  -0.00279887  0.75326817  1.0
  I  I21  1  0.46890549  0.50279887  0.25326817  1.0
  I  I22  1  -0.03109451  -0.00279887  0.74673183  1.0
  I  I23  1  -0.03109451  0.50279887  0.24673183  1.0
  I  I24  1  1.00279887  0.25326817  1.03109451  1.0
  I  I25  1  1.00279887  0.24673183  0.53109451  1.0
  I  I26  1  0.50279887  0.25326817  0.46890549  1.0
  I  I27  1  0.50279887  0.24673183  -0.03109451  1.0
  I  I28  1  0.74673183  0.53109451  0.49720113  1.0
  I  I29  1  0.74673183  -0.03109451  -0.00279887  1.0
  I  I30  1  0.24673183  0.53109451  1.00279887  1.0
  I  I31  1  0.24673183  -0.03109451  0.50279887  1.0
  I  I32  1  0.24715767  0.74715767  0.75284233  1.0
  I  I33  1  0.24715767  0.75284233  0.25284233  1.0
  I  I34  1  0.74715767  0.74715767  0.74715767  1.0
  I  I35  1  0.74715767  0.75284233  0.24715767  1.0
  I  I36  1  0.75284233  0.24715767  0.74715767  1.0
  I  I37  1  0.75284233  0.25284233  0.24715767  1.0
  I  I38  1  0.25284233  0.24715767  0.75284233  1.0
  I  I39  1  0.25284233  0.25284233  0.25284233  1.0
