# generated using pymatgen
data_Co9S8
_symmetry_space_group_name_H-M   'P 1'
_cell_length_a   6.91556799
_cell_length_b   6.91556799
_cell_length_c   6.91556799
_cell_angle_alpha   60.00000000
_cell_angle_beta   60.00000000
_cell_angle_gamma   60.00000000
_symmetry_Int_Tables_number   1
_chemical_formula_structural   Co9S8
_chemical_formula_sum   'Co9 S8'
_cell_volume   233.86679742
_cell_formula_units_Z   1
loop_
 _symmetry_equiv_pos_site_id
 _symmetry_equiv_pos_as_xyz
  1  'x, y, z'
loop_
 _atom_site_type_symbol
 _atom_site_label
 _atom_site_symmetry_multiplicity
 _atom_site_fract_x
 _atom_site_fract_y
 _atom_site_fract_z
 _atom_site_occupancy
  Co  Co0  1  0.00000000  0.00000000  -0.00000000  1.0
  Co  Co1  1  0.62647954  0.62647954  -0.37352046  1.0
  Co  Co2  1  0.37352046  1.37352046  -0.12056137  1.0
  Co  Co3  1  1.37352046  -0.12056137  0.37352046  1.0
  Co  Co4  1  1.12056137  0.62647954  0.62647954  1.0
  Co  Co5  1  -0.12056137  1.37352046  0.37352046  1.0
  Co  Co6  1  0.62647954  1.12056137  -0.37352046  1.0
  Co  Co7  1  0.62647954  0.62647954  1.12056137  1.0
  Co  Co8  1  1.37352046  0.37352046  0.37352046  1.0
  S  S9  1  -0.76165011  0.76165011  0.76165011  1.0
  S  S10  1  -0.23834989  0.23834989  0.76165011  1.0
  S  S11  1  0.76165011  0.76165011  -0.76165011  1.0
  S  S12  1  0.23834989  1.23834989  -0.23834989  1.0
  S  S13  1  0.23834989  -0.23834989  1.23834989  1.0
  S  S14  1  -0.23834989  0.23834989  0.23834989  1.0
  S  S15  1  0.75000000  0.75000000  -0.25000000  1.0
  S  S16  1  1.25000000  0.25000000  0.25000000  1.0
