# generated using pymatgen
data_H5C3N13O2
_symmetry_space_group_name_H-M   'P 1'
_cell_length_a   5.92876469
_cell_length_b   5.92876469
_cell_length_c   15.09589481
_cell_angle_alpha   83.69373799
_cell_angle_beta   96.30626201
_cell_angle_gamma   77.84201207
_symmetry_Int_Tables_number   1
_chemical_formula_structural   H5C3N13O2
_chemical_formula_sum   'H10 C6 N26 O4'
_cell_volume   510.73292952
_cell_formula_units_Z   2
loop_
 _symmetry_equiv_pos_site_id
 _symmetry_equiv_pos_as_xyz
  1  'x, y, z'
loop_
 _atom_site_type_symbol
 _atom_site_label
 _atom_site_symmetry_multiplicity
 _atom_site_fract_x
 _atom_site_fract_y
 _atom_site_fract_z
 _atom_site_occupancy
  H  H0  1  1.59996878  0.07193628  0.15163346  1.0
  H  H1  1  0.92806372  -0.59996878  0.65163346  1.0
  H  H2  1  1.07193628  0.59996878  0.34836654  1.0
  H  H3  1  0.40003122  -0.07193628  0.84836654  1.0
  H  H4  1  0.17830721  0.03218894  0.30093371  1.0
  H  H5  1  0.96781106  0.82169279  0.80093371  1.0
  H  H6  1  1.03218894  -0.82169279  0.19906629  1.0
  H  H7  1  1.82169279  -0.03218894  0.69906629  1.0
  H  H8  1  0.00000000  -0.00000000  0.50000000  1.0
  H  H9  1  0.00000000  0.00000000  0.00000000  1.0
  C  C10  1  1.49747706  0.41232628  0.47094094  1.0
  C  C11  1  0.58767372  -0.49747706  0.97094094  1.0
  C  C12  1  1.41232628  0.49747706  0.02905906  1.0
  C  C13  1  0.50252294  -0.41232628  0.52905906  1.0
  C  C14  1  0.90216779  -0.09783221  0.25000000  1.0
  C  C15  1  1.09783221  0.09783221  0.75000000  1.0
  N  N16  1  0.60193162  -0.25774687  0.21877815  1.0
  N  N17  1  1.25774687  0.39806838  0.71877815  1.0
  N  N18  1  0.74225313  -0.39806838  0.28122185  1.0
  N  N19  1  1.39806838  0.25774687  0.78122185  1.0
  N  N20  1  0.69493106  -0.07142046  0.19823225  1.0
  N  N21  1  1.07142046  0.30506894  0.69823225  1.0
  N  N22  1  0.92857954  -0.30506894  0.30176775  1.0
  N  N23  1  1.30506894  0.07142046  0.80176775  1.0
  N  N24  1  1.60758810  0.09361378  0.41022090  1.0
  N  N25  1  0.90638622  -0.60758810  0.91022090  1.0
  N  N26  1  1.09361378  0.60758810  0.08977910  1.0
  N  N27  1  0.39241190  -0.09361378  0.58977910  1.0
  N  N28  1  1.67171772  0.22183830  0.47210871  1.0
  N  N29  1  0.77816170  -0.67171772  0.97210871  1.0
  N  N30  1  1.22183830  0.67171772  0.02789129  1.0
  N  N31  1  0.32828228  -0.22183830  0.52789129  1.0
  N  N32  1  1.39894138  0.20491122  0.37160713  1.0
  N  N33  1  0.79508878  -0.39894138  0.87160713  1.0
  N  N34  1  1.20491122  0.39894138  0.12839287  1.0
  N  N35  1  0.60105862  -0.20491122  0.62839287  1.0
  N  N36  1  1.32571562  0.40047766  0.40694582  1.0
  N  N37  1  0.59952234  -0.32571562  0.90694582  1.0
  N  N38  1  1.40047766  0.32571562  0.09305418  1.0
  N  N39  1  0.67428438  -0.40047766  0.59305418  1.0
  N  N40  1  1.04543970  0.04543970  0.25000000  1.0
  N  N41  1  0.95456030  -0.04543970  0.75000000  1.0
  O  O42  1  1.83729130  0.12723720  0.02515659  1.0
  O  O43  1  0.87276280  -0.83729130  0.52515659  1.0
  O  O44  1  1.12723720  0.83729130  0.47484341  1.0
  O  O45  1  0.16270870  -0.12723720  0.97484341  1.0
