# generated using pymatgen
data_Hf6Al16Co7
_symmetry_space_group_name_H-M   'P 1'
_cell_length_a   8.47197310
_cell_length_b   8.47197310
_cell_length_c   8.47197310
_cell_angle_alpha   60.00000000
_cell_angle_beta   60.00000000
_cell_angle_gamma   60.00000000
_symmetry_Int_Tables_number   1
_chemical_formula_structural   Hf6Al16Co7
_chemical_formula_sum   'Hf6 Al16 Co7'
_cell_volume   429.97054687
_cell_formula_units_Z   1
loop_
 _symmetry_equiv_pos_site_id
 _symmetry_equiv_pos_as_xyz
  1  'x, y, z'
loop_
 _atom_site_type_symbol
 _atom_site_label
 _atom_site_symmetry_multiplicity
 _atom_site_fract_x
 _atom_site_fract_y
 _atom_site_fract_z
 _atom_site_occupancy
  Al  Al0  1  0.88159273  0.88159273  -0.64477819  1.0
  Al  Al1  1  0.88159273  0.35522181  -0.11840727  1.0
  Al  Al2  1  0.35522181  0.88159273  -0.11840727  1.0
  Al  Al3  1  0.88159273  0.88159273  -0.11840727  1.0
  Al  Al4  1  1.11840727  0.11840727  0.64477819  1.0
  Al  Al5  1  1.11840727  0.64477819  0.11840727  1.0
  Al  Al6  1  1.64477819  0.11840727  0.11840727  1.0
  Al  Al7  1  1.11840727  0.11840727  0.11840727  1.0
  Al  Al8  1  0.66473755  0.66473755  0.00578734  1.0
  Al  Al9  1  0.66473755  1.00578734  -0.33526245  1.0
  Al  Al10  1  1.00578734  0.66473755  -0.33526245  1.0
  Al  Al11  1  0.66473755  0.66473755  -0.33526245  1.0
  Al  Al12  1  1.33526245  0.33526245  -0.00578734  1.0
  Al  Al13  1  1.33526245  -0.00578734  0.33526245  1.0
  Al  Al14  1  0.99421266  0.33526245  0.33526245  1.0
  Al  Al15  1  1.33526245  0.33526245  0.33526245  1.0
  Co  Co16  1  0.00000000  0.00000000  0.00000000  1.0
  Co  Co17  1  0.00000000  0.00000000  0.50000000  1.0
  Co  Co18  1  0.50000000  1.00000000  -0.50000000  1.0
  Co  Co19  1  1.00000000  0.50000000  -0.50000000  1.0
  Co  Co20  1  0.50000000  -0.50000000  1.00000000  1.0
  Co  Co21  1  -0.00000000  1.50000000  0.00000000  1.0
  Co  Co22  1  1.50000000  -0.00000000  0.00000000  1.0
  Hf  Hf23  1  0.69165613  0.69165613  -0.69165613  1.0
  Hf  Hf24  1  0.30834387  -0.30834387  1.30834387  1.0
  Hf  Hf25  1  -0.30834387  0.30834387  0.30834387  1.0
  Hf  Hf26  1  0.30834387  1.30834387  -0.30834387  1.0
  Hf  Hf27  1  -0.30834387  0.30834387  0.69165613  1.0
  Hf  Hf28  1  -0.69165613  0.69165613  0.69165613  1.0
