# generated using pymatgen
data_Cs3Cd2Cl7
_symmetry_space_group_name_H-M   'P 1'
_cell_length_a   14.29797873
_cell_length_b   14.29797873
_cell_length_c   14.29797873
_cell_angle_alpha   158.42383463
_cell_angle_beta   158.42383463
_cell_angle_gamma   30.69923534
_symmetry_Int_Tables_number   1
_chemical_formula_structural   Cs3Cd2Cl7
_chemical_formula_sum   'Cs3 Cd2 Cl7'
_cell_volume   395.01529385
_cell_formula_units_Z   1
loop_
 _symmetry_equiv_pos_site_id
 _symmetry_equiv_pos_as_xyz
  1  'x, y, z'
loop_
 _atom_site_type_symbol
 _atom_site_label
 _atom_site_symmetry_multiplicity
 _atom_site_fract_x
 _atom_site_fract_y
 _atom_site_fract_z
 _atom_site_occupancy
  Cs  Cs0  1  0.68106502  0.68106502  1.00000000  1.0
  Cs  Cs1  1  0.31893498  0.31893498  0.00000000  1.0
  Cs  Cs2  1  0.50000000  0.50000000  1.00000000  1.0
  Cd  Cd3  1  0.90342056  0.90342056  1.00000000  1.0
  Cd  Cd4  1  0.09657944  0.09657944  0.00000000  1.0
  Cl  Cl5  1  0.40577374  0.90577374  0.50000000  1.0
  Cl  Cl6  1  0.59422626  0.09422626  0.50000000  1.0
  Cl  Cl7  1  0.90577374  0.40577374  0.50000000  1.0
  Cl  Cl8  1  0.09422626  0.59422626  0.50000000  1.0
  Cl  Cl9  1  0.80929099  0.80929099  1.00000000  1.0
  Cl  Cl10  1  0.19070901  0.19070901  0.00000000  1.0
  Cl  Cl11  1  0.00000000  0.00000000  0.00000000  1.0
