# generated using pymatgen
data_ZnS
_symmetry_space_group_name_H-M   'P 1'
_cell_length_a   3.84925510
_cell_length_b   3.84925510
_cell_length_c   62.94119787
_cell_angle_alpha   90.00000000
_cell_angle_beta   90.00000000
_cell_angle_gamma   120.00000000
_symmetry_Int_Tables_number   1
_chemical_formula_structural   ZnS
_chemical_formula_sum   'Zn20 S20'
_cell_volume   807.64223869
_cell_formula_units_Z   20
loop_
 _symmetry_equiv_pos_site_id
 _symmetry_equiv_pos_as_xyz
  1  'x, y, z'
loop_
 _atom_site_type_symbol
 _atom_site_label
 _atom_site_symmetry_multiplicity
 _atom_site_fract_x
 _atom_site_fract_y
 _atom_site_fract_z
 _atom_site_occupancy
  Zn  Zn0  1  0.00000000  0.00000000  0.00003479  1.0
  Zn  Zn1  1  0.33333333  0.66666667  0.05007086  1.0
  Zn  Zn2  1  0.66666667  0.33333333  0.10002435  1.0
  Zn  Zn3  1  0.00000000  0.00000000  0.14998191  1.0
  Zn  Zn4  1  0.33333333  0.66666667  0.19994877  1.0
  Zn  Zn5  1  0.66666667  0.33333333  0.24997597  1.0
  Zn  Zn6  1  0.33333333  0.66666667  0.30000410  1.0
  Zn  Zn7  1  0.00000000  0.00000000  0.35000291  1.0
  Zn  Zn8  1  0.33333333  0.66666667  0.40002130  1.0
  Zn  Zn9  1  0.66666667  0.33333333  0.45002712  1.0
  Zn  Zn10  1  0.33333333  0.66666667  0.50004136  1.0
  Zn  Zn11  1  0.00000000  0.00000000  0.54998386  1.0
  Zn  Zn12  1  0.66666667  0.33333333  0.60001521  1.0
  Zn  Zn13  1  0.00000000  0.00000000  0.65006510  1.0
  Zn  Zn14  1  0.33333333  0.66666667  0.70003086  1.0
  Zn  Zn15  1  0.66666667  0.33333333  0.75000571  1.0
  Zn  Zn16  1  0.00000000  0.00000000  0.79997798  1.0
  Zn  Zn17  1  0.33333333  0.66666667  0.84994896  1.0
  Zn  Zn18  1  0.66666667  0.33333333  0.89997768  1.0
  Zn  Zn19  1  0.33333333  0.66666667  0.95001492  1.0
  S  S20  1  0.00000000  0.00000000  0.03756799  1.0
  S  S21  1  0.33333333  0.66666667  0.08753199  1.0
  S  S22  1  0.66666667  0.33333333  0.13749196  1.0
  S  S23  1  0.00000000  0.00000000  0.18745336  1.0
  S  S24  1  0.33333333  0.66666667  0.23741634  1.0
  S  S25  1  0.66666667  0.33333333  0.28750740  1.0
  S  S26  1  0.33333333  0.66666667  0.33745338  1.0
  S  S27  1  0.00000000  0.00000000  0.38752828  1.0
  S  S28  1  0.33333333  0.66666667  0.43747329  1.0
  S  S29  1  0.66666667  0.33333333  0.48755173  1.0
  S  S30  1  0.33333333  0.66666667  0.53749642  1.0
  S  S31  1  0.00000000  0.00000000  0.58745060  1.0
  S  S32  1  0.66666667  0.33333333  0.63755377  1.0
  S  S33  1  0.00000000  0.00000000  0.68753155  1.0
  S  S34  1  0.33333333  0.66666667  0.73750561  1.0
  S  S35  1  0.66666667  0.33333333  0.78747949  1.0
  S  S36  1  0.00000000  0.00000000  0.83745263  1.0
  S  S37  1  0.33333333  0.66666667  0.88741671  1.0
  S  S38  1  0.66666667  0.33333333  0.93751137  1.0
  S  S39  1  0.33333333  0.66666667  0.98747242  1.0
