# generated using pymatgen
data_Zr5Sb3
_symmetry_space_group_name_H-M   'P 1'
_cell_length_a   7.53404877
_cell_length_b   8.87242888
_cell_length_c   10.92286813
_cell_angle_alpha   90.00000000
_cell_angle_beta   90.00000000
_cell_angle_gamma   90.00000000
_symmetry_Int_Tables_number   1
_chemical_formula_structural   Zr5Sb3
_chemical_formula_sum   'Zr20 Sb12'
_cell_volume   730.14252681
_cell_formula_units_Z   4
loop_
 _symmetry_equiv_pos_site_id
 _symmetry_equiv_pos_as_xyz
  1  'x, y, z'
loop_
 _atom_site_type_symbol
 _atom_site_label
 _atom_site_symmetry_multiplicity
 _atom_site_fract_x
 _atom_site_fract_y
 _atom_site_fract_z
 _atom_site_occupancy
  Zr  Zr0  1  0.15026667  0.75000000  0.78678343  1.0
  Zr  Zr1  1  0.65026667  0.75000000  0.71321657  1.0
  Zr  Zr2  1  0.84973333  0.25000000  0.21321657  1.0
  Zr  Zr3  1  0.34973333  0.25000000  0.28678343  1.0
  Zr  Zr4  1  0.29699930  0.94606986  0.55438136  1.0
  Zr  Zr5  1  0.29699930  0.55393014  0.55438136  1.0
  Zr  Zr6  1  0.79699930  0.94606986  0.94561864  1.0
  Zr  Zr7  1  0.79699930  0.55393014  0.94561864  1.0
  Zr  Zr8  1  0.70300070  0.44606986  0.44561864  1.0
  Zr  Zr9  1  0.70300070  0.05393014  0.44561864  1.0
  Zr  Zr10  1  0.20300070  0.44606986  0.05438136  1.0
  Zr  Zr11  1  0.20300070  0.05393014  0.05438136  1.0
  Zr  Zr12  1  0.46956138  0.75000000  0.01084540  1.0
  Zr  Zr13  1  0.96956138  0.75000000  0.48915460  1.0
  Zr  Zr14  1  0.53043862  0.25000000  0.98915460  1.0
  Zr  Zr15  1  0.03043862  0.25000000  0.51084540  1.0
  Zr  Zr16  1  0.30406340  0.75000000  0.27646214  1.0
  Zr  Zr17  1  0.80406340  0.75000000  0.22353786  1.0
  Zr  Zr18  1  0.69593660  0.25000000  0.72353786  1.0
  Zr  Zr19  1  0.19593660  0.25000000  0.77646214  1.0
  Sb  Sb20  1  0.42983948  0.99147489  0.82329051  1.0
  Sb  Sb21  1  0.42983948  0.50852511  0.82329051  1.0
  Sb  Sb22  1  0.92983948  0.99147489  0.67670949  1.0
  Sb  Sb23  1  0.92983948  0.50852511  0.67670949  1.0
  Sb  Sb24  1  0.57016052  0.49147489  0.17670949  1.0
  Sb  Sb25  1  0.57016052  0.00852511  0.17670949  1.0
  Sb  Sb26  1  0.07016052  0.49147489  0.32329051  1.0
  Sb  Sb27  1  0.07016052  0.00852511  0.32329051  1.0
  Sb  Sb28  1  0.07670931  0.75000000  0.04323307  1.0
  Sb  Sb29  1  0.57670931  0.75000000  0.45676693  1.0
  Sb  Sb30  1  0.92329069  0.25000000  0.95676693  1.0
  Sb  Sb31  1  0.42329069  0.25000000  0.54323307  1.0
