# generated using pymatgen
data_Ti2VSe4
_symmetry_space_group_name_H-M   'P 1'
_cell_length_a   7.00869388
_cell_length_b   7.00869388
_cell_length_c   6.36780589
_cell_angle_alpha   63.87562375
_cell_angle_beta   116.12437625
_cell_angle_gamma   150.82299798
_symmetry_Int_Tables_number   1
_chemical_formula_structural   Ti2VSe4
_chemical_formula_sum   'Ti2 V1 Se4'
_cell_volume   135.79351802
_cell_formula_units_Z   1
loop_
 _symmetry_equiv_pos_site_id
 _symmetry_equiv_pos_as_xyz
  1  'x, y, z'
loop_
 _atom_site_type_symbol
 _atom_site_label
 _atom_site_symmetry_multiplicity
 _atom_site_fract_x
 _atom_site_fract_y
 _atom_site_fract_z
 _atom_site_occupancy
  Ti  Ti0  1  0.74706282  -0.74706282  0.71042332  1.0
  Ti  Ti1  1  1.25293718  -0.25293718  0.28957668  1.0
  V  V2  1  0.00000000  0.00000000  0.00000000  1.0
  Se  Se3  1  0.88824718  -0.88824718  0.55344454  1.0
  Se  Se4  1  1.11175282  -0.11175282  0.44655546  1.0
  Se  Se5  1  0.63108844  -0.63108844  0.96585683  1.0
  Se  Se6  1  1.36891156  -0.36891156  0.03414317  1.0
