# generated using pymatgen
data_Sb2IrC3O3F13
_symmetry_space_group_name_H-M   'P 1'
_cell_length_a   8.73066360
_cell_length_b   9.04755189
_cell_length_c   11.56342535
_cell_angle_alpha   111.15382263
_cell_angle_beta   104.35053172
_cell_angle_gamma   88.90584895
_symmetry_Int_Tables_number   1
_chemical_formula_structural   Sb2IrC3O3F13
_chemical_formula_sum   'Sb4 Ir2 C6 O6 F26'
_cell_volume   822.77258476
_cell_formula_units_Z   2
loop_
 _symmetry_equiv_pos_site_id
 _symmetry_equiv_pos_as_xyz
  1  'x, y, z'
loop_
 _atom_site_type_symbol
 _atom_site_label
 _atom_site_symmetry_multiplicity
 _atom_site_fract_x
 _atom_site_fract_y
 _atom_site_fract_z
 _atom_site_occupancy
  Sb  Sb0  1  -0.81668084  -0.75119704  0.35960916  1.0
  Sb  Sb1  1  -0.18331916  -0.24880296  0.64039084  1.0
  Sb  Sb2  1  -0.81432668  -0.70593076  0.84277618  1.0
  Sb  Sb3  1  -0.18567332  -0.29406924  0.15722382  1.0
  Ir  Ir4  1  -0.27388016  -0.80322118  0.70701748  1.0
  Ir  Ir5  1  -0.72611984  -0.19677882  0.29298252  1.0
  C  C6  1  -0.37390969  -0.61347548  0.75294702  1.0
  C  C7  1  -0.62609031  -0.38652452  0.24705298  1.0
  C  C8  1  -0.29256856  -0.80019434  0.53239164  1.0
  C  C9  1  -0.70743144  -0.19980566  0.46760836  1.0
  C  C10  1  -0.25403765  -0.81644560  0.87820290  1.0
  C  C11  1  -0.74596235  -0.18355440  0.12179710  1.0
  O  O12  1  -0.43832795  -0.50031806  0.77889628  1.0
  O  O13  1  -0.56167205  -0.49968194  0.22110372  1.0
  O  O14  1  -0.29737656  -0.79867874  0.43431633  1.0
  O  O15  1  -0.70262344  -0.20132126  0.56568367  1.0
  O  O16  1  -0.24692795  -0.82643744  0.97401640  1.0
  O  O17  1  -0.75307205  -0.17356256  0.02598360  1.0
  F  F18  1  -0.99675039  -0.19623929  0.77789990  1.0
  F  F19  1  -0.00324961  -0.80376071  0.22210010  1.0
  F  F20  1  -0.94213324  -0.70666570  0.47916108  1.0
  F  F21  1  -0.05786676  -0.29333430  0.52083892  1.0
  F  F22  1  -0.94757474  -0.32217786  0.23482757  1.0
  F  F23  1  -0.05242526  -0.67782214  0.76517243  1.0
  F  F24  1  -0.90149824  -0.83210535  0.91587652  1.0
  F  F25  1  -0.09850176  -0.16789465  0.08412348  1.0
  F  F26  1  -0.83857418  -0.98731496  0.34982859  1.0
  F  F27  1  -0.16142582  -0.01268504  0.65017141  1.0
  F  F28  1  -0.83135574  -0.88570255  0.68882245  1.0
  F  F29  1  -0.16864426  -0.11429745  0.31117755  1.0
  F  F30  1  -0.82381019  -0.52205743  0.99041538  1.0
  F  F31  1  -0.17618981  -0.47794257  0.00958462  1.0
  F  F32  1  -0.78951822  -0.53728804  0.36894352  1.0
  F  F33  1  -0.21048178  -0.46271196  0.63105648  1.0
  F  F34  1  -0.76925138  -0.56640835  0.76400429  1.0
  F  F35  1  -0.23074862  -0.43359165  0.23599571  1.0
  F  F36  1  -0.69347567  -0.83503394  0.23782728  1.0
  F  F37  1  -0.30652433  -0.16496606  0.76217272  1.0
  F  F38  1  -0.62840515  -0.72187499  0.49543642  1.0
  F  F39  1  -0.37159484  -0.27812501  0.50456358  1.0
  F  F40  1  -0.59659648  -0.72757521  0.91321723  1.0
  F  F41  1  -0.40340352  -0.27242479  0.08678277  1.0
  F  F42  1  -0.47291974  -0.93400216  0.64546832  1.0
  F  F43  1  -0.52708026  -0.06599784  0.35453168  1.0
