# generated using pymatgen
data_LiEu2CBr3N2
_symmetry_space_group_name_H-M   'P 1'
_cell_length_a   10.30851676
_cell_length_b   10.30851676
_cell_length_c   10.30851676
_cell_angle_alpha   60.00000000
_cell_angle_beta   60.00000000
_cell_angle_gamma   60.00000000
_symmetry_Int_Tables_number   1
_chemical_formula_structural   LiEu2CBr3N2
_chemical_formula_sum   'Li4 Eu8 C4 Br12 N8'
_cell_volume   774.59296059
_cell_formula_units_Z   4
loop_
 _symmetry_equiv_pos_site_id
 _symmetry_equiv_pos_as_xyz
  1  'x, y, z'
loop_
 _atom_site_type_symbol
 _atom_site_label
 _atom_site_symmetry_multiplicity
 _atom_site_fract_x
 _atom_site_fract_y
 _atom_site_fract_z
 _atom_site_occupancy
  Li  Li0  1  0.62500000  0.12500000  0.12500000  1.0
  Li  Li1  1  0.12500000  0.62500000  1.12500000  1.0
  Li  Li2  1  0.12500000  0.12500000  0.62500000  1.0
  Li  Li3  1  1.12500000  0.12500000  0.12500000  1.0
  Eu  Eu4  1  1.40392549  0.40392549  -0.21177646  1.0
  Eu  Eu5  1  0.40392549  0.40392549  0.40392549  1.0
  Eu  Eu6  1  0.78822354  0.40392549  0.40392549  1.0
  Eu  Eu7  1  0.40392549  -0.21177646  0.40392549  1.0
  Eu  Eu8  1  0.84607451  0.84607451  -0.53822354  1.0
  Eu  Eu9  1  -0.15392549  0.84607451  0.84607451  1.0
  Eu  Eu10  1  -0.53822354  0.84607451  0.84607451  1.0
  Eu  Eu11  1  0.84607451  0.46177646  -0.15392549  1.0
  C  C12  1  0.62500000  0.12500000  0.62500000  1.0
  C  C13  1  1.12500000  0.62500000  -0.37500000  1.0
  C  C14  1  0.62500000  -0.37500000  0.62500000  1.0
  C  C15  1  -0.37500000  0.62500000  1.12500000  1.0
  Br  Br16  1  0.44672589  0.44672589  0.05327411  1.0
  Br  Br17  1  0.05327411  0.05327411  0.44672589  1.0
  Br  Br18  1  0.44672589  0.05327411  0.44672589  1.0
  Br  Br19  1  1.05327411  0.44672589  0.05327411  1.0
  Br  Br20  1  0.05327411  0.44672589  0.44672589  1.0
  Br  Br21  1  0.44672589  0.05327411  0.05327411  1.0
  Br  Br22  1  0.80327411  -0.19672589  0.19672589  1.0
  Br  Br23  1  1.19672589  0.19672589  -0.19672589  1.0
  Br  Br24  1  0.80327411  0.19672589  -0.19672589  1.0
  Br  Br25  1  0.19672589  -0.19672589  0.19672589  1.0
  Br  Br26  1  0.19672589  0.80327411  0.80327411  1.0
  Br  Br27  1  0.80327411  0.19672589  0.19672589  1.0
  N  N28  1  0.57610565  0.27168304  0.57610565  1.0
  N  N29  1  0.27168304  0.57610565  0.57610565  1.0
  N  N30  1  0.57610565  0.57610565  0.57610565  1.0
  N  N31  1  0.57610565  0.57610565  0.27168304  1.0
  N  N32  1  -0.32610565  0.97831696  0.67389435  1.0
  N  N33  1  -0.02168304  0.67389435  0.67389435  1.0
  N  N34  1  -0.32610565  0.67389435  0.67389435  1.0
  N  N35  1  -0.32610565  0.67389435  0.97831696  1.0
