# generated using pymatgen
data_Gd(CoB)4
_symmetry_space_group_name_H-M   'P 1'
_cell_length_a   5.01569670
_cell_length_b   5.01569670
_cell_length_c   7.00250063
_cell_angle_alpha   90.00000000
_cell_angle_beta   90.00000000
_cell_angle_gamma   90.00000000
_symmetry_Int_Tables_number   1
_chemical_formula_structural   Gd(CoB)4
_chemical_formula_sum   'Gd2 Co8 B8'
_cell_volume   176.16340268
_cell_formula_units_Z   2
loop_
 _symmetry_equiv_pos_site_id
 _symmetry_equiv_pos_as_xyz
  1  'x, y, z'
loop_
 _atom_site_type_symbol
 _atom_site_label
 _atom_site_symmetry_multiplicity
 _atom_site_fract_x
 _atom_site_fract_y
 _atom_site_fract_z
 _atom_site_occupancy
  Gd  Gd0  1  0.00000000  0.00000000  0.00000000  1.0
  Gd  Gd1  1  0.50000000  0.50000000  0.50000000  1.0
  Co  Co2  1  0.25425166  0.50000000  0.86454730  1.0
  Co  Co3  1  0.74574834  0.50000000  0.86454730  1.0
  Co  Co4  1  0.00000000  0.75425166  0.36454730  1.0
  Co  Co5  1  0.00000000  0.24574834  0.36454730  1.0
  Co  Co6  1  0.24574834  0.00000000  0.63545270  1.0
  Co  Co7  1  0.75425166  0.00000000  0.63545270  1.0
  Co  Co8  1  0.50000000  0.74574834  0.13545270  1.0
  Co  Co9  1  0.50000000  0.25425166  0.13545270  1.0
  B  B10  1  0.82532036  0.50000000  0.16021386  1.0
  B  B11  1  0.17467964  0.50000000  0.16021386  1.0
  B  B12  1  0.00000000  0.32532036  0.66021386  1.0
  B  B13  1  0.00000000  0.67467964  0.66021386  1.0
  B  B14  1  0.67467964  0.00000000  0.33978614  1.0
  B  B15  1  0.32532036  0.00000000  0.33978614  1.0
  B  B16  1  0.50000000  0.17467964  0.83978614  1.0
  B  B17  1  0.50000000  0.82532036  0.83978614  1.0
