# generated using pymatgen
data_Ba2Sn
_symmetry_space_group_name_H-M   'P 1'
_cell_length_a   8.80428201
_cell_length_b   5.67330477
_cell_length_c   10.73889982
_cell_angle_alpha   90.00000000
_cell_angle_beta   90.00000000
_cell_angle_gamma   90.00000000
_symmetry_Int_Tables_number   1
_chemical_formula_structural   Ba2Sn
_chemical_formula_sum   'Ba8 Sn4'
_cell_volume   536.40133571
_cell_formula_units_Z   4
loop_
 _symmetry_equiv_pos_site_id
 _symmetry_equiv_pos_as_xyz
  1  'x, y, z'
loop_
 _atom_site_type_symbol
 _atom_site_label
 _atom_site_symmetry_multiplicity
 _atom_site_fract_x
 _atom_site_fract_y
 _atom_site_fract_z
 _atom_site_occupancy
  Ba  Ba0  1  0.97800965  0.75000000  0.67847651  1.0
  Ba  Ba1  1  0.47800965  0.75000000  0.82152349  1.0
  Ba  Ba2  1  0.02199035  0.25000000  0.32152349  1.0
  Ba  Ba3  1  0.52199035  0.25000000  0.17847651  1.0
  Ba  Ba4  1  0.84614716  0.75000000  0.07830615  1.0
  Ba  Ba5  1  0.34614716  0.75000000  0.42169385  1.0
  Ba  Ba6  1  0.15385284  0.25000000  0.92169385  1.0
  Ba  Ba7  1  0.65385284  0.25000000  0.57830615  1.0
  Sn  Sn8  1  0.75225806  0.75000000  0.39509059  1.0
  Sn  Sn9  1  0.25225806  0.75000000  0.10490941  1.0
  Sn  Sn10  1  0.24774194  0.25000000  0.60490941  1.0
  Sn  Sn11  1  0.74774194  0.25000000  0.89509059  1.0
