# generated using pymatgen
data_GdBr3
_symmetry_space_group_name_H-M   'P 1'
_cell_length_a   8.33395303
_cell_length_b   8.33395303
_cell_length_c   8.33395303
_cell_angle_alpha   52.53023261
_cell_angle_beta   52.53023261
_cell_angle_gamma   52.53023261
_symmetry_Int_Tables_number   1
_chemical_formula_structural   GdBr3
_chemical_formula_sum   'Gd2 Br6'
_cell_volume   337.52922240
_cell_formula_units_Z   2
loop_
 _symmetry_equiv_pos_site_id
 _symmetry_equiv_pos_as_xyz
  1  'x, y, z'
loop_
 _atom_site_type_symbol
 _atom_site_label
 _atom_site_symmetry_multiplicity
 _atom_site_fract_x
 _atom_site_fract_y
 _atom_site_fract_z
 _atom_site_occupancy
  Gd  Gd0  1  0.16677716  0.16677716  0.16677716  1.0
  Gd  Gd1  1  0.83322284  -0.16677716  -0.16677716  1.0
  Br  Br2  1  0.42396686  0.05514613  -0.20671730  1.0
  Br  Br3  1  0.20671730  0.57603314  -0.05514613  1.0
  Br  Br4  1  0.94485387  0.20671730  -0.42396686  1.0
  Br  Br5  1  0.57603314  0.94485387  -0.79328270  1.0
  Br  Br6  1  0.79328270  -0.57603314  0.05514613  1.0
  Br  Br7  1  1.05514613  -0.20671730  -0.57603314  1.0
