# generated using pymatgen
data_Ta3N5
_symmetry_space_group_name_H-M   'P 1'
_cell_length_a   10.97615723
_cell_length_b   2.96332284
_cell_length_c   9.59141220
_cell_angle_alpha   90.00000000
_cell_angle_beta   90.00000000
_cell_angle_gamma   90.00000000
_symmetry_Int_Tables_number   1
_chemical_formula_structural   Ta3N5
_chemical_formula_sum   'Ta12 N20'
_cell_volume   311.96928980
_cell_formula_units_Z   4
loop_
 _symmetry_equiv_pos_site_id
 _symmetry_equiv_pos_as_xyz
  1  'x, y, z'
loop_
 _atom_site_type_symbol
 _atom_site_label
 _atom_site_symmetry_multiplicity
 _atom_site_fract_x
 _atom_site_fract_y
 _atom_site_fract_z
 _atom_site_occupancy
  Ta  Ta0  1  0.62590508  0.25000000  0.09041527  1.0
  Ta  Ta1  1  0.12590508  0.25000000  0.40958473  1.0
  Ta  Ta2  1  0.37409492  0.75000000  0.90958473  1.0
  Ta  Ta3  1  0.87409492  0.75000000  0.59041527  1.0
  Ta  Ta4  1  0.86714889  0.25000000  0.92254929  1.0
  Ta  Ta5  1  0.36714889  0.25000000  0.57745071  1.0
  Ta  Ta6  1  0.13285111  0.75000000  0.07745071  1.0
  Ta  Ta7  1  0.63285111  0.75000000  0.42254929  1.0
  Ta  Ta8  1  0.88357439  0.25000000  0.24880222  1.0
  Ta  Ta9  1  0.38357439  0.25000000  0.25119778  1.0
  Ta  Ta10  1  0.11642561  0.75000000  0.75119778  1.0
  Ta  Ta11  1  0.61642561  0.75000000  0.74880222  1.0
  N  N12  1  0.52447909  0.25000000  0.89065836  1.0
  N  N13  1  0.02447909  0.25000000  0.60934164  1.0
  N  N14  1  0.47552091  0.75000000  0.10934164  1.0
  N  N15  1  0.97552091  0.75000000  0.39065836  1.0
  N  N16  1  0.56882218  0.25000000  0.29510019  1.0
  N  N17  1  0.06882218  0.25000000  0.20489981  1.0
  N  N18  1  0.43117782  0.75000000  0.70489981  1.0
  N  N19  1  0.93117782  0.75000000  0.79510019  1.0
  N  N20  1  0.76157993  0.25000000  0.72247714  1.0
  N  N21  1  0.26157993  0.25000000  0.77752286  1.0
  N  N22  1  0.23842007  0.75000000  0.27752286  1.0
  N  N23  1  0.73842007  0.75000000  0.22247714  1.0
  N  N24  1  0.78482591  0.25000000  0.45318674  1.0
  N  N25  1  0.28482591  0.25000000  0.04681326  1.0
  N  N26  1  0.21517409  0.75000000  0.54681326  1.0
  N  N27  1  0.71517409  0.75000000  0.95318674  1.0
  N  N28  1  0.07452694  0.25000000  0.92017115  1.0
  N  N29  1  0.57452694  0.25000000  0.57982885  1.0
  N  N30  1  0.92547306  0.75000000  0.07982885  1.0
  N  N31  1  0.42547306  0.75000000  0.42017115  1.0
