# generated using pymatgen
data_CsIn3
_symmetry_space_group_name_H-M   'P 1'
_cell_length_a   9.99216316
_cell_length_b   9.99216316
_cell_length_c   9.99216316
_cell_angle_alpha   137.56043562
_cell_angle_beta   137.56043562
_cell_angle_gamma   61.57688309
_symmetry_Int_Tables_number   1
_chemical_formula_structural   CsIn3
_chemical_formula_sum   'Cs3 In9'
_cell_volume   449.10954000
_cell_formula_units_Z   3
loop_
 _symmetry_equiv_pos_site_id
 _symmetry_equiv_pos_as_xyz
  1  'x, y, z'
loop_
 _atom_site_type_symbol
 _atom_site_label
 _atom_site_symmetry_multiplicity
 _atom_site_fract_x
 _atom_site_fract_y
 _atom_site_fract_z
 _atom_site_occupancy
  Cs  Cs0  1  0.12705240  0.62705240  0.50000000  1.0
  Cs  Cs1  1  0.37294760  0.87294760  0.50000000  1.0
  Cs  Cs2  1  0.50000000  0.50000000  1.00000000  1.0
  In  In3  1  0.41140335  0.10835630  0.30304705  1.0
  In  In4  1  0.89164370  0.58859665  0.69695295  1.0
  In  In5  1  0.89164370  1.19469075  1.30304705  1.0
  In  In6  1  0.80530925  0.10835630  0.69695295  1.0
  In  In7  1  0.00000000  0.00000000  0.00000000  1.0
  In  In8  1  0.48653028  0.27938984  0.20714044  1.0
  In  In9  1  0.72061016  0.51346972  0.79285956  1.0
  In  In10  1  0.72061016  0.92775059  1.20714044  1.0
  In  In11  1  1.07224941  0.27938984  0.79285956  1.0
