# generated using pymatgen
data_RbSbO2
_symmetry_space_group_name_H-M   'P 1'
_cell_length_a   6.19389796
_cell_length_b   6.19389796
_cell_length_c   5.70864563
_cell_angle_alpha   68.56510824
_cell_angle_beta   111.43489176
_cell_angle_gamma   81.99826383
_symmetry_Int_Tables_number   1
_chemical_formula_structural   RbSbO2
_chemical_formula_sum   'Rb2 Sb2 O4'
_cell_volume   180.11289260
_cell_formula_units_Z   2
loop_
 _symmetry_equiv_pos_site_id
 _symmetry_equiv_pos_as_xyz
  1  'x, y, z'
loop_
 _atom_site_type_symbol
 _atom_site_label
 _atom_site_symmetry_multiplicity
 _atom_site_fract_x
 _atom_site_fract_y
 _atom_site_fract_z
 _atom_site_occupancy
  Rb  Rb0  1  0.85725966  -0.14274034  0.75000000  1.0
  Rb  Rb1  1  1.14274034  0.14274034  0.25000000  1.0
  Sb  Sb2  1  1.41509119  0.41509119  0.75000000  1.0
  Sb  Sb3  1  0.58490881  -0.41509119  0.25000000  1.0
  O  O4  1  0.36991925  -0.27464849  0.78638733  1.0
  O  O5  1  1.27464849  0.63008075  0.28638733  1.0
  O  O6  1  0.72535151  -0.63008075  0.71361267  1.0
  O  O7  1  1.63008075  0.27464849  0.21361267  1.0
