# generated using pymatgen
data_CaNiBP2H3O10
_symmetry_space_group_name_H-M   'P 1'
_cell_length_a   6.69187132
_cell_length_b   6.69187132
_cell_length_c   9.21395932
_cell_angle_alpha   70.30882926
_cell_angle_beta   109.69117074
_cell_angle_gamma   101.83706581
_symmetry_Int_Tables_number   1
_chemical_formula_structural   CaNiBP2H3O10
_chemical_formula_sum   'Ca2 Ni2 B2 P4 H6 O20'
_cell_volume   363.80788398
_cell_formula_units_Z   2
loop_
 _symmetry_equiv_pos_site_id
 _symmetry_equiv_pos_as_xyz
  1  'x, y, z'
loop_
 _atom_site_type_symbol
 _atom_site_label
 _atom_site_symmetry_multiplicity
 _atom_site_fract_x
 _atom_site_fract_y
 _atom_site_fract_z
 _atom_site_occupancy
  Ca  Ca0  1  0.87542064  -0.12457936  0.75000000  1.0
  Ca  Ca1  1  1.12457936  0.12457936  0.25000000  1.0
  Ni  Ni2  1  0.50000000  -0.00000000  -0.00000000  1.0
  Ni  Ni3  1  1.00000000  -0.50000000  0.50000000  1.0
  B  B4  1  1.47120455  0.47120455  0.75000000  1.0
  B  B5  1  0.52879545  -0.47120455  0.25000000  1.0
  P  P6  1  0.28189330  -0.15465659  0.67319137  1.0
  P  P7  1  1.15465659  0.71810670  0.17319137  1.0
  P  P8  1  0.84534341  -0.71810670  0.82680863  1.0
  P  P9  1  1.71810670  0.15465659  0.32680863  1.0
  H  H10  1  1.30339263  0.33312629  0.91368051  1.0
  H  H11  1  0.66687371  -0.30339263  0.41368051  1.0
  H  H12  1  1.33312629  0.30339263  0.58631949  1.0
  H  H13  1  0.69660737  -0.33312629  0.08631949  1.0
  H  H14  1  0.50000000  -0.00000000  0.50000000  1.0
  H  H15  1  1.00000000  -0.50000000  -0.00000000  1.0
  O  O16  1  0.46949213  -0.30190923  0.74394311  1.0
  O  O17  1  1.30190923  0.53050787  0.24394311  1.0
  O  O18  1  0.69809077  -0.53050787  0.75605689  1.0
  O  O19  1  1.53050787  0.30190923  0.25605689  1.0
  O  O20  1  0.65520452  -0.02743113  0.47193895  1.0
  O  O21  1  1.02743113  0.34479548  0.97193895  1.0
  O  O22  1  0.97256887  -0.34479548  0.02806105  1.0
  O  O23  1  1.34479548  0.02743113  0.52806105  1.0
  O  O24  1  1.72954818  0.05921896  0.88525108  1.0
  O  O25  1  0.94078104  -0.72954818  0.38525108  1.0
  O  O26  1  1.05921896  0.72954818  0.61474892  1.0
  O  O27  1  0.27045182  -0.05921896  0.11474892  1.0
  O  O28  1  0.26570567  -0.06107222  0.79913728  1.0
  O  O29  1  1.06107222  0.73429433  0.29913728  1.0
  O  O30  1  0.93892778  -0.73429433  0.70086272  1.0
  O  O31  1  1.73429433  0.06107222  0.20086272  1.0
  O  O32  1  1.43848391  0.32197485  0.89937641  1.0
  O  O33  1  0.67802515  -0.43848391  0.39937641  1.0
  O  O34  1  1.32197485  0.43848391  0.60062359  1.0
  O  O35  1  0.56151609  -0.32197485  0.10062359  1.0
