# generated using pymatgen
data_NiP2(H4O5)2
_symmetry_space_group_name_H-M   'P 1'
_cell_length_a   5.33442273
_cell_length_b   9.92525607
_cell_length_c   8.68236774
_cell_angle_alpha   90.00000000
_cell_angle_beta   124.10078942
_cell_angle_gamma   90.00000000
_symmetry_Int_Tables_number   1
_chemical_formula_structural   NiP2(H4O5)2
_chemical_formula_sum   'Ni2 P4 H16 O20'
_cell_volume   380.64949302
_cell_formula_units_Z   2
loop_
 _symmetry_equiv_pos_site_id
 _symmetry_equiv_pos_as_xyz
  1  'x, y, z'
loop_
 _atom_site_type_symbol
 _atom_site_label
 _atom_site_symmetry_multiplicity
 _atom_site_fract_x
 _atom_site_fract_y
 _atom_site_fract_z
 _atom_site_occupancy
  Ni  Ni0  1  0.00000000  0.50000000  0.50000000  1.0
  Ni  Ni1  1  0.00000000  0.00000000  0.00000000  1.0
  P  P2  1  0.90853380  0.71679256  0.16347584  1.0
  P  P3  1  0.90853380  0.78320744  0.66347584  1.0
  P  P4  1  0.09146620  0.21679256  0.33652416  1.0
  P  P5  1  0.09146620  0.28320744  0.83652416  1.0
  H  H6  1  0.87685597  0.22393454  0.48779490  1.0
  H  H7  1  0.87685597  0.27606546  0.98779490  1.0
  H  H8  1  0.12314403  0.72393454  0.01220510  1.0
  H  H9  1  0.12314403  0.77606546  0.51220510  1.0
  H  H10  1  0.55248030  0.89052765  0.40209288  1.0
  H  H11  1  0.55248030  0.60947235  0.90209288  1.0
  H  H12  1  0.44751970  0.39052765  0.09790712  1.0
  H  H13  1  0.44751970  0.10947235  0.59790712  1.0
  H  H14  1  0.57093618  0.05113359  0.26245017  1.0
  H  H15  1  0.57093618  0.44886641  0.76245017  1.0
  H  H16  1  0.42906382  0.55113359  0.23754983  1.0
  H  H17  1  0.42906382  0.94886641  0.73754983  1.0
  H  H18  1  0.41819402  0.42543514  0.34166575  1.0
  H  H19  1  0.41819402  0.07456486  0.84166575  1.0
  H  H20  1  0.58180598  0.92543514  0.15833425  1.0
  H  H21  1  0.58180598  0.57456486  0.65833425  1.0
  O  O22  1  0.98344039  0.17071315  0.13982710  1.0
  O  O23  1  0.98344039  0.32928685  0.63982710  1.0
  O  O24  1  0.01655961  0.67071315  0.36017290  1.0
  O  O25  1  0.01655961  0.82928685  0.86017290  1.0
  O  O26  1  0.84940200  0.16941713  0.37814627  1.0
  O  O27  1  0.84940200  0.33058287  0.87814627  1.0
  O  O28  1  0.15059800  0.66941713  0.12185373  1.0
  O  O29  1  0.15059800  0.83058287  0.62185373  1.0
  O  O30  1  0.86410560  0.87007512  0.13498557  1.0
  O  O31  1  0.86410560  0.62992488  0.63498557  1.0
  O  O32  1  0.13589440  0.37007512  0.36501443  1.0
  O  O33  1  0.13589440  0.12992488  0.86501443  1.0
  O  O34  1  0.53913177  0.46533249  0.29635205  1.0
  O  O35  1  0.53913177  0.03466751  0.79635205  1.0
  O  O36  1  0.46086823  0.96533249  0.20364795  1.0
  O  O37  1  0.46086823  0.53466751  0.70364795  1.0
  O  O38  1  0.39881232  0.13996893  0.47348634  1.0
  O  O39  1  0.39881232  0.36003107  0.97348634  1.0
  O  O40  1  0.60118768  0.63996893  0.02651366  1.0
  O  O41  1  0.60118768  0.86003107  0.52651366  1.0
