# generated using pymatgen
data_K2CaH2S2O9
_symmetry_space_group_name_H-M   'P 1'
_cell_length_a   6.34327813
_cell_length_b   7.19338640
_cell_length_c   9.93141030
_cell_angle_alpha   90.00000000
_cell_angle_beta   103.96002624
_cell_angle_gamma   90.00000000
_symmetry_Int_Tables_number   1
_chemical_formula_structural   K2CaH2S2O9
_chemical_formula_sum   'K4 Ca2 H4 S4 O18'
_cell_volume   439.78217139
_cell_formula_units_Z   2
loop_
 _symmetry_equiv_pos_site_id
 _symmetry_equiv_pos_as_xyz
  1  'x, y, z'
loop_
 _atom_site_type_symbol
 _atom_site_label
 _atom_site_symmetry_multiplicity
 _atom_site_fract_x
 _atom_site_fract_y
 _atom_site_fract_z
 _atom_site_occupancy
  K  K0  1  0.81321636  0.99437829  0.16555565  1.0
  K  K1  1  0.81321636  0.50562171  0.16555565  1.0
  K  K2  1  0.18678364  0.49437829  0.83444435  1.0
  K  K3  1  0.18678364  0.00562171  0.83444435  1.0
  Ca  Ca4  1  0.66529484  0.75000000  0.53333407  1.0
  Ca  Ca5  1  0.33470516  0.25000000  0.46666593  1.0
  H  H6  1  0.59071261  0.36054360  0.74730954  1.0
  H  H7  1  0.59071261  0.13945640  0.74730954  1.0
  H  H8  1  0.40928739  0.86054360  0.25269046  1.0
  H  H9  1  0.40928739  0.63945640  0.25269046  1.0
  S  S10  1  0.72441504  0.75000000  0.86014555  1.0
  S  S11  1  0.27558496  0.25000000  0.13985445  1.0
  S  S12  1  0.16066535  0.75000000  0.50876587  1.0
  S  S13  1  0.83933465  0.25000000  0.49123413  1.0
  O  O14  1  0.71398080  0.91719072  0.76734637  1.0
  O  O15  1  0.71398080  0.58280928  0.76734637  1.0
  O  O16  1  0.28601920  0.41719072  0.23265363  1.0
  O  O17  1  0.28601920  0.08280928  0.23265363  1.0
  O  O18  1  0.69377802  0.41656992  0.48104505  1.0
  O  O19  1  0.69377802  0.08343008  0.48104505  1.0
  O  O20  1  0.30622198  0.91656992  0.51895495  1.0
  O  O21  1  0.30622198  0.58343008  0.51895495  1.0
  O  O22  1  0.98627599  0.75000000  0.37879773  1.0
  O  O23  1  0.01372401  0.25000000  0.62120227  1.0
  O  O24  1  0.93534015  0.75000000  0.96775234  1.0
  O  O25  1  0.06465985  0.25000000  0.03224766  1.0
  O  O26  1  0.54014081  0.75000000  0.92963542  1.0
  O  O27  1  0.45985919  0.25000000  0.07036458  1.0
  O  O28  1  0.50343278  0.75000000  0.27845103  1.0
  O  O29  1  0.49656722  0.25000000  0.72154897  1.0
  O  O30  1  0.05423626  0.75000000  0.62854026  1.0
  O  O31  1  0.94576374  0.25000000  0.37145974  1.0
