# generated using pymatgen
data_Sr3LiNbO6
_symmetry_space_group_name_H-M   'P 1'
_cell_length_a   6.82457251
_cell_length_b   6.82457251
_cell_length_c   6.82457251
_cell_angle_alpha   92.66415132
_cell_angle_beta   92.66415132
_cell_angle_gamma   92.66415132
_symmetry_Int_Tables_number   1
_chemical_formula_structural   Sr3LiNbO6
_chemical_formula_sum   'Sr6 Li2 Nb2 O12'
_cell_volume   316.78923669
_cell_formula_units_Z   2
loop_
 _symmetry_equiv_pos_site_id
 _symmetry_equiv_pos_as_xyz
  1  'x, y, z'
loop_
 _atom_site_type_symbol
 _atom_site_label
 _atom_site_symmetry_multiplicity
 _atom_site_fract_x
 _atom_site_fract_y
 _atom_site_fract_z
 _atom_site_occupancy
  Sr  Sr0  1  0.89859306  1.25000000  -0.39859306  1.0
  Sr  Sr1  1  1.39859306  0.10140694  -0.25000000  1.0
  Sr  Sr2  1  0.75000000  0.39859306  0.10140694  1.0
  Sr  Sr3  1  1.25000000  0.60140694  -0.10140694  1.0
  Sr  Sr4  1  1.10140694  -0.25000000  0.39859306  1.0
  Sr  Sr5  1  0.60140694  0.89859306  0.25000000  1.0
  Li  Li6  1  0.25000000  0.25000000  0.25000000  1.0
  Li  Li7  1  0.75000000  0.75000000  0.75000000  1.0
  Nb  Nb8  1  0.50000000  0.50000000  0.50000000  1.0
  Nb  Nb9  1  0.00000000  0.00000000  0.00000000  1.0
  O  O10  1  1.21881462  0.42128059  -0.45301141  1.0
  O  O11  1  0.71881462  1.04698859  -0.07871941  1.0
  O  O12  1  0.95301141  0.07871941  0.28118538  1.0
  O  O13  1  1.45301141  -0.21881462  0.57871941  1.0
  O  O14  1  1.57871941  0.45301141  -0.21881462  1.0
  O  O15  1  1.07871941  0.28118538  -0.04698859  1.0
  O  O16  1  0.78118538  0.57871941  0.45301141  1.0
  O  O17  1  1.28118538  -0.04698859  0.07871941  1.0
  O  O18  1  0.54698859  1.21881462  -0.57871941  1.0
  O  O19  1  1.04698859  0.92128059  -0.28118538  1.0
  O  O20  1  0.92128059  0.71881462  0.04698859  1.0
  O  O21  1  0.42128059  0.54698859  0.21881462  1.0
