# generated using pymatgen
data_Sc2AlSi2
_symmetry_space_group_name_H-M   'P 1'
_cell_length_a   6.60607770
_cell_length_b   6.60607770
_cell_length_c   3.99872556
_cell_angle_alpha   90.00000000
_cell_angle_beta   90.00000000
_cell_angle_gamma   90.00000000
_symmetry_Int_Tables_number   1
_chemical_formula_structural   Sc2AlSi2
_chemical_formula_sum   'Sc4 Al2 Si4'
_cell_volume   174.50543319
_cell_formula_units_Z   2
loop_
 _symmetry_equiv_pos_site_id
 _symmetry_equiv_pos_as_xyz
  1  'x, y, z'
loop_
 _atom_site_type_symbol
 _atom_site_label
 _atom_site_symmetry_multiplicity
 _atom_site_fract_x
 _atom_site_fract_y
 _atom_site_fract_z
 _atom_site_occupancy
  Sc  Sc0  1  0.32433068  0.17566932  0.50000000  1.0
  Sc  Sc1  1  0.82433068  0.32433068  0.50000000  1.0
  Sc  Sc2  1  0.67566932  0.82433068  0.50000000  1.0
  Sc  Sc3  1  0.17566932  0.67566932  0.50000000  1.0
  Al  Al4  1  0.50000000  0.50000000  0.00000000  1.0
  Al  Al5  1  0.00000000  0.00000000  0.00000000  1.0
  Si  Si6  1  0.87366589  0.62633411  0.00000000  1.0
  Si  Si7  1  0.37366589  0.87366589  0.00000000  1.0
  Si  Si8  1  0.12633411  0.37366589  0.00000000  1.0
  Si  Si9  1  0.62633411  0.12633411  0.00000000  1.0
