# generated using pymatgen
data_BeAlSiO5
_symmetry_space_group_name_H-M   'P 1'
_cell_length_a   4.51026849
_cell_length_b   15.36951404
_cell_length_c   5.04677553
_cell_angle_alpha   90.00000000
_cell_angle_beta   100.57978039
_cell_angle_gamma   90.00000000
_symmetry_Int_Tables_number   1
_chemical_formula_structural   BeAlSiO5
_chemical_formula_sum   'Be4 Al4 Si4 O20'
_cell_volume   343.89837847
_cell_formula_units_Z   4
loop_
 _symmetry_equiv_pos_site_id
 _symmetry_equiv_pos_as_xyz
  1  'x, y, z'
loop_
 _atom_site_type_symbol
 _atom_site_label
 _atom_site_symmetry_multiplicity
 _atom_site_fract_x
 _atom_site_fract_y
 _atom_site_fract_z
 _atom_site_occupancy
  Si  Si0  1  0.95870757  0.90101953  0.33278972  1.0
  Si  Si1  1  0.95870757  0.59898047  0.83278972  1.0
  Si  Si2  1  0.04129243  0.40101953  0.16721028  1.0
  Si  Si3  1  0.04129243  0.09898047  0.66721028  1.0
  Be  Be4  1  -0.05996382  0.20967425  0.34538725  1.0
  Be  Be5  1  -0.05996382  0.29032575  0.84538725  1.0
  Be  Be6  1  0.05996382  0.70967425  0.15461275  1.0
  Be  Be7  1  0.05996382  0.79032575  0.65461275  1.0
  O  O8  1  0.72500026  0.45644345  0.09676092  1.0
  O  O9  1  0.72500026  0.04355655  0.59676092  1.0
  O  O10  1  0.27499974  0.95644345  0.40323908  1.0
  O  O11  1  0.27499974  0.54355655  0.90323908  1.0
  O  O12  1  0.72527826  0.95741656  0.11287708  1.0
  O  O13  1  0.72527826  0.54258344  0.61287708  1.0
  O  O14  1  0.27472174  0.45741656  0.38712292  1.0
  O  O15  1  0.27472174  0.04258344  0.88712292  1.0
  O  O16  1  0.17756198  0.12081258  0.38113395  1.0
  O  O17  1  0.17756198  0.37918742  0.88113395  1.0
  O  O18  1  0.82243802  0.62081258  0.11886605  1.0
  O  O19  1  0.82243802  0.87918742  0.61886605  1.0
  O  O20  1  0.69312473  0.14649031  0.17986083  1.0
  O  O21  1  0.69312473  0.35350969  0.67986083  1.0
  O  O22  1  0.30687527  0.64649031  0.32013917  1.0
  O  O23  1  0.30687527  0.85350969  0.82013917  1.0
  O  O24  1  0.97311134  0.29648580  0.19709969  1.0
  O  O25  1  0.97311134  0.20351420  0.69709969  1.0
  O  O26  1  0.02688866  0.79648580  0.30290031  1.0
  O  O27  1  0.02688866  0.70351420  0.80290031  1.0
  Al  Al28  1  0.46569279  0.05079674  0.24815844  1.0
  Al  Al29  1  0.46569279  0.44920326  0.74815844  1.0
  Al  Al30  1  0.53430721  0.55079674  0.25184156  1.0
  Al  Al31  1  0.53430721  0.94920326  0.75184156  1.0
