# generated using pymatgen
data_Co3P2(H2O5)2
_symmetry_space_group_name_H-M   'P 1'
_cell_length_a   7.58755561
_cell_length_b   7.51066783
_cell_length_c   7.46557519
_cell_angle_alpha   90.00000000
_cell_angle_beta   117.45864612
_cell_angle_gamma   90.00000000
_symmetry_Int_Tables_number   1
_chemical_formula_structural   Co3P2(H2O5)2
_chemical_formula_sum   'Co6 P4 H8 O20'
_cell_volume   377.51626880
_cell_formula_units_Z   2
loop_
 _symmetry_equiv_pos_site_id
 _symmetry_equiv_pos_as_xyz
  1  'x, y, z'
loop_
 _atom_site_type_symbol
 _atom_site_label
 _atom_site_symmetry_multiplicity
 _atom_site_fract_x
 _atom_site_fract_y
 _atom_site_fract_z
 _atom_site_occupancy
  Co  Co0  1  -0.00000000  0.50000000  0.50000000  1.0
  Co  Co1  1  0.00000000  0.00000000  0.00000000  1.0
  Co  Co2  1  0.75109095  0.27100378  0.01954871  1.0
  Co  Co3  1  0.75109095  0.22899622  0.51954871  1.0
  Co  Co4  1  0.24890905  0.77100378  0.48045129  1.0
  Co  Co5  1  0.24890905  0.72899622  0.98045129  1.0
  P  P6  1  0.76328049  0.88356363  0.26220084  1.0
  P  P7  1  0.76328049  0.61643637  0.76220084  1.0
  P  P8  1  0.23671951  0.38356363  0.23779916  1.0
  P  P9  1  0.23671951  0.11643637  0.73779916  1.0
  O  O10  1  0.66962354  0.97496305  0.38392819  1.0
  O  O11  1  0.66962354  0.52503695  0.88392819  1.0
  O  O12  1  0.33037646  0.47496305  0.11607181  1.0
  O  O13  1  0.33037646  0.02503695  0.61607181  1.0
  O  O14  1  0.41245760  0.25663175  0.39584826  1.0
  O  O15  1  0.41245760  0.24336825  0.89584826  1.0
  O  O16  1  0.58754240  0.75663175  0.10415174  1.0
  O  O17  1  0.58754240  0.74336825  0.60415174  1.0
  O  O18  1  0.75050025  0.37199418  0.27519754  1.0
  O  O19  1  0.75050025  0.12800582  0.77519754  1.0
  O  O20  1  0.24949975  0.87199418  0.22480246  1.0
  O  O21  1  0.24949975  0.62800582  0.72480246  1.0
  O  O22  1  0.82105327  0.01825119  0.14283247  1.0
  O  O23  1  0.82105327  0.48174881  0.64283247  1.0
  O  O24  1  0.17894673  0.51825119  0.35716753  1.0
  O  O25  1  0.17894673  0.98174881  0.85716753  1.0
  O  O26  1  0.94080655  0.76401258  0.39255691  1.0
  O  O27  1  0.94080655  0.73598742  0.89255691  1.0
  O  O28  1  0.05919345  0.26401258  0.10744309  1.0
  O  O29  1  0.05919345  0.23598742  0.60744309  1.0
  H  H30  1  0.63162003  0.44557954  0.23481586  1.0
  H  H31  1  0.63162003  0.05442046  0.73481586  1.0
  H  H32  1  0.36837997  0.94557954  0.26518414  1.0
  H  H33  1  0.36837997  0.55442046  0.76518414  1.0
  H  H34  1  0.36781318  0.17233588  0.47345139  1.0
  H  H35  1  0.36781318  0.32766412  0.97345139  1.0
  H  H36  1  0.63218682  0.67233588  0.02654861  1.0
  H  H37  1  0.63218682  0.82766412  0.52654861  1.0
