# generated using pymatgen
data_NaS2N(O2F)2
_symmetry_space_group_name_H-M   'P 1'
_cell_length_a   7.69532613
_cell_length_b   9.28299401
_cell_length_c   9.22123296
_cell_angle_alpha   90.00000000
_cell_angle_beta   106.87098147
_cell_angle_gamma   90.00000000
_symmetry_Int_Tables_number   1
_chemical_formula_structural   NaS2N(O2F)2
_chemical_formula_sum   'Na4 S8 N4 O16 F8'
_cell_volume   630.37385727
_cell_formula_units_Z   4
loop_
 _symmetry_equiv_pos_site_id
 _symmetry_equiv_pos_as_xyz
  1  'x, y, z'
loop_
 _atom_site_type_symbol
 _atom_site_label
 _atom_site_symmetry_multiplicity
 _atom_site_fract_x
 _atom_site_fract_y
 _atom_site_fract_z
 _atom_site_occupancy
  Na  Na0  1  0.74913644  0.98245188  0.06281752  1.0
  Na  Na1  1  0.74913644  0.51754812  0.56281752  1.0
  Na  Na2  1  0.25086356  0.48245188  0.43718248  1.0
  Na  Na3  1  0.25086356  0.01754812  0.93718248  1.0
  S  S4  1  0.86743756  0.22756735  0.38256149  1.0
  S  S5  1  0.86743756  0.27243265  0.88256149  1.0
  S  S6  1  0.13256244  0.72756735  0.11743851  1.0
  S  S7  1  0.13256244  0.77243265  0.61743851  1.0
  S  S8  1  0.48690819  0.22369343  0.27039825  1.0
  S  S9  1  0.48690819  0.27630657  0.77039825  1.0
  S  S10  1  0.51309181  0.72369343  0.22960175  1.0
  S  S11  1  0.51309181  0.77630657  0.72960175  1.0
  N  N12  1  0.67303027  0.29922725  0.35740980  1.0
  N  N13  1  0.67303027  0.20077275  0.85740980  1.0
  N  N14  1  0.32696973  0.79922725  0.14259020  1.0
  N  N15  1  0.32696973  0.70077275  0.64259020  1.0
  O  O16  1  -0.00038846  0.33835539  0.44527784  1.0
  O  O17  1  -0.00038846  0.16164461  0.94527784  1.0
  O  O18  1  1.00038846  0.83835539  0.05472216  1.0
  O  O19  1  1.00038846  0.66164461  0.55472216  1.0
  O  O20  1  0.89168478  0.13762961  0.26247711  1.0
  O  O21  1  0.89168478  0.36237039  0.76247711  1.0
  O  O22  1  0.10831522  0.63762961  0.23752289  1.0
  O  O23  1  0.10831522  0.86237039  0.73752289  1.0
  O  O24  1  0.48645407  0.14406496  0.13467185  1.0
  O  O25  1  0.48645407  0.35593504  0.63467185  1.0
  O  O26  1  0.51354593  0.64406496  0.36532815  1.0
  O  O27  1  0.51354593  0.85593504  0.86532815  1.0
  O  O28  1  0.34170665  0.32404243  0.26222322  1.0
  O  O29  1  0.34170665  0.17595757  0.76222322  1.0
  O  O30  1  0.65829335  0.82404243  0.23777678  1.0
  O  O31  1  0.65829335  0.67595757  0.73777678  1.0
  F  F32  1  0.88138164  0.38143274  0.02065234  1.0
  F  F33  1  0.88138164  0.11856726  0.52065234  1.0
  F  F34  1  0.11861836  0.88143274  0.47934766  1.0
  F  F35  1  0.11861836  0.61856726  0.97934766  1.0
  F  F36  1  0.46326032  0.10036325  0.38572407  1.0
  F  F37  1  0.46326032  0.39963675  0.88572407  1.0
  F  F38  1  0.53673968  0.60036325  0.11427593  1.0
  F  F39  1  0.53673968  0.89963675  0.61427593  1.0
