# generated using pymatgen
data_H4CN6O
_symmetry_space_group_name_H-M   'P 1'
_cell_length_a   4.20159141
_cell_length_b   8.13692081
_cell_length_c   13.10861080
_cell_angle_alpha   90.00000000
_cell_angle_beta   91.39711047
_cell_angle_gamma   90.00000000
_symmetry_Int_Tables_number   1
_chemical_formula_structural   H4CN6O
_chemical_formula_sum   'H16 C4 N24 O4'
_cell_volume   448.02417481
_cell_formula_units_Z   4
loop_
 _symmetry_equiv_pos_site_id
 _symmetry_equiv_pos_as_xyz
  1  'x, y, z'
loop_
 _atom_site_type_symbol
 _atom_site_label
 _atom_site_symmetry_multiplicity
 _atom_site_fract_x
 _atom_site_fract_y
 _atom_site_fract_z
 _atom_site_occupancy
  H  H0  1  0.66391343  0.57710008  0.71979762  1.0
  H  H1  1  0.66391343  0.92289992  0.21979762  1.0
  H  H2  1  0.33608657  0.07710008  0.78020238  1.0
  H  H3  1  0.33608657  0.42289992  0.28020238  1.0
  H  H4  1  0.68713271  0.42045892  0.80446394  1.0
  H  H5  1  0.68713271  0.07954108  0.30446394  1.0
  H  H6  1  0.31286729  0.92045892  0.69553606  1.0
  H  H7  1  0.31286729  0.57954108  0.19553606  1.0
  H  H8  1  0.61290469  0.92770485  0.78516750  1.0
  H  H9  1  0.61290469  0.57229515  0.28516750  1.0
  H  H10  1  0.38709531  0.42770485  0.71483250  1.0
  H  H11  1  0.38709531  0.07229515  0.21483250  1.0
  H  H12  1  0.38941152  0.56458751  0.81234841  1.0
  H  H13  1  0.38941152  0.93541249  0.31234841  1.0
  H  H14  1  0.61058848  0.06458751  0.68765159  1.0
  H  H15  1  0.61058848  0.43541249  0.18765159  1.0
  C  C16  1  0.78317345  0.84638924  0.99173707  1.0
  C  C17  1  0.78317345  0.65361076  0.49173707  1.0
  C  C18  1  0.21682655  0.34638924  0.50826293  1.0
  C  C19  1  0.21682655  0.15361076  0.00826293  1.0
  N  N20  1  0.97081314  0.75002813  0.55526400  1.0
  N  N21  1  0.97081314  0.74997187  0.05526400  1.0
  N  N22  1  0.02918686  0.25002813  0.94473600  1.0
  N  N23  1  0.02918686  0.24997187  0.44473600  1.0
  N  N24  1  0.91433546  0.19697593  0.59915786  1.0
  N  N25  1  0.91433546  0.30302407  0.09915786  1.0
  N  N26  1  0.08566454  0.69697593  0.90084214  1.0
  N  N27  1  0.08566454  0.80302407  0.40084214  1.0
  N  N28  1  0.85800442  0.81110304  0.89466094  1.0
  N  N29  1  0.85800442  0.68889696  0.39466094  1.0
  N  N30  1  0.14199558  0.31110304  0.60533906  1.0
  N  N31  1  0.14199558  0.18889696  0.10533906  1.0
  N  N32  1  0.84079772  0.34150070  1.00332262  1.0
  N  N33  1  0.84079772  0.15849930  0.50332262  1.0
  N  N34  1  0.15920228  0.84150070  0.49667738  1.0
  N  N35  1  0.15920228  0.65849930  -0.00332262  1.0
  N  N36  1  0.57646036  0.54485860  0.53269021  1.0
  N  N37  1  0.57646036  0.95514140  0.03269021  1.0
  N  N38  1  0.42353964  0.04485860  0.96730979  1.0
  N  N39  1  0.42353964  0.45514140  0.46730979  1.0
  N  N40  1  0.46743094  0.99758928  0.73616432  1.0
  N  N41  1  0.46743094  0.50241072  0.23616432  1.0
  N  N42  1  0.53256906  0.49758928  0.76383568  1.0
  N  N43  1  0.53256906  0.00241072  0.26383568  1.0
  O  O44  1  0.97939229  0.75673867  0.65330585  1.0
  O  O45  1  0.97939229  0.74326133  0.15330585  1.0
  O  O46  1  0.02060771  0.25673867  0.84669415  1.0
  O  O47  1  0.02060771  0.24326133  0.34669415  1.0
