# generated using pymatgen
data_PbWO4
_symmetry_space_group_name_H-M   'P 1'
_cell_length_a   5.70436935
_cell_length_b   5.07598795
_cell_length_c   13.93191129
_cell_angle_alpha   90.00000000
_cell_angle_beta   109.67375890
_cell_angle_gamma   90.00000000
_symmetry_Int_Tables_number   1
_chemical_formula_structural   PbWO4
_chemical_formula_sum   'Pb4 W4 O16'
_cell_volume   379.85410544
_cell_formula_units_Z   4
loop_
 _symmetry_equiv_pos_site_id
 _symmetry_equiv_pos_as_xyz
  1  'x, y, z'
loop_
 _atom_site_type_symbol
 _atom_site_label
 _atom_site_symmetry_multiplicity
 _atom_site_fract_x
 _atom_site_fract_y
 _atom_site_fract_z
 _atom_site_occupancy
  Pb  Pb0  1  0.67892481  0.20681322  0.15206982  1.0
  Pb  Pb1  1  0.67892481  0.29318678  0.65206982  1.0
  Pb  Pb2  1  0.32107519  0.70681322  0.34793018  1.0
  Pb  Pb3  1  0.32107519  0.79318678  0.84793018  1.0
  W  W4  1  0.88495928  0.24720011  0.42307233  1.0
  W  W5  1  0.88495928  0.25279989  0.92307233  1.0
  W  W6  1  0.11504072  0.74720011  0.07692767  1.0
  W  W7  1  0.11504072  0.75279989  0.57692767  1.0
  O  O8  1  0.97594895  0.37908697  0.31833272  1.0
  O  O9  1  0.97594895  0.12091303  0.81833272  1.0
  O  O10  1  0.02405105  0.87908697  0.18166728  1.0
  O  O11  1  0.02405105  0.62091303  0.68166728  1.0
  O  O12  1  0.88884128  0.44228137  0.05683629  1.0
  O  O13  1  0.88884128  0.05771863  0.55683629  1.0
  O  O14  1  0.11115872  0.94228137  0.44316371  1.0
  O  O15  1  0.11115872  0.55771863  0.94316371  1.0
  O  O16  1  0.76924092  0.95792065  0.97522710  1.0
  O  O17  1  0.76924092  0.54207935  0.47522710  1.0
  O  O18  1  0.23075908  0.45792065  0.52477290  1.0
  O  O19  1  0.23075908  0.04207935  0.02477290  1.0
  O  O20  1  0.59267737  0.11382173  0.34492558  1.0
  O  O21  1  0.59267737  0.38617827  0.84492558  1.0
  O  O22  1  0.40732263  0.61382173  0.15507442  1.0
  O  O23  1  0.40732263  0.88617827  0.65507442  1.0
