# generated using pymatgen
data_TlSbO3
_symmetry_space_group_name_H-M   'P 1'
_cell_length_a   5.42043932
_cell_length_b   5.42043932
_cell_length_c   16.07827716
_cell_angle_alpha   90.00000000
_cell_angle_beta   90.00000000
_cell_angle_gamma   120.00000000
_symmetry_Int_Tables_number   1
_chemical_formula_structural   TlSbO3
_chemical_formula_sum   'Tl4 Sb4 O12'
_cell_volume   409.10907805
_cell_formula_units_Z   4
loop_
 _symmetry_equiv_pos_site_id
 _symmetry_equiv_pos_as_xyz
  1  'x, y, z'
loop_
 _atom_site_type_symbol
 _atom_site_label
 _atom_site_symmetry_multiplicity
 _atom_site_fract_x
 _atom_site_fract_y
 _atom_site_fract_z
 _atom_site_occupancy
  Tl  Tl0  1  0.33333333  0.66666667  0.08516736  1.0
  Tl  Tl1  1  0.33333333  0.66666667  0.41483264  1.0
  Tl  Tl2  1  0.66666667  0.33333333  0.58516736  1.0
  Tl  Tl3  1  0.66666667  0.33333333  0.91483264  1.0
  Sb  Sb4  1  0.66666667  0.33333333  0.25000000  1.0
  Sb  Sb5  1  0.33333333  0.66666667  0.75000000  1.0
  Sb  Sb6  1  0.00000000  0.00000000  0.25000000  1.0
  Sb  Sb7  1  0.00000000  0.00000000  0.75000000  1.0
  O  O8  1  0.71625572  0.66667494  0.17953630  1.0
  O  O9  1  0.71625572  0.04958078  0.32046370  1.0
  O  O10  1  0.66667494  0.71625572  0.67953630  1.0
  O  O11  1  0.66667494  0.95041922  0.82046370  1.0
  O  O12  1  0.95041922  0.66667494  0.32046370  1.0
  O  O13  1  0.95041922  0.28374428  0.17953630  1.0
  O  O14  1  0.33332506  0.28374428  0.32046370  1.0
  O  O15  1  0.33332506  0.04958078  0.17953630  1.0
  O  O16  1  0.28374428  0.95041922  0.67953630  1.0
  O  O17  1  0.28374428  0.33332506  0.82046370  1.0
  O  O18  1  0.04958078  0.71625572  0.82046370  1.0
  O  O19  1  0.04958078  0.33332506  0.67953630  1.0
