# generated using pymatgen
data_SbRu
_symmetry_space_group_name_H-M   'P 1'
_cell_length_a   5.89308376
_cell_length_b   3.87446040
_cell_length_c   6.60749014
_cell_angle_alpha   90.00000000
_cell_angle_beta   90.00000000
_cell_angle_gamma   90.00000000
_symmetry_Int_Tables_number   1
_chemical_formula_structural   SbRu
_chemical_formula_sum   'Sb4 Ru4'
_cell_volume   150.86564843
_cell_formula_units_Z   4
loop_
 _symmetry_equiv_pos_site_id
 _symmetry_equiv_pos_as_xyz
  1  'x, y, z'
loop_
 _atom_site_type_symbol
 _atom_site_label
 _atom_site_symmetry_multiplicity
 _atom_site_fract_x
 _atom_site_fract_y
 _atom_site_fract_z
 _atom_site_occupancy
  Sb  Sb0  1  0.79999774  0.75000000  0.58490568  1.0
  Sb  Sb1  1  0.29999774  0.75000000  0.91509432  1.0
  Sb  Sb2  1  0.20000226  0.25000000  0.41509432  1.0
  Sb  Sb3  1  0.70000226  0.25000000  0.08490568  1.0
  Ru  Ru4  1  0.99389330  0.75000000  0.20624767  1.0
  Ru  Ru5  1  0.49389330  0.75000000  0.29375233  1.0
  Ru  Ru6  1  0.00610670  0.25000000  0.79375233  1.0
  Ru  Ru7  1  0.50610670  0.25000000  0.70624767  1.0
