# generated using pymatgen
data_Ba8Zr3(SbO6)4
_symmetry_space_group_name_H-M   'P 1'
_cell_length_a   10.28987189
_cell_length_b   10.28987189
_cell_length_c   10.28987189
_cell_angle_alpha   132.04848582
_cell_angle_beta   132.04848582
_cell_angle_gamma   70.15245958
_symmetry_Int_Tables_number   1
_chemical_formula_structural   Ba8Zr3(SbO6)4
_chemical_formula_sum   'Ba8 Zr3 Sb4 O24'
_cell_volume   588.91135418
_cell_formula_units_Z   1
loop_
 _symmetry_equiv_pos_site_id
 _symmetry_equiv_pos_as_xyz
  1  'x, y, z'
loop_
 _atom_site_type_symbol
 _atom_site_label
 _atom_site_symmetry_multiplicity
 _atom_site_fract_x
 _atom_site_fract_y
 _atom_site_fract_z
 _atom_site_occupancy
  Ba  Ba0  1  1.14802944  1.14802944  1.53269139  1.0
  Ba  Ba1  1  0.38466195  0.38466195  0.53269139  1.0
  Ba  Ba2  1  1.14802944  0.61533805  1.00000000  1.0
  Ba  Ba3  1  0.38466195  0.85197056  1.00000000  1.0
  Ba  Ba4  1  0.61533805  1.14802944  1.00000000  1.0
  Ba  Ba5  1  0.85197056  0.38466195  1.00000000  1.0
  Ba  Ba6  1  0.61533805  0.61533805  0.46730861  1.0
  Ba  Ba7  1  0.85197056  0.85197056  1.46730861  1.0
  Zr  Zr8  1  0.25000000  0.75000000  0.50000000  1.0
  Zr  Zr9  1  0.75000000  0.25000000  0.50000000  1.0
  Zr  Zr10  1  0.00000000  0.00000000  0.00000000  1.0
  Sb  Sb11  1  -0.00000000  0.50000000  0.50000000  1.0
  Sb  Sb12  1  0.50000000  0.00000000  0.50000000  1.0
  Sb  Sb13  1  0.24277594  0.24277594  0.00000000  1.0
  Sb  Sb14  1  0.75722406  0.75722406  1.00000000  1.0
  O  O15  1  0.24404840  0.99673263  0.75268424  1.0
  O  O16  1  0.75595160  0.50863584  0.75268424  1.0
  O  O17  1  0.99673263  0.24404840  0.75268424  1.0
  O  O18  1  0.50863584  0.75595160  0.75268424  1.0
  O  O19  1  0.24404840  0.49136416  0.24731576  1.0
  O  O20  1  0.75595160  1.00326736  1.24731576  1.0
  O  O21  1  0.49136416  0.24404840  0.24731576  1.0
  O  O22  1  1.00326736  0.75595160  1.24731576  1.0
  O  O23  1  0.37542957  0.87542957  0.50000000  1.0
  O  O24  1  0.62457043  0.12457043  0.50000000  1.0
  O  O25  1  0.87542957  0.37542957  0.50000000  1.0
  O  O26  1  0.12457043  0.62457043  0.50000000  1.0
  O  O27  1  -0.00000000  0.74890113  0.74890113  1.0
  O  O28  1  0.74890113  -0.00000000  0.74890113  1.0
  O  O29  1  -0.00000000  0.25109887  0.25109887  1.0
  O  O30  1  0.25109887  0.00000000  0.25109887  1.0
  O  O31  1  0.50000000  0.23018300  0.73018300  1.0
  O  O32  1  0.23018300  0.50000000  0.73018300  1.0
  O  O33  1  0.50000000  0.76981700  1.26981700  1.0
  O  O34  1  0.76981700  0.50000000  1.26981700  1.0
  O  O35  1  0.35819972  0.35819972  -0.00000000  1.0
  O  O36  1  0.64180028  0.64180028  1.00000000  1.0
  O  O37  1  0.12471908  0.12471908  -0.00000000  1.0
  O  O38  1  0.87528092  0.87528092  1.00000000  1.0
