# generated using pymatgen
data_Zr2Ga(PO4)3
_symmetry_space_group_name_H-M   'P 1'
_cell_length_a   9.47560028
_cell_length_b   9.47560028
_cell_length_c   9.47560028
_cell_angle_alpha   55.85606470
_cell_angle_beta   55.85606470
_cell_angle_gamma   55.85606470
_symmetry_Int_Tables_number   1
_chemical_formula_structural   Zr2Ga(PO4)3
_chemical_formula_sum   'Zr4 Ga2 P6 O24'
_cell_volume   543.80411102
_cell_formula_units_Z   2
loop_
 _symmetry_equiv_pos_site_id
 _symmetry_equiv_pos_as_xyz
  1  'x, y, z'
loop_
 _atom_site_type_symbol
 _atom_site_label
 _atom_site_symmetry_multiplicity
 _atom_site_fract_x
 _atom_site_fract_y
 _atom_site_fract_z
 _atom_site_occupancy
  Zr  Zr0  1  0.85167854  -0.14832146  -0.14832146  1.0
  Zr  Zr1  1  0.35167854  0.35167854  0.35167854  1.0
  Zr  Zr2  1  0.64832146  0.64832146  -0.35167854  1.0
  Zr  Zr3  1  1.14832146  0.14832146  0.14832146  1.0
  Ga  Ga4  1  1.00000000  -0.00000000  0.00000000  1.0
  Ga  Ga5  1  0.50000000  0.50000000  0.50000000  1.0
  P  P6  1  0.46278034  0.75000000  0.03721966  1.0
  P  P7  1  0.96278034  -0.46278034  0.25000000  1.0
  P  P8  1  0.25000000  0.96278034  -0.46278034  1.0
  P  P9  1  0.75000000  1.03721966  -0.53721966  1.0
  P  P10  1  0.53721966  0.25000000  -0.03721966  1.0
  P  P11  1  1.03721966  0.46278034  -0.25000000  1.0
  O  O12  1  0.76729295  1.00857612  -0.36907906  1.0
  O  O13  1  1.26729295  0.13092094  -0.49142388  1.0
  O  O14  1  0.86907906  0.49142388  -0.26729295  1.0
  O  O15  1  0.36907906  0.23270705  -0.00857612  1.0
  O  O16  1  0.99142388  0.36907906  -0.76729295  1.0
  O  O17  1  0.49142388  0.73270705  -0.13092094  1.0
  O  O18  1  0.23270705  0.99142388  -0.63092094  1.0
  O  O19  1  0.73270705  0.86907906  -0.50857612  1.0
  O  O20  1  0.63092094  0.76729295  0.00857612  1.0
  O  O21  1  1.13092094  -0.49142388  0.26729295  1.0
  O  O22  1  0.50857612  0.26729295  0.13092094  1.0
  O  O23  1  1.00857612  0.63092094  -0.23270705  1.0
  O  O24  1  0.70837433  0.07774447  -0.06772511  1.0
  O  O25  1  1.20837433  0.43227489  -0.42225553  1.0
  O  O26  1  0.56772511  0.42225553  -0.20837433  1.0
  O  O27  1  1.06772511  0.29162567  -0.07774447  1.0
  O  O28  1  0.92225553  0.06772511  0.29162567  1.0
  O  O29  1  0.42225553  0.79162567  -0.43227489  1.0
  O  O30  1  1.29162567  -0.07774447  0.06772511  1.0
  O  O31  1  0.79162567  0.56772511  -0.57774447  1.0
  O  O32  1  0.93227489  -0.29162567  0.07774447  1.0
  O  O33  1  0.43227489  0.57774447  0.20837433  1.0
  O  O34  1  0.57774447  1.20837433  -0.56772511  1.0
  O  O35  1  1.07774447  -0.06772511  -0.29162567  1.0
