# generated using pymatgen
data_LiCaAl2N3
_symmetry_space_group_name_H-M   'P 1'
_cell_length_a   5.59219920
_cell_length_b   5.86666958
_cell_length_c   10.02652806
_cell_angle_alpha   90.00000000
_cell_angle_beta   94.15566579
_cell_angle_gamma   90.00000000
_symmetry_Int_Tables_number   1
_chemical_formula_structural   LiCaAl2N3
_chemical_formula_sum   'Li4 Ca4 Al8 N12'
_cell_volume   328.08132109
_cell_formula_units_Z   4
loop_
 _symmetry_equiv_pos_site_id
 _symmetry_equiv_pos_as_xyz
  1  'x, y, z'
loop_
 _atom_site_type_symbol
 _atom_site_label
 _atom_site_symmetry_multiplicity
 _atom_site_fract_x
 _atom_site_fract_y
 _atom_site_fract_z
 _atom_site_occupancy
  Li  Li0  1  0.41423492  0.15309240  0.35274340  1.0
  Li  Li1  1  0.58576508  0.84690760  0.64725660  1.0
  Li  Li2  1  0.58576508  0.65309240  0.14725660  1.0
  Li  Li3  1  0.41423492  0.34690760  0.85274340  1.0
  Ca  Ca4  1  0.08478097  0.63143017  0.66568726  1.0
  Ca  Ca5  1  0.91521903  0.36856983  0.33431274  1.0
  Ca  Ca6  1  0.91521903  0.13143017  0.83431274  1.0
  Ca  Ca7  1  0.08478097  0.86856983  0.16568726  1.0
  Al  Al8  1  0.16989306  0.10348449  0.57426942  1.0
  Al  Al9  1  0.83010694  0.89651551  0.42573058  1.0
  Al  Al10  1  0.83010694  0.60348449  0.92573058  1.0
  Al  Al11  1  0.16989306  0.39651551  0.07426942  1.0
  Al  Al12  1  0.37211935  0.62236295  0.40547884  1.0
  Al  Al13  1  0.62788065  0.37763705  0.59452116  1.0
  Al  Al14  1  0.62788065  0.12236295  0.09452116  1.0
  Al  Al15  1  0.37211935  0.87763705  0.90547884  1.0
  N  N16  1  0.17978185  0.61218920  0.92941600  1.0
  N  N17  1  0.82021815  0.38781080  0.07058400  1.0
  N  N18  1  0.82021815  0.11218920  0.57058400  1.0
  N  N19  1  0.17978185  0.88781080  0.42941600  1.0
  N  N20  1  0.29003829  0.51100143  0.23587213  1.0
  N  N21  1  0.70996171  0.48899857  0.76412787  1.0
  N  N22  1  0.70996171  0.01100143  0.26412787  1.0
  N  N23  1  0.29003829  0.98899857  0.73587213  1.0
  N  N24  1  0.29899778  0.12100330  0.02608312  1.0
  N  N25  1  0.70100222  0.87899670  0.97391688  1.0
  N  N26  1  0.70100222  0.62100330  0.47391688  1.0
  N  N27  1  0.29899778  0.37899670  0.52608312  1.0
