# generated using pymatgen
data_Cu2BiPO6
_symmetry_space_group_name_H-M   'P 1'
_cell_length_a   12.11994256
_cell_length_b   5.18063723
_cell_length_c   7.98951205
_cell_angle_alpha   90.00000000
_cell_angle_beta   90.00000000
_cell_angle_gamma   90.00000000
_symmetry_Int_Tables_number   1
_chemical_formula_structural   Cu2BiPO6
_chemical_formula_sum   'Cu8 Bi4 P4 O24'
_cell_volume   501.65367682
_cell_formula_units_Z   4
loop_
 _symmetry_equiv_pos_site_id
 _symmetry_equiv_pos_as_xyz
  1  'x, y, z'
loop_
 _atom_site_type_symbol
 _atom_site_label
 _atom_site_symmetry_multiplicity
 _atom_site_fract_x
 _atom_site_fract_y
 _atom_site_fract_z
 _atom_site_occupancy
  P  P0  1  0.19746634  0.75000000  0.54522258  1.0
  P  P1  1  0.69746634  0.75000000  0.95477742  1.0
  P  P2  1  0.80253366  0.25000000  0.45477742  1.0
  P  P3  1  0.30253366  0.25000000  0.04522258  1.0
  Cu  Cu4  1  0.43331516  0.75000000  0.18237922  1.0
  Cu  Cu5  1  0.93331516  0.75000000  0.31762078  1.0
  Cu  Cu6  1  0.56668484  0.25000000  0.81762078  1.0
  Cu  Cu7  1  0.06668484  0.25000000  0.68237922  1.0
  Cu  Cu8  1  0.40986957  0.75000000  0.81270584  1.0
  Cu  Cu9  1  0.90986957  0.75000000  0.68729416  1.0
  Cu  Cu10  1  0.59013043  0.25000000  0.18729416  1.0
  Cu  Cu11  1  0.09013043  0.25000000  0.31270584  1.0
  O  O12  1  0.12588780  1.00006479  0.51098241  1.0
  O  O13  1  0.12588780  0.49993521  0.51098241  1.0
  O  O14  1  0.62588780  1.00006479  0.98901759  1.0
  O  O15  1  0.62588780  0.49993521  0.98901759  1.0
  O  O16  1  0.87411220  0.50006479  0.48901759  1.0
  O  O17  1  0.87411220  -0.00006479  0.48901759  1.0
  O  O18  1  0.37411220  0.50006479  0.01098241  1.0
  O  O19  1  0.37411220  -0.00006479  0.01098241  1.0
  O  O20  1  0.23009887  0.75000000  0.73327906  1.0
  O  O21  1  0.73009887  0.75000000  0.76672094  1.0
  O  O22  1  0.76990113  0.25000000  0.26672094  1.0
  O  O23  1  0.26990113  0.25000000  0.23327906  1.0
  O  O24  1  0.80153600  0.75000000  0.06477412  1.0
  O  O25  1  0.30153600  0.75000000  0.43522588  1.0
  O  O26  1  0.19846400  0.25000000  0.93522588  1.0
  O  O27  1  0.69846400  0.25000000  0.56477412  1.0
  O  O28  1  0.49353512  0.99720188  0.68037862  1.0
  O  O29  1  0.49353512  0.50279812  0.68037862  1.0
  O  O30  1  0.99353512  0.99720188  0.81962138  1.0
  O  O31  1  0.99353512  0.50279812  0.81962138  1.0
  O  O32  1  0.50646488  0.49720188  0.31962138  1.0
  O  O33  1  0.50646488  0.00279812  0.31962138  1.0
  O  O34  1  0.00646488  0.49720188  0.18037862  1.0
  O  O35  1  0.00646488  0.00279812  0.18037862  1.0
  Bi  Bi36  1  0.10981937  0.75000000  0.97038048  1.0
  Bi  Bi37  1  0.60981937  0.75000000  0.52961952  1.0
  Bi  Bi38  1  0.89018063  0.25000000  0.02961952  1.0
  Bi  Bi39  1  0.39018063  0.25000000  0.47038048  1.0
