# generated using pymatgen
data_WC5O
_symmetry_space_group_name_H-M   'P 1'
_cell_length_a   9.89511753
_cell_length_b   9.47672186
_cell_length_c   5.28395535
_cell_angle_alpha   70.86676464
_cell_angle_beta   84.19331634
_cell_angle_gamma   82.73476560
_symmetry_Int_Tables_number   1
_chemical_formula_structural   WC5O
_chemical_formula_sum   'W6 C30 O6'
_cell_volume   463.41997549
_cell_formula_units_Z   6
loop_
 _symmetry_equiv_pos_site_id
 _symmetry_equiv_pos_as_xyz
  1  'x, y, z'
loop_
 _atom_site_type_symbol
 _atom_site_label
 _atom_site_symmetry_multiplicity
 _atom_site_fract_x
 _atom_site_fract_y
 _atom_site_fract_z
 _atom_site_occupancy
  W  W0  1  0.71307306  0.82747482  0.35507036  1.0
  W  W1  1  0.16035091  0.15379185  0.16878378  1.0
  W  W2  1  0.88704684  0.14408343  0.41155754  1.0
  W  W3  1  0.28692694  0.17252518  0.64492964  1.0
  W  W4  1  -0.16035091  0.84620815  0.83121622  1.0
  W  W5  1  0.11295316  0.85591657  -0.41155754  1.0
  C  C6  1  0.93627677  0.92404746  0.14634824  1.0
  C  C7  1  -0.04609979  0.09348009  0.06647148  1.0
  C  C8  1  1.07509282  0.13061662  -0.44712021  1.0
  C  C9  1  0.06372323  0.07595254  0.85365176  1.0
  C  C10  1  0.04609979  0.90651991  0.93352852  1.0
  C  C11  1  -0.07509282  0.86938338  0.44712021  1.0
  C  C12  1  0.88305811  0.37432600  0.24363737  1.0
  C  C13  1  0.42848113  0.73532478  0.28745753  1.0
  C  C14  1  0.56936443  0.68090487  0.33060121  1.0
  C  C15  1  0.11694189  0.62567400  0.75636263  1.0
  C  C16  1  0.57151887  0.26467522  0.71254247  1.0
  C  C17  1  0.43063557  0.31909513  0.66939879  1.0
  C  C18  1  0.78198254  0.34012558  0.43640648  1.0
  C  C19  1  0.34391415  0.61797090  0.45476946  1.0
  C  C20  1  0.63363504  0.12260156  0.87572318  1.0
  C  C21  1  0.21801746  0.65987442  0.56359352  1.0
  C  C22  1  0.65608585  0.38202910  0.54523054  1.0
  C  C23  1  0.36636496  0.87739844  0.12427682  1.0
  C  C24  1  0.68232825  0.73491752  0.84265249  1.0
  C  C25  1  0.11543238  0.35906597  0.86595244  1.0
  C  C26  1  0.60984317  1.03151714  0.14506571  1.0
  C  C27  1  0.31767175  0.26508248  0.15734751  1.0
  C  C28  1  0.88456762  0.64093403  0.13404756  1.0
  C  C29  1  0.39015683  -0.03151714  0.85493429  1.0
  C  C30  1  -0.05519638  0.50174953  0.09147716  1.0
  C  C31  1  0.55034142  -0.01436365  0.40430445  1.0
  C  C32  1  0.43118004  0.48021961  0.53882110  1.0
  C  C33  1  1.05519638  0.49825047  0.90852284  1.0
  C  C34  1  0.44965858  1.01436365  0.59569555  1.0
  C  C35  1  0.56881996  0.51978039  0.46117890  1.0
  O  O36  1  0.83541604  0.62658703  0.37594578  1.0
  O  O37  1  0.25326929  0.93438334  0.25602828  1.0
  O  O38  1  0.39695701  0.35112831  0.14494053  1.0
  O  O39  1  0.16458396  0.37341297  0.62405422  1.0
  O  O40  1  0.74673071  0.06561666  0.74397172  1.0
  O  O41  1  0.60304299  0.64887169  0.85505947  1.0
