# generated using pymatgen
data_TiBe12
_symmetry_space_group_name_H-M   'P 1'
_cell_length_a   5.57746458
_cell_length_b   5.57746458
_cell_length_c   5.57746458
_cell_angle_alpha   97.98622916
_cell_angle_beta   97.98622916
_cell_angle_gamma   136.23060351
_symmetry_Int_Tables_number   1
_chemical_formula_structural   TiBe12
_chemical_formula_sum   'Ti1 Be12'
_cell_volume   111.37361649
_cell_formula_units_Z   1
loop_
 _symmetry_equiv_pos_site_id
 _symmetry_equiv_pos_as_xyz
  1  'x, y, z'
loop_
 _atom_site_type_symbol
 _atom_site_label
 _atom_site_symmetry_multiplicity
 _atom_site_fract_x
 _atom_site_fract_y
 _atom_site_fract_z
 _atom_site_occupancy
  Ti  Ti0  1  0.00000000  0.00000000  0.00000000  1.0
  Be  Be1  1  0.50000000  0.71736363  0.21736363  1.0
  Be  Be2  1  0.71736363  0.50000000  1.21736363  1.0
  Be  Be3  1  0.28263637  0.50000000  0.78263637  1.0
  Be  Be4  1  0.50000000  1.28263637  0.78263637  1.0
  Be  Be5  1  -0.00000000  0.64891118  0.64891118  1.0
  Be  Be6  1  0.64891118  1.00000000  0.64891118  1.0
  Be  Be7  1  1.35108882  1.00000000  1.35108882  1.0
  Be  Be8  1  -0.00000000  0.35108882  0.35108882  1.0
  Be  Be9  1  0.50000000  0.50000000  0.50000000  1.0
  Be  Be10  1  1.00000000  1.00000000  0.50000000  1.0
  Be  Be11  1  1.00000000  0.50000000  1.00000000  1.0
  Be  Be12  1  1.50000000  1.00000000  1.00000000  1.0
