# generated using pymatgen
data_Cs3B12H12I
_symmetry_space_group_name_H-M   'P 1'
_cell_length_a   7.48315531
_cell_length_b   7.48315531
_cell_length_c   7.48315531
_cell_angle_alpha   92.88277099
_cell_angle_beta   92.88277099
_cell_angle_gamma   92.88277099
_symmetry_Int_Tables_number   1
_chemical_formula_structural   Cs3B12H12I
_chemical_formula_sum   'Cs3 B12 H12 I1'
_cell_volume   417.39245639
_cell_formula_units_Z   1
loop_
 _symmetry_equiv_pos_site_id
 _symmetry_equiv_pos_as_xyz
  1  'x, y, z'
loop_
 _atom_site_type_symbol
 _atom_site_label
 _atom_site_symmetry_multiplicity
 _atom_site_fract_x
 _atom_site_fract_y
 _atom_site_fract_z
 _atom_site_occupancy
  Cs  Cs0  1  1.00000000  -0.50000000  -0.00000000  1.0
  Cs  Cs1  1  1.00000000  0.00000000  -0.50000000  1.0
  Cs  Cs2  1  0.50000000  0.00000000  -0.00000000  1.0
  B  B3  1  1.38564078  0.38564078  -0.34892599  1.0
  B  B4  1  1.38564078  -0.34892599  0.38564078  1.0
  B  B5  1  1.34892599  0.61435922  -0.38564078  1.0
  B  B6  1  0.61435922  1.34892599  -0.38564078  1.0
  B  B7  1  0.61435922  0.61435922  0.34892599  1.0
  B  B8  1  0.65107401  0.38564078  0.38564078  1.0
  B  B9  1  1.55484194  0.55484194  -0.28121564  1.0
  B  B10  1  1.55484194  -0.28121564  0.55484194  1.0
  B  B11  1  1.28121564  0.44515806  -0.55484194  1.0
  B  B12  1  0.44515806  1.28121564  -0.55484194  1.0
  B  B13  1  0.44515806  0.44515806  0.28121564  1.0
  B  B14  1  0.71878436  0.55484194  0.55484194  1.0
  H  H15  1  0.40674767  0.40674767  0.12539754  1.0
  H  H16  1  0.40674767  1.12539754  -0.59325233  1.0
  H  H17  1  0.87460246  0.59325233  0.59325233  1.0
  H  H18  1  1.59325233  -0.12539754  0.59325233  1.0
  H  H19  1  1.59325233  0.59325233  -0.12539754  1.0
  H  H20  1  1.12539754  0.40674767  -0.59325233  1.0
  H  H21  1  1.30370399  0.30370399  -0.24166523  1.0
  H  H22  1  1.30370399  -0.24166523  0.30370399  1.0
  H  H23  1  1.24166523  0.69629601  -0.30370399  1.0
  H  H24  1  0.69629601  1.24166523  -0.30370399  1.0
  H  H25  1  0.69629601  0.69629601  0.24166523  1.0
  H  H26  1  0.75833477  0.30370399  0.30370399  1.0
  I  I27  1  0.00000000  0.00000000  0.00000000  1.0
