# generated using pymatgen
data_AsPO5
_symmetry_space_group_name_H-M   'P 1'
_cell_length_a   4.63833949
_cell_length_b   8.37782836
_cell_length_c   8.63090465
_cell_angle_alpha   90.00000000
_cell_angle_beta   90.00000000
_cell_angle_gamma   90.00000000
_symmetry_Int_Tables_number   1
_chemical_formula_structural   AsPO5
_chemical_formula_sum   'As4 P4 O20'
_cell_volume   335.39015451
_cell_formula_units_Z   4
loop_
 _symmetry_equiv_pos_site_id
 _symmetry_equiv_pos_as_xyz
  1  'x, y, z'
loop_
 _atom_site_type_symbol
 _atom_site_label
 _atom_site_symmetry_multiplicity
 _atom_site_fract_x
 _atom_site_fract_y
 _atom_site_fract_z
 _atom_site_occupancy
  As  As0  1  0.12417371  0.65003618  0.59804595  1.0
  As  As1  1  0.62417371  0.84996382  0.40195405  1.0
  As  As2  1  0.87582629  0.15003618  0.90195405  1.0
  As  As3  1  0.37582629  0.34996382  0.09804595  1.0
  P  P4  1  0.38630207  0.96562203  0.71688635  1.0
  P  P5  1  0.88630207  0.53437797  0.28311365  1.0
  P  P6  1  0.61369793  0.46562203  0.78311365  1.0
  P  P7  1  0.11369793  0.03437797  0.21688635  1.0
  O  O8  1  0.34430064  0.90494645  0.25011601  1.0
  O  O9  1  0.84430064  0.59505355  0.74988399  1.0
  O  O10  1  0.65569936  0.40494645  0.24988399  1.0
  O  O11  1  0.15569936  0.09505355  0.75011601  1.0
  O  O12  1  0.34073600  0.47781921  0.67780548  1.0
  O  O13  1  0.84073600  0.02218079  0.32219452  1.0
  O  O14  1  0.65926400  0.97781921  0.82219452  1.0
  O  O15  1  0.15926400  0.52218079  0.17780548  1.0
  O  O16  1  0.29054740  0.78907368  0.74907843  1.0
  O  O17  1  0.79054740  0.71092632  0.25092157  1.0
  O  O18  1  0.70945260  0.28907368  0.75092157  1.0
  O  O19  1  0.20945260  0.21092632  0.24907843  1.0
  O  O20  1  0.04569533  1.00248813  0.04103854  1.0
  O  O21  1  0.54569533  0.49751187  0.95896146  1.0
  O  O22  1  0.95430467  0.50248813  0.45896146  1.0
  O  O23  1  0.45430467  -0.00248813  0.54103854  1.0
  O  O24  1  0.91204625  0.82334878  0.54386912  1.0
  O  O25  1  0.41204625  0.67665122  0.45613088  1.0
  O  O26  1  0.08795375  0.32334878  0.95613088  1.0
  O  O27  1  0.58795375  0.17665122  0.04386912  1.0
