# generated using pymatgen
data_La5MgRe3O16
_symmetry_space_group_name_H-M   'P 1'
_cell_length_a   5.68093785
_cell_length_b   5.67520723
_cell_length_c   10.24849490
_cell_angle_alpha   93.42550220
_cell_angle_beta   93.46652217
_cell_angle_gamma   90.76890863
_symmetry_Int_Tables_number   1
_chemical_formula_structural   La5MgRe3O16
_chemical_formula_sum   'La5 Mg1 Re3 O16'
_cell_volume   329.17466220
_cell_formula_units_Z   1
loop_
 _symmetry_equiv_pos_site_id
 _symmetry_equiv_pos_as_xyz
  1  'x, y, z'
loop_
 _atom_site_type_symbol
 _atom_site_label
 _atom_site_symmetry_multiplicity
 _atom_site_fract_x
 _atom_site_fract_y
 _atom_site_fract_z
 _atom_site_occupancy
  O  O0  1  -0.95543057  -0.95662573  -0.19838251  1.0
  O  O1  1  -0.04456943  -0.04337427  -0.80161749  1.0
  O  O2  1  -0.80553406  -0.81097523  -0.43488647  1.0
  O  O3  1  -0.19446594  -0.18902477  -0.56511353  1.0
  O  O4  1  -0.30562963  -0.79791763  0.00090228  1.0
  O  O5  1  -0.69437037  -0.20208237  -1.00090228  1.0
  O  O6  1  -0.71914565  -0.72522289  -0.67514257  1.0
  O  O7  1  -0.28085435  -0.27477711  -0.32485743  1.0
  O  O8  1  -0.19416274  -0.72312360  -0.63389512  1.0
  O  O9  1  -0.80583726  -0.27687640  -0.36610488  1.0
  O  O10  1  -0.78212763  -0.68764425  -0.96212459  1.0
  O  O11  1  -0.21787237  -0.31235575  -0.03787541  1.0
  O  O12  1  -0.42251500  -0.42679975  -0.81747358  1.0
  O  O13  1  -0.57748500  -0.57320025  -0.18252642  1.0
  O  O14  1  -0.73088753  -0.20267675  -0.63545806  1.0
  O  O15  1  -0.26911247  -0.79732325  -0.36454194  1.0
  Re  Re16  1  -0.94503095  -0.94560476  -0.60570503  1.0
  Re  Re17  1  -0.05496905  -0.05439524  -0.39429497  1.0
  Re  Re18  1  -0.50000000  -0.50000000  0.00000000  1.0
  Mg  Mg19  1  0.00000000  0.00000000  0.00000000  1.0
  La  La20  1  -0.47280028  -0.98518423  -0.80218626  1.0
  La  La21  1  -0.52719972  -0.01481577  -0.19781374  1.0
  La  La22  1  -0.99131994  -0.46712462  -0.79338001  1.0
  La  La23  1  -0.00868006  -0.53287538  -0.20661999  1.0
  La  La24  1  -0.50000000  -0.50000000  -0.50000000  1.0
