# generated using pymatgen
data_Ba3(AsO4)2
_symmetry_space_group_name_H-M   'P 1'
_cell_length_a   7.95433349
_cell_length_b   7.95433349
_cell_length_c   7.95433349
_cell_angle_alpha   43.38958188
_cell_angle_beta   43.38958188
_cell_angle_gamma   43.38958188
_symmetry_Int_Tables_number   1
_chemical_formula_structural   Ba3(AsO4)2
_chemical_formula_sum   'Ba3 As2 O8'
_cell_volume   215.44467922
_cell_formula_units_Z   1
loop_
 _symmetry_equiv_pos_site_id
 _symmetry_equiv_pos_as_xyz
  1  'x, y, z'
loop_
 _atom_site_type_symbol
 _atom_site_label
 _atom_site_symmetry_multiplicity
 _atom_site_fract_x
 _atom_site_fract_y
 _atom_site_fract_z
 _atom_site_occupancy
  Ba  Ba0  1  0.79303421  0.79303421  0.79303421  1.0
  Ba  Ba1  1  1.20696579  1.20696579  0.20696579  1.0
  Ba  Ba2  1  0.00000000  0.00000000  0.00000000  1.0
  As  As3  1  1.59292397  0.59292397  0.59292397  1.0
  As  As4  1  1.40707603  0.40707603  0.40707603  1.0
  O  O5  1  1.67310018  0.67310018  0.67310018  1.0
  O  O6  1  1.32689982  0.32689982  0.32689982  1.0
  O  O7  1  1.27259445  0.27259445  0.75712818  1.0
  O  O8  1  1.27259445  0.75712818  0.27259445  1.0
  O  O9  1  1.24287182  0.72740555  0.72740555  1.0
  O  O10  1  1.72740555  0.24287182  0.72740555  1.0
  O  O11  1  1.72740555  0.72740555  0.24287182  1.0
  O  O12  1  1.75712818  0.27259445  0.27259445  1.0
