# generated using pymatgen
data_Ga3Pd5
_symmetry_space_group_name_H-M   'P 1'
_cell_length_a   5.51892657
_cell_length_b   10.70824983
_cell_length_c   4.06022347
_cell_angle_alpha   90.00000000
_cell_angle_beta   90.00000000
_cell_angle_gamma   90.00000000
_symmetry_Int_Tables_number   1
_chemical_formula_structural   Ga3Pd5
_chemical_formula_sum   'Ga6 Pd10'
_cell_volume   239.95126720
_cell_formula_units_Z   2
loop_
 _symmetry_equiv_pos_site_id
 _symmetry_equiv_pos_as_xyz
  1  'x, y, z'
loop_
 _atom_site_type_symbol
 _atom_site_label
 _atom_site_symmetry_multiplicity
 _atom_site_fract_x
 _atom_site_fract_y
 _atom_site_fract_z
 _atom_site_occupancy
  Ga  Ga0  1  0.34610929  0.64612192  0.50000000  1.0
  Ga  Ga1  1  0.84610929  0.85387808  0.50000000  1.0
  Ga  Ga2  1  0.65389071  0.35387808  0.50000000  1.0
  Ga  Ga3  1  0.15389071  0.14612192  0.50000000  1.0
  Ga  Ga4  1  0.50000000  0.00000000  0.00000000  1.0
  Ga  Ga5  1  0.00000000  0.50000000  0.00000000  1.0
  Pd  Pd6  1  0.31042963  0.89529409  0.50000000  1.0
  Pd  Pd7  1  0.81042963  0.60470591  0.50000000  1.0
  Pd  Pd8  1  0.68957037  0.10470591  0.50000000  1.0
  Pd  Pd9  1  0.18957037  0.39529409  0.50000000  1.0
  Pd  Pd10  1  0.09306560  0.73239242  0.00000000  1.0
  Pd  Pd11  1  0.59306560  0.76760758  0.00000000  1.0
  Pd  Pd12  1  0.90693440  0.26760758  0.00000000  1.0
  Pd  Pd13  1  0.40693440  0.23239242  0.00000000  1.0
  Pd  Pd14  1  0.50000000  0.50000000  0.00000000  1.0
  Pd  Pd15  1  0.00000000  0.00000000  0.00000000  1.0
