# generated using pymatgen
data_CaSeO4
_symmetry_space_group_name_H-M   'P 1'
_cell_length_a   6.95415209
_cell_length_b   6.95415209
_cell_length_c   6.95415209
_cell_angle_alpha   136.90015555
_cell_angle_beta   136.90015555
_cell_angle_gamma   62.59170824
_symmetry_Int_Tables_number   1
_chemical_formula_structural   CaSeO4
_chemical_formula_sum   'Ca2 Se2 O8'
_cell_volume   155.08595753
_cell_formula_units_Z   2
loop_
 _symmetry_equiv_pos_site_id
 _symmetry_equiv_pos_as_xyz
  1  'x, y, z'
loop_
 _atom_site_type_symbol
 _atom_site_label
 _atom_site_symmetry_multiplicity
 _atom_site_fract_x
 _atom_site_fract_y
 _atom_site_fract_z
 _atom_site_occupancy
  Ca  Ca0  1  0.75000000  0.25000000  0.50000000  1.0
  Ca  Ca1  1  1.00000000  1.00000000  1.00000000  1.0
  Se  Se2  1  0.25000000  0.75000000  0.50000000  1.0
  Se  Se3  1  0.50000000  0.50000000  -0.00000000  1.0
  O  O4  1  0.70810771  0.33324888  0.89023858  1.0
  O  O5  1  0.44301029  0.81786913  1.10976142  1.0
  O  O6  1  0.56786913  0.95810771  0.87485884  1.0
  O  O7  1  1.08324888  0.69301029  1.12514116  1.0
  O  O8  1  1.04189229  0.91675112  0.60976142  1.0
  O  O9  1  1.30698971  1.43213087  1.39023858  1.0
  O  O10  1  1.18213087  1.29189229  1.62514116  1.0
  O  O11  1  0.66675112  0.55698971  0.37485884  1.0
