# generated using pymatgen
data_LiAlP2
_symmetry_space_group_name_H-M   'P 1'
_cell_length_a   9.51564220
_cell_length_b   9.51564220
_cell_length_c   9.51564220
_cell_angle_alpha   134.15182806
_cell_angle_beta   88.66595074
_cell_angle_gamma   109.06977331
_symmetry_Int_Tables_number   1
_chemical_formula_structural   LiAlP2
_chemical_formula_sum   'Li8 Al8 P16'
_cell_volume   557.13422153
_cell_formula_units_Z   8
loop_
 _symmetry_equiv_pos_site_id
 _symmetry_equiv_pos_as_xyz
  1  'x, y, z'
loop_
 _atom_site_type_symbol
 _atom_site_label
 _atom_site_symmetry_multiplicity
 _atom_site_fract_x
 _atom_site_fract_y
 _atom_site_fract_z
 _atom_site_occupancy
  Li  Li0  1  0.94101835  1.14761344  1.91632513  1.0
  Li  Li1  1  1.55898165  1.47530678  1.20659509  1.0
  Li  Li2  1  0.73128831  0.02469322  0.58367487  1.0
  Li  Li3  1  1.76871169  1.35238656  1.29340491  1.0
  Li  Li4  1  1.05898165  0.85238656  0.08367487  1.0
  Li  Li5  1  0.44101835  0.52469322  0.79340491  1.0
  Li  Li6  1  1.26871169  1.97530678  1.41632513  1.0
  Li  Li7  1  0.23128831  0.64761344  0.70659509  1.0
  Al  Al8  1  0.74127725  0.69607374  0.75703846  1.0
  Al  Al9  1  0.75872275  0.51576121  0.95479650  1.0
  Al  Al10  1  0.43903528  0.98423879  0.74296154  1.0
  Al  Al11  1  1.06096472  0.80392626  1.54520350  1.0
  Al  Al12  1  1.25872275  1.30392626  1.24296154  1.0
  Al  Al13  1  1.24127725  1.48423879  1.04520350  1.0
  Al  Al14  1  1.56096472  1.01576121  1.25703846  1.0
  Al  Al15  1  0.93903528  1.19607374  0.45479650  1.0
  P  P16  1  0.50000000  0.50000000  0.50000000  1.0
  P  P17  1  1.00000000  1.50000000  1.00000000  1.0
  P  P18  1  1.50000000  1.00000000  1.00000000  1.0
  P  P19  1  1.00000000  1.00000000  0.50000000  1.0
  P  P20  1  0.75000000  0.83961912  1.08961912  1.0
  P  P21  1  0.25000000  0.66038088  0.41038088  1.0
  P  P22  1  1.25000000  1.16038088  0.91038088  1.0
  P  P23  1  0.75000000  1.33961912  0.58961912  1.0
  P  P24  1  0.65182273  0.90182273  0.75000000  1.0
  P  P25  1  0.84817727  0.59817727  1.25000000  1.0
  P  P26  1  1.34817727  1.09817727  1.25000000  1.0
  P  P27  1  1.15182273  1.40182273  0.75000000  1.0
  P  P28  1  0.99800686  0.75000000  0.74800686  1.0
  P  P29  1  0.50199314  0.25000000  0.75199314  1.0
  P  P30  1  1.00199314  1.25000000  1.25199314  1.0
  P  P31  1  0.49800686  0.75000000  1.24800686  1.0
