# generated using pymatgen
data_Zr(GaFe)6
_symmetry_space_group_name_H-M   'P 1'
_cell_length_a   6.50784101
_cell_length_b   6.50784101
_cell_length_c   6.50784101
_cell_angle_alpha   134.93239122
_cell_angle_beta   99.32607975
_cell_angle_gamma   97.56640038
_symmetry_Int_Tables_number   1
_chemical_formula_structural   Zr(GaFe)6
_chemical_formula_sum   'Zr1 Ga6 Fe6'
_cell_volume   180.19716249
_cell_formula_units_Z   1
loop_
 _symmetry_equiv_pos_site_id
 _symmetry_equiv_pos_as_xyz
  1  'x, y, z'
loop_
 _atom_site_type_symbol
 _atom_site_label
 _atom_site_symmetry_multiplicity
 _atom_site_fract_x
 _atom_site_fract_y
 _atom_site_fract_z
 _atom_site_occupancy
  Zr  Zr0  1  0.00000000  0.00000000  0.00000000  1.0
  Ga  Ga1  1  0.33049903  0.00000000  0.33049903  1.0
  Ga  Ga2  1  0.66950097  0.00000000  0.66950097  1.0
  Ga  Ga3  1  0.65866447  0.65866447  1.00000000  1.0
  Ga  Ga4  1  1.34133553  1.34133553  1.00000000  1.0
  Ga  Ga5  1  1.17695377  0.67695377  0.50000000  1.0
  Ga  Ga6  1  0.82304623  0.32304623  0.50000000  1.0
  Fe  Fe7  1  0.75661934  0.50000000  1.25661934  1.0
  Fe  Fe8  1  0.24338066  0.50000000  0.74338066  1.0
  Fe  Fe9  1  1.00000000  1.00000000  1.50000000  1.0
  Fe  Fe10  1  1.00000000  0.50000000  1.00000000  1.0
  Fe  Fe11  1  1.50000000  1.00000000  1.00000000  1.0
  Fe  Fe12  1  1.50000000  1.50000000  1.50000000  1.0
