# generated using pymatgen
data_VAgP2O7
_symmetry_space_group_name_H-M   'P 1'
_cell_length_a   7.41338864
_cell_length_b   8.22179546
_cell_length_c   9.66147121
_cell_angle_alpha   90.00000000
_cell_angle_beta   111.51793179
_cell_angle_gamma   90.00000000
_symmetry_Int_Tables_number   1
_chemical_formula_structural   VAgP2O7
_chemical_formula_sum   'V4 Ag4 P8 O28'
_cell_volume   547.83659287
_cell_formula_units_Z   4
loop_
 _symmetry_equiv_pos_site_id
 _symmetry_equiv_pos_as_xyz
  1  'x, y, z'
loop_
 _atom_site_type_symbol
 _atom_site_label
 _atom_site_symmetry_multiplicity
 _atom_site_fract_x
 _atom_site_fract_y
 _atom_site_fract_z
 _atom_site_occupancy
  V  V0  1  0.73731901  0.99217291  0.74882924  1.0
  V  V1  1  0.73731901  0.50782709  0.24882924  1.0
  V  V2  1  0.26268099  0.49217291  0.75117076  1.0
  V  V3  1  0.26268099  0.00782709  0.25117076  1.0
  Ag  Ag4  1  0.70006557  0.52641693  0.67963788  1.0
  Ag  Ag5  1  0.70006557  0.97358307  0.17963788  1.0
  Ag  Ag6  1  0.29993443  0.02641693  0.82036212  1.0
  Ag  Ag7  1  0.29993443  0.47358307  0.32036212  1.0
  P  P8  1  0.92474743  0.74244904  0.54700669  1.0
  P  P9  1  0.92474743  0.75755096  0.04700669  1.0
  P  P10  1  0.07525257  0.24244904  0.95299331  1.0
  P  P11  1  0.07525257  0.25755096  0.45299331  1.0
  P  P12  1  0.67447907  0.29532031  0.94930795  1.0
  P  P13  1  0.67447907  0.20467969  0.44930795  1.0
  P  P14  1  0.32552093  0.79532031  0.55069205  1.0
  P  P15  1  0.32552093  0.70467969  0.05069205  1.0
  O  O16  1  0.99494519  0.59101524  0.64943371  1.0
  O  O17  1  0.99494519  0.90898476  0.14943371  1.0
  O  O18  1  0.00505481  0.09101524  0.85056629  1.0
  O  O19  1  0.00505481  0.40898476  0.35056629  1.0
  O  O20  1  0.88299911  0.34604974  0.94212974  1.0
  O  O21  1  0.88299911  0.15395026  0.44212974  1.0
  O  O22  1  0.11700089  0.84604974  0.55787026  1.0
  O  O23  1  0.11700089  0.65395026  0.05787026  1.0
  O  O24  1  0.80433978  0.85904600  0.59862072  1.0
  O  O25  1  0.80433978  0.64095400  0.09862072  1.0
  O  O26  1  0.19566022  0.35904600  0.90137928  1.0
  O  O27  1  0.19566022  0.14095400  0.40137928  1.0
  O  O28  1  0.82057870  0.80348721  0.88252942  1.0
  O  O29  1  0.82057870  0.69651279  0.38252942  1.0
  O  O30  1  0.17942130  0.30348721  0.61747058  1.0
  O  O31  1  0.17942130  0.19651279  0.11747058  1.0
  O  O32  1  0.46460147  0.91399995  0.66375456  1.0
  O  O33  1  0.46460147  0.58600005  0.16375456  1.0
  O  O34  1  0.53539853  0.41399995  0.83624544  1.0
  O  O35  1  0.53539853  0.08600005  0.33624544  1.0
  O  O36  1  0.35964059  0.61533539  0.60048097  1.0
  O  O37  1  0.35964059  0.88466461  0.10048097  1.0
  O  O38  1  0.64035941  0.11533539  0.89951903  1.0
  O  O39  1  0.64035941  0.38466461  0.39951903  1.0
  O  O40  1  0.31805116  0.68446842  0.89076283  1.0
  O  O41  1  0.31805116  0.81553158  0.39076283  1.0
  O  O42  1  0.68194884  0.18446842  0.60923717  1.0
  O  O43  1  0.68194884  0.31553158  0.10923717  1.0
