# generated using pymatgen
data_BaBe2(BO2)2
_symmetry_space_group_name_H-M   'P 1'
_cell_length_a   11.11918187
_cell_length_b   8.20967341
_cell_length_c   9.26189858
_cell_angle_alpha   78.79721945
_cell_angle_beta   46.40781208
_cell_angle_gamma   54.79496848
_symmetry_Int_Tables_number   1
_chemical_formula_structural   BaBe2(BO2)2
_chemical_formula_sum   'Ba4 Be8 B8 O16'
_cell_volume   469.91557647
_cell_formula_units_Z   4
loop_
 _symmetry_equiv_pos_site_id
 _symmetry_equiv_pos_as_xyz
  1  'x, y, z'
loop_
 _atom_site_type_symbol
 _atom_site_label
 _atom_site_symmetry_multiplicity
 _atom_site_fract_x
 _atom_site_fract_y
 _atom_site_fract_z
 _atom_site_occupancy
  Ba  Ba0  1  0.62500000  0.62500000  1.12500000  1.0
  Ba  Ba1  1  0.62500000  1.12500000  0.62500000  1.0
  Ba  Ba2  1  0.62500000  0.62500000  0.62500000  1.0
  Ba  Ba3  1  1.12500000  0.62500000  0.62500000  1.0
  Be  Be4  1  1.05803525  -0.00771994  0.75213862  1.0
  Be  Be5  1  1.19754607  0.75213862  -0.00771994  1.0
  Be  Be6  1  1.25771994  0.19196475  0.05245393  1.0
  Be  Be7  1  1.49786138  0.05245393  0.19196475  1.0
  Be  Be8  1  1.75213862  0.19754607  0.05803525  1.0
  Be  Be9  1  0.99228006  0.05803525  0.19754607  1.0
  Be  Be10  1  1.05245393  0.49786138  0.25771994  1.0
  Be  Be11  1  1.19196475  0.25771994  0.49786138  1.0
  B  B12  1  1.03975816  0.23024018  0.34151528  1.0
  B  B13  1  1.38848638  0.34151528  0.23024018  1.0
  B  B14  1  1.01975982  0.21024184  0.86151362  1.0
  B  B15  1  0.90848472  0.86151362  0.21024184  1.0
  B  B16  1  1.34151528  0.38848638  0.03975816  1.0
  B  B17  1  1.23024018  0.03975816  0.38848638  1.0
  B  B18  1  0.86151362  0.90848472  1.01975982  1.0
  B  B19  1  0.21024184  1.01975982  0.90848472  1.0
  O  O20  1  1.23328447  -0.02180689  0.73281390  1.0
  O  O21  1  1.05570851  0.73281390  -0.02180689  1.0
  O  O22  1  1.27180689  0.01671553  0.19429149  1.0
  O  O23  1  1.51718610  0.19429149  0.01671553  1.0
  O  O24  1  1.73281390  0.05570851  0.23328447  1.0
  O  O25  1  0.97819311  0.23328447  0.05570851  1.0
  O  O26  1  1.19429149  0.51718610  0.27180689  1.0
  O  O27  1  1.01671553  0.27180689  0.51718610  1.0
  O  O28  1  0.90191123  0.19187464  0.39828472  1.0
  O  O29  1  1.50792941  0.39828472  0.19187464  1.0
  O  O30  1  1.05812536  0.34808877  0.74207059  1.0
  O  O31  1  0.85171528  0.74207059  0.34808877  1.0
  O  O32  1  1.39828472  0.50792941  -0.09808877  1.0
  O  O33  1  1.19187464  -0.09808877  0.50792941  1.0
  O  O34  1  0.74207059  0.85171528  1.05812536  1.0
  O  O35  1  0.34808877  1.05812536  0.85171528  1.0
