# generated using pymatgen
data_TaCoB
_symmetry_space_group_name_H-M   'P 1'
_cell_length_a   3.29268963
_cell_length_b   16.92596891
_cell_length_c   5.86965535
_cell_angle_alpha   90.00000000
_cell_angle_beta   90.00000000
_cell_angle_gamma   90.00000000
_symmetry_Int_Tables_number   1
_chemical_formula_structural   TaCoB
_chemical_formula_sum   'Ta10 Co10 B10'
_cell_volume   327.12741035
_cell_formula_units_Z   10
loop_
 _symmetry_equiv_pos_site_id
 _symmetry_equiv_pos_as_xyz
  1  'x, y, z'
loop_
 _atom_site_type_symbol
 _atom_site_label
 _atom_site_symmetry_multiplicity
 _atom_site_fract_x
 _atom_site_fract_y
 _atom_site_fract_z
 _atom_site_occupancy
  Ta  Ta0  1  0.50000000  0.17902810  0.52800306  1.0
  Ta  Ta1  1  0.50000000  0.82097190  0.52800306  1.0
  Ta  Ta2  1  0.00000000  0.67902810  0.47199694  1.0
  Ta  Ta3  1  0.00000000  0.32097190  0.47199694  1.0
  Ta  Ta4  1  0.50000000  0.12500816  0.02246664  1.0
  Ta  Ta5  1  0.50000000  0.87499184  0.02246664  1.0
  Ta  Ta6  1  0.00000000  0.62500816  0.97753336  1.0
  Ta  Ta7  1  0.00000000  0.37499184  0.97753336  1.0
  Ta  Ta8  1  0.50000000  0.00000000  0.64564422  1.0
  Ta  Ta9  1  0.00000000  0.50000000  0.35435578  1.0
  Co  Co10  1  0.50000000  0.72594752  0.14362559  1.0
  Co  Co11  1  0.50000000  0.27405248  0.14362559  1.0
  Co  Co12  1  0.00000000  0.22594752  0.85637441  1.0
  Co  Co13  1  0.00000000  0.77405248  0.85637441  1.0
  Co  Co14  1  0.50000000  0.50000000  0.00634637  1.0
  Co  Co15  1  0.00000000  0.00000000  0.99365363  1.0
  Co  Co16  1  0.50000000  0.57122139  0.64924290  1.0
  Co  Co17  1  0.50000000  0.42877861  0.64924290  1.0
  Co  Co18  1  0.00000000  0.07122139  0.35075710  1.0
  Co  Co19  1  0.00000000  0.92877861  0.35075710  1.0
  B  B20  1  0.50000000  0.70209830  0.76715111  1.0
  B  B21  1  0.50000000  0.29790170  0.76715111  1.0
  B  B22  1  0.00000000  0.20209830  0.23284889  1.0
  B  B23  1  0.00000000  0.79790170  0.23284889  1.0
  B  B24  1  0.50000000  0.60083013  0.26969775  1.0
  B  B25  1  0.50000000  0.39916987  0.26969775  1.0
  B  B26  1  0.00000000  0.10083013  0.73030225  1.0
  B  B27  1  0.00000000  0.89916987  0.73030225  1.0
  B  B28  1  0.50000000  0.00000000  0.23321416  1.0
  B  B29  1  0.00000000  0.50000000  0.76678584  1.0
