# generated using pymatgen
data_HNO
_symmetry_space_group_name_H-M   'P 1'
_cell_length_a   4.77310324
_cell_length_b   4.77310324
_cell_length_c   7.11580777
_cell_angle_alpha   66.45617871
_cell_angle_beta   113.54382129
_cell_angle_gamma   116.53458911
_symmetry_Int_Tables_number   1
_chemical_formula_structural   HNO
_chemical_formula_sum   'H4 N4 O4'
_cell_volume   128.04778293
_cell_formula_units_Z   4
loop_
 _symmetry_equiv_pos_site_id
 _symmetry_equiv_pos_as_xyz
  1  'x, y, z'
loop_
 _atom_site_type_symbol
 _atom_site_label
 _atom_site_symmetry_multiplicity
 _atom_site_fract_x
 _atom_site_fract_y
 _atom_site_fract_z
 _atom_site_occupancy
  H  H0  1  0.82604916  0.05934592  0.63494071  1.0
  H  H1  1  0.94065408  0.17395084  0.13494071  1.0
  H  H2  1  1.05934592  -0.17395084  0.86505929  1.0
  H  H3  1  1.17395084  -0.05934592  0.36505929  1.0
  N  N4  1  0.85154527  0.85154527  0.75000000  1.0
  N  N5  1  0.14845473  0.14845473  0.25000000  1.0
  N  N6  1  0.58783994  0.58783994  0.75000000  1.0
  N  N7  1  0.41216006  0.41216006  0.25000000  1.0
  O  O8  1  0.60744283  0.32969382  0.88792433  1.0
  O  O9  1  0.67030618  0.39255717  0.38792433  1.0
  O  O10  1  1.32969382  -0.39255717  0.61207567  1.0
  O  O11  1  1.39255717  -0.32969382  0.11207567  1.0
