# generated using pymatgen
data_La2TiCoO6
_symmetry_space_group_name_H-M   'P 1'
_cell_length_a   5.51192235
_cell_length_b   5.51192235
_cell_length_c   5.51192235
_cell_angle_alpha   119.96684374
_cell_angle_beta   119.97089454
_cell_angle_gamma   90.05392873
_symmetry_Int_Tables_number   1
_chemical_formula_structural   La2TiCoO6
_chemical_formula_sum   'La2 Ti1 Co1 O6'
_cell_volume   118.46726774
_cell_formula_units_Z   1
loop_
 _symmetry_equiv_pos_site_id
 _symmetry_equiv_pos_as_xyz
  1  'x, y, z'
loop_
 _atom_site_type_symbol
 _atom_site_label
 _atom_site_symmetry_multiplicity
 _atom_site_fract_x
 _atom_site_fract_y
 _atom_site_fract_z
 _atom_site_occupancy
  La  La0  1  0.75001197  0.75001197  1.00000000  1.0
  La  La1  1  1.24998803  1.24998803  1.00000000  1.0
  Ti  Ti2  1  0.50000000  -0.00000000  0.50000000  1.0
  Co  Co3  1  -0.00000000  0.50000000  0.50000000  1.0
  O  O4  1  0.74888558  0.75105456  1.49994014  1.0
  O  O5  1  0.25111442  0.75105456  1.00216897  1.0
  O  O6  1  0.25111442  0.24894544  0.50005986  1.0
  O  O7  1  0.74888558  0.24894544  0.99783103  1.0
  O  O8  1  1.25088295  0.75088295  0.50000000  1.0
  O  O9  1  0.74911705  0.24911705  0.50000000  1.0
