# generated using pymatgen
data_Eu2CoPtO6
_symmetry_space_group_name_H-M   'P 1'
_cell_length_a   5.48720536
_cell_length_b   5.78974196
_cell_length_c   9.43776558
_cell_angle_alpha   90.00000000
_cell_angle_beta   125.38358015
_cell_angle_gamma   90.00000000
_symmetry_Int_Tables_number   1
_chemical_formula_structural   Eu2CoPtO6
_chemical_formula_sum   'Eu4 Co2 Pt2 O12'
_cell_volume   244.45207829
_cell_formula_units_Z   2
loop_
 _symmetry_equiv_pos_site_id
 _symmetry_equiv_pos_as_xyz
  1  'x, y, z'
loop_
 _atom_site_type_symbol
 _atom_site_label
 _atom_site_symmetry_multiplicity
 _atom_site_fract_x
 _atom_site_fract_y
 _atom_site_fract_z
 _atom_site_occupancy
  Eu  Eu0  1  0.23479249  0.43862669  0.25014144  1.0
  Eu  Eu1  1  0.23479249  0.06137331  0.75014144  1.0
  Eu  Eu2  1  0.76520751  0.93862669  0.24985856  1.0
  Eu  Eu3  1  0.76520751  0.56137331  0.74985856  1.0
  Co  Co4  1  0.50000000  0.00000000  0.50000000  1.0
  Co  Co5  1  0.50000000  0.50000000  0.00000000  1.0
  Pt  Pt6  1  0.00000000  0.00000000  0.00000000  1.0
  Pt  Pt7  1  0.00000000  0.50000000  0.50000000  1.0
  O  O8  1  0.35195464  0.03188795  0.25644923  1.0
  O  O9  1  0.35195464  0.46811205  0.75644923  1.0
  O  O10  1  0.64804536  0.53188795  0.24355077  1.0
  O  O11  1  0.64804536  0.96811205  0.74355077  1.0
  O  O12  1  0.85618026  0.69892223  0.04720160  1.0
  O  O13  1  0.85618026  0.80107777  0.54720160  1.0
  O  O14  1  0.14381974  0.19892223  0.45279840  1.0
  O  O15  1  0.14381974  0.30107777  0.95279840  1.0
  O  O16  1  0.73917115  0.19461988  0.04693273  1.0
  O  O17  1  0.73917115  0.30538012  0.54693273  1.0
  O  O18  1  0.26082885  0.69461988  0.45306727  1.0
  O  O19  1  0.26082885  0.80538012  0.95306727  1.0
