# generated using pymatgen
data_LuNiP
_symmetry_space_group_name_H-M   'P 1'
_cell_length_a   3.86493370
_cell_length_b   3.86493370
_cell_length_c   15.00591421
_cell_angle_alpha   90.00000000
_cell_angle_beta   90.00000000
_cell_angle_gamma   120.00000000
_symmetry_Int_Tables_number   1
_chemical_formula_structural   LuNiP
_chemical_formula_sum   'Lu4 Ni4 P4'
_cell_volume   194.12308674
_cell_formula_units_Z   4
loop_
 _symmetry_equiv_pos_site_id
 _symmetry_equiv_pos_as_xyz
  1  'x, y, z'
loop_
 _atom_site_type_symbol
 _atom_site_label
 _atom_site_symmetry_multiplicity
 _atom_site_fract_x
 _atom_site_fract_y
 _atom_site_fract_z
 _atom_site_occupancy
  Lu  Lu0  1  0.00000000  0.00000000  0.25000000  1.0
  Lu  Lu1  1  0.00000000  0.00000000  0.75000000  1.0
  Lu  Lu2  1  0.00000000  0.00000000  0.50000000  1.0
  Lu  Lu3  1  0.00000000  0.00000000  0.00000000  1.0
  Ni  Ni4  1  0.33333333  0.66666667  0.36985613  1.0
  Ni  Ni5  1  0.33333333  0.66666667  0.13014387  1.0
  Ni  Ni6  1  0.66666667  0.33333333  0.86985613  1.0
  Ni  Ni7  1  0.66666667  0.33333333  0.63014387  1.0
  P  P8  1  0.33333333  0.66666667  0.87833585  1.0
  P  P9  1  0.33333333  0.66666667  0.62166415  1.0
  P  P10  1  0.66666667  0.33333333  0.37833585  1.0
  P  P11  1  0.66666667  0.33333333  0.12166415  1.0
