# generated using pymatgen
data_V2Ga8Cu3
_symmetry_space_group_name_H-M   'P 1'
_cell_length_a   10.25175700
_cell_length_b   10.25175700
_cell_length_c   10.25175700
_cell_angle_alpha   109.47122063
_cell_angle_beta   109.47122063
_cell_angle_gamma   109.47122063
_symmetry_Int_Tables_number   1
_chemical_formula_structural   V2Ga8Cu3
_chemical_formula_sum   'V8 Ga32 Cu12'
_cell_volume   829.41716693
_cell_formula_units_Z   4
loop_
 _symmetry_equiv_pos_site_id
 _symmetry_equiv_pos_as_xyz
  1  'x, y, z'
loop_
 _atom_site_type_symbol
 _atom_site_label
 _atom_site_symmetry_multiplicity
 _atom_site_fract_x
 _atom_site_fract_y
 _atom_site_fract_z
 _atom_site_occupancy
  V  V0  1  1.02581560  1.02581560  1.02581560  1.0
  V  V1  1  1.00000000  1.47418440  1.50000000  1.0
  V  V2  1  1.50000000  1.00000000  1.47418440  1.0
  V  V3  1  1.47418440  0.50000000  1.00000000  1.0
  V  V4  1  1.00000000  0.97418440  1.50000000  1.0
  V  V5  1  0.52581560  0.52581560  0.52581560  1.0
  V  V6  1  0.50000000  1.00000000  0.97418440  1.0
  V  V7  1  0.97418440  1.50000000  1.00000000  1.0
  Ga  Ga8  1  0.75855418  0.50325233  0.49498967  1.0
  Ga  Ga9  1  0.99173734  0.99674767  0.75530184  1.0
  Ga  Ga10  1  1.50826266  1.26356451  1.00501033  1.0
  Ga  Ga11  1  0.74144582  1.23643549  0.74469816  1.0
  Ga  Ga12  1  1.25530184  1.49674767  1.49173734  1.0
  Ga  Ga13  1  0.99498967  1.00325233  0.25855418  1.0
  Ga  Ga14  1  1.24469816  0.73643549  1.24144582  1.0
  Ga  Ga15  1  1.50501033  0.76356451  1.00826266  1.0
  Ga  Ga16  1  1.26356451  1.00501033  1.50826266  1.0
  Ga  Ga17  1  0.23643549  0.74469816  0.74144582  1.0
  Ga  Ga18  1  1.50325233  1.49498967  1.75855418  1.0
  Ga  Ga19  1  0.99674767  0.75530184  0.99173734  1.0
  Ga  Ga20  1  0.76356451  1.00826266  0.50501033  1.0
  Ga  Ga21  1  1.73643549  1.24144582  1.24469816  1.0
  Ga  Ga22  1  1.00325233  0.25855418  0.99498967  1.0
  Ga  Ga23  1  1.49674767  1.49173734  1.25530184  1.0
  Ga  Ga24  1  0.75530184  0.99173734  0.99674767  1.0
  Ga  Ga25  1  0.49498967  0.75855418  0.50325233  1.0
  Ga  Ga26  1  0.74469816  0.74144582  0.23643549  1.0
  Ga  Ga27  1  1.00501033  0.50826266  1.26356451  1.0
  Ga  Ga28  1  1.25855418  0.99498967  1.00325233  1.0
  Ga  Ga29  1  1.49173734  1.25530184  1.49674767  1.0
  Ga  Ga30  1  1.00826266  1.50501033  0.76356451  1.0
  Ga  Ga31  1  1.24144582  1.24469816  1.73643549  1.0
  Ga  Ga32  1  0.77497259  0.77497259  0.77497259  1.0
  Ga  Ga33  1  1.00000000  0.72502741  1.50000000  1.0
  Ga  Ga34  1  0.50000000  1.00000000  0.72502741  1.0
  Ga  Ga35  1  0.72502741  1.50000000  1.00000000  1.0
  Ga  Ga36  1  1.00000000  1.22502741  1.50000000  1.0
  Ga  Ga37  1  1.27497259  1.27497259  1.27497259  1.0
  Ga  Ga38  1  1.50000000  1.00000000  1.22502741  1.0
  Ga  Ga39  1  1.22502741  0.50000000  1.00000000  1.0
  Cu  Cu40  1  0.99681900  0.25000000  1.24681900  1.0
  Cu  Cu41  1  0.50318100  0.75000000  0.25318100  1.0
  Cu  Cu42  1  0.74681900  0.75000000  0.49681900  1.0
  Cu  Cu43  1  0.75318100  0.25000000  1.00318100  1.0
  Cu  Cu44  1  0.75000000  1.25318100  0.50318100  1.0
  Cu  Cu45  1  0.25000000  1.24681900  0.99681900  1.0
  Cu  Cu46  1  0.25000000  1.00318100  0.75318100  1.0
  Cu  Cu47  1  0.75000000  1.49681900  0.74681900  1.0
  Cu  Cu48  1  1.24681900  0.99681900  1.25000000  1.0
  Cu  Cu49  1  0.25318100  0.50318100  0.75000000  1.0
  Cu  Cu50  1  0.49681900  0.74681900  0.75000000  1.0
  Cu  Cu51  1  1.00318100  0.75318100  1.25000000  1.0
