# generated using pymatgen
data_CaCdAu
_symmetry_space_group_name_H-M   'P 1'
_cell_length_a   7.42538178
_cell_length_b   4.39875199
_cell_length_c   8.87928720
_cell_angle_alpha   90.00000000
_cell_angle_beta   90.00000000
_cell_angle_gamma   90.00000000
_symmetry_Int_Tables_number   1
_chemical_formula_structural   CaCdAu
_chemical_formula_sum   'Ca4 Cd4 Au4'
_cell_volume   290.01894444
_cell_formula_units_Z   4
loop_
 _symmetry_equiv_pos_site_id
 _symmetry_equiv_pos_as_xyz
  1  'x, y, z'
loop_
 _atom_site_type_symbol
 _atom_site_label
 _atom_site_symmetry_multiplicity
 _atom_site_fract_x
 _atom_site_fract_y
 _atom_site_fract_z
 _atom_site_occupancy
  Ca  Ca0  1  0.95709797  0.75000000  0.68131082  1.0
  Ca  Ca1  1  0.45709797  0.75000000  0.81868918  1.0
  Ca  Ca2  1  0.04290203  0.25000000  0.31868918  1.0
  Ca  Ca3  1  0.54290203  0.25000000  0.18131082  1.0
  Cd  Cd4  1  0.85854360  0.75000000  0.05966769  1.0
  Cd  Cd5  1  0.35854360  0.75000000  0.44033231  1.0
  Cd  Cd6  1  0.14145640  0.25000000  0.94033231  1.0
  Cd  Cd7  1  0.64145640  0.25000000  0.55966769  1.0
  Au  Au8  1  0.75127116  0.75000000  0.36997560  1.0
  Au  Au9  1  0.25127116  0.75000000  0.13002440  1.0
  Au  Au10  1  0.24872884  0.25000000  0.63002440  1.0
  Au  Au11  1  0.74872884  0.25000000  0.86997560  1.0
