# generated using pymatgen
data_Na2TiP3NO9
_symmetry_space_group_name_H-M   'P 1'
_cell_length_a   9.66945895
_cell_length_b   9.66945895
_cell_length_c   9.66945895
_cell_angle_alpha   90.00000000
_cell_angle_beta   90.00000000
_cell_angle_gamma   90.00000000
_symmetry_Int_Tables_number   1
_chemical_formula_structural   Na2TiP3NO9
_chemical_formula_sum   'Na8 Ti4 P12 N4 O36'
_cell_volume   904.07929365
_cell_formula_units_Z   4
loop_
 _symmetry_equiv_pos_site_id
 _symmetry_equiv_pos_as_xyz
  1  'x, y, z'
loop_
 _atom_site_type_symbol
 _atom_site_label
 _atom_site_symmetry_multiplicity
 _atom_site_fract_x
 _atom_site_fract_y
 _atom_site_fract_z
 _atom_site_occupancy
  Na  Na0  1  0.11047413  0.61047413  0.88952587  1.0
  Na  Na1  1  0.61047413  0.88952587  0.11047413  1.0
  Na  Na2  1  0.88952587  0.11047413  0.61047413  1.0
  Na  Na3  1  0.38952587  0.38952587  0.38952587  1.0
  Na  Na4  1  0.67812931  0.17812931  0.32187069  1.0
  Na  Na5  1  0.17812931  0.32187069  0.67812931  1.0
  Na  Na6  1  0.32187069  0.67812931  0.17812931  1.0
  Na  Na7  1  0.82187069  0.82187069  0.82187069  1.0
  Ti  Ti8  1  0.91336389  0.41336389  0.08663611  1.0
  Ti  Ti9  1  0.41336389  0.08663611  0.91336389  1.0
  Ti  Ti10  1  0.08663611  0.91336389  0.41336389  1.0
  Ti  Ti11  1  0.58663611  0.58663611  0.58663611  1.0
  P  P12  1  0.17209355  0.91476911  0.73751095  1.0
  P  P13  1  0.26248905  0.67209355  0.58523089  1.0
  P  P14  1  0.41476911  0.76248905  0.82790645  1.0
  P  P15  1  0.67209355  0.58523089  0.26248905  1.0
  P  P16  1  0.76248905  0.82790645  0.41476911  1.0
  P  P17  1  0.91476911  0.73751095  0.17209355  1.0
  P  P18  1  0.82790645  0.41476911  0.76248905  1.0
  P  P19  1  0.73751095  0.17209355  0.91476911  1.0
  P  P20  1  0.58523089  0.26248905  0.67209355  1.0
  P  P21  1  0.32790645  0.08523089  0.23751095  1.0
  P  P22  1  0.23751095  0.32790645  0.08523089  1.0
  P  P23  1  0.08523089  0.23751095  0.32790645  1.0
  N  N24  1  0.30541133  0.80541133  0.69458867  1.0
  N  N25  1  0.80541133  0.69458867  0.30541133  1.0
  N  N26  1  0.69458867  0.30541133  0.80541133  1.0
  N  N27  1  0.19458867  0.19458867  0.19458867  1.0
  O  O28  1  0.25857783  0.97296722  0.32995499  1.0
  O  O29  1  0.67004501  0.75857783  0.52703278  1.0
  O  O30  1  0.47296722  0.17004501  0.74142217  1.0
  O  O31  1  0.75857783  0.52703278  0.67004501  1.0
  O  O32  1  0.17004501  0.74142217  0.47296722  1.0
  O  O33  1  0.97296722  0.32995499  0.25857783  1.0
  O  O34  1  0.74142217  0.47296722  0.17004501  1.0
  O  O35  1  0.32995499  0.25857783  0.97296722  1.0
  O  O36  1  0.52703278  0.67004501  0.75857783  1.0
  O  O37  1  0.24142217  0.02703278  0.82995499  1.0
  O  O38  1  0.82995499  0.24142217  0.02703278  1.0
  O  O39  1  0.02703278  0.82995499  0.24142217  1.0
  O  O40  1  0.48796136  0.89905498  0.87338357  1.0
  O  O41  1  0.12661643  0.98796136  0.60094502  1.0
  O  O42  1  0.39905498  0.62661643  0.51203864  1.0
  O  O43  1  0.98796136  0.60094502  0.12661643  1.0
  O  O44  1  0.62661643  0.51203864  0.39905498  1.0
  O  O45  1  0.89905498  0.87338357  0.48796136  1.0
  O  O46  1  0.51203864  0.39905498  0.62661643  1.0
  O  O47  1  0.87338357  0.48796136  0.89905498  1.0
  O  O48  1  0.60094502  0.12661643  0.98796136  1.0
  O  O49  1  0.01203864  0.10094502  0.37338357  1.0
  O  O50  1  0.37338357  0.01203864  0.10094502  1.0
  O  O51  1  0.10094502  0.37338357  0.01203864  1.0
  O  O52  1  0.05735991  0.83465493  0.80559857  1.0
  O  O53  1  0.19440143  0.55735991  0.66534507  1.0
  O  O54  1  0.33465493  0.69440143  0.94264009  1.0
  O  O55  1  0.55735991  0.66534507  0.19440143  1.0
  O  O56  1  0.69440143  0.94264009  0.33465493  1.0
  O  O57  1  0.83465493  0.80559857  0.05735991  1.0
  O  O58  1  0.94264009  0.33465493  0.69440143  1.0
  O  O59  1  0.80559857  0.05735991  0.83465493  1.0
  O  O60  1  0.66534507  0.19440143  0.55735991  1.0
  O  O61  1  0.44264009  0.16534507  0.30559857  1.0
  O  O62  1  0.30559857  0.44264009  0.16534507  1.0
  O  O63  1  0.16534507  0.30559857  0.44264009  1.0
