# generated using pymatgen
data_V4Ag2O11
_symmetry_space_group_name_H-M   'P 1'
_cell_length_a   8.01628289
_cell_length_b   8.01628289
_cell_length_c   9.60115835
_cell_angle_alpha   54.24698076
_cell_angle_beta   125.75301924
_cell_angle_gamma   154.45055967
_symmetry_Int_Tables_number   1
_chemical_formula_structural   V4Ag2O11
_chemical_formula_sum   'V4 Ag2 O11'
_cell_volume   213.05197692
_cell_formula_units_Z   1
loop_
 _symmetry_equiv_pos_site_id
 _symmetry_equiv_pos_as_xyz
  1  'x, y, z'
loop_
 _atom_site_type_symbol
 _atom_site_label
 _atom_site_symmetry_multiplicity
 _atom_site_fract_x
 _atom_site_fract_y
 _atom_site_fract_z
 _atom_site_occupancy
  V  V0  1  1.14270362  -0.14270362  0.14858049  1.0
  V  V1  1  0.85729638  0.14270362  0.85141951  1.0
  V  V2  1  1.36502838  -0.36502838  0.57117595  1.0
  V  V3  1  0.63497162  0.36502838  0.42882405  1.0
  Ag  Ag4  1  0.11831077  -0.11831077  0.73128100  1.0
  Ag  Ag5  1  0.88168923  -0.88168923  0.26871900  1.0
  O  O6  1  1.17393344  -0.17393344  0.01597004  1.0
  O  O7  1  0.82606656  0.17393344  0.98402996  1.0
  O  O8  1  1.31535419  -0.31535419  0.35371232  1.0
  O  O9  1  0.68464581  0.31535419  0.64628768  1.0
  O  O10  1  0.49511271  0.50488729  0.67534591  1.0
  O  O11  1  1.50488729  -0.50488729  0.32465409  1.0
  O  O12  1  0.65065685  -0.65065685  0.21762437  1.0
  O  O13  1  0.34934315  -0.34934315  0.78237563  1.0
  O  O14  1  0.83499149  -0.83499149  0.58886261  1.0
  O  O15  1  0.16500851  -0.16500851  0.41113739  1.0
  O  O16  1  0.00000000  0.00000000  0.00000000  1.0
