# generated using pymatgen
data_LuPtF7
_symmetry_space_group_name_H-M   'P 1'
_cell_length_a   8.78881518
_cell_length_b   5.50871523
_cell_length_c   11.88229039
_cell_angle_alpha   90.00000000
_cell_angle_beta   117.34110544
_cell_angle_gamma   90.00000000
_symmetry_Int_Tables_number   1
_chemical_formula_structural   LuPtF7
_chemical_formula_sum   'Lu4 Pt4 F28'
_cell_volume   511.01610864
_cell_formula_units_Z   4
loop_
 _symmetry_equiv_pos_site_id
 _symmetry_equiv_pos_as_xyz
  1  'x, y, z'
loop_
 _atom_site_type_symbol
 _atom_site_label
 _atom_site_symmetry_multiplicity
 _atom_site_fract_x
 _atom_site_fract_y
 _atom_site_fract_z
 _atom_site_occupancy
  Lu  Lu0  1  0.81459044  0.76155461  0.23572036  1.0
  Lu  Lu1  1  0.81459044  0.73844539  0.73572036  1.0
  Lu  Lu2  1  0.18540956  0.26155461  0.26427964  1.0
  Lu  Lu3  1  0.18540956  0.23844539  0.76427964  1.0
  Pt  Pt4  1  0.72765862  0.25967164  0.45664749  1.0
  Pt  Pt5  1  0.72765862  0.24032836  0.95664749  1.0
  Pt  Pt6  1  0.27234138  0.75967164  0.04335251  1.0
  Pt  Pt7  1  0.27234138  0.74032836  0.54335251  1.0
  F  F8  1  0.97115186  0.08266165  0.26750745  1.0
  F  F9  1  0.97115186  0.41733835  0.76750745  1.0
  F  F10  1  0.02884814  0.58266165  0.23249255  1.0
  F  F11  1  0.02884814  0.91733835  0.73249255  1.0
  F  F12  1  0.97763305  0.24576952  0.05057179  1.0
  F  F13  1  0.97763305  0.25423048  0.55057179  1.0
  F  F14  1  0.02236695  0.74576952  0.44942821  1.0
  F  F15  1  0.02236695  0.75423048  0.94942821  1.0
  F  F16  1  0.74676372  0.45109789  0.32403024  1.0
  F  F17  1  0.74676372  0.04890211  0.82403024  1.0
  F  F18  1  0.25323628  0.95109789  0.17596976  1.0
  F  F19  1  0.25323628  0.54890211  0.67596976  1.0
  F  F20  1  0.72518110  0.96672964  0.36239126  1.0
  F  F21  1  0.72518110  0.53327036  0.86239126  1.0
  F  F22  1  0.27481890  0.46672964  0.13760874  1.0
  F  F23  1  0.27481890  0.03327036  0.63760874  1.0
  F  F24  1  0.70221832  0.43758629  0.08394714  1.0
  F  F25  1  0.70221832  0.06241371  0.58394714  1.0
  F  F26  1  0.29778168  0.93758629  0.41605286  1.0
  F  F27  1  0.29778168  0.56241371  0.91605286  1.0
  F  F28  1  0.47723191  0.27565015  0.35751073  1.0
  F  F29  1  0.47723191  0.22434985  0.85751073  1.0
  F  F30  1  0.52276809  0.77565015  0.14248927  1.0
  F  F31  1  0.52276809  0.72434985  0.64248927  1.0
  F  F32  1  0.27745904  0.43919489  0.45621903  1.0
  F  F33  1  0.27745904  0.06080511  0.95621903  1.0
  F  F34  1  0.72254096  0.93919489  0.04378097  1.0
  F  F35  1  0.72254096  0.56080511  0.54378097  1.0
