# generated using pymatgen
data_Y3MnAlS7
_symmetry_space_group_name_H-M   'P 1'
_cell_length_a   9.68183307
_cell_length_b   9.68183307
_cell_length_c   6.18560670
_cell_angle_alpha   90.00000000
_cell_angle_beta   90.00000000
_cell_angle_gamma   120.00000000
_symmetry_Int_Tables_number   1
_chemical_formula_structural   Y3MnAlS7
_chemical_formula_sum   'Y6 Mn2 Al2 S14'
_cell_volume   502.14381251
_cell_formula_units_Z   2
loop_
 _symmetry_equiv_pos_site_id
 _symmetry_equiv_pos_as_xyz
  1  'x, y, z'
loop_
 _atom_site_type_symbol
 _atom_site_label
 _atom_site_symmetry_multiplicity
 _atom_site_fract_x
 _atom_site_fract_y
 _atom_site_fract_z
 _atom_site_occupancy
  Y  Y0  1  0.77247911  0.62027986  0.21112321  1.0
  Y  Y1  1  0.62027986  0.84780075  0.71112321  1.0
  Y  Y2  1  0.84780075  0.22752089  0.21112321  1.0
  Y  Y3  1  0.37972014  0.15219925  0.21112321  1.0
  Y  Y4  1  0.22752089  0.37972014  0.71112321  1.0
  Y  Y5  1  0.15219925  0.77247911  0.71112321  1.0
  S  S6  1  0.42711927  0.90769688  -0.02220684  1.0
  S  S7  1  0.90769688  0.48057761  0.47779316  1.0
  S  S8  1  0.48057761  0.57288073  -0.02220684  1.0
  S  S9  1  0.09230312  0.51942239  -0.02220684  1.0
  S  S10  1  0.57288073  0.09230312  0.47779316  1.0
  S  S11  1  0.51942239  0.42711927  0.47779316  1.0
  S  S12  1  0.33333333  0.66666667  0.49939839  1.0
  S  S13  1  0.66666667  0.33333333  -0.00060161  1.0
  S  S14  1  0.10527612  0.86158278  0.30119299  1.0
  S  S15  1  0.86158278  0.75630665  0.80119299  1.0
  S  S16  1  0.75630665  0.89472388  0.30119299  1.0
  S  S17  1  0.13841722  0.24369335  0.30119299  1.0
  S  S18  1  0.89472388  0.13841722  0.80119299  1.0
  S  S19  1  0.24369335  0.10527612  0.80119299  1.0
  Mn  Mn20  1  0.00000000  0.00000000  0.02605920  1.0
  Mn  Mn21  1  0.00000000  0.00000000  0.52605920  1.0
  Al  Al22  1  0.33333333  0.66666667  0.13521430  1.0
  Al  Al23  1  0.66666667  0.33333333  0.63521430  1.0
