# generated using pymatgen
data_TaCoSi
_symmetry_space_group_name_H-M   'P 1'
_cell_length_a   6.21012790
_cell_length_b   3.65168466
_cell_length_c   7.02568579
_cell_angle_alpha   90.00000000
_cell_angle_beta   90.00000000
_cell_angle_gamma   90.00000000
_symmetry_Int_Tables_number   1
_chemical_formula_structural   TaCoSi
_chemical_formula_sum   'Ta4 Co4 Si4'
_cell_volume   159.32448919
_cell_formula_units_Z   4
loop_
 _symmetry_equiv_pos_site_id
 _symmetry_equiv_pos_as_xyz
  1  'x, y, z'
loop_
 _atom_site_type_symbol
 _atom_site_label
 _atom_site_symmetry_multiplicity
 _atom_site_fract_x
 _atom_site_fract_y
 _atom_site_fract_z
 _atom_site_occupancy
  Ta  Ta0  1  0.97967271  0.75000000  0.67931318  1.0
  Ta  Ta1  1  0.47967271  0.75000000  0.82068682  1.0
  Ta  Ta2  1  0.02032729  0.25000000  0.32068682  1.0
  Ta  Ta3  1  0.52032729  0.25000000  0.17931318  1.0
  Co  Co4  1  0.85879300  0.75000000  0.06368739  1.0
  Co  Co5  1  0.35879300  0.75000000  0.43631261  1.0
  Co  Co6  1  0.14120700  0.25000000  0.93631261  1.0
  Co  Co7  1  0.64120700  0.25000000  0.56368739  1.0
  Si  Si8  1  0.72510856  0.75000000  0.38195719  1.0
  Si  Si9  1  0.22510856  0.75000000  0.11804281  1.0
  Si  Si10  1  0.27489144  0.25000000  0.61804281  1.0
  Si  Si11  1  0.77489144  0.25000000  0.88195719  1.0
