# generated using pymatgen
data_GdGaRh
_symmetry_space_group_name_H-M   'P 1'
_cell_length_a   6.91081926
_cell_length_b   4.28954442
_cell_length_c   7.89092966
_cell_angle_alpha   90.00000000
_cell_angle_beta   90.00000000
_cell_angle_gamma   90.00000000
_symmetry_Int_Tables_number   1
_chemical_formula_structural   GdGaRh
_chemical_formula_sum   'Gd4 Ga4 Rh4'
_cell_volume   233.92081954
_cell_formula_units_Z   4
loop_
 _symmetry_equiv_pos_site_id
 _symmetry_equiv_pos_as_xyz
  1  'x, y, z'
loop_
 _atom_site_type_symbol
 _atom_site_label
 _atom_site_symmetry_multiplicity
 _atom_site_fract_x
 _atom_site_fract_y
 _atom_site_fract_z
 _atom_site_occupancy
  Gd  Gd0  1  0.96863355  0.75000000  0.68740103  1.0
  Gd  Gd1  1  0.46863355  0.75000000  0.81259897  1.0
  Gd  Gd2  1  0.03136645  0.25000000  0.31259897  1.0
  Gd  Gd3  1  0.53136645  0.25000000  0.18740103  1.0
  Ga  Ga4  1  0.84961796  0.75000000  0.06751756  1.0
  Ga  Ga5  1  0.34961796  0.75000000  0.43248244  1.0
  Ga  Ga6  1  0.15038204  0.25000000  0.93248244  1.0
  Ga  Ga7  1  0.65038204  0.25000000  0.56751756  1.0
  Rh  Rh8  1  0.73192175  0.75000000  0.38747963  1.0
  Rh  Rh9  1  0.23192175  0.75000000  0.11252037  1.0
  Rh  Rh10  1  0.26807825  0.25000000  0.61252037  1.0
  Rh  Rh11  1  0.76807825  0.25000000  0.88747963  1.0
