# generated using pymatgen
data_Ba3(Si2P3)2
_symmetry_space_group_name_H-M   'P 1'
_cell_length_a   7.58881261
_cell_length_b   7.35680043
_cell_length_c   11.61745962
_cell_angle_alpha   90.00000000
_cell_angle_beta   99.39589406
_cell_angle_gamma   90.00000000
_symmetry_Int_Tables_number   1
_chemical_formula_structural   Ba3(Si2P3)2
_chemical_formula_sum   'Ba6 Si8 P12'
_cell_volume   639.89391946
_cell_formula_units_Z   2
loop_
 _symmetry_equiv_pos_site_id
 _symmetry_equiv_pos_as_xyz
  1  'x, y, z'
loop_
 _atom_site_type_symbol
 _atom_site_label
 _atom_site_symmetry_multiplicity
 _atom_site_fract_x
 _atom_site_fract_y
 _atom_site_fract_z
 _atom_site_occupancy
  Ba  Ba0  1  0.59207270  0.25000000  0.36437679  1.0
  Ba  Ba1  1  0.40792730  0.75000000  0.63562321  1.0
  Ba  Ba2  1  0.49798029  0.25000000  0.99167237  1.0
  Ba  Ba3  1  0.50201971  0.75000000  0.00832763  1.0
  Ba  Ba4  1  0.08758812  0.25000000  0.35146299  1.0
  Ba  Ba5  1  0.91241188  0.75000000  0.64853701  1.0
  Si  Si6  1  0.97713989  0.42160484  0.90916946  1.0
  Si  Si7  1  0.97713989  0.07839516  0.90916946  1.0
  Si  Si8  1  0.02286011  0.92160484  0.09083054  1.0
  Si  Si9  1  0.02286011  0.57839516  0.09083054  1.0
  Si  Si10  1  0.67414903  0.25000000  0.70303403  1.0
  Si  Si11  1  0.32585097  0.75000000  0.29696597  1.0
  Si  Si12  1  0.17721680  0.25000000  0.70323236  1.0
  Si  Si13  1  0.82278320  0.75000000  0.29676764  1.0
  P  P14  1  0.70166010  0.49960251  0.81780537  1.0
  P  P15  1  0.70166010  0.00039749  0.81780537  1.0
  P  P16  1  0.29833990  0.99960251  0.18219463  1.0
  P  P17  1  0.29833990  0.50039749  0.18219463  1.0
  P  P18  1  0.20716974  0.49952069  0.81789027  1.0
  P  P19  1  0.20716974  0.00047931  0.81789027  1.0
  P  P20  1  0.79283026  0.99952069  0.18210973  1.0
  P  P21  1  0.79283026  0.50047931  0.18210973  1.0
  P  P22  1  0.89717466  0.25000000  0.58674668  1.0
  P  P23  1  0.10282534  0.75000000  0.41325332  1.0
  P  P24  1  0.39609025  0.25000000  0.58670305  1.0
  P  P25  1  0.60390975  0.75000000  0.41329695  1.0
