# generated using pymatgen
data_Ir2Pb2O7
_symmetry_space_group_name_H-M   'P 1'
_cell_length_a   7.35507299
_cell_length_b   7.35507299
_cell_length_c   7.35507299
_cell_angle_alpha   60.00000000
_cell_angle_beta   60.00000000
_cell_angle_gamma   60.00000000
_symmetry_Int_Tables_number   1
_chemical_formula_structural   Ir2Pb2O7
_chemical_formula_sum   'Ir4 Pb4 O14'
_cell_volume   281.34938088
_cell_formula_units_Z   2
loop_
 _symmetry_equiv_pos_site_id
 _symmetry_equiv_pos_as_xyz
  1  'x, y, z'
loop_
 _atom_site_type_symbol
 _atom_site_label
 _atom_site_symmetry_multiplicity
 _atom_site_fract_x
 _atom_site_fract_y
 _atom_site_fract_z
 _atom_site_occupancy
  Ir  Ir0  1  1.12500000  0.62500000  0.62500000  1.0
  Ir  Ir1  1  0.62500000  1.12500000  -0.37500000  1.0
  Ir  Ir2  1  -0.37500000  0.62500000  1.12500000  1.0
  Ir  Ir3  1  -0.37500000  0.62500000  0.62500000  1.0
  Pb  Pb4  1  0.62500000  1.12500000  0.12500000  1.0
  Pb  Pb5  1  0.12500000  1.62500000  0.12500000  1.0
  Pb  Pb6  1  0.12500000  0.12500000  1.62500000  1.0
  Pb  Pb7  1  0.12500000  0.12500000  0.12500000  1.0
  O  O8  1  0.70198391  0.70198391  -0.70198391  1.0
  O  O9  1  0.29801609  1.29801609  -0.29801609  1.0
  O  O10  1  0.70198391  -0.70198391  0.70198391  1.0
  O  O11  1  0.29801609  -0.29801609  0.29801609  1.0
  O  O12  1  -0.70198391  0.70198391  0.70198391  1.0
  O  O13  1  -0.29801609  0.29801609  0.29801609  1.0
  O  O14  1  -0.45198391  0.54801609  0.95198391  1.0
  O  O15  1  0.95198391  0.95198391  -0.45198391  1.0
  O  O16  1  0.54801609  0.95198391  0.54801609  1.0
  O  O17  1  0.95198391  0.54801609  0.95198391  1.0
  O  O18  1  0.95198391  0.54801609  -0.45198391  1.0
  O  O19  1  0.54801609  0.95198391  -0.04801609  1.0
  O  O20  1  0.25000000  1.25000000  0.25000000  1.0
  O  O21  1  -0.00000000  -0.00000000  0.00000000  1.0
