# generated using pymatgen
data_Ba2Nb6Te2O21
_symmetry_space_group_name_H-M   'P 1'
_cell_length_a   8.91460340
_cell_length_b   8.91460340
_cell_length_c   9.75030849
_cell_angle_alpha   83.66084136
_cell_angle_beta   96.33915864
_cell_angle_gamma   142.31867516
_symmetry_Int_Tables_number   1
_chemical_formula_structural   Ba2Nb6Te2O21
_chemical_formula_sum   'Ba2 Nb6 Te2 O21'
_cell_volume   470.41272556
_cell_formula_units_Z   1
loop_
 _symmetry_equiv_pos_site_id
 _symmetry_equiv_pos_as_xyz
  1  'x, y, z'
loop_
 _atom_site_type_symbol
 _atom_site_label
 _atom_site_symmetry_multiplicity
 _atom_site_fract_x
 _atom_site_fract_y
 _atom_site_fract_z
 _atom_site_occupancy
  Ba  Ba0  1  0.85911256  0.14088744  0.97032541  1.0
  Ba  Ba1  1  0.14088744  -0.14088744  0.02967459  1.0
  Nb  Nb2  1  0.90229537  0.09770463  0.58610429  1.0
  Nb  Nb3  1  0.09770463  -0.09770463  0.41389571  1.0
  Nb  Nb4  1  0.67580439  0.32419561  0.66763309  1.0
  Nb  Nb5  1  0.32419561  -0.32419561  0.33236691  1.0
  Nb  Nb6  1  0.48020282  -0.48020282  0.83779288  1.0
  Nb  Nb7  1  0.51979718  0.48020282  0.16220712  1.0
  Te  Te8  1  0.27287675  -0.27287675  0.74523742  1.0
  Te  Te9  1  0.72712325  0.27287675  0.25476258  1.0
  O  O10  1  0.69334363  -0.17469119  0.72039535  1.0
  O  O11  1  1.17469119  0.30665637  0.72039535  1.0
  O  O12  1  0.82530881  0.69334363  0.27960465  1.0
  O  O13  1  0.30665637  0.17469119  0.27960465  1.0
  O  O14  1  0.46190817  0.03072381  0.83199189  1.0
  O  O15  1  0.96927619  0.53809183  0.83199189  1.0
  O  O16  1  1.03072381  0.46190817  0.16800811  1.0
  O  O17  1  0.53809183  -0.03072381  0.16800811  1.0
  O  O18  1  0.39359473  0.10306040  0.55302603  1.0
  O  O19  1  0.89693960  0.60640527  0.55302603  1.0
  O  O20  1  1.10306040  0.39359473  0.44697397  1.0
  O  O21  1  0.60640527  -0.10306040  0.44697397  1.0
  O  O22  1  0.79008420  0.20991580  0.64973562  1.0
  O  O23  1  0.20991580  -0.20991580  0.35026438  1.0
  O  O24  1  0.57941637  0.42058363  0.77492692  1.0
  O  O25  1  0.42058363  -0.42058363  0.22507308  1.0
  O  O26  1  0.35883371  -0.35883371  0.89771908  1.0
  O  O27  1  0.64116629  0.35883371  0.10228092  1.0
  O  O28  1  0.72076168  0.72076168  0.00000000  1.0
  O  O29  1  0.27923832  0.27923832  0.00000000  1.0
  O  O30  1  -0.00000000  0.00000000  0.50000000  1.0
