# generated using pymatgen
data_Yb2C3
_symmetry_space_group_name_H-M   'P 1'
_cell_length_a   7.07990452
_cell_length_b   7.07990452
_cell_length_c   7.07990452
_cell_angle_alpha   109.47122063
_cell_angle_beta   109.47122063
_cell_angle_gamma   109.47122063
_symmetry_Int_Tables_number   1
_chemical_formula_structural   Yb2C3
_chemical_formula_sum   'Yb8 C12'
_cell_volume   273.18717780
_cell_formula_units_Z   4
loop_
 _symmetry_equiv_pos_site_id
 _symmetry_equiv_pos_as_xyz
  1  'x, y, z'
loop_
 _atom_site_type_symbol
 _atom_site_label
 _atom_site_symmetry_multiplicity
 _atom_site_fract_x
 _atom_site_fract_y
 _atom_site_fract_z
 _atom_site_occupancy
  Yb  Yb0  1  1.39295473  1.39295473  1.39295473  1.0
  Yb  Yb1  1  1.50000000  1.00000000  1.10704527  1.0
  Yb  Yb2  1  0.89295473  0.89295473  0.89295473  1.0
  Yb  Yb3  1  0.50000000  1.00000000  0.60704527  1.0
  Yb  Yb4  1  1.00000000  1.10704527  1.50000000  1.0
  Yb  Yb5  1  1.10704527  0.50000000  1.00000000  1.0
  Yb  Yb6  1  1.00000000  0.60704527  1.50000000  1.0
  Yb  Yb7  1  0.60704527  1.50000000  1.00000000  1.0
  C  C8  1  1.20587222  0.95587222  1.25000000  1.0
  C  C9  1  0.45587222  0.70587222  0.75000000  1.0
  C  C10  1  0.25000000  1.20587222  0.95587222  1.0
  C  C11  1  0.75000000  1.29412778  0.54412778  1.0
  C  C12  1  0.70587222  0.75000000  0.45587222  1.0
  C  C13  1  0.79412778  0.25000000  1.04412778  1.0
  C  C14  1  0.95587222  0.25000000  1.20587222  1.0
  C  C15  1  0.54412778  0.75000000  0.29412778  1.0
  C  C16  1  0.75000000  1.45587222  0.70587222  1.0
  C  C17  1  0.25000000  1.04412778  0.79412778  1.0
  C  C18  1  0.29412778  0.54412778  0.75000000  1.0
  C  C19  1  1.04412778  0.79412778  1.25000000  1.0
