# generated using pymatgen
data_AsPbClO2
_symmetry_space_group_name_H-M   'P 1'
_cell_length_a   7.29303446
_cell_length_b   10.06853638
_cell_length_c   11.73614046
_cell_angle_alpha   90.00000000
_cell_angle_beta   90.00000000
_cell_angle_gamma   90.00000000
_symmetry_Int_Tables_number   1
_chemical_formula_structural   AsPbClO2
_chemical_formula_sum   'As8 Pb8 Cl8 O16'
_cell_volume   861.78693837
_cell_formula_units_Z   8
loop_
 _symmetry_equiv_pos_site_id
 _symmetry_equiv_pos_as_xyz
  1  'x, y, z'
loop_
 _atom_site_type_symbol
 _atom_site_label
 _atom_site_symmetry_multiplicity
 _atom_site_fract_x
 _atom_site_fract_y
 _atom_site_fract_z
 _atom_site_occupancy
  As  As0  1  0.40250272  0.88143449  0.53251834  1.0
  As  As1  1  0.90250272  0.61856551  0.46748166  1.0
  As  As2  1  0.59749728  0.38143449  0.96748166  1.0
  As  As3  1  0.09749728  0.11856551  0.03251834  1.0
  As  As4  1  0.19101686  0.79956109  0.30530492  1.0
  As  As5  1  0.69101686  0.70043891  0.69469508  1.0
  As  As6  1  0.80898314  0.29956109  0.19469508  1.0
  As  As7  1  0.30898314  0.20043891  0.80530492  1.0
  Pb  Pb8  1  0.42909464  0.49405339  0.50110229  1.0
  Pb  Pb9  1  0.92909464  0.00594661  0.49889771  1.0
  Pb  Pb10  1  0.57090536  0.99405339  0.99889771  1.0
  Pb  Pb11  1  0.07090536  0.50594661  0.00110229  1.0
  Pb  Pb12  1  0.17062156  0.84251798  0.78906358  1.0
  Pb  Pb13  1  0.67062156  0.65748202  0.21093642  1.0
  Pb  Pb14  1  0.82937844  0.34251798  0.71093642  1.0
  Pb  Pb15  1  0.32937844  0.15748202  0.28906358  1.0
  Cl  Cl16  1  0.43337587  0.73174282  0.97105710  1.0
  Cl  Cl17  1  0.93337587  0.76825718  0.02894290  1.0
  Cl  Cl18  1  0.56662413  0.23174282  0.52894290  1.0
  Cl  Cl19  1  0.06662413  0.26825718  0.47105710  1.0
  Cl  Cl20  1  0.13631625  0.52797406  0.73942959  1.0
  Cl  Cl21  1  0.63631625  0.97202594  0.26057041  1.0
  Cl  Cl22  1  0.86368375  0.02797406  0.76057041  1.0
  Cl  Cl23  1  0.36368375  0.47202594  0.23942959  1.0
  O  O24  1  0.45875750  0.76460615  0.65264507  1.0
  O  O25  1  0.95875750  0.73539385  0.34735493  1.0
  O  O26  1  0.54124250  0.26460615  0.84735493  1.0
  O  O27  1  0.04124250  0.23539385  0.15264507  1.0
  O  O28  1  0.19348298  0.93059983  0.59970487  1.0
  O  O29  1  0.69348298  0.56940017  0.40029513  1.0
  O  O30  1  0.80651702  0.43059983  0.90029513  1.0
  O  O31  1  0.30651702  0.06940017  0.09970487  1.0
  O  O32  1  0.15466311  0.96889020  0.34881166  1.0
  O  O33  1  0.65466311  0.53110980  0.65118834  1.0
  O  O34  1  0.84533689  0.46889020  0.15118834  1.0
  O  O35  1  0.34533689  0.03110980  0.84881166  1.0
  O  O36  1  0.81393618  0.75628132  0.56241704  1.0
  O  O37  1  0.31393618  0.74371868  0.43758296  1.0
  O  O38  1  0.18606382  0.25628132  0.93758296  1.0
  O  O39  1  0.68606382  0.24371868  0.06241704  1.0
