# generated using pymatgen
data_GdB4W
_symmetry_space_group_name_H-M   'P 1'
_cell_length_a   6.05091929
_cell_length_b   11.70320827
_cell_length_c   3.63785214
_cell_angle_alpha   90.00000000
_cell_angle_beta   90.00000000
_cell_angle_gamma   90.00000000
_symmetry_Int_Tables_number   1
_chemical_formula_structural   GdB4W
_chemical_formula_sum   'Gd4 B16 W4'
_cell_volume   257.61511312
_cell_formula_units_Z   4
loop_
 _symmetry_equiv_pos_site_id
 _symmetry_equiv_pos_as_xyz
  1  'x, y, z'
loop_
 _atom_site_type_symbol
 _atom_site_label
 _atom_site_symmetry_multiplicity
 _atom_site_fract_x
 _atom_site_fract_y
 _atom_site_fract_z
 _atom_site_occupancy
  Gd  Gd0  1  0.12629589  0.64994395  0.50000000  1.0
  Gd  Gd1  1  0.62629589  0.85005605  0.50000000  1.0
  Gd  Gd2  1  0.87370411  0.35005605  0.50000000  1.0
  Gd  Gd3  1  0.37370411  0.14994395  0.50000000  1.0
  B  B4  1  0.47592604  0.69260617  0.00000000  1.0
  B  B5  1  0.97592604  0.80739383  0.00000000  1.0
  B  B6  1  0.52407396  0.30739383  0.00000000  1.0
  B  B7  1  0.02407396  0.19260617  0.00000000  1.0
  B  B8  1  0.38648510  0.54698642  0.00000000  1.0
  B  B9  1  0.88648510  0.95301358  0.00000000  1.0
  B  B10  1  0.61351490  0.45301358  0.00000000  1.0
  B  B11  1  0.11351490  0.04698642  0.00000000  1.0
  B  B12  1  0.36541663  0.96775929  0.00000000  1.0
  B  B13  1  0.86541663  0.53224071  0.00000000  1.0
  B  B14  1  0.63458337  0.03224071  0.00000000  1.0
  B  B15  1  0.13458337  0.46775929  0.00000000  1.0
  B  B16  1  0.28555480  0.81393053  0.00000000  1.0
  B  B17  1  0.78555480  0.68606947  0.00000000  1.0
  B  B18  1  0.71444520  0.18606947  0.00000000  1.0
  B  B19  1  0.21444520  0.31393053  0.00000000  1.0
  W  W20  1  0.13007328  0.91570570  0.50000000  1.0
  W  W21  1  0.63007328  0.58429430  0.50000000  1.0
  W  W22  1  0.86992672  0.08429430  0.50000000  1.0
  W  W23  1  0.36992672  0.41570570  0.50000000  1.0
