# generated using pymatgen
data_La3(NiGe)4
_symmetry_space_group_name_H-M   'P 1'
_cell_length_a   12.44229420
_cell_length_b   12.44229420
_cell_length_c   12.44229420
_cell_angle_alpha   160.47727663
_cell_angle_beta   160.41760211
_cell_angle_gamma   27.78912348
_symmetry_Int_Tables_number   1
_chemical_formula_structural   La3(NiGe)4
_chemical_formula_sum   'La3 Ni4 Ge4'
_cell_volume   215.64838771
_cell_formula_units_Z   1
loop_
 _symmetry_equiv_pos_site_id
 _symmetry_equiv_pos_as_xyz
  1  'x, y, z'
loop_
 _atom_site_type_symbol
 _atom_site_label
 _atom_site_symmetry_multiplicity
 _atom_site_fract_x
 _atom_site_fract_y
 _atom_site_fract_z
 _atom_site_occupancy
  La  La0  1  0.65101931  0.15101931  0.50000000  1.0
  La  La1  1  0.34898069  0.84898069  0.50000000  1.0
  La  La2  1  0.00000000  0.00000000  0.00000000  1.0
  Ni  Ni3  1  0.90056490  0.40056490  0.50000000  1.0
  Ni  Ni4  1  0.09943510  0.59943510  0.50000000  1.0
  Ni  Ni5  1  0.75123362  0.75123362  1.00000000  1.0
  Ni  Ni6  1  0.24876638  0.24876638  -0.00000000  1.0
  Ge  Ge7  1  0.80005117  0.30005117  0.50000000  1.0
  Ge  Ge8  1  0.19994883  0.69994883  0.50000000  1.0
  Ge  Ge9  1  0.55347878  0.55347878  1.00000000  1.0
  Ge  Ge10  1  0.44652122  0.44652122  0.00000000  1.0
