# generated using pymatgen
data_NaHSeO4
_symmetry_space_group_name_H-M   'P 1'
_cell_length_a   5.34730791
_cell_length_b   8.11175210
_cell_length_c   9.61991305
_cell_angle_alpha   90.00000000
_cell_angle_beta   111.72400996
_cell_angle_gamma   90.00000000
_symmetry_Int_Tables_number   1
_chemical_formula_structural   NaHSeO4
_chemical_formula_sum   'Na4 H4 Se4 O16'
_cell_volume   387.63789479
_cell_formula_units_Z   4
loop_
 _symmetry_equiv_pos_site_id
 _symmetry_equiv_pos_as_xyz
  1  'x, y, z'
loop_
 _atom_site_type_symbol
 _atom_site_label
 _atom_site_symmetry_multiplicity
 _atom_site_fract_x
 _atom_site_fract_y
 _atom_site_fract_z
 _atom_site_occupancy
  Na  Na0  1  1.00188486  0.50201610  0.20459816  1.0
  Na  Na1  1  1.00188486  0.99798390  0.70459816  1.0
  Na  Na2  1  -0.00188486  0.00201610  0.29540184  1.0
  Na  Na3  1  -0.00188486  0.49798390  0.79540184  1.0
  H  H4  1  0.38102715  0.03626607  0.12623801  1.0
  H  H5  1  0.38102715  0.46373393  0.62623801  1.0
  H  H6  1  0.61897285  0.53626607  0.37376199  1.0
  H  H7  1  0.61897285  0.96373393  0.87376199  1.0
  Se  Se8  1  0.58598729  0.27648213  0.44059136  1.0
  Se  Se9  1  0.58598729  0.22351787  0.94059136  1.0
  Se  Se10  1  0.41401271  0.77648213  0.05940864  1.0
  Se  Se11  1  0.41401271  0.72351787  0.55940864  1.0
  O  O12  1  0.77759618  0.11485437  0.45479463  1.0
  O  O13  1  0.77759618  0.38514563  0.95479463  1.0
  O  O14  1  0.22240382  0.61485437  0.04520537  1.0
  O  O15  1  0.22240382  0.88514563  0.54520537  1.0
  O  O16  1  0.72457233  0.43517940  0.36439810  1.0
  O  O17  1  0.72457233  0.06482060  0.86439810  1.0
  O  O18  1  0.27542767  0.93517940  0.13560190  1.0
  O  O19  1  0.27542767  0.56482060  0.63560190  1.0
  O  O20  1  0.61653058  0.15582352  0.10924205  1.0
  O  O21  1  0.61653058  0.34417648  0.60924205  1.0
  O  O22  1  0.38346942  0.65582352  0.39075795  1.0
  O  O23  1  0.38346942  0.84417648  0.89075795  1.0
  O  O24  1  0.27003223  0.25396551  0.32736554  1.0
  O  O25  1  0.27003223  0.24603449  0.82736554  1.0
  O  O26  1  0.72996777  0.75396551  0.17263446  1.0
  O  O27  1  0.72996777  0.74603449  0.67263446  1.0
