# generated using pymatgen
data_H6CN3ClO
_symmetry_space_group_name_H-M   'P 1'
_cell_length_a   4.71868131
_cell_length_b   7.52260377
_cell_length_c   14.09528043
_cell_angle_alpha   90.00000000
_cell_angle_beta   90.00000000
_cell_angle_gamma   90.00000000
_symmetry_Int_Tables_number   1
_chemical_formula_structural   H6CN3ClO
_chemical_formula_sum   'H24 C4 N12 Cl4 O4'
_cell_volume   500.33692498
_cell_formula_units_Z   4
loop_
 _symmetry_equiv_pos_site_id
 _symmetry_equiv_pos_as_xyz
  1  'x, y, z'
loop_
 _atom_site_type_symbol
 _atom_site_label
 _atom_site_symmetry_multiplicity
 _atom_site_fract_x
 _atom_site_fract_y
 _atom_site_fract_z
 _atom_site_occupancy
  H  H0  1  0.37235017  0.44424138  0.91364839  1.0
  H  H1  1  0.87235017  0.05575862  0.08635161  1.0
  H  H2  1  0.62764983  0.94424138  0.58635161  1.0
  H  H3  1  0.12764983  0.55575862  0.41364839  1.0
  H  H4  1  0.32875106  0.81413678  0.13256100  1.0
  H  H5  1  0.82875106  0.68586322  0.86743900  1.0
  H  H6  1  0.67124894  0.31413678  0.36743900  1.0
  H  H7  1  0.17124894  0.18586322  0.63256100  1.0
  H  H8  1  0.27053192  0.91492971  0.58247832  1.0
  H  H9  1  0.77053192  0.58507029  0.41752168  1.0
  H  H10  1  0.72946808  0.41492971  0.91752168  1.0
  H  H11  1  0.22946808  0.08507029  0.08247832  1.0
  H  H12  1  0.28778118  0.46555454  0.68657686  1.0
  H  H13  1  0.78778118  0.03444546  0.31342314  1.0
  H  H14  1  0.71221882  0.96555454  0.81342314  1.0
  H  H15  1  0.21221882  0.53444546  0.18657686  1.0
  H  H16  1  0.12407841  0.94633754  0.33895853  1.0
  H  H17  1  0.62407841  0.55366246  0.66104147  1.0
  H  H18  1  0.87592159  0.44633754  0.16104147  1.0
  H  H19  1  0.37592159  0.05366246  0.83895853  1.0
  H  H20  1  0.07020286  0.95076282  0.99826701  1.0
  H  H21  1  0.57020286  0.54923718  0.00173299  1.0
  H  H22  1  0.92979714  0.45076282  0.50173299  1.0
  H  H23  1  0.42979714  0.04923718  0.49826701  1.0
  C  C24  1  0.42515801  0.79369608  0.87571009  1.0
  C  C25  1  0.92515801  0.70630392  0.12428991  1.0
  C  C26  1  0.57484199  0.29369608  0.62428991  1.0
  C  C27  1  0.07484199  0.20630392  0.37571009  1.0
  N  N28  1  0.48561214  0.44869973  0.65974045  1.0
  N  N29  1  0.98561214  0.05130027  0.34025955  1.0
  N  N30  1  0.51438786  0.94869973  0.84025955  1.0
  N  N31  1  0.01438786  0.55130027  0.15974045  1.0
  N  N32  1  0.43481899  1.00836939  0.56913813  1.0
  N  N33  1  0.93481899  0.49163061  0.43086187  1.0
  N  N34  1  0.56518101  0.50836939  0.93086187  1.0
  N  N35  1  0.06518101  -0.00836939  0.06913813  1.0
  N  N36  1  0.11630418  0.84607757  0.13098587  1.0
  N  N37  1  0.61630418  0.65392243  0.86901413  1.0
  N  N38  1  0.88369582  0.34607757  0.36901413  1.0
  N  N39  1  0.38369582  0.15392243  0.63098587  1.0
  Cl  Cl40  1  0.94198112  0.77275877  0.63410905  1.0
  Cl  Cl41  1  0.44198112  0.72724123  0.36589095  1.0
  Cl  Cl42  1  0.05801888  0.27275877  0.86589095  1.0
  Cl  Cl43  1  0.55801888  0.22724123  0.13410905  1.0
  O  O44  1  0.18372694  0.77055142  0.91147324  1.0
  O  O45  1  0.68372694  0.72944858  0.08852676  1.0
  O  O46  1  0.81627306  0.27055142  0.58852676  1.0
  O  O47  1  0.31627306  0.22944858  0.41147324  1.0
