# generated using pymatgen
data_NaMg3P3(HO6)2
_symmetry_space_group_name_H-M   'P 1'
_cell_length_a   8.51914041
_cell_length_b   8.51914041
_cell_length_c   6.56876996
_cell_angle_alpha   73.56164044
_cell_angle_beta   106.43835956
_cell_angle_gamma   88.95525313
_symmetry_Int_Tables_number   1
_chemical_formula_structural   NaMg3P3(HO6)2
_chemical_formula_sum   'Na2 Mg6 P6 H4 O24'
_cell_volume   436.04506382
_cell_formula_units_Z   2
loop_
 _symmetry_equiv_pos_site_id
 _symmetry_equiv_pos_as_xyz
  1  'x, y, z'
loop_
 _atom_site_type_symbol
 _atom_site_label
 _atom_site_symmetry_multiplicity
 _atom_site_fract_x
 _atom_site_fract_y
 _atom_site_fract_z
 _atom_site_occupancy
  Na  Na0  1  0.95916747  -0.04083253  0.75000000  1.0
  Na  Na1  1  1.04083253  0.04083253  0.25000000  1.0
  Mg  Mg2  1  0.37528544  -0.04996159  0.62763936  1.0
  Mg  Mg3  1  1.04996159  0.62471456  0.12763936  1.0
  Mg  Mg4  1  0.95003841  -0.62471456  0.87236064  1.0
  Mg  Mg5  1  1.62471456  0.04996159  0.37236064  1.0
  Mg  Mg6  1  1.27653981  0.27653981  0.75000000  1.0
  Mg  Mg7  1  0.72346019  -0.27653981  0.25000000  1.0
  P  P8  1  1.67177798  0.10673254  0.88781868  1.0
  P  P9  1  0.89326746  -0.67177798  0.38781868  1.0
  P  P10  1  1.10673254  0.67177798  0.61218132  1.0
  P  P11  1  0.32822202  -0.10673254  0.11218132  1.0
  P  P12  1  0.68451826  -0.31548174  0.75000000  1.0
  P  P13  1  1.31548174  0.31548174  0.25000000  1.0
  H  H14  1  1.61141872  0.37642032  0.80793009  1.0
  H  H15  1  0.62357968  -0.61141872  0.30793009  1.0
  H  H16  1  1.37642032  0.61141872  0.69206991  1.0
  H  H17  1  0.38858128  -0.37642032  0.19206991  1.0
  O  O18  1  0.72179124  -0.20414406  0.53702507  1.0
  O  O19  1  1.20414406  0.27820876  0.03702507  1.0
  O  O20  1  0.79585594  -0.27820876  0.96297493  1.0
  O  O21  1  1.27820876  0.20414406  0.46297493  1.0
  O  O22  1  0.50064000  -0.28251575  0.73576778  1.0
  O  O23  1  1.28251575  0.49936000  0.23576778  1.0
  O  O24  1  0.71748425  -0.49936000  0.76423222  1.0
  O  O25  1  1.49936000  0.28251575  0.26423222  1.0
  O  O26  1  1.84214906  0.15369032  0.40339714  1.0
  O  O27  1  0.84630968  -0.84214906  0.90339714  1.0
  O  O28  1  1.15369032  0.84214906  0.09660286  1.0
  O  O29  1  0.15785094  -0.15369032  0.59660286  1.0
  O  O30  1  1.60639866  0.03640911  0.69178225  1.0
  O  O31  1  0.96359089  -0.60639866  0.19178225  1.0
  O  O32  1  1.03640911  0.60639866  0.80821775  1.0
  O  O33  1  0.39360134  -0.03640911  0.30821775  1.0
  O  O34  1  1.32818040  0.01751086  0.88808631  1.0
  O  O35  1  0.98248914  -0.32818040  0.38808631  1.0
  O  O36  1  1.01751086  0.32818040  0.61191369  1.0
  O  O37  1  0.67181960  -0.01751086  0.11191369  1.0
  O  O38  1  1.54900856  0.26842458  0.84191509  1.0
  O  O39  1  0.73157542  -0.54900856  0.34191509  1.0
  O  O40  1  1.26842458  0.54900856  0.65808491  1.0
  O  O41  1  0.45099144  -0.26842458  0.15808491  1.0
