# generated using pymatgen
data_CsNbF6
_symmetry_space_group_name_H-M   'P 1'
_cell_length_a   5.51494607
_cell_length_b   5.51494607
_cell_length_c   5.51494607
_cell_angle_alpha   96.29998506
_cell_angle_beta   96.29998506
_cell_angle_gamma   96.29998506
_symmetry_Int_Tables_number   1
_chemical_formula_structural   CsNbF6
_chemical_formula_sum   'Cs1 Nb1 F6'
_cell_volume   164.45158015
_cell_formula_units_Z   1
loop_
 _symmetry_equiv_pos_site_id
 _symmetry_equiv_pos_as_xyz
  1  'x, y, z'
loop_
 _atom_site_type_symbol
 _atom_site_label
 _atom_site_symmetry_multiplicity
 _atom_site_fract_x
 _atom_site_fract_y
 _atom_site_fract_z
 _atom_site_occupancy
  Cs  Cs0  1  0.50000000  0.50000000  0.50000000  1.0
  Nb  Nb1  1  0.00000000  0.00000000  0.00000000  1.0
  F  F2  1  1.24299730  0.24299730  -0.08524377  1.0
  F  F3  1  1.24299730  -0.08524377  0.24299730  1.0
  F  F4  1  1.08524377  0.75700270  -0.24299730  1.0
  F  F5  1  0.75700270  1.08524377  -0.24299730  1.0
  F  F6  1  0.75700270  0.75700270  0.08524377  1.0
  F  F7  1  0.91475623  0.24299730  0.24299730  1.0
