# generated using pymatgen
data_SrBH4Cl
_symmetry_space_group_name_H-M   'P 1'
_cell_length_a   11.22589755
_cell_length_b   4.58291608
_cell_length_c   7.45871961
_cell_angle_alpha   90.00000000
_cell_angle_beta   90.00000000
_cell_angle_gamma   90.00000000
_symmetry_Int_Tables_number   1
_chemical_formula_structural   SrBH4Cl
_chemical_formula_sum   'Sr4 B4 H16 Cl4'
_cell_volume   383.73133145
_cell_formula_units_Z   4
loop_
 _symmetry_equiv_pos_site_id
 _symmetry_equiv_pos_as_xyz
  1  'x, y, z'
loop_
 _atom_site_type_symbol
 _atom_site_label
 _atom_site_symmetry_multiplicity
 _atom_site_fract_x
 _atom_site_fract_y
 _atom_site_fract_z
 _atom_site_occupancy
  Sr  Sr0  1  0.16006000  0.75000000  0.85737580  1.0
  Sr  Sr1  1  0.66006000  0.75000000  0.64262420  1.0
  Sr  Sr2  1  0.83994000  0.25000000  0.14262420  1.0
  Sr  Sr3  1  0.33994000  0.25000000  0.35737580  1.0
  B  B4  1  0.35528409  0.75000000  0.12130368  1.0
  B  B5  1  0.85528409  0.75000000  0.37869632  1.0
  B  B6  1  0.64471591  0.25000000  0.87869632  1.0
  B  B7  1  0.14471591  0.25000000  0.62130368  1.0
  H  H8  1  0.35125913  0.96920527  0.02790036  1.0
  H  H9  1  0.35125913  0.53079473  0.02790036  1.0
  H  H10  1  0.85125913  0.96920527  0.47209964  1.0
  H  H11  1  0.85125913  0.53079473  0.47209964  1.0
  H  H12  1  0.64874087  0.46920527  0.97209964  1.0
  H  H13  1  0.64874087  0.03079473  0.97209964  1.0
  H  H14  1  0.14874087  0.46920527  0.52790036  1.0
  H  H15  1  0.14874087  0.03079473  0.52790036  1.0
  H  H16  1  0.44721965  0.75000000  0.20792762  1.0
  H  H17  1  0.94721965  0.75000000  0.29207238  1.0
  H  H18  1  0.55278035  0.25000000  0.79207238  1.0
  H  H19  1  0.05278035  0.25000000  0.70792762  1.0
  H  H20  1  0.26826283  0.75000000  0.22309433  1.0
  H  H21  1  0.76826283  0.75000000  0.27690567  1.0
  H  H22  1  0.73173717  0.25000000  0.77690567  1.0
  H  H23  1  0.23173717  0.25000000  0.72309433  1.0
  Cl  Cl24  1  0.39525983  0.75000000  0.61216077  1.0
  Cl  Cl25  1  0.89525983  0.75000000  0.88783923  1.0
  Cl  Cl26  1  0.60474017  0.25000000  0.38783923  1.0
  Cl  Cl27  1  0.10474017  0.25000000  0.11216077  1.0
