# generated using pymatgen
data_ScH11(IO3)2
_symmetry_space_group_name_H-M   'P 1'
_cell_length_a   8.20252668
_cell_length_b   8.57106954
_cell_length_c   9.13563657
_cell_angle_alpha   75.17654584
_cell_angle_beta   64.21486586
_cell_angle_gamma   75.80999455
_symmetry_Int_Tables_number   1
_chemical_formula_structural   ScH11(IO3)2
_chemical_formula_sum   'Sc2 H22 I4 O12'
_cell_volume   552.42901392
_cell_formula_units_Z   2
loop_
 _symmetry_equiv_pos_site_id
 _symmetry_equiv_pos_as_xyz
  1  'x, y, z'
loop_
 _atom_site_type_symbol
 _atom_site_label
 _atom_site_symmetry_multiplicity
 _atom_site_fract_x
 _atom_site_fract_y
 _atom_site_fract_z
 _atom_site_occupancy
  Sc  Sc0  1  0.04506280  0.64810505  -0.67150604  1.0
  Sc  Sc1  1  -0.04506280  0.35189495  -0.32849396  1.0
  H  H2  1  -0.15081171  0.49683317  -0.77586449  1.0
  H  H3  1  0.15081171  0.50316683  -0.22413551  1.0
  H  H4  1  -0.22853695  0.94759281  -0.64411344  1.0
  H  H5  1  0.22853695  0.05240719  -0.35588656  1.0
  H  H6  1  -0.32060746  0.80813456  -0.50166660  1.0
  H  H7  1  0.32060746  0.19186544  -0.49833340  1.0
  H  H8  1  0.17391941  0.80584417  -1.00854181  1.0
  H  H9  1  -0.17391941  0.19415583  0.00854181  1.0
  H  H10  1  0.13702230  0.94663249  -0.91138721  1.0
  H  H11  1  -0.13702230  0.05336751  -0.08861279  1.0
  H  H12  1  0.06488171  0.31858830  -0.65038986  1.0
  H  H13  1  -0.06488171  0.68141170  -0.34961014  1.0
  H  H14  1  0.27811795  0.88395836  -0.72912230  1.0
  H  H15  1  -0.27811795  0.11604164  -0.27087770  1.0
  H  H16  1  0.31532692  0.43004376  -0.86691563  1.0
  H  H17  1  -0.31532692  0.56995624  -0.13308437  1.0
  H  H18  1  0.41947165  0.50903463  -0.80401413  1.0
  H  H19  1  -0.41947165  0.49096537  -0.19598587  1.0
  H  H20  1  0.25588684  0.77244922  -0.55465710  1.0
  H  H21  1  -0.25588684  0.22755078  -0.44534290  1.0
  H  H22  1  -0.13590471  0.67092817  -0.89085577  1.0
  H  H23  1  0.13590471  0.32907183  -0.10914423  1.0
  I  I24  1  -0.64762099  0.73809880  -0.31305501  1.0
  I  I25  1  0.64762099  0.26190120  -0.68694499  1.0
  I  I26  1  0.26991368  0.17354779  -0.90665649  1.0
  I  I27  1  -0.26991368  0.82645221  -0.09334351  1.0
  O  O28  1  -0.08816440  0.59275169  -0.81253979  1.0
  O  O29  1  0.08816440  0.40724831  -0.18746021  1.0
  O  O30  1  -0.20192561  0.83583994  -0.58810102  1.0
  O  O31  1  0.20192561  0.16416006  -0.41189898  1.0
  O  O32  1  0.09812247  0.84231909  -0.90146814  1.0
  O  O33  1  -0.09812247  0.15768091  -0.09853186  1.0
  O  O34  1  0.01623219  0.40209351  -0.57926751  1.0
  O  O35  1  -0.01623219  0.59790649  -0.42073249  1.0
  O  O36  1  0.31722388  0.53415745  -0.83916802  1.0
  O  O37  1  -0.31722388  0.46584255  -0.16083198  1.0
  O  O38  1  0.23482759  0.78295983  -0.65552338  1.0
  O  O39  1  -0.23482759  0.21704017  -0.34447662  1.0
