# generated using pymatgen
data_Ga4Ge(PbSe3)4
_symmetry_space_group_name_H-M   'P 1'
_cell_length_a   13.58295368
_cell_length_b   13.58295368
_cell_length_c   6.50001441
_cell_angle_alpha   90.00000000
_cell_angle_beta   90.00000000
_cell_angle_gamma   90.00000000
_symmetry_Int_Tables_number   1
_chemical_formula_structural   Ga4Ge(PbSe3)4
_chemical_formula_sum   'Ga8 Ge2 Pb8 Se24'
_cell_volume   1199.23075836
_cell_formula_units_Z   2
loop_
 _symmetry_equiv_pos_site_id
 _symmetry_equiv_pos_as_xyz
  1  'x, y, z'
loop_
 _atom_site_type_symbol
 _atom_site_label
 _atom_site_symmetry_multiplicity
 _atom_site_fract_x
 _atom_site_fract_y
 _atom_site_fract_z
 _atom_site_occupancy
  Ga  Ga0  1  0.26403040  0.35257304  0.44933357  1.0
  Ga  Ga1  1  0.23596960  0.85257304  0.05066643  1.0
  Ga  Ga2  1  0.64742696  0.26403040  0.55066643  1.0
  Ga  Ga3  1  0.85257304  0.76403040  0.94933357  1.0
  Ga  Ga4  1  0.73596960  0.64742696  0.44933357  1.0
  Ga  Ga5  1  0.76403040  0.14742696  0.05066643  1.0
  Ga  Ga6  1  0.35257304  0.73596960  0.55066643  1.0
  Ga  Ga7  1  0.14742696  0.23596960  0.94933357  1.0
  Ge  Ge8  1  0.50000000  0.50000000  0.50000000  1.0
  Ge  Ge9  1  0.00000000  0.00000000  0.00000000  1.0
  Pb  Pb10  1  0.49909649  0.18391406  0.10990339  1.0
  Pb  Pb11  1  0.00090351  0.68391406  0.39009661  1.0
  Pb  Pb12  1  0.81608594  0.49909649  0.89009661  1.0
  Pb  Pb13  1  0.68391406  0.99909649  0.60990339  1.0
  Pb  Pb14  1  0.50090351  0.81608594  0.10990339  1.0
  Pb  Pb15  1  0.99909649  0.31608594  0.39009661  1.0
  Pb  Pb16  1  0.18391406  0.50090351  0.89009661  1.0
  Pb  Pb17  1  0.31608594  0.00090351  0.60990339  1.0
  Se  Se18  1  0.13933190  0.48255822  0.45156630  1.0
  Se  Se19  1  0.36066810  0.98255822  0.04843370  1.0
  Se  Se20  1  0.51744178  0.13933190  0.54843370  1.0
  Se  Se21  1  0.98255822  0.63933190  0.95156630  1.0
  Se  Se22  1  0.86066810  0.51744178  0.45156630  1.0
  Se  Se23  1  0.63933190  0.01744178  0.04843370  1.0
  Se  Se24  1  0.48255822  0.86066810  0.54843370  1.0
  Se  Se25  1  0.01744178  0.36066810  0.95156630  1.0
  Se  Se26  1  0.40909157  0.40198708  0.25724479  1.0
  Se  Se27  1  0.09090843  0.90198708  0.24275521  1.0
  Se  Se28  1  0.59801292  0.40909157  0.74275521  1.0
  Se  Se29  1  0.90198708  0.90909157  0.75724479  1.0
  Se  Se30  1  0.59090843  0.59801292  0.25724479  1.0
  Se  Se31  1  0.90909157  0.09801292  0.24275521  1.0
  Se  Se32  1  0.40198708  0.59090843  0.74275521  1.0
  Se  Se33  1  0.09801292  0.09090843  0.75724479  1.0
  Se  Se34  1  0.18715581  0.20294203  0.31132118  1.0
  Se  Se35  1  0.31284419  0.70294203  0.18867882  1.0
  Se  Se36  1  0.79705797  0.18715581  0.68867882  1.0
  Se  Se37  1  0.70294203  0.68715581  0.81132118  1.0
  Se  Se38  1  0.81284419  0.79705797  0.31132118  1.0
  Se  Se39  1  0.68715581  0.29705797  0.18867882  1.0
  Se  Se40  1  0.20294203  0.81284419  0.68867882  1.0
  Se  Se41  1  0.29705797  0.31284419  0.81132118  1.0
