# generated using pymatgen
data_NiTe6O13
_symmetry_space_group_name_H-M   'P 1'
_cell_length_a   8.76182302
_cell_length_b   8.76182302
_cell_length_c   8.76182302
_cell_angle_alpha   71.98121348
_cell_angle_beta   71.98121348
_cell_angle_gamma   71.98121348
_symmetry_Int_Tables_number   1
_chemical_formula_structural   NiTe6O13
_chemical_formula_sum   'Ni2 Te12 O26'
_cell_volume   591.06094879
_cell_formula_units_Z   2
loop_
 _symmetry_equiv_pos_site_id
 _symmetry_equiv_pos_as_xyz
  1  'x, y, z'
loop_
 _atom_site_type_symbol
 _atom_site_label
 _atom_site_symmetry_multiplicity
 _atom_site_fract_x
 _atom_site_fract_y
 _atom_site_fract_z
 _atom_site_occupancy
  Ni  Ni0  1  0.74404878  0.74404878  -0.25595122  1.0
  Ni  Ni1  1  1.25595122  1.25595122  0.25595122  1.0
  Te  Te2  1  0.52859808  0.41779243  -0.17143717  1.0
  Te  Te3  1  0.58220757  0.17143717  -0.52859808  1.0
  Te  Te4  1  0.17143717  0.47140192  -0.41779243  1.0
  Te  Te5  1  0.47140192  0.58220757  -0.82856283  1.0
  Te  Te6  1  0.41779243  0.82856283  -0.47140192  1.0
  Te  Te7  1  0.82856283  0.52859808  -0.58220757  1.0
  Te  Te8  1  0.66635217  -0.01218255  0.06612963  1.0
  Te  Te9  1  1.01218255  -0.06612963  -0.66635217  1.0
  Te  Te10  1  0.93387037  -0.66635217  0.01218255  1.0
  Te  Te11  1  0.33364783  0.01218255  -0.06612963  1.0
  Te  Te12  1  0.98781745  0.06612963  -0.33364783  1.0
  Te  Te13  1  1.06612963  -0.33364783  -0.01218255  1.0
  O  O14  1  0.63418933  0.55309554  -0.11277503  1.0
  O  O15  1  1.44690446  1.11277503  0.36581067  1.0
  O  O16  1  1.11277503  1.36581067  0.44690446  1.0
  O  O17  1  1.36581067  1.44690446  0.11277503  1.0
  O  O18  1  0.55309554  0.88722497  -0.36581067  1.0
  O  O19  1  0.88722497  0.63418933  -0.44690446  1.0
  O  O20  1  0.37871984  0.62417642  -0.29441196  1.0
  O  O21  1  0.37582358  0.29441196  -0.37871984  1.0
  O  O22  1  0.29441196  0.62128016  -0.62417642  1.0
  O  O23  1  0.62128016  0.37582358  -0.70558804  1.0
  O  O24  1  0.62417642  0.70558804  -0.62128016  1.0
  O  O25  1  0.70558804  0.37871984  -0.37582358  1.0
  O  O26  1  0.60313514  0.91114030  -0.09795190  1.0
  O  O27  1  1.08885970  1.09795190  0.39686486  1.0
  O  O28  1  1.09795190  1.39686486  0.08885970  1.0
  O  O29  1  1.39686486  1.08885970  0.09795190  1.0
  O  O30  1  0.91114030  0.90204810  -0.39686486  1.0
  O  O31  1  0.90204810  0.60313514  -0.08885970  1.0
  O  O32  1  0.70438742  0.20643947  -0.05217039  1.0
  O  O33  1  0.79356053  0.05217039  -0.70438742  1.0
  O  O34  1  0.05217039  0.29561258  -0.20643947  1.0
  O  O35  1  0.29561258  0.79356053  -0.94782961  1.0
  O  O36  1  1.20643947  -0.05217039  -0.29561258  1.0
  O  O37  1  0.94782961  -0.29561258  0.20643947  1.0
  O  O38  1  0.91564484  0.91564484  -0.08435516  1.0
  O  O39  1  1.08435516  1.08435516  0.08435516  1.0
