# generated using pymatgen
data_Fe(CuS)2
_symmetry_space_group_name_H-M   'P 1'
_cell_length_a   7.65946685
_cell_length_b   7.65946685
_cell_length_c   7.65946685
_cell_angle_alpha   60.00000000
_cell_angle_beta   60.00000000
_cell_angle_gamma   60.00000000
_symmetry_Int_Tables_number   1
_chemical_formula_structural   Fe(CuS)2
_chemical_formula_sum   'Fe4 Cu8 S8'
_cell_volume   317.74638934
_cell_formula_units_Z   4
loop_
 _symmetry_equiv_pos_site_id
 _symmetry_equiv_pos_as_xyz
  1  'x, y, z'
loop_
 _atom_site_type_symbol
 _atom_site_label
 _atom_site_symmetry_multiplicity
 _atom_site_fract_x
 _atom_site_fract_y
 _atom_site_fract_z
 _atom_site_occupancy
  S  S0  1  0.00000000  0.00000000  0.00000000  1.0
  S  S1  1  -0.50000000  0.50000000  0.50000000  1.0
  S  S2  1  0.49178106  0.00821894  0.00821894  1.0
  S  S3  1  0.00821894  0.49178106  0.00821894  1.0
  S  S4  1  0.00821894  0.00821894  0.49178106  1.0
  S  S5  1  0.49178106  1.00821894  -0.50821894  1.0
  S  S6  1  -0.50821894  0.49178106  1.00821894  1.0
  S  S7  1  1.00821894  0.49178106  -0.50821894  1.0
  Fe  Fe8  1  0.12375379  0.62873863  0.12375379  1.0
  Fe  Fe9  1  0.12375379  0.12375379  0.62873863  1.0
  Fe  Fe10  1  0.62873863  0.12375379  0.12375379  1.0
  Fe  Fe11  1  0.12375379  0.12375379  0.12375379  1.0
  Cu  Cu12  1  0.86662517  0.86662517  -0.13337483  1.0
  Cu  Cu13  1  0.40012450  0.86662517  -0.13337483  1.0
  Cu  Cu14  1  0.86662517  0.86662517  -0.59987550  1.0
  Cu  Cu15  1  0.86662517  0.40012450  -0.13337483  1.0
  Cu  Cu16  1  0.61965935  1.14102194  -0.38034065  1.0
  Cu  Cu17  1  -0.38034065  0.61965935  1.14102194  1.0
  Cu  Cu18  1  1.14102194  0.61965935  -0.38034065  1.0
  Cu  Cu19  1  -0.38034065  0.61965935  0.61965935  1.0
