# generated using pymatgen
data_LuMnGe2
_symmetry_space_group_name_H-M   'P 1'
_cell_length_a   9.63196037
_cell_length_b   9.63196037
_cell_length_c   8.17569595
_cell_angle_alpha   90.00000000
_cell_angle_beta   90.00000000
_cell_angle_gamma   147.03885468
_symmetry_Int_Tables_number   1
_chemical_formula_structural   LuMnGe2
_chemical_formula_sum   'Lu6 Mn6 Ge12'
_cell_volume   412.67582009
_cell_formula_units_Z   6
loop_
 _symmetry_equiv_pos_site_id
 _symmetry_equiv_pos_as_xyz
  1  'x, y, z'
loop_
 _atom_site_type_symbol
 _atom_site_label
 _atom_site_symmetry_multiplicity
 _atom_site_fract_x
 _atom_site_fract_y
 _atom_site_fract_z
 _atom_site_occupancy
  Lu  Lu0  1  -0.59458943  0.59458943  0.75424140  1.0
  Lu  Lu1  1  -0.59458943  0.59458943  0.24575860  1.0
  Lu  Lu2  1  -0.40541057  1.40541057  0.75424140  1.0
  Lu  Lu3  1  -0.40541057  1.40541057  0.24575860  1.0
  Lu  Lu4  1  -0.86019417  0.86019417  0.00000000  1.0
  Lu  Lu5  1  -0.13980583  1.13980583  0.00000000  1.0
  Mn  Mn6  1  -0.00000000  1.50000000  0.75158307  1.0
  Mn  Mn7  1  -0.00000000  1.50000000  0.24841693  1.0
  Mn  Mn8  1  -0.50000000  1.00000000  0.75158307  1.0
  Mn  Mn9  1  -0.50000000  1.00000000  0.24841693  1.0
  Mn  Mn10  1  0.00000000  0.00000000  0.74416350  1.0
  Mn  Mn11  1  0.00000000  0.00000000  0.25583650  1.0
  Ge  Ge12  1  -0.86059209  0.86059209  0.65511001  1.0
  Ge  Ge13  1  -0.86059209  0.86059209  0.34488999  1.0
  Ge  Ge14  1  -0.13940791  1.13940791  0.65511001  1.0
  Ge  Ge15  1  -0.13940791  1.13940791  0.34488999  1.0
  Ge  Ge16  1  -0.70836508  0.70836508  0.50000000  1.0
  Ge  Ge17  1  -0.29163492  1.29163492  0.50000000  1.0
  Ge  Ge18  1  -0.70308122  0.70308122  0.00000000  1.0
  Ge  Ge19  1  -0.29691878  1.29691878  0.00000000  1.0
  Ge  Ge20  1  0.73403568  0.73403568  0.50000000  1.0
  Ge  Ge21  1  0.26596432  0.26596432  0.50000000  1.0
  Ge  Ge22  1  0.74228880  0.74228880  0.00000000  1.0
  Ge  Ge23  1  0.25771120  0.25771120  0.00000000  1.0
