# generated using pymatgen
data_LiAlSiO5
_symmetry_space_group_name_H-M   'P 1'
_cell_length_a   9.84076875
_cell_length_b   15.01953548
_cell_length_c   5.04052257
_cell_angle_alpha   90.00000000
_cell_angle_beta   105.36030545
_cell_angle_gamma   90.00000000
_symmetry_Int_Tables_number   1
_chemical_formula_structural   LiAlSiO5
_chemical_formula_sum   'Li8 Al8 Si8 O40'
_cell_volume   718.39593691
_cell_formula_units_Z   8
loop_
 _symmetry_equiv_pos_site_id
 _symmetry_equiv_pos_as_xyz
  1  'x, y, z'
loop_
 _atom_site_type_symbol
 _atom_site_label
 _atom_site_symmetry_multiplicity
 _atom_site_fract_x
 _atom_site_fract_y
 _atom_site_fract_z
 _atom_site_occupancy
  Al  Al0  1  0.75359781  0.39779128  0.03754751  1.0
  Al  Al1  1  0.24640219  0.89779128  0.46245249  1.0
  Al  Al2  1  0.24640219  0.60220872  0.96245249  1.0
  Al  Al3  1  0.75359781  0.10220872  0.53754751  1.0
  Al  Al4  1  0.25244043  0.47220100  0.46559212  1.0
  Al  Al5  1  0.74755957  0.97220100  0.03440788  1.0
  Al  Al6  1  0.74755957  0.52779900  0.53440788  1.0
  Al  Al7  1  0.25244043  0.02779900  0.96559212  1.0
  Li  Li8  1  0.75285813  0.29519254  0.53827076  1.0
  Li  Li9  1  0.24714187  0.79519254  0.96172924  1.0
  Li  Li10  1  0.24714187  0.70480746  0.46172924  1.0
  Li  Li11  1  0.75285813  0.20480746  0.03827076  1.0
  Li  Li12  1  0.23315674  0.37358090  0.95983755  1.0
  Li  Li13  1  0.76684326  0.87358090  0.54016245  1.0
  Li  Li14  1  0.76684326  0.62641910  0.04016245  1.0
  Li  Li15  1  0.23315674  0.12641910  0.45983755  1.0
  Si  Si16  1  0.04557731  0.30516744  0.33144370  1.0
  Si  Si17  1  0.95442269  0.80516744  0.16855630  1.0
  Si  Si18  1  0.95442269  0.69483256  0.66855630  1.0
  Si  Si19  1  0.04557731  0.19483256  0.83144370  1.0
  Si  Si20  1  0.46120329  0.30606485  0.77250676  1.0
  Si  Si21  1  0.53879671  0.80606485  0.72749324  1.0
  Si  Si22  1  0.53879671  0.69393515  0.22749324  1.0
  Si  Si23  1  0.46120329  0.19393515  0.27250676  1.0
  O  O24  1  0.09311266  0.21747305  0.16818236  1.0
  O  O25  1  0.90688734  0.71747305  0.33181764  1.0
  O  O26  1  0.90688734  0.78252695  0.83181764  1.0
  O  O27  1  0.09311266  0.28252695  0.66818236  1.0
  O  O28  1  0.87420866  0.31199304  0.22737217  1.0
  O  O29  1  0.12579134  0.81199304  0.27262783  1.0
  O  O30  1  0.12579134  0.68800696  0.77262783  1.0
  O  O31  1  0.87420866  0.18800696  0.72737217  1.0
  O  O32  1  0.40970617  0.22364743  0.54870428  1.0
  O  O33  1  0.59029383  0.72364743  0.95129572  1.0
  O  O34  1  0.59029383  0.77635257  0.45129572  1.0
  O  O35  1  0.40970617  0.27635257  0.04870428  1.0
  O  O36  1  0.63303187  0.31177612  0.84615686  1.0
  O  O37  1  0.36696813  0.81177612  0.65384314  1.0
  O  O38  1  0.36696813  0.68822388  0.15384314  1.0
  O  O39  1  0.63303187  0.18822388  0.34615686  1.0
  O  O40  1  0.66933891  0.50044429  0.83630974  1.0
  O  O41  1  0.33066109  0.00044429  0.66369026  1.0
  O  O42  1  0.33066109  0.49955571  0.16369026  1.0
  O  O43  1  0.66933891  0.99955571  0.33630974  1.0
  O  O44  1  0.83579358  0.50033646  0.24244604  1.0
  O  O45  1  0.16420642  0.00033646  0.25755396  1.0
  O  O46  1  0.16420642  0.49966354  0.75755396  1.0
  O  O47  1  0.83579358  0.99966354  0.74244604  1.0
  O  O48  1  0.83514473  0.42305155  0.73829245  1.0
  O  O49  1  0.16485527  0.92305155  0.76170755  1.0
  O  O50  1  0.16485527  0.57694845  0.26170755  1.0
  O  O51  1  0.83514473  0.07694845  0.23829245  1.0
  O  O52  1  0.67043375  0.42113595  0.33671761  1.0
  O  O53  1  0.32956625  0.92113595  0.16328239  1.0
  O  O54  1  0.32956625  0.57886405  0.66328239  1.0
  O  O55  1  0.67043375  0.07886405  0.83671761  1.0
  O  O56  1  0.37600312  0.39587841  0.67317010  1.0
  O  O57  1  0.62399688  0.89587841  0.82682990  1.0
  O  O58  1  0.62399688  0.60412159  0.32682990  1.0
  O  O59  1  0.37600312  0.10412159  0.17317010  1.0
  O  O60  1  0.13198349  0.38963152  0.26632073  1.0
  O  O61  1  0.86801651  0.88963152  0.23367927  1.0
  O  O62  1  0.86801651  0.61036848  0.73367927  1.0
  O  O63  1  0.13198349  0.11036848  0.76632073  1.0
