# generated using pymatgen
data_SiCl
_symmetry_space_group_name_H-M   'P 1'
_cell_length_a   3.19487395
_cell_length_b   3.19487395
_cell_length_c   11.33979470
_cell_angle_alpha   90.00000000
_cell_angle_beta   90.00000000
_cell_angle_gamma   60.14070119
_symmetry_Int_Tables_number   1
_chemical_formula_structural   SiCl
_chemical_formula_sum   'Si2 Cl2'
_cell_volume   100.38233142
_cell_formula_units_Z   2
loop_
 _symmetry_equiv_pos_site_id
 _symmetry_equiv_pos_as_xyz
  1  'x, y, z'
loop_
 _atom_site_type_symbol
 _atom_site_label
 _atom_site_symmetry_multiplicity
 _atom_site_fract_x
 _atom_site_fract_y
 _atom_site_fract_z
 _atom_site_occupancy
  Si  Si0  1  0.24901734  0.75098266  0.00764890  1.0
  Si  Si1  1  -0.24901734  1.24901734  0.50764890  1.0
  Cl  Cl2  1  0.24889407  0.75110593  0.18975110  1.0
  Cl  Cl3  1  -0.24889407  1.24889407  0.68975110  1.0
