# generated using pymatgen
data_GaAu
_symmetry_space_group_name_H-M   'P 1'
_cell_length_a   6.36400954
_cell_length_b   3.59956236
_cell_length_c   6.41042649
_cell_angle_alpha   90.00000000
_cell_angle_beta   90.00000000
_cell_angle_gamma   90.00000000
_symmetry_Int_Tables_number   1
_chemical_formula_structural   GaAu
_chemical_formula_sum   'Ga4 Au4'
_cell_volume   146.84780141
_cell_formula_units_Z   4
loop_
 _symmetry_equiv_pos_site_id
 _symmetry_equiv_pos_as_xyz
  1  'x, y, z'
loop_
 _atom_site_type_symbol
 _atom_site_label
 _atom_site_symmetry_multiplicity
 _atom_site_fract_x
 _atom_site_fract_y
 _atom_site_fract_z
 _atom_site_occupancy
  Ga  Ga0  1  0.81983415  0.75000000  0.57241720  1.0
  Ga  Ga1  1  0.31983415  0.75000000  0.92758280  1.0
  Ga  Ga2  1  0.18016585  0.25000000  0.42758280  1.0
  Ga  Ga3  1  0.68016585  0.25000000  0.07241720  1.0
  Au  Au4  1  0.99289485  0.75000000  0.18732060  1.0
  Au  Au5  1  0.49289485  0.75000000  0.31267940  1.0
  Au  Au6  1  0.00710515  0.25000000  0.81267940  1.0
  Au  Au7  1  0.50710515  0.25000000  0.68732060  1.0
