# generated using pymatgen
data_Na2TiSiO5
_symmetry_space_group_name_H-M   'P 1'
_cell_length_a   6.53355857
_cell_length_b   6.53355857
_cell_length_c   5.18826173
_cell_angle_alpha   90.00000000
_cell_angle_beta   90.00000000
_cell_angle_gamma   90.00000000
_symmetry_Int_Tables_number   1
_chemical_formula_structural   Na2TiSiO5
_chemical_formula_sum   'Na4 Ti2 Si2 O10'
_cell_volume   221.47333955
_cell_formula_units_Z   2
loop_
 _symmetry_equiv_pos_site_id
 _symmetry_equiv_pos_as_xyz
  1  'x, y, z'
loop_
 _atom_site_type_symbol
 _atom_site_label
 _atom_site_symmetry_multiplicity
 _atom_site_fract_x
 _atom_site_fract_y
 _atom_site_fract_z
 _atom_site_occupancy
  Na  Na0  1  0.25000000  0.25000000  0.50000000  1.0
  Na  Na1  1  0.75000000  0.75000000  0.50000000  1.0
  Na  Na2  1  0.75000000  0.25000000  0.50000000  1.0
  Na  Na3  1  0.25000000  0.75000000  0.50000000  1.0
  Ti  Ti4  1  0.50000000  0.00000000  0.93694023  1.0
  Ti  Ti5  1  0.00000000  0.50000000  0.06305977  1.0
  Si  Si6  1  0.50000000  0.50000000  0.00000000  1.0
  Si  Si7  1  0.00000000  0.00000000  0.00000000  1.0
  O  O8  1  0.50000000  0.29242413  0.81848710  1.0
  O  O9  1  0.50000000  0.70757587  0.81848710  1.0
  O  O10  1  -0.00000000  0.79242413  0.18151290  1.0
  O  O11  1  -0.00000000  0.20757587  0.18151290  1.0
  O  O12  1  0.70757587  0.50000000  0.18151290  1.0
  O  O13  1  0.29242413  0.50000000  0.18151290  1.0
  O  O14  1  0.20757587  0.00000000  0.81848710  1.0
  O  O15  1  0.79242413  -0.00000000  0.81848710  1.0
  O  O16  1  0.50000000  0.00000000  0.26657599  1.0
  O  O17  1  0.00000000  0.50000000  0.73342401  1.0
