# generated using pymatgen
data_CuH8C4S2(O2F)6
_symmetry_space_group_name_H-M   'P 1'
_cell_length_a   11.97072467
_cell_length_b   6.51066685
_cell_length_c   5.59883190
_cell_angle_alpha   84.27843444
_cell_angle_beta   84.72420195
_cell_angle_gamma   85.20683547
_symmetry_Int_Tables_number   1
_chemical_formula_structural   CuH8C4S2(O2F)6
_chemical_formula_sum   'Cu1 H8 C4 S2 O12 F6'
_cell_volume   431.12477431
_cell_formula_units_Z   1
loop_
 _symmetry_equiv_pos_site_id
 _symmetry_equiv_pos_as_xyz
  1  'x, y, z'
loop_
 _atom_site_type_symbol
 _atom_site_label
 _atom_site_symmetry_multiplicity
 _atom_site_fract_x
 _atom_site_fract_y
 _atom_site_fract_z
 _atom_site_occupancy
  Cu  Cu0  1  0.00000000  -0.50000000  -0.50000000  1.0
  H  H1  1  -0.92007367  -0.31943194  -0.90229461  1.0
  H  H2  1  -0.07992633  -0.68056806  -0.09770539  1.0
  H  H3  1  -1.01385520  -0.17321377  -0.74791417  1.0
  H  H4  1  0.01385520  -0.82678623  -0.25208583  1.0
  H  H5  1  -0.21011880  -0.55892582  -0.85889535  1.0
  H  H6  1  -0.78988120  -0.44107418  -0.14110465  1.0
  H  H7  1  -0.15362344  -0.76766874  -0.74556803  1.0
  H  H8  1  -0.84637656  -0.23233126  -0.25443197  1.0
  C  C9  1  -0.71879704  -0.92440796  -0.68957096  1.0
  C  C10  1  -0.28120296  -0.07559204  -0.31042904  1.0
  C  C11  1  -0.82993032  -0.85011466  -0.54406972  1.0
  C  C12  1  -0.17006968  -0.14988534  -0.45593028  1.0
  S  S13  1  -0.62657847  -0.69877421  -0.75233481  1.0
  S  S14  1  -0.37342153  -0.30122579  -0.24766519  1.0
  O  O15  1  -0.65338647  -0.57427614  -0.96923377  1.0
  O  O16  1  -0.34661353  -0.42572386  -0.03076623  1.0
  O  O17  1  -0.13706745  -0.63195398  -0.83088434  1.0
  O  O18  1  -0.86293255  -0.36804602  -0.16911566  1.0
  O  O19  1  -0.94902414  -0.27868173  -0.73622466  1.0
  O  O20  1  -0.05097586  -0.72131827  -0.26377534  1.0
  O  O21  1  -0.87176877  -0.67804751  -0.63712738  1.0
  O  O22  1  -0.12823123  -0.32195249  -0.36287262  1.0
  O  O23  1  -0.61613427  -0.61434098  -0.52937443  1.0
  O  O24  1  -0.38386573  -0.38565902  -0.47062557  1.0
  O  O25  1  -0.86396221  -0.95956623  -0.36128156  1.0
  O  O26  1  -0.13603779  -0.04043377  -0.63871844  1.0
  F  F27  1  -0.73964627  -0.98496627  -0.90562579  1.0
  F  F28  1  -0.26035373  -0.01503373  -0.09437421  1.0
  F  F29  1  -0.51058985  -0.83035722  -0.82031556  1.0
  F  F30  1  -0.48941015  -0.16964278  -0.17968444  1.0
  F  F31  1  -0.33939034  -0.91910283  -0.43296293  1.0
  F  F32  1  -0.66060966  -0.08089717  -0.56703707  1.0
