# generated using pymatgen
data_Lu2CdCu2
_symmetry_space_group_name_H-M   'P 1'
_cell_length_a   7.41055191
_cell_length_b   7.41055191
_cell_length_c   3.67197156
_cell_angle_alpha   90.00000000
_cell_angle_beta   90.00000000
_cell_angle_gamma   90.00000000
_symmetry_Int_Tables_number   1
_chemical_formula_structural   Lu2CdCu2
_chemical_formula_sum   'Lu4 Cd2 Cu4'
_cell_volume   201.65101697
_cell_formula_units_Z   2
loop_
 _symmetry_equiv_pos_site_id
 _symmetry_equiv_pos_as_xyz
  1  'x, y, z'
loop_
 _atom_site_type_symbol
 _atom_site_label
 _atom_site_symmetry_multiplicity
 _atom_site_fract_x
 _atom_site_fract_y
 _atom_site_fract_z
 _atom_site_occupancy
  Lu  Lu0  1  0.32725164  0.17274836  0.50000000  1.0
  Lu  Lu1  1  0.82725164  0.32725164  0.50000000  1.0
  Lu  Lu2  1  0.67274836  0.82725164  0.50000000  1.0
  Lu  Lu3  1  0.17274836  0.67274836  0.50000000  1.0
  Cd  Cd4  1  0.50000000  0.50000000  0.00000000  1.0
  Cd  Cd5  1  0.00000000  0.00000000  0.00000000  1.0
  Cu  Cu6  1  0.87884278  0.62115722  0.00000000  1.0
  Cu  Cu7  1  0.37884278  0.87884278  0.00000000  1.0
  Cu  Cu8  1  0.12115722  0.37884278  0.00000000  1.0
  Cu  Cu9  1  0.62115722  0.12115722  0.00000000  1.0
