# generated using pymatgen
data_Rb5(FeO2)3
_symmetry_space_group_name_H-M   'P 1'
_cell_length_a   9.77846709
_cell_length_b   9.77846709
_cell_length_c   9.77846709
_cell_angle_alpha   126.86288283
_cell_angle_beta   126.86288283
_cell_angle_gamma   78.47449641
_symmetry_Int_Tables_number   1
_chemical_formula_structural   Rb5(FeO2)3
_chemical_formula_sum   'Rb10 Fe6 O12'
_cell_volume   579.49384837
_cell_formula_units_Z   2
loop_
 _symmetry_equiv_pos_site_id
 _symmetry_equiv_pos_as_xyz
  1  'x, y, z'
loop_
 _atom_site_type_symbol
 _atom_site_label
 _atom_site_symmetry_multiplicity
 _atom_site_fract_x
 _atom_site_fract_y
 _atom_site_fract_z
 _atom_site_occupancy
  Rb  Rb0  1  0.59204217  1.12500000  0.96704217  1.0
  Rb  Rb1  1  1.37500000  1.40795783  1.53295783  1.0
  Rb  Rb2  1  0.87500000  0.84204217  0.46704217  1.0
  Rb  Rb3  1  1.15795783  0.62500000  1.03295783  1.0
  Rb  Rb4  1  0.99396937  0.49396937  0.50000000  1.0
  Rb  Rb5  1  0.75603063  0.75603063  1.00000000  1.0
  Rb  Rb6  1  1.24396937  1.24396937  1.00000000  1.0
  Rb  Rb7  1  0.50603063  1.00603063  0.50000000  1.0
  Rb  Rb8  1  0.75000000  0.25000000  0.50000000  1.0
  Rb  Rb9  1  1.00000000  1.00000000  1.00000000  1.0
  Fe  Fe10  1  1.11994745  1.12500000  1.49494745  1.0
  Fe  Fe11  1  1.37500000  0.88005255  1.00505255  1.0
  Fe  Fe12  1  0.87500000  1.36994745  0.99494745  1.0
  Fe  Fe13  1  0.63005255  0.62500000  0.50505255  1.0
  Fe  Fe14  1  0.25000000  0.75000000  0.50000000  1.0
  Fe  Fe15  1  0.50000000  0.50000000  -0.00000000  1.0
  O  O16  1  1.26509653  1.35203610  1.76664047  1.0
  O  O17  1  1.16460436  0.89796390  1.41306043  1.0
  O  O18  1  1.24845606  0.83539564  0.73335953  1.0
  O  O19  1  0.64796390  1.41460436  0.91306043  1.0
  O  O20  1  0.48490347  0.75154394  0.58693957  1.0
  O  O21  1  0.58539564  0.49845606  0.23335953  1.0
  O  O22  1  1.50154394  0.73490347  1.08693957  1.0
  O  O23  1  1.10203610  1.51509653  1.26664047  1.0
  O  O24  1  0.91107312  1.12500000  1.28607312  1.0
  O  O25  1  1.37500000  1.08892688  1.21392688  1.0
  O  O26  1  0.87500000  1.16107312  0.78607312  1.0
  O  O27  1  0.83892688  0.62500000  0.71392688  1.0
