# generated using pymatgen
data_Sr2CdAs2
_symmetry_space_group_name_H-M   'P 1'
_cell_length_a   8.81573327
_cell_length_b   8.81573327
_cell_length_c   7.71106917
_cell_angle_alpha   90.00000000
_cell_angle_beta   90.00000000
_cell_angle_gamma   150.55486072
_symmetry_Int_Tables_number   1
_chemical_formula_structural   Sr2CdAs2
_chemical_formula_sum   'Sr4 Cd2 As4'
_cell_volume   294.60118836
_cell_formula_units_Z   2
loop_
 _symmetry_equiv_pos_site_id
 _symmetry_equiv_pos_as_xyz
  1  'x, y, z'
loop_
 _atom_site_type_symbol
 _atom_site_label
 _atom_site_symmetry_multiplicity
 _atom_site_fract_x
 _atom_site_fract_y
 _atom_site_fract_z
 _atom_site_occupancy
  Sr  Sr0  1  -0.70284607  0.70284607  0.94812206  1.0
  Sr  Sr1  1  -0.29715393  1.29715393  0.44812206  1.0
  Sr  Sr2  1  -0.53499777  0.53499777  0.29573271  1.0
  Sr  Sr3  1  -0.46500223  1.46500223  0.79573271  1.0
  Cd  Cd4  1  -0.90419747  0.90419747  0.13817074  1.0
  Cd  Cd5  1  -0.09580253  1.09580253  0.63817074  1.0
  As  As6  1  -0.93669866  0.93669866  0.50086649  1.0
  As  As7  1  -0.06330134  1.06330134  0.00086649  1.0
  As  As8  1  -0.67602713  0.67602713  0.54510800  1.0
  As  As9  1  -0.32397287  1.32397287  0.04510800  1.0
