# generated using pymatgen
data_AlV(TeO4)2
_symmetry_space_group_name_H-M   'P 1'
_cell_length_a   8.17351318
_cell_length_b   4.90724710
_cell_length_c   17.77698169
_cell_angle_alpha   90.00000000
_cell_angle_beta   113.26396010
_cell_angle_gamma   90.00000000
_symmetry_Int_Tables_number   1
_chemical_formula_structural   AlV(TeO4)2
_chemical_formula_sum   'Al4 V4 Te8 O32'
_cell_volume   655.05244788
_cell_formula_units_Z   4
loop_
 _symmetry_equiv_pos_site_id
 _symmetry_equiv_pos_as_xyz
  1  'x, y, z'
loop_
 _atom_site_type_symbol
 _atom_site_label
 _atom_site_symmetry_multiplicity
 _atom_site_fract_x
 _atom_site_fract_y
 _atom_site_fract_z
 _atom_site_occupancy
  Al  Al0  1  0.99266330  0.73632845  0.32504755  1.0
  Al  Al1  1  0.99266330  0.76367155  0.82504755  1.0
  Al  Al2  1  0.00733670  0.26367155  0.67495245  1.0
  Al  Al3  1  0.00733670  0.23632845  0.17495245  1.0
  V  V4  1  0.27454206  0.22456056  0.42648881  1.0
  V  V5  1  0.27454206  0.27543944  0.92648881  1.0
  V  V6  1  0.72545794  0.77543944  0.57351119  1.0
  V  V7  1  0.72545794  0.72456056  0.07351119  1.0
  Te  Te8  1  0.67297222  0.25462879  0.22111849  1.0
  Te  Te9  1  0.67297222  0.24537121  0.72111849  1.0
  Te  Te10  1  0.32702778  0.74537121  0.77888151  1.0
  Te  Te11  1  0.32702778  0.75462879  0.27888151  1.0
  Te  Te12  1  0.79609479  0.15935865  0.43241511  1.0
  Te  Te13  1  0.79609479  0.34064135  0.93241511  1.0
  Te  Te14  1  0.20390521  0.84064135  0.56758489  1.0
  Te  Te15  1  0.20390521  0.65935865  0.06758489  1.0
  O  O16  1  0.77773938  0.55983624  0.29372707  1.0
  O  O17  1  0.77773938  0.94016376  0.79372707  1.0
  O  O18  1  0.22226062  0.44016376  0.70627293  1.0
  O  O19  1  0.22226062  0.05983624  0.20627293  1.0
  O  O20  1  0.97224110  0.90611807  0.42267780  1.0
  O  O21  1  0.97224110  0.59388193  0.92267780  1.0
  O  O22  1  0.02775890  0.09388193  0.57732220  1.0
  O  O23  1  0.02775890  0.40611807  0.07732220  1.0
  O  O24  1  0.21497279  0.93016891  0.36102697  1.0
  O  O25  1  0.21497279  0.56983109  0.86102697  1.0
  O  O26  1  0.78502721  0.06983109  0.63897303  1.0
  O  O27  1  0.78502721  0.43016891  0.13897303  1.0
  O  O28  1  0.09661393  0.54912350  0.25142041  1.0
  O  O29  1  0.09661393  0.95087650  0.75142041  1.0
  O  O30  1  0.90338607  0.45087650  0.74857959  1.0
  O  O31  1  0.90338607  0.04912350  0.24857959  1.0
  O  O32  1  0.10492544  0.45101843  0.40319279  1.0
  O  O33  1  0.10492544  0.04898157  0.90319279  1.0
  O  O34  1  0.89507456  0.54898157  0.59680721  1.0
  O  O35  1  0.89507456  0.95101843  0.09680721  1.0
  O  O36  1  0.62317152  0.08516118  0.31832239  1.0
  O  O37  1  0.62317152  0.41483882  0.81832239  1.0
  O  O38  1  0.37682848  0.91483882  0.68167761  1.0
  O  O39  1  0.37682848  0.58516118  0.18167761  1.0
  O  O40  1  0.66220735  0.88596796  0.46846648  1.0
  O  O41  1  0.66220735  0.61403204  0.96846648  1.0
  O  O42  1  0.33779265  0.11403204  0.53153352  1.0
  O  O43  1  0.33779265  0.38596796  0.03153352  1.0
  O  O44  1  0.44131574  0.37059021  0.41405854  1.0
  O  O45  1  0.44131574  0.12940979  0.91405854  1.0
  O  O46  1  0.55868426  0.62940979  0.58594146  1.0
  O  O47  1  0.55868426  0.87059021  0.08594146  1.0
