# generated using pymatgen
data_V3Pb2O9
_symmetry_space_group_name_H-M   'P 1'
_cell_length_a   9.05806778
_cell_length_b   9.05806778
_cell_length_c   7.20004098
_cell_angle_alpha   78.41458064
_cell_angle_beta   101.58541936
_cell_angle_gamma   50.24531211
_symmetry_Int_Tables_number   1
_chemical_formula_structural   V3Pb2O9
_chemical_formula_sum   'V6 Pb4 O18'
_cell_volume   400.14017769
_cell_formula_units_Z   2
loop_
 _symmetry_equiv_pos_site_id
 _symmetry_equiv_pos_as_xyz
  1  'x, y, z'
loop_
 _atom_site_type_symbol
 _atom_site_label
 _atom_site_symmetry_multiplicity
 _atom_site_fract_x
 _atom_site_fract_y
 _atom_site_fract_z
 _atom_site_occupancy
  O  O0  1  0.79029726  0.79087794  0.51569807  1.0
  O  O1  1  1.20912206  0.20970274  0.01569807  1.0
  O  O2  1  1.01956558  0.78356450  0.22306539  1.0
  O  O3  1  1.21643550  -0.01956558  0.72306539  1.0
  O  O4  1  0.76674976  0.51829979  0.72642114  1.0
  O  O5  1  1.48170021  0.23325024  0.22642114  1.0
  O  O6  1  1.62980212  0.33340776  0.96835840  1.0
  O  O7  1  0.66659224  0.37019788  0.46835840  1.0
  O  O8  1  0.92558135  0.62384409  0.95753026  1.0
  O  O9  1  1.37615591  0.07441865  0.45753026  1.0
  O  O10  1  1.05510497  0.38694869  0.54992844  1.0
  O  O11  1  1.61305131  -0.05510497  0.04992844  1.0
  O  O12  1  1.21575414  0.50323238  0.77081186  1.0
  O  O13  1  1.49676762  -0.21575414  0.27081186  1.0
  O  O14  1  1.31302345  0.64739259  0.03522708  1.0
  O  O15  1  1.35260741  -0.31302345  0.53522708  1.0
  O  O16  1  1.78416970  0.02064814  0.79334945  1.0
  O  O17  1  0.97935186  0.21583030  0.29334945  1.0
  V  V18  1  0.57114906  0.59161291  0.49887101  1.0
  V  V19  1  1.40838709  0.42885094  -0.00112899  1.0
  V  V20  1  0.83539037  0.84209708  0.00813680  1.0
  V  V21  1  1.15790292  0.16460963  0.50813680  1.0
  V  V22  1  0.96026324  0.55308168  0.71359546  1.0
  V  V23  1  1.44691832  0.03973676  0.21359546  1.0
  Pb  Pb24  1  0.98099716  0.93297500  0.47900123  1.0
  Pb  Pb25  1  1.06702500  0.01900284  -0.02099877  1.0
  Pb  Pb26  1  1.41699308  0.34445870  0.51550540  1.0
  Pb  Pb27  1  1.65554130  -0.41699308  0.01550540  1.0
