# generated using pymatgen
data_Mn(SbO3)2
_symmetry_space_group_name_H-M   'P 1'
_cell_length_a   8.95790408
_cell_length_b   8.95790408
_cell_length_c   4.76498730
_cell_angle_alpha   90.00000000
_cell_angle_beta   90.00000000
_cell_angle_gamma   120.00000000
_symmetry_Int_Tables_number   1
_chemical_formula_structural   Mn(SbO3)2
_chemical_formula_sum   'Mn3 Sb6 O18'
_cell_volume   331.13508205
_cell_formula_units_Z   3
loop_
 _symmetry_equiv_pos_site_id
 _symmetry_equiv_pos_as_xyz
  1  'x, y, z'
loop_
 _atom_site_type_symbol
 _atom_site_label
 _atom_site_symmetry_multiplicity
 _atom_site_fract_x
 _atom_site_fract_y
 _atom_site_fract_z
 _atom_site_occupancy
  Mn  Mn0  1  0.36681527  0.36681527  0.00000000  1.0
  Mn  Mn1  1  0.00000000  0.63318473  0.00000000  1.0
  Mn  Mn2  1  0.63318473  0.00000000  0.00000000  1.0
  Sb  Sb3  1  0.69511218  0.69511218  0.50000000  1.0
  Sb  Sb4  1  0.00000000  0.30488782  0.50000000  1.0
  Sb  Sb5  1  0.30488782  0.00000000  0.50000000  1.0
  Sb  Sb6  1  0.33333333  0.66666667  0.49091484  1.0
  Sb  Sb7  1  0.66666667  0.33333333  0.50908516  1.0
  Sb  Sb8  1  0.00000000  0.00000000  0.00000000  1.0
  O  O9  1  0.10169175  0.88602175  0.23446243  1.0
  O  O10  1  0.88602175  0.10169175  0.76553757  1.0
  O  O11  1  0.78433000  0.89830825  0.23446243  1.0
  O  O12  1  0.11397825  0.21567000  0.23446243  1.0
  O  O13  1  0.89830825  0.78433000  0.76553757  1.0
  O  O14  1  0.21567000  0.11397825  0.76553757  1.0
  O  O15  1  0.41479953  0.88453271  0.26614427  1.0
  O  O16  1  0.88453271  0.41479953  0.73385573  1.0
  O  O17  1  0.46973318  0.58520047  0.26614427  1.0
  O  O18  1  0.11546729  0.53026682  0.26614427  1.0
  O  O19  1  0.58520047  0.46973318  0.73385573  1.0
  O  O20  1  0.53026682  0.11546729  0.73385573  1.0
  O  O21  1  0.77755185  0.55491829  0.27963161  1.0
  O  O22  1  0.55491829  0.77755185  0.72036839  1.0
  O  O23  1  0.77736644  0.22244815  0.27963161  1.0
  O  O24  1  0.44508171  0.22263356  0.27963161  1.0
  O  O25  1  0.22244815  0.77736644  0.72036839  1.0
  O  O26  1  0.22263356  0.44508171  0.72036839  1.0
