# generated using pymatgen
data_H4C3(N2O)3
_symmetry_space_group_name_H-M   'P 1'
_cell_length_a   4.02932671
_cell_length_b   12.60701431
_cell_length_c   15.10125032
_cell_angle_alpha   90.00000000
_cell_angle_beta   102.56427323
_cell_angle_gamma   90.00000000
_symmetry_Int_Tables_number   1
_chemical_formula_structural   H4C3(N2O)3
_chemical_formula_sum   'H16 C12 N24 O12'
_cell_volume   748.73969099
_cell_formula_units_Z   4
loop_
 _symmetry_equiv_pos_site_id
 _symmetry_equiv_pos_as_xyz
  1  'x, y, z'
loop_
 _atom_site_type_symbol
 _atom_site_label
 _atom_site_symmetry_multiplicity
 _atom_site_fract_x
 _atom_site_fract_y
 _atom_site_fract_z
 _atom_site_occupancy
  H  H0  1  0.82655574  0.98342589  0.92299495  1.0
  H  H1  1  0.82655574  0.51657411  0.42299495  1.0
  H  H2  1  0.17344426  0.48342589  0.57700505  1.0
  H  H3  1  0.17344426  0.01657411  0.07700505  1.0
  H  H4  1  0.58544732  0.20283270  0.43124891  1.0
  H  H5  1  0.58544732  0.29716730  0.93124891  1.0
  H  H6  1  0.41455268  0.70283270  0.06875109  1.0
  H  H7  1  0.41455268  0.79716730  0.56875109  1.0
  H  H8  1  0.53170502  0.45924779  0.33170656  1.0
  H  H9  1  0.53170502  0.04075221  0.83170656  1.0
  H  H10  1  0.46829498  0.95924779  0.16829344  1.0
  H  H11  1  0.46829498  0.54075221  0.66829344  1.0
  H  H12  1  0.42879271  0.27779977  0.33188723  1.0
  H  H13  1  0.42879271  0.22220023  0.83188723  1.0
  H  H14  1  0.57120729  0.77779977  0.16811277  1.0
  H  H15  1  0.57120729  0.72220023  0.66811277  1.0
  C  C16  1  0.98694550  0.22769961  0.07038173  1.0
  C  C17  1  0.98694550  0.27230039  0.57038173  1.0
  C  C18  1  0.01305450  0.72769961  0.42961827  1.0
  C  C19  1  0.01305450  0.77230039  0.92961827  1.0
  C  C20  1  0.97567792  0.87370563  0.36344705  1.0
  C  C21  1  0.97567792  0.62629437  0.86344705  1.0
  C  C22  1  0.02432208  0.37370563  0.13655295  1.0
  C  C23  1  0.02432208  0.12629437  0.63655295  1.0
  C  C24  1  0.73093577  0.35840424  0.43662285  1.0
  C  C25  1  0.73093577  0.14159576  0.93662285  1.0
  C  C26  1  0.26906423  0.85840424  0.06337715  1.0
  C  C27  1  0.26906423  0.64159576  0.56337715  1.0
  N  N28  1  0.97081055  0.48556008  0.15682272  1.0
  N  N29  1  0.97081055  0.01443992  0.65682272  1.0
  N  N30  1  0.02918945  0.98556008  0.34317728  1.0
  N  N31  1  0.02918945  0.51443992  0.84317728  1.0
  N  N32  1  0.93694131  0.14138145  0.02055128  1.0
  N  N33  1  0.93694131  0.35861855  0.52055128  1.0
  N  N34  1  0.06305869  0.64138145  0.47944872  1.0
  N  N35  1  0.06305869  0.85861855  0.97944872  1.0
  N  N36  1  0.86485199  0.32695836  0.05928969  1.0
  N  N37  1  0.86485199  0.17304164  0.55928969  1.0
  N  N38  1  0.13514801  0.82695836  0.44071031  1.0
  N  N39  1  0.13514801  0.67304164  0.94071031  1.0
  N  N40  1  0.76593314  0.81595122  0.30346113  1.0
  N  N41  1  0.76593314  0.68404878  0.80346113  1.0
  N  N42  1  0.23406686  0.31595122  0.19653887  1.0
  N  N43  1  0.23406686  0.18404878  0.69653887  1.0
  N  N44  1  0.70154970  0.45059001  0.39181043  1.0
  N  N45  1  0.70154970  0.04940999  0.89181043  1.0
  N  N46  1  0.29845030  0.95059001  0.10818957  1.0
  N  N47  1  0.29845030  0.54940999  0.60818957  1.0
  N  N48  1  0.56265053  0.27317510  0.39740752  1.0
  N  N49  1  0.56265053  0.22682490  0.89740752  1.0
  N  N50  1  0.43734947  0.77317510  0.10259248  1.0
  N  N51  1  0.43734947  0.72682490  0.60259248  1.0
  O  O52  1  0.84002522  0.02429099  0.27537971  1.0
  O  O53  1  0.84002522  0.47570901  0.77537971  1.0
  O  O54  1  0.15997478  0.52429099  0.22462029  1.0
  O  O55  1  0.15997478  0.97570901  0.72462029  1.0
  O  O56  1  0.78579641  0.71738313  0.34617348  1.0
  O  O57  1  0.78579641  0.78261687  0.84617348  1.0
  O  O58  1  0.21420359  0.21738313  0.15382652  1.0
  O  O59  1  0.21420359  0.28261687  0.65382652  1.0
  O  O60  1  0.25924870  0.03213510  0.39516963  1.0
  O  O61  1  0.25924870  0.46786490  0.89516963  1.0
  O  O62  1  0.74075130  0.53213510  0.10483037  1.0
  O  O63  1  0.74075130  0.96786490  0.60483037  1.0
