# generated using pymatgen
data_Lu2(CN2)3
_symmetry_space_group_name_H-M   'P 1'
_cell_length_a   6.17383590
_cell_length_b   6.17383590
_cell_length_c   6.17383590
_cell_angle_alpha   61.17043614
_cell_angle_beta   61.17043614
_cell_angle_gamma   61.17043614
_symmetry_Int_Tables_number   1
_chemical_formula_structural   Lu2(CN2)3
_chemical_formula_sum   'Lu2 C3 N6'
_cell_volume   170.78066066
_cell_formula_units_Z   1
loop_
 _symmetry_equiv_pos_site_id
 _symmetry_equiv_pos_as_xyz
  1  'x, y, z'
loop_
 _atom_site_type_symbol
 _atom_site_label
 _atom_site_symmetry_multiplicity
 _atom_site_fract_x
 _atom_site_fract_y
 _atom_site_fract_z
 _atom_site_occupancy
  Lu  Lu0  1  0.82665316  0.82665316  -0.17334684  1.0
  Lu  Lu1  1  1.17334684  1.17334684  0.17334684  1.0
  C  C2  1  0.71368330  0.00000000  0.28631670  1.0
  C  C3  1  0.00000000  0.28631670  -0.28631670  1.0
  C  C4  1  0.28631670  -0.28631670  0.00000000  1.0
  N  N5  1  0.59737345  0.01417675  0.16261602  1.0
  N  N6  1  0.83738398  -0.01417675  -0.59737345  1.0
  N  N7  1  0.98582325  -0.59737345  -0.16261602  1.0
  N  N8  1  0.40262655  -0.16261602  -0.01417675  1.0
  N  N9  1  1.16261602  -0.40262655  0.01417675  1.0
  N  N10  1  1.01417675  0.16261602  -0.40262655  1.0
