# generated using pymatgen
data_CsNbCl6
_symmetry_space_group_name_H-M   'P 1'
_cell_length_a   7.13799118
_cell_length_b   7.13799118
_cell_length_c   12.79379458
_cell_angle_alpha   79.04922235
_cell_angle_beta   100.95077765
_cell_angle_gamma   124.12980859
_symmetry_Int_Tables_number   1
_chemical_formula_structural   CsNbCl6
_chemical_formula_sum   'Cs2 Nb2 Cl12'
_cell_volume   526.96444919
_cell_formula_units_Z   2
loop_
 _symmetry_equiv_pos_site_id
 _symmetry_equiv_pos_as_xyz
  1  'x, y, z'
loop_
 _atom_site_type_symbol
 _atom_site_label
 _atom_site_symmetry_multiplicity
 _atom_site_fract_x
 _atom_site_fract_y
 _atom_site_fract_z
 _atom_site_occupancy
  Cs  Cs0  1  0.88550716  0.88550716  0.75000000  1.0
  Cs  Cs1  1  0.11449284  0.11449284  0.25000000  1.0
  Nb  Nb2  1  0.50000000  -0.00000000  0.00000000  1.0
  Nb  Nb3  1  1.00000000  0.50000000  0.50000000  1.0
  Cl  Cl4  1  0.80723933  0.11578630  0.46323488  1.0
  Cl  Cl5  1  0.88421370  0.19276067  0.96323488  1.0
  Cl  Cl6  1  1.11578630  0.80723933  0.03676512  1.0
  Cl  Cl7  1  0.19276067  -0.11578630  0.53676512  1.0
  Cl  Cl8  1  0.37580913  -0.19551231  0.84502302  1.0
  Cl  Cl9  1  1.19551231  0.62419087  0.34502302  1.0
  Cl  Cl10  1  0.80448769  0.37580913  0.65497698  1.0
  Cl  Cl11  1  0.62419087  0.19551231  0.15497698  1.0
  Cl  Cl12  1  0.46748788  0.29587798  0.89578135  1.0
  Cl  Cl13  1  0.70412202  0.53251212  0.39578135  1.0
  Cl  Cl14  1  1.29587798  0.46748788  0.60421865  1.0
  Cl  Cl15  1  0.53251212  -0.29587798  0.10421865  1.0
