# generated using pymatgen
data_V2Co(PO5)2
_symmetry_space_group_name_H-M   'P 1'
_cell_length_a   6.35661191
_cell_length_b   7.31154110
_cell_length_c   7.64638876
_cell_angle_alpha   90.00000000
_cell_angle_beta   89.40563393
_cell_angle_gamma   90.00000000
_symmetry_Int_Tables_number   1
_chemical_formula_structural   V2Co(PO5)2
_chemical_formula_sum   'V4 Co2 P4 O20'
_cell_volume   355.35925434
_cell_formula_units_Z   2
loop_
 _symmetry_equiv_pos_site_id
 _symmetry_equiv_pos_as_xyz
  1  'x, y, z'
loop_
 _atom_site_type_symbol
 _atom_site_label
 _atom_site_symmetry_multiplicity
 _atom_site_fract_x
 _atom_site_fract_y
 _atom_site_fract_z
 _atom_site_occupancy
  V  V0  1  0.74723939  0.71701072  0.82749222  1.0
  V  V1  1  0.74723939  0.78298928  0.32749222  1.0
  V  V2  1  0.25276061  0.21701072  0.67250778  1.0
  V  V3  1  0.25276061  0.28298928  0.17250778  1.0
  Co  Co4  1  -0.00000000  -0.00000000  0.00000000  1.0
  Co  Co5  1  -0.00000000  0.50000000  0.50000000  1.0
  P  P6  1  0.25256198  0.61785929  0.87112694  1.0
  P  P7  1  0.25256198  0.88214071  0.37112694  1.0
  P  P8  1  0.74743802  0.11785929  0.62887306  1.0
  P  P9  1  0.74743802  0.38214071  0.12887306  1.0
  O  O10  1  0.94160148  0.24984362  0.62058117  1.0
  O  O11  1  0.94160148  0.25015638  0.12058117  1.0
  O  O12  1  0.05839852  0.74984362  0.87941883  1.0
  O  O13  1  0.05839852  0.75015638  0.37941883  1.0
  O  O14  1  0.77623202  0.98991847  0.79173818  1.0
  O  O15  1  0.77623202  0.51008153  0.29173818  1.0
  O  O16  1  0.22376798  0.48991847  0.70826182  1.0
  O  O17  1  0.22376798  0.01008153  0.20826182  1.0
  O  O18  1  0.77796277  0.64531393  0.62426919  1.0
  O  O19  1  0.77796277  0.85468607  0.12426919  1.0
  O  O20  1  0.22203723  0.14531393  0.87573081  1.0
  O  O21  1  0.22203723  0.35468607  0.37573081  1.0
  O  O22  1  0.74004268  0.49682182  0.96035846  1.0
  O  O23  1  0.74004268  0.00317818  0.46035846  1.0
  O  O24  1  0.25995732  0.99682182  0.53964154  1.0
  O  O25  1  0.25995732  0.50317818  0.03964154  1.0
  O  O26  1  0.44830993  0.74114642  0.85115003  1.0
  O  O27  1  0.44830993  0.75885358  0.35115003  1.0
  O  O28  1  0.55169007  0.24114642  0.64884997  1.0
  O  O29  1  0.55169007  0.25885358  0.14884997  1.0
