# generated using pymatgen
data_CdCu2SiS4
_symmetry_space_group_name_H-M   'P 1'
_cell_length_a   7.66107366
_cell_length_b   6.51027363
_cell_length_c   6.29055908
_cell_angle_alpha   90.00000000
_cell_angle_beta   90.00000000
_cell_angle_gamma   90.00000000
_symmetry_Int_Tables_number   1
_chemical_formula_structural   CdCu2SiS4
_chemical_formula_sum   'Cd2 Cu4 Si2 S8'
_cell_volume   313.74594888
_cell_formula_units_Z   2
loop_
 _symmetry_equiv_pos_site_id
 _symmetry_equiv_pos_as_xyz
  1  'x, y, z'
loop_
 _atom_site_type_symbol
 _atom_site_label
 _atom_site_symmetry_multiplicity
 _atom_site_fract_x
 _atom_site_fract_y
 _atom_site_fract_z
 _atom_site_occupancy
  Cd  Cd0  1  0.50000000  0.65143366  0.00826262  1.0
  Cd  Cd1  1  0.00000000  0.34856634  0.50826262  1.0
  Cu  Cu2  1  0.24844478  0.17521574  0.01118136  1.0
  Cu  Cu3  1  0.74844478  0.82478426  0.51118136  1.0
  Cu  Cu4  1  0.75155522  0.17521574  0.01118136  1.0
  Cu  Cu5  1  0.25155522  0.82478426  0.51118136  1.0
  Si  Si6  1  0.50000000  0.31941490  0.50456671  1.0
  Si  Si7  1  0.00000000  0.68058510  0.00456671  1.0
  S  S8  1  0.50000000  0.64102787  0.41540736  1.0
  S  S9  1  0.00000000  0.35897213  0.91540736  1.0
  S  S10  1  0.27583514  0.15904168  0.37707495  1.0
  S  S11  1  0.77583514  0.84095832  0.87707495  1.0
  S  S12  1  0.72416486  0.15904168  0.37707495  1.0
  S  S13  1  0.22416486  0.84095832  0.87707495  1.0
  S  S14  1  0.50000000  0.29139266  0.84775070  1.0
  S  S15  1  0.00000000  0.70860734  0.34775070  1.0
