# generated using pymatgen
data_Cs3PO4
_symmetry_space_group_name_H-M   'P 1'
_cell_length_a   12.31675246
_cell_length_b   9.07344651
_cell_length_c   6.61667902
_cell_angle_alpha   90.00000000
_cell_angle_beta   90.00000000
_cell_angle_gamma   90.00000000
_symmetry_Int_Tables_number   1
_chemical_formula_structural   Cs3PO4
_chemical_formula_sum   'Cs12 P4 O16'
_cell_volume   739.44957543
_cell_formula_units_Z   4
loop_
 _symmetry_equiv_pos_site_id
 _symmetry_equiv_pos_as_xyz
  1  'x, y, z'
loop_
 _atom_site_type_symbol
 _atom_site_label
 _atom_site_symmetry_multiplicity
 _atom_site_fract_x
 _atom_site_fract_y
 _atom_site_fract_z
 _atom_site_occupancy
  Cs  Cs0  1  0.64618276  0.48910532  0.32061116  1.0
  Cs  Cs1  1  0.64618276  0.01089468  0.32061116  1.0
  Cs  Cs2  1  0.14618276  0.48910532  0.17938884  1.0
  Cs  Cs3  1  0.14618276  0.01089468  0.17938884  1.0
  Cs  Cs4  1  0.35381724  0.98910532  0.67938884  1.0
  Cs  Cs5  1  0.35381724  0.51089468  0.67938884  1.0
  Cs  Cs6  1  0.85381724  0.98910532  0.82061116  1.0
  Cs  Cs7  1  0.85381724  0.51089468  0.82061116  1.0
  Cs  Cs8  1  0.57185998  0.25000000  0.86499505  1.0
  Cs  Cs9  1  0.07185998  0.25000000  0.63500495  1.0
  Cs  Cs10  1  0.42814002  0.75000000  0.13500495  1.0
  Cs  Cs11  1  0.92814002  0.75000000  0.36499505  1.0
  P  P12  1  0.88736800  0.25000000  0.21989186  1.0
  P  P13  1  0.38736800  0.25000000  0.28010814  1.0
  P  P14  1  0.11263200  0.75000000  0.78010814  1.0
  P  P15  1  0.61263200  0.75000000  0.71989186  1.0
  O  O16  1  0.89465463  0.39257462  0.35438746  1.0
  O  O17  1  0.89465463  0.10742538  0.35438746  1.0
  O  O18  1  0.39465463  0.39257462  0.14561254  1.0
  O  O19  1  0.39465463  0.10742538  0.14561254  1.0
  O  O20  1  0.10534537  0.89257462  0.64561254  1.0
  O  O21  1  0.10534537  0.60742538  0.64561254  1.0
  O  O22  1  0.60534537  0.89257462  0.85438746  1.0
  O  O23  1  0.60534537  0.60742538  0.85438746  1.0
  O  O24  1  0.98360962  0.25000000  0.06205335  1.0
  O  O25  1  0.48360962  0.25000000  0.43794665  1.0
  O  O26  1  0.01639038  0.75000000  0.93794665  1.0
  O  O27  1  0.51639038  0.75000000  0.56205335  1.0
  O  O28  1  0.77670173  0.25000000  0.09962286  1.0
  O  O29  1  0.27670173  0.25000000  0.40037714  1.0
  O  O30  1  0.22329827  0.75000000  0.90037714  1.0
  O  O31  1  0.72329827  0.75000000  0.59962286  1.0
