# generated using pymatgen
data_CsV3B2P4(H4O11)2
_symmetry_space_group_name_H-M   'P 1'
_cell_length_a   10.53400660
_cell_length_b   10.53400660
_cell_length_c   5.08182935
_cell_angle_alpha   80.64504659
_cell_angle_beta   99.35495341
_cell_angle_gamma   54.72394607
_symmetry_Int_Tables_number   1
_chemical_formula_structural   CsV3B2P4(H4O11)2
_chemical_formula_sum   'Cs1 V3 B2 P4 H8 O22'
_cell_volume   430.60861312
_cell_formula_units_Z   1
loop_
 _symmetry_equiv_pos_site_id
 _symmetry_equiv_pos_as_xyz
  1  'x, y, z'
loop_
 _atom_site_type_symbol
 _atom_site_label
 _atom_site_symmetry_multiplicity
 _atom_site_fract_x
 _atom_site_fract_y
 _atom_site_fract_z
 _atom_site_occupancy
  Cs  Cs0  1  1.00000000  0.00000000  -0.00000000  1.0
  V  V1  1  1.00000000  0.50000000  0.00000000  1.0
  V  V2  1  1.50000000  -0.00000000  -0.00000000  1.0
  V  V3  1  0.50000000  0.50000000  0.50000000  1.0
  B  B4  1  0.83356347  0.83356347  0.50000000  1.0
  B  B5  1  1.16643653  0.16643653  0.50000000  1.0
  P  P6  1  1.14450320  0.57534270  0.52189637  1.0
  P  P7  1  1.42465730  -0.14450320  0.52189637  1.0
  P  P8  1  1.57534270  0.14450320  0.47810363  1.0
  P  P9  1  0.85549680  0.42465730  0.47810363  1.0
  H  H10  1  0.72345979  0.77922575  0.74630996  1.0
  H  H11  1  1.22077425  0.27654021  0.74630996  1.0
  H  H12  1  1.77922575  -0.27654021  0.25369004  1.0
  H  H13  1  1.27654021  0.22077425  0.25369004  1.0
  H  H14  1  1.32084452  0.59754449  -0.03508823  1.0
  H  H15  1  1.40245551  -0.32084452  -0.03508823  1.0
  H  H16  1  1.59754449  0.32084452  1.03508823  1.0
  H  H17  1  0.67915548  0.40245551  1.03508823  1.0
  O  O18  1  0.83864131  0.73556470  0.75266244  1.0
  O  O19  1  1.26443530  0.16135869  0.75266244  1.0
  O  O20  1  1.73556470  -0.16135869  0.24733756  1.0
  O  O21  1  1.16135869  0.26443530  0.24733756  1.0
  O  O22  1  1.00365035  0.75940463  0.50317564  1.0
  O  O23  1  1.24059537  -0.00365035  0.50317564  1.0
  O  O24  1  1.75940463  0.00365035  0.49682436  1.0
  O  O25  1  0.99634965  0.24059537  0.49682436  1.0
  O  O26  1  0.87975173  0.44436143  0.77203282  1.0
  O  O27  1  1.55563857  0.12024827  0.77203282  1.0
  O  O28  1  1.44436143  -0.12024827  0.22796718  1.0
  O  O29  1  1.12024827  0.55563857  0.22796718  1.0
  O  O30  1  1.13910695  0.45887752  0.74093852  1.0
  O  O31  1  1.54112248  -0.13910695  0.74093852  1.0
  O  O32  1  1.45887752  0.13910695  0.25906148  1.0
  O  O33  1  0.86089305  0.54112248  0.25906148  1.0
  O  O34  1  1.30779804  0.54713940  0.62339626  1.0
  O  O35  1  1.45286060  -0.30779804  0.62339626  1.0
  O  O36  1  1.54713940  0.30779804  0.37660374  1.0
  O  O37  1  0.69220196  0.45286060  0.37660374  1.0
  O  O38  1  1.35010480  -0.35010480  0.07975403  1.0
  O  O39  1  0.64989520  0.35010480  0.92024597  1.0
