# generated using pymatgen
data_NaB3H8
_symmetry_space_group_name_H-M   'P 1'
_cell_length_a   8.20330131
_cell_length_b   5.70400060
_cell_length_c   4.62474105
_cell_angle_alpha   90.00000000
_cell_angle_beta   90.00000000
_cell_angle_gamma   90.00000000
_symmetry_Int_Tables_number   1
_chemical_formula_structural   NaB3H8
_chemical_formula_sum   'Na2 B6 H16'
_cell_volume   216.39919769
_cell_formula_units_Z   2
loop_
 _symmetry_equiv_pos_site_id
 _symmetry_equiv_pos_as_xyz
  1  'x, y, z'
loop_
 _atom_site_type_symbol
 _atom_site_label
 _atom_site_symmetry_multiplicity
 _atom_site_fract_x
 _atom_site_fract_y
 _atom_site_fract_z
 _atom_site_occupancy
  Na  Na0  1  0.50000000  0.04881383  0.49812121  1.0
  Na  Na1  1  0.00000000  0.95118617  -0.00187879  1.0
  B  B2  1  0.10873921  0.25418708  0.49543268  1.0
  B  B3  1  0.60873921  0.74581292  0.99543268  1.0
  B  B4  1  0.89126079  0.25418708  0.49543268  1.0
  B  B5  1  0.39126079  0.74581292  0.99543268  1.0
  B  B6  1  0.50000000  0.48820847  0.09613532  1.0
  B  B7  1  0.00000000  0.51179153  0.59613532  1.0
  H  H8  1  0.33129012  0.54633283  0.05642434  1.0
  H  H9  1  0.83129012  0.45366717  0.55642434  1.0
  H  H10  1  0.66870988  0.54633283  0.05642434  1.0
  H  H11  1  0.16870988  0.45366717  0.55642434  1.0
  H  H12  1  0.17226002  0.13251099  0.67837443  1.0
  H  H13  1  0.67226002  0.86748901  0.17837443  1.0
  H  H14  1  0.82773998  0.13251099  0.67837443  1.0
  H  H15  1  0.32773998  0.86748901  0.17837443  1.0
  H  H16  1  0.16342594  0.22638748  0.25480502  1.0
  H  H17  1  0.66342594  0.77361252  0.75480502  1.0
  H  H18  1  0.83657406  0.22638748  0.25480502  1.0
  H  H19  1  0.33657406  0.77361252  0.75480502  1.0
  H  H20  1  0.50000000  0.31685618  0.94107004  1.0
  H  H21  1  0.00000000  0.68314382  0.44107004  1.0
  H  H22  1  0.50000000  0.44589327  0.35260049  1.0
  H  H23  1  0.00000000  0.55410673  0.85260049  1.0
