# generated using pymatgen
data_Sr3Ga3N5
_symmetry_space_group_name_H-M   'P 1'
_cell_length_a   7.23172627
_cell_length_b   6.00704420
_cell_length_c   8.75959273
_cell_angle_alpha   103.63522303
_cell_angle_beta   108.41412838
_cell_angle_gamma   95.25964235
_symmetry_Int_Tables_number   1
_chemical_formula_structural   Sr3Ga3N5
_chemical_formula_sum   'Sr6 Ga6 N10'
_cell_volume   345.12639684
_cell_formula_units_Z   2
loop_
 _symmetry_equiv_pos_site_id
 _symmetry_equiv_pos_as_xyz
  1  'x, y, z'
loop_
 _atom_site_type_symbol
 _atom_site_label
 _atom_site_symmetry_multiplicity
 _atom_site_fract_x
 _atom_site_fract_y
 _atom_site_fract_z
 _atom_site_occupancy
  Sr  Sr0  1  -0.41028887  -0.81979722  -0.60928744  1.0
  Sr  Sr1  1  -0.58971113  -0.18020278  -0.39071256  1.0
  Sr  Sr2  1  -0.86243473  -0.66499556  -0.87181760  1.0
  Sr  Sr3  1  -0.13756527  -0.33500444  -0.12818240  1.0
  Sr  Sr4  1  -0.65434258  -0.65541792  -0.20203635  1.0
  Sr  Sr5  1  -0.34565742  -0.34458208  -0.79796365  1.0
  Ga  Ga6  1  -0.31572351  -0.90865311  -0.97352133  1.0
  Ga  Ga7  1  -0.68427649  -0.09134689  -0.02647867  1.0
  Ga  Ga8  1  -0.95397639  -0.70975745  -0.56718706  1.0
  Ga  Ga9  1  -0.04602361  -0.29024255  -0.43281294  1.0
  Ga  Ga10  1  -0.87784751  -0.12290732  -0.71682283  1.0
  Ga  Ga11  1  -0.12215249  -0.87709268  -0.28317717  1.0
  N  N12  1  -0.11023314  -0.95597908  -0.77588496  1.0
  N  N13  1  -0.88976686  -0.04402092  -0.22411504  1.0
  N  N14  1  -0.71084113  -0.84103799  -0.52601873  1.0
  N  N15  1  -0.28915887  -0.15896201  -0.47398127  1.0
  N  N16  1  -0.52776026  -0.76419549  -0.90563004  1.0
  N  N17  1  -0.47223974  -0.23580451  -0.09436996  1.0
  N  N18  1  -0.94652279  -0.38738335  -0.61865838  1.0
  N  N19  1  -0.05347721  -0.61261665  -0.38134162  1.0
  N  N20  1  -0.77759115  -0.25876990  -0.89177581  1.0
  N  N21  1  -0.22240885  -0.74123010  -0.10822419  1.0
