# generated using pymatgen
data_Cr(GaSe2)2
_symmetry_space_group_name_H-M   'P 1'
_cell_length_a   13.57660912
_cell_length_b   13.57660912
_cell_length_c   13.57660912
_cell_angle_alpha   16.58715672
_cell_angle_beta   16.58715672
_cell_angle_gamma   16.58715672
_symmetry_Int_Tables_number   1
_chemical_formula_structural   Cr(GaSe2)2
_chemical_formula_sum   'Cr1 Ga2 Se4'
_cell_volume   177.85193013
_cell_formula_units_Z   1
loop_
 _symmetry_equiv_pos_site_id
 _symmetry_equiv_pos_as_xyz
  1  'x, y, z'
loop_
 _atom_site_type_symbol
 _atom_site_label
 _atom_site_symmetry_multiplicity
 _atom_site_fract_x
 _atom_site_fract_y
 _atom_site_fract_z
 _atom_site_occupancy
  Ga  Ga0  1  0.07381483  0.07381483  0.07381483  1.0
  Ga  Ga1  1  0.92618517  -0.07381483  -0.07381483  1.0
  Cr  Cr2  1  0.50000000  0.50000000  -0.50000000  1.0
  Se  Se3  1  0.28666438  0.28666438  0.28666438  1.0
  Se  Se4  1  0.71333562  -0.28666438  -0.28666438  1.0
  Se  Se5  1  0.13433441  0.13433441  0.13433441  1.0
  Se  Se6  1  0.86566559  -0.13433441  -0.13433441  1.0
