# generated using pymatgen
data_Cs3BiSe3
_symmetry_space_group_name_H-M   'P 1'
_cell_length_a   10.84356189
_cell_length_b   10.84356189
_cell_length_c   10.84356189
_cell_angle_alpha   90.00000000
_cell_angle_beta   90.00000000
_cell_angle_gamma   90.00000000
_symmetry_Int_Tables_number   1
_chemical_formula_structural   Cs3BiSe3
_chemical_formula_sum   'Cs12 Bi4 Se12'
_cell_volume   1275.01674146
_cell_formula_units_Z   4
loop_
 _symmetry_equiv_pos_site_id
 _symmetry_equiv_pos_as_xyz
  1  'x, y, z'
loop_
 _atom_site_type_symbol
 _atom_site_label
 _atom_site_symmetry_multiplicity
 _atom_site_fract_x
 _atom_site_fract_y
 _atom_site_fract_z
 _atom_site_occupancy
  Cs  Cs0  1  0.44044717  0.94044717  0.55955283  1.0
  Cs  Cs1  1  0.94044717  0.55955283  0.44044717  1.0
  Cs  Cs2  1  0.55955283  0.44044717  0.94044717  1.0
  Cs  Cs3  1  0.05955283  0.05955283  0.05955283  1.0
  Cs  Cs4  1  0.93133186  0.43133186  0.06866814  1.0
  Cs  Cs5  1  0.43133186  0.06866814  0.93133186  1.0
  Cs  Cs6  1  0.06866814  0.93133186  0.43133186  1.0
  Cs  Cs7  1  0.56866814  0.56866814  0.56866814  1.0
  Cs  Cs8  1  0.67759943  0.17759943  0.32240057  1.0
  Cs  Cs9  1  0.17759943  0.32240057  0.67759943  1.0
  Cs  Cs10  1  0.32240057  0.67759943  0.17759943  1.0
  Cs  Cs11  1  0.82240057  0.82240057  0.82240057  1.0
  Bi  Bi12  1  0.22612882  0.72612882  0.77387118  1.0
  Bi  Bi13  1  0.72612882  0.77387118  0.22612882  1.0
  Bi  Bi14  1  0.77387118  0.22612882  0.72612882  1.0
  Bi  Bi15  1  0.27387118  0.27387118  0.27387118  1.0
  Se  Se16  1  0.46059054  0.74683134  0.85170260  1.0
  Se  Se17  1  0.96059054  0.75316866  0.14829740  1.0
  Se  Se18  1  0.24683134  0.64829740  0.53940946  1.0
  Se  Se19  1  0.74683134  0.85170260  0.46059054  1.0
  Se  Se20  1  0.14829740  0.96059054  0.75316866  1.0
  Se  Se21  1  0.64829740  0.53940946  0.24683134  1.0
  Se  Se22  1  0.53940946  0.24683134  0.64829740  1.0
  Se  Se23  1  0.03940946  0.25316866  0.35170260  1.0
  Se  Se24  1  0.75316866  0.14829740  0.96059054  1.0
  Se  Se25  1  0.25316866  0.35170260  0.03940946  1.0
  Se  Se26  1  0.85170260  0.46059054  0.74683134  1.0
  Se  Se27  1  0.35170260  0.03940946  0.25316866  1.0
