# generated using pymatgen
data_LuAsSe
_symmetry_space_group_name_H-M   'P 1'
_cell_length_a   3.86163108
_cell_length_b   17.24991111
_cell_length_c   5.47627713
_cell_angle_alpha   90.00000000
_cell_angle_beta   134.84264743
_cell_angle_gamma   90.00000000
_symmetry_Int_Tables_number   1
_chemical_formula_structural   LuAsSe
_chemical_formula_sum   'Lu4 As4 Se4'
_cell_volume   258.65299098
_cell_formula_units_Z   4
loop_
 _symmetry_equiv_pos_site_id
 _symmetry_equiv_pos_as_xyz
  1  'x, y, z'
loop_
 _atom_site_type_symbol
 _atom_site_label
 _atom_site_symmetry_multiplicity
 _atom_site_fract_x
 _atom_site_fract_y
 _atom_site_fract_z
 _atom_site_occupancy
  Lu  Lu0  1  0.98707694  0.13930445  0.23693920  1.0
  Lu  Lu1  1  0.98707694  0.36069555  0.73693920  1.0
  Lu  Lu2  1  0.01292306  0.63930445  0.26306080  1.0
  Lu  Lu3  1  0.01292306  0.86069555  0.76306080  1.0
  As  As4  1  0.47062216  0.49853488  0.22106244  1.0
  As  As5  1  0.47062216  0.00146512  0.72106244  1.0
  As  As6  1  0.52937784  0.99853488  0.27893756  1.0
  As  As7  1  0.52937784  0.50146512  0.77893756  1.0
  Se  Se8  1  0.98889172  0.31155104  0.23879714  1.0
  Se  Se9  1  0.98889172  0.18844896  0.73879714  1.0
  Se  Se10  1  0.01110828  0.81155104  0.26120286  1.0
  Se  Se11  1  0.01110828  0.68844896  0.76120286  1.0
