# generated using pymatgen
data_LiFeO2
_symmetry_space_group_name_H-M   'P 1'
_cell_length_a   5.55994639
_cell_length_b   6.48703022
_cell_length_c   5.09956561
_cell_angle_alpha   90.00000000
_cell_angle_beta   90.00000000
_cell_angle_gamma   90.00000000
_symmetry_Int_Tables_number   1
_chemical_formula_structural   LiFeO2
_chemical_formula_sum   'Li4 Fe4 O8'
_cell_volume   183.92878778
_cell_formula_units_Z   4
loop_
 _symmetry_equiv_pos_site_id
 _symmetry_equiv_pos_as_xyz
  1  'x, y, z'
loop_
 _atom_site_type_symbol
 _atom_site_label
 _atom_site_symmetry_multiplicity
 _atom_site_fract_x
 _atom_site_fract_y
 _atom_site_fract_z
 _atom_site_occupancy
  Li  Li0  1  0.41786567  0.12396384  0.61486655  1.0
  Li  Li1  1  0.91786567  0.37603616  0.61486655  1.0
  Li  Li2  1  0.58213433  0.87603616  0.11486655  1.0
  Li  Li3  1  0.08213433  0.62396384  0.11486655  1.0
  Fe  Fe4  1  0.41600881  0.62576565  0.61663402  1.0
  Fe  Fe5  1  0.91600881  0.87423435  0.61663402  1.0
  Fe  Fe6  1  0.58399119  0.37423435  0.11663402  1.0
  Fe  Fe7  1  0.08399119  0.12576565  0.11663402  1.0
  O  O8  1  0.42616141  0.61648558  0.99281729  1.0
  O  O9  1  0.92616141  0.88351442  0.99281729  1.0
  O  O10  1  0.57383859  0.38351442  0.49281729  1.0
  O  O11  1  0.07383859  0.11648558  0.49281729  1.0
  O  O12  1  0.08793920  0.63375250  0.50728213  1.0
  O  O13  1  0.58793920  0.86624750  0.50728213  1.0
  O  O14  1  0.91206080  0.36624750  0.00728213  1.0
  O  O15  1  0.41206080  0.13375250  0.00728213  1.0
