# generated using pymatgen
data_MgH4SeO5
_symmetry_space_group_name_H-M   'P 1'
_cell_length_a   6.52421728
_cell_length_b   8.85736583
_cell_length_c   9.31841528
_cell_angle_alpha   90.00000000
_cell_angle_beta   124.55326994
_cell_angle_gamma   90.00000000
_symmetry_Int_Tables_number   1
_chemical_formula_structural   MgH4SeO5
_chemical_formula_sum   'Mg4 H16 Se4 O20'
_cell_volume   443.49730883
_cell_formula_units_Z   4
loop_
 _symmetry_equiv_pos_site_id
 _symmetry_equiv_pos_as_xyz
  1  'x, y, z'
loop_
 _atom_site_type_symbol
 _atom_site_label
 _atom_site_symmetry_multiplicity
 _atom_site_fract_x
 _atom_site_fract_y
 _atom_site_fract_z
 _atom_site_occupancy
  Mg  Mg0  1  0.83294205  0.36062818  0.48469240  1.0
  Mg  Mg1  1  0.83294205  0.13937182  0.98469240  1.0
  Mg  Mg2  1  0.16705795  0.86062818  0.01530760  1.0
  Mg  Mg3  1  0.16705795  0.63937182  0.51530760  1.0
  H  H4  1  0.92702375  0.13197711  0.35803973  1.0
  H  H5  1  0.92702375  0.36802289  0.85803973  1.0
  H  H6  1  0.07297625  0.63197711  0.14196027  1.0
  H  H7  1  0.07297625  0.86802289  0.64196027  1.0
  H  H8  1  0.70527959  0.07033872  0.37121441  1.0
  H  H9  1  0.70527959  0.42966128  0.87121441  1.0
  H  H10  1  0.29472041  0.57033872  0.12878559  1.0
  H  H11  1  0.29472041  0.92966128  0.62878559  1.0
  H  H12  1  0.68853581  0.51733043  0.20403627  1.0
  H  H13  1  0.68853581  -0.01733043  0.70403627  1.0
  H  H14  1  0.31146419  1.01733043  0.29596373  1.0
  H  H15  1  0.31146419  0.48266957  0.79596373  1.0
  H  H16  1  0.56456210  0.35516763  0.12818724  1.0
  H  H17  1  0.56456210  0.14483237  0.62818724  1.0
  H  H18  1  0.43543790  0.85516763  0.37181276  1.0
  H  H19  1  0.43543790  0.64483237  0.87181276  1.0
  Se  Se20  1  0.76338877  0.84427598  0.16192748  1.0
  Se  Se21  1  0.76338877  0.65572402  0.66192748  1.0
  Se  Se22  1  0.23661123  0.34427598  0.33807252  1.0
  Se  Se23  1  0.23661123  0.15572402  0.83807252  1.0
  O  O24  1  0.90996019  0.67062287  0.23657880  1.0
  O  O25  1  0.90996019  0.82937713  0.73657880  1.0
  O  O26  1  0.09003981  0.17062287  0.26342120  1.0
  O  O27  1  0.09003981  0.32937713  0.76342120  1.0
  O  O28  1  0.86694416  0.90801882  0.03761668  1.0
  O  O29  1  0.86694416  0.59198118  0.53761668  1.0
  O  O30  1  0.13305584  0.40801882  0.46238332  1.0
  O  O31  1  0.13305584  0.09198118  0.96238332  1.0
  O  O32  1  0.84349916  0.14257721  0.41962493  1.0
  O  O33  1  0.84349916  0.35742279  0.91962493  1.0
  O  O34  1  0.15650084  0.64257721  0.08037507  1.0
  O  O35  1  0.15650084  0.85742279  0.58037507  1.0
  O  O36  1  0.58864401  0.43679207  0.21111829  1.0
  O  O37  1  0.58864401  0.06320793  0.71111829  1.0
  O  O38  1  0.41135599  0.93679207  0.28888171  1.0
  O  O39  1  0.41135599  0.56320793  0.78888171  1.0
  O  O40  1  0.53739588  0.29458807  0.49741214  1.0
  O  O41  1  0.53739588  0.20541193  0.99741214  1.0
  O  O42  1  0.46260412  0.79458807  0.00258786  1.0
  O  O43  1  0.46260412  0.70541193  0.50258786  1.0
