# generated using pymatgen
data_SiO2
_symmetry_space_group_name_H-M   'P 1'
_cell_length_a   5.85503380
_cell_length_b   5.85503380
_cell_length_c   12.66262355
_cell_angle_alpha   69.09696451
_cell_angle_beta   110.90303549
_cell_angle_gamma   123.00827052
_symmetry_Int_Tables_number   1
_chemical_formula_structural   SiO2
_chemical_formula_sum   'Si8 O16'
_cell_volume   332.67899358
_cell_formula_units_Z   8
loop_
 _symmetry_equiv_pos_site_id
 _symmetry_equiv_pos_as_xyz
  1  'x, y, z'
loop_
 _atom_site_type_symbol
 _atom_site_label
 _atom_site_symmetry_multiplicity
 _atom_site_fract_x
 _atom_site_fract_y
 _atom_site_fract_z
 _atom_site_occupancy
  O  O0  1  1.00000000  0.50000000  0.00000000  1.0
  O  O1  1  1.50000000  -0.00000000  0.50000000  1.0
  O  O2  1  0.50000000  -0.50000000  -0.00000000  1.0
  O  O3  1  0.50000000  0.50000000  0.50000000  1.0
  O  O4  1  0.84261708  0.40684919  0.74991877  1.0
  O  O5  1  1.40684919  -0.15738292  0.75008123  1.0
  O  O6  1  1.15738292  0.59315081  0.25008123  1.0
  O  O7  1  1.59315081  0.15738292  0.24991877  1.0
  O  O8  1  0.71566402  0.03454676  0.93103451  1.0
  O  O9  1  1.03454676  0.71566402  0.56896549  1.0
  O  O10  1  0.28433598  -0.03454676  0.06896549  1.0
  O  O11  1  0.96545324  0.28433598  0.43103451  1.0
  O  O12  1  0.67284873  0.57765935  0.84510697  1.0
  O  O13  1  1.57765935  -0.32715127  0.65489303  1.0
  O  O14  1  1.32715127  0.42234065  0.15489303  1.0
  O  O15  1  1.42234065  0.32715127  0.34510697  1.0
  Si  Si16  1  0.80586353  0.37334341  0.88183919  1.0
  Si  Si17  1  1.37334341  -0.19413647  0.61816081  1.0
  Si  Si18  1  1.19413647  0.62665659  0.11816081  1.0
  Si  Si19  1  1.62665659  0.19413647  0.38183919  1.0
  Si  Si20  1  1.57609499  -0.25518181  0.88187834  1.0
  Si  Si21  1  0.74481819  0.57609499  0.61812166  1.0
  Si  Si22  1  1.42390501  0.25518181  0.11812166  1.0
  Si  Si23  1  1.25518181  0.42390501  0.38187834  1.0
