# generated using pymatgen
data_Pd4S
_symmetry_space_group_name_H-M   'P 1'
_cell_length_a   5.17570555
_cell_length_b   5.17570555
_cell_length_c   5.64564191
_cell_angle_alpha   90.00000000
_cell_angle_beta   90.00000000
_cell_angle_gamma   90.00000000
_symmetry_Int_Tables_number   1
_chemical_formula_structural   Pd4S
_chemical_formula_sum   'Pd8 S2'
_cell_volume   151.23504884
_cell_formula_units_Z   2
loop_
 _symmetry_equiv_pos_site_id
 _symmetry_equiv_pos_as_xyz
  1  'x, y, z'
loop_
 _atom_site_type_symbol
 _atom_site_label
 _atom_site_symmetry_multiplicity
 _atom_site_fract_x
 _atom_site_fract_y
 _atom_site_fract_z
 _atom_site_occupancy
  Pd  Pd0  1  0.23258910  0.35227883  0.15747429  1.0
  Pd  Pd1  1  0.26741090  0.85227883  0.34252571  1.0
  Pd  Pd2  1  0.64772117  0.23258910  0.84252571  1.0
  Pd  Pd3  1  0.85227883  0.73258910  0.65747429  1.0
  Pd  Pd4  1  0.76741090  0.64772117  0.15747429  1.0
  Pd  Pd5  1  0.73258910  0.14772117  0.34252571  1.0
  Pd  Pd6  1  0.35227883  0.76741090  0.84252571  1.0
  Pd  Pd7  1  0.14772117  0.26741090  0.65747429  1.0
  S  S8  1  0.50000000  0.50000000  0.50000000  1.0
  S  S9  1  0.00000000  0.00000000  0.00000000  1.0
