# generated using pymatgen
data_KY(PO3)4
_symmetry_space_group_name_H-M   'P 1'
_cell_length_a   7.34866048
_cell_length_b   8.44595577
_cell_length_c   7.94935574
_cell_angle_alpha   90.00000000
_cell_angle_beta   91.44122702
_cell_angle_gamma   90.00000000
_symmetry_Int_Tables_number   1
_chemical_formula_structural   KY(PO3)4
_chemical_formula_sum   'K2 Y2 P8 O24'
_cell_volume   493.23229785
_cell_formula_units_Z   2
loop_
 _symmetry_equiv_pos_site_id
 _symmetry_equiv_pos_as_xyz
  1  'x, y, z'
loop_
 _atom_site_type_symbol
 _atom_site_label
 _atom_site_symmetry_multiplicity
 _atom_site_fract_x
 _atom_site_fract_y
 _atom_site_fract_z
 _atom_site_occupancy
  K  K0  1  0.73405798  0.64544861  0.78301629  1.0
  K  K1  1  0.26594202  0.14544861  0.21698371  1.0
  Y  Y2  1  0.23850324  0.45945633  0.74223534  1.0
  Y  Y3  1  0.76149676  0.95945633  0.25776466  1.0
  P  P4  1  0.99415617  0.11215143  0.88144547  1.0
  P  P5  1  0.00584383  0.61215143  0.11855453  1.0
  P  P6  1  0.90362665  0.37840772  0.40224734  1.0
  P  P7  1  0.09637335  0.87840772  0.59775266  1.0
  P  P8  1  0.61208678  0.20874604  0.89919504  1.0
  P  P9  1  0.38791322  0.70874604  0.10080496  1.0
  P  P10  1  0.43463133  0.08561908  0.59207128  1.0
  P  P11  1  0.56536867  0.58561908  0.40792872  1.0
  O  O12  1  0.98750735  -0.00046888  0.71819497  1.0
  O  O13  1  0.01249265  0.49953112  0.28180503  1.0
  O  O14  1  0.96322904  0.01485636  0.03724230  1.0
  O  O15  1  0.03677096  0.51485636  0.96275770  1.0
  O  O16  1  0.98157766  0.40876918  0.57659417  1.0
  O  O17  1  0.01842234  0.90876918  0.42340583  1.0
  O  O18  1  0.91115105  0.21534147  0.32785725  1.0
  O  O19  1  0.08884895  0.71534147  0.67214275  1.0
  O  O20  1  0.82012194  0.22362769  0.83997964  1.0
  O  O21  1  0.17987806  0.72362769  0.16002036  1.0
  O  O22  1  0.69231176  0.43013371  0.39445385  1.0
  O  O23  1  0.30768824  0.93013371  0.60554615  1.0
  O  O24  1  0.57065408  0.05601408  0.45680818  1.0
  O  O25  1  0.42934592  0.55601408  0.54319182  1.0
  O  O26  1  0.53463219  0.06936783  0.77549109  1.0
  O  O27  1  0.46536781  0.56936783  0.22450891  1.0
  O  O28  1  0.52121168  0.36306279  0.85439556  1.0
  O  O29  1  0.47878832  0.86306279  0.14560444  1.0
  O  O30  1  0.39232131  0.64985659  0.92259769  1.0
  O  O31  1  0.60767869  0.14985659  0.07740231  1.0
  O  O32  1  0.32160125  0.23306354  0.57128530  1.0
  O  O33  1  0.67839875  0.73306354  0.42871470  1.0
  O  O34  1  0.16095152  0.21594643  0.88329963  1.0
  O  O35  1  0.83904848  0.71594643  0.11670037  1.0
