# generated using pymatgen
data_C4SBr4
_symmetry_space_group_name_H-M   'P 1'
_cell_length_a   9.19307238
_cell_length_b   4.70863591
_cell_length_c   13.63298821
_cell_angle_alpha   90.00000000
_cell_angle_beta   113.64585223
_cell_angle_gamma   90.00000000
_symmetry_Int_Tables_number   1
_chemical_formula_structural   C4SBr4
_chemical_formula_sum   'C8 S2 Br8'
_cell_volume   540.58284252
_cell_formula_units_Z   2
loop_
 _symmetry_equiv_pos_site_id
 _symmetry_equiv_pos_as_xyz
  1  'x, y, z'
loop_
 _atom_site_type_symbol
 _atom_site_label
 _atom_site_symmetry_multiplicity
 _atom_site_fract_x
 _atom_site_fract_y
 _atom_site_fract_z
 _atom_site_occupancy
  C  C0  1  0.92518545  0.68862021  0.28042156  1.0
  C  C1  1  0.92518545  0.31137979  0.78042156  1.0
  C  C2  1  0.86412776  0.78704520  0.35101914  1.0
  C  C3  1  0.86412776  0.21295480  0.85101914  1.0
  C  C4  1  0.69423913  0.76780673  0.30831682  1.0
  C  C5  1  0.69423913  0.23219327  0.80831682  1.0
  C  C6  1  0.63191286  0.65390647  0.20696795  1.0
  C  C7  1  0.63191286  0.34609353  0.70696795  1.0
  S  S8  1  0.77808712  0.56997278  0.16233045  1.0
  S  S9  1  0.77808712  0.43002722  0.66233045  1.0
  Br  Br10  1  -0.01049714  0.92877115  0.48834931  1.0
  Br  Br11  1  -0.01049714  0.07122885  -0.01165069  1.0
  Br  Br12  1  0.57084256  0.88872156  0.38233593  1.0
  Br  Br13  1  0.57084256  0.11127844  0.88233593  1.0
  Br  Br14  1  0.41843202  0.58539773  0.11816392  1.0
  Br  Br15  1  0.41843202  0.41460227  0.61816392  1.0
  Br  Br16  1  0.13817023  0.67471732  0.29809493  1.0
  Br  Br17  1  0.13817023  0.32528268  0.79809493  1.0
