# generated using pymatgen
data_Te8Rh3
_symmetry_space_group_name_H-M   'P 1'
_cell_length_a   6.53415262
_cell_length_b   6.53415262
_cell_length_c   6.53415262
_cell_angle_alpha   90.89980857
_cell_angle_beta   90.89980857
_cell_angle_gamma   90.89980857
_symmetry_Int_Tables_number   1
_chemical_formula_structural   Te8Rh3
_chemical_formula_sum   'Te8 Rh3'
_cell_volume   278.87232947
_cell_formula_units_Z   1
loop_
 _symmetry_equiv_pos_site_id
 _symmetry_equiv_pos_as_xyz
  1  'x, y, z'
loop_
 _atom_site_type_symbol
 _atom_site_label
 _atom_site_symmetry_multiplicity
 _atom_site_fract_x
 _atom_site_fract_y
 _atom_site_fract_z
 _atom_site_occupancy
  Te  Te0  1  0.62690799  1.12988624  -0.12338271  1.0
  Te  Te1  1  0.87011376  0.12338271  0.37309201  1.0
  Te  Te2  1  1.12338271  0.37309201  -0.12988624  1.0
  Te  Te3  1  1.37309201  -0.12988624  0.12338271  1.0
  Te  Te4  1  1.12988624  0.87661729  -0.37309201  1.0
  Te  Te5  1  0.87661729  0.62690799  0.12988624  1.0
  Te  Te6  1  0.63111351  0.63111351  0.63111351  1.0
  Te  Te7  1  0.36888649  0.36888649  0.36888649  1.0
  Rh  Rh8  1  0.50000000  0.50000000  -0.00000000  1.0
  Rh  Rh9  1  0.50000000  1.00000000  -0.50000000  1.0
  Rh  Rh10  1  1.00000000  0.50000000  -0.50000000  1.0
