# generated using pymatgen
data_Na2Mn2O3
_symmetry_space_group_name_H-M   'P 1'
_cell_length_a   6.41953666
_cell_length_b   6.41953666
_cell_length_c   9.55761507
_cell_angle_alpha   90.00000000
_cell_angle_beta   90.00000000
_cell_angle_gamma   90.00000000
_symmetry_Int_Tables_number   1
_chemical_formula_structural   Na2Mn2O3
_chemical_formula_sum   'Na8 Mn8 O12'
_cell_volume   393.87362614
_cell_formula_units_Z   4
loop_
 _symmetry_equiv_pos_site_id
 _symmetry_equiv_pos_as_xyz
  1  'x, y, z'
loop_
 _atom_site_type_symbol
 _atom_site_label
 _atom_site_symmetry_multiplicity
 _atom_site_fract_x
 _atom_site_fract_y
 _atom_site_fract_z
 _atom_site_occupancy
  Na  Na0  1  0.47419321  0.73837892  0.11230257  1.0
  Na  Na1  1  0.97419321  0.76162108  0.63769743  1.0
  Na  Na2  1  0.26162108  0.52580679  0.38769743  1.0
  Na  Na3  1  0.76162108  0.97419321  0.36230257  1.0
  Na  Na4  1  0.52580679  0.26162108  0.61230257  1.0
  Na  Na5  1  0.02580679  0.23837892  0.13769743  1.0
  Na  Na6  1  0.73837892  0.47419321  0.88769743  1.0
  Na  Na7  1  0.23837892  0.02580679  0.86230257  1.0
  Mn  Mn8  1  0.24326343  0.54234240  0.86720951  1.0
  Mn  Mn9  1  0.74326343  0.95765760  0.88279049  1.0
  Mn  Mn10  1  0.45765760  0.75673657  0.63279049  1.0
  Mn  Mn11  1  0.95765760  0.74326343  0.11720951  1.0
  Mn  Mn12  1  0.75673657  0.45765760  0.36720951  1.0
  Mn  Mn13  1  0.25673657  0.04234240  0.38279049  1.0
  Mn  Mn14  1  0.54234240  0.24326343  0.13279049  1.0
  Mn  Mn15  1  0.04234240  0.25673657  0.61720951  1.0
  O  O16  1  -0.00278572  0.74386214  0.89906200  1.0
  O  O17  1  0.49721428  0.75613786  0.85093800  1.0
  O  O18  1  0.25613786  0.00278572  0.60093800  1.0
  O  O19  1  0.75613786  0.49721428  0.14906200  1.0
  O  O20  1  0.00278572  0.25613786  0.39906200  1.0
  O  O21  1  0.50278572  0.24386214  0.35093800  1.0
  O  O22  1  0.74386214  -0.00278572  0.10093800  1.0
  O  O23  1  0.24386214  0.50278572  0.64906200  1.0
  O  O24  1  0.18155400  0.81844600  0.25000000  1.0
  O  O25  1  0.68155400  0.68155400  0.50000000  1.0
  O  O26  1  0.81844600  0.18155400  0.75000000  1.0
  O  O27  1  0.31844600  0.31844600  0.00000000  1.0
