# generated using pymatgen
data_Sr3CdIrO6
_symmetry_space_group_name_H-M   'P 1'
_cell_length_a   6.84243024
_cell_length_b   6.84243024
_cell_length_c   6.84243024
_cell_angle_alpha   90.02168263
_cell_angle_beta   90.02168263
_cell_angle_gamma   90.02168263
_symmetry_Int_Tables_number   1
_chemical_formula_structural   Sr3CdIrO6
_chemical_formula_sum   'Sr6 Cd2 Ir2 O12'
_cell_volume   320.35465771
_cell_formula_units_Z   2
loop_
 _symmetry_equiv_pos_site_id
 _symmetry_equiv_pos_as_xyz
  1  'x, y, z'
loop_
 _atom_site_type_symbol
 _atom_site_label
 _atom_site_symmetry_multiplicity
 _atom_site_fract_x
 _atom_site_fract_y
 _atom_site_fract_z
 _atom_site_occupancy
  Sr  Sr0  1  0.88838708  1.25000000  -0.38838708  1.0
  Sr  Sr1  1  1.38838708  0.11161292  -0.25000000  1.0
  Sr  Sr2  1  0.75000000  0.38838708  0.11161292  1.0
  Sr  Sr3  1  1.25000000  0.61161292  -0.11161292  1.0
  Sr  Sr4  1  1.11161292  -0.25000000  0.38838708  1.0
  Sr  Sr5  1  0.61161292  0.88838708  0.25000000  1.0
  Cd  Cd6  1  0.25000000  0.25000000  0.25000000  1.0
  Cd  Cd7  1  0.75000000  0.75000000  0.75000000  1.0
  Ir  Ir8  1  0.50000000  0.50000000  0.50000000  1.0
  Ir  Ir9  1  0.00000000  0.00000000  0.00000000  1.0
  O  O10  1  1.21754176  0.41659782  -0.44815049  1.0
  O  O11  1  0.71754176  1.05184951  -0.08340218  1.0
  O  O12  1  0.94815049  0.08340218  0.28245824  1.0
  O  O13  1  1.44815049  -0.21754176  0.58340218  1.0
  O  O14  1  1.58340218  0.44815049  -0.21754176  1.0
  O  O15  1  1.08340218  0.28245824  -0.05184951  1.0
  O  O16  1  0.78245824  0.58340218  0.44815049  1.0
  O  O17  1  1.28245824  -0.05184951  0.08340218  1.0
  O  O18  1  0.55184951  1.21754176  -0.58340218  1.0
  O  O19  1  1.05184951  0.91659782  -0.28245824  1.0
  O  O20  1  0.91659782  0.71754176  0.05184951  1.0
  O  O21  1  0.41659782  0.55184951  0.21754176  1.0
