# generated using pymatgen
data_CaGeAu
_symmetry_space_group_name_H-M   'P 1'
_cell_length_a   21.72091162
_cell_length_b   4.54723466
_cell_length_c   7.81492391
_cell_angle_alpha   90.00000000
_cell_angle_beta   90.00000000
_cell_angle_gamma   90.00000000
_symmetry_Int_Tables_number   1
_chemical_formula_structural   CaGeAu
_chemical_formula_sum   'Ca12 Ge12 Au12'
_cell_volume   771.88067700
_cell_formula_units_Z   12
loop_
 _symmetry_equiv_pos_site_id
 _symmetry_equiv_pos_as_xyz
  1  'x, y, z'
loop_
 _atom_site_type_symbol
 _atom_site_label
 _atom_site_symmetry_multiplicity
 _atom_site_fract_x
 _atom_site_fract_y
 _atom_site_fract_z
 _atom_site_occupancy
  Ca  Ca0  1  0.33379497  0.75000000  0.29124650  1.0
  Ca  Ca1  1  0.83379497  0.75000000  0.20875350  1.0
  Ca  Ca2  1  0.66620503  0.25000000  0.70875350  1.0
  Ca  Ca3  1  0.16620503  0.25000000  0.79124650  1.0
  Ca  Ca4  1  0.16706024  0.75000000  0.20726037  1.0
  Ca  Ca5  1  0.66706024  0.75000000  0.29273963  1.0
  Ca  Ca6  1  0.83293976  0.25000000  0.79273963  1.0
  Ca  Ca7  1  0.33293976  0.25000000  0.70726037  1.0
  Ca  Ca8  1  0.49934276  0.75000000  0.21605018  1.0
  Ca  Ca9  1  0.99934276  0.75000000  0.28394982  1.0
  Ca  Ca10  1  0.50065724  0.25000000  0.78394982  1.0
  Ca  Ca11  1  0.00065724  0.25000000  0.71605018  1.0
  Ge  Ge12  1  0.43131044  0.75000000  0.59012234  1.0
  Ge  Ge13  1  0.93131044  0.75000000  0.90987766  1.0
  Ge  Ge14  1  0.56868956  0.25000000  0.40987766  1.0
  Ge  Ge15  1  0.06868956  0.25000000  0.09012234  1.0
  Ge  Ge16  1  0.22887038  0.75000000  0.58320711  1.0
  Ge  Ge17  1  0.72887038  0.75000000  0.91679289  1.0
  Ge  Ge18  1  0.77112962  0.25000000  0.41679289  1.0
  Ge  Ge19  1  0.27112962  0.25000000  0.08320711  1.0
  Ge  Ge20  1  0.10358243  0.75000000  0.58619208  1.0
  Ge  Ge21  1  0.60358243  0.75000000  0.91380792  1.0
  Ge  Ge22  1  0.89641757  0.25000000  0.41380792  1.0
  Ge  Ge23  1  0.39641757  0.25000000  0.08619208  1.0
  Au  Au24  1  0.40559114  0.75000000  0.91640327  1.0
  Au  Au25  1  0.90559114  0.75000000  0.58359673  1.0
  Au  Au26  1  0.59440886  0.25000000  0.08359673  1.0
  Au  Au27  1  0.09440886  0.25000000  0.41640327  1.0
  Au  Au28  1  0.26188091  0.75000000  0.91269115  1.0
  Au  Au29  1  0.76188091  0.75000000  0.58730885  1.0
  Au  Au30  1  0.73811909  0.25000000  0.08730885  1.0
  Au  Au31  1  0.23811909  0.25000000  0.41269115  1.0
  Au  Au32  1  0.06758916  0.75000000  0.91617160  1.0
  Au  Au33  1  0.56758916  0.75000000  0.58382840  1.0
  Au  Au34  1  0.93241084  0.25000000  0.08382840  1.0
  Au  Au35  1  0.43241084  0.25000000  0.41617160  1.0
