# generated using pymatgen
data_YNbO2
_symmetry_space_group_name_H-M   'P 1'
_cell_length_a   7.21608842
_cell_length_b   7.21608842
_cell_length_c   7.21608842
_cell_angle_alpha   129.16026325
_cell_angle_beta   129.16026325
_cell_angle_gamma   74.75283978
_symmetry_Int_Tables_number   1
_chemical_formula_structural   YNbO2
_chemical_formula_sum   'Y4 Nb4 O8'
_cell_volume   220.07293403
_cell_formula_units_Z   4
loop_
 _symmetry_equiv_pos_site_id
 _symmetry_equiv_pos_as_xyz
  1  'x, y, z'
loop_
 _atom_site_type_symbol
 _atom_site_label
 _atom_site_symmetry_multiplicity
 _atom_site_fract_x
 _atom_site_fract_y
 _atom_site_fract_z
 _atom_site_occupancy
  Y  Y0  1  0.37500000  0.62500000  0.75000000  1.0
  Y  Y1  1  0.87500000  0.62500000  1.25000000  1.0
  Y  Y2  1  0.37500000  1.12500000  0.75000000  1.0
  Y  Y3  1  0.37500000  0.62500000  0.25000000  1.0
  Nb  Nb4  1  0.87500000  0.12500000  0.75000000  1.0
  Nb  Nb5  1  0.37500000  0.12500000  0.25000000  1.0
  Nb  Nb6  1  0.87500000  0.62500000  0.75000000  1.0
  Nb  Nb7  1  0.87500000  1.12500000  1.25000000  1.0
  O  O8  1  1.17321355  0.94135301  1.76809924  1.0
  O  O9  1  0.57674623  0.84488569  1.26809924  1.0
  O  O10  1  1.05864699  0.82674623  1.23186054  1.0
  O  O11  1  1.15511431  1.42321355  1.73186054  1.0
  O  O12  1  0.17325377  0.40511431  0.23190076  1.0
  O  O13  1  0.57678645  0.30864699  0.73190076  1.0
  O  O14  1  0.59488569  0.82678645  0.76813946  1.0
  O  O15  1  0.69135301  0.42325377  0.26813946  1.0
