# generated using pymatgen
data_BaLa2Te5O14
_symmetry_space_group_name_H-M   'P 1'
_cell_length_a   10.18610411
_cell_length_b   10.18610411
_cell_length_c   13.50922192
_cell_angle_alpha   72.32285108
_cell_angle_beta   107.67714892
_cell_angle_gamma   145.03214135
_symmetry_Int_Tables_number   1
_chemical_formula_structural   BaLa2Te5O14
_chemical_formula_sum   'Ba2 La4 Te10 O28'
_cell_volume   761.52490185
_cell_formula_units_Z   2
loop_
 _symmetry_equiv_pos_site_id
 _symmetry_equiv_pos_as_xyz
  1  'x, y, z'
loop_
 _atom_site_type_symbol
 _atom_site_label
 _atom_site_symmetry_multiplicity
 _atom_site_fract_x
 _atom_site_fract_y
 _atom_site_fract_z
 _atom_site_occupancy
  Ba  Ba0  1  1.00000000  0.50000000  0.50000000  1.0
  Ba  Ba1  1  0.50000000  0.00000000  -0.00000000  1.0
  La  La2  1  1.10615375  0.45620531  0.83157083  1.0
  La  La3  1  0.45620531  0.10615375  0.66842917  1.0
  La  La4  1  0.89384625  0.54379469  0.16842917  1.0
  La  La5  1  0.54379469  -0.10615375  0.33157083  1.0
  Te  Te6  1  0.29691665  0.19319179  0.02796728  1.0
  Te  Te7  1  1.19319179  0.29691665  0.47203272  1.0
  Te  Te8  1  0.70308335  -0.19319179  0.97203272  1.0
  Te  Te9  1  0.80680821  0.70308335  0.52796728  1.0
  Te  Te10  1  0.21289551  0.21289551  0.75000000  1.0
  Te  Te11  1  0.78710449  0.78710449  0.25000000  1.0
  Te  Te12  1  0.88685958  0.60203019  0.83588156  1.0
  Te  Te13  1  0.60203019  -0.11314042  0.66411844  1.0
  Te  Te14  1  1.11314042  0.39796981  0.16411844  1.0
  Te  Te15  1  0.39796981  0.11314042  0.33588156  1.0
  O  O16  1  0.47906177  0.18061956  0.11401801  1.0
  O  O17  1  1.18061956  0.47906177  0.38598199  1.0
  O  O18  1  0.52093823  -0.18061956  0.88598199  1.0
  O  O19  1  0.81938044  0.52093823  0.61401801  1.0
  O  O20  1  1.01318249  0.89280603  0.08943845  1.0
  O  O21  1  0.89280603  0.01318249  0.41056155  1.0
  O  O22  1  0.98681751  0.10719397  0.91056155  1.0
  O  O23  1  0.10719397  -0.01318249  0.58943845  1.0
  O  O24  1  0.29735878  0.12758121  0.90431638  1.0
  O  O25  1  1.12758121  0.29735878  0.59568362  1.0
  O  O26  1  0.70264122  -0.12758121  0.09568362  1.0
  O  O27  1  0.87241879  0.70264122  0.40431638  1.0
  O  O28  1  1.35366283  0.47598454  0.79439841  1.0
  O  O29  1  0.47598454  0.35366283  0.70560159  1.0
  O  O30  1  0.64633717  0.52401546  0.20560159  1.0
  O  O31  1  0.52401546  -0.35366283  0.29439841  1.0
  O  O32  1  0.89363765  0.56526272  0.98555107  1.0
  O  O33  1  0.56526272  -0.10636235  0.51444893  1.0
  O  O34  1  1.10636235  0.43473728  0.01444893  1.0
  O  O35  1  0.43473728  0.10636235  0.48555107  1.0
  O  O36  1  0.74288001  0.31160414  0.82941417  1.0
  O  O37  1  0.31160414  -0.25711999  0.67058583  1.0
  O  O38  1  1.25711999  0.68839586  0.17058583  1.0
  O  O39  1  0.68839586  0.25711999  0.32941417  1.0
  O  O40  1  1.19474495  0.78702056  0.82081210  1.0
  O  O41  1  0.78702056  0.19474495  0.67918790  1.0
  O  O42  1  0.80525505  0.21297944  0.17918790  1.0
  O  O43  1  0.21297944  -0.19474495  0.32081210  1.0
