# generated using pymatgen
data_K2CuCl4
_symmetry_space_group_name_H-M   'P 1'
_cell_length_a   8.75504308
_cell_length_b   7.64907389
_cell_length_c   12.54951008
_cell_angle_alpha   90.00000000
_cell_angle_beta   90.00000000
_cell_angle_gamma   90.00000000
_symmetry_Int_Tables_number   1
_chemical_formula_structural   K2CuCl4
_chemical_formula_sum   'K8 Cu4 Cl16'
_cell_volume   840.41523229
_cell_formula_units_Z   4
loop_
 _symmetry_equiv_pos_site_id
 _symmetry_equiv_pos_as_xyz
  1  'x, y, z'
loop_
 _atom_site_type_symbol
 _atom_site_label
 _atom_site_symmetry_multiplicity
 _atom_site_fract_x
 _atom_site_fract_y
 _atom_site_fract_z
 _atom_site_occupancy
  K  K0  1  0.84870664  0.75000000  0.41984679  1.0
  K  K1  1  0.34870664  0.75000000  0.08015321  1.0
  K  K2  1  0.15129336  0.25000000  0.58015321  1.0
  K  K3  1  0.65129336  0.25000000  0.91984679  1.0
  K  K4  1  0.45323414  0.75000000  0.71980156  1.0
  K  K5  1  -0.04676586  0.75000000  0.78019844  1.0
  K  K6  1  0.54676586  0.25000000  0.28019844  1.0
  K  K7  1  1.04676586  0.25000000  0.21980156  1.0
  Cl  Cl8  1  0.76998563  1.04091636  0.11983838  1.0
  Cl  Cl9  1  0.76998563  0.45908364  0.11983838  1.0
  Cl  Cl10  1  0.26998563  1.04091636  0.38016162  1.0
  Cl  Cl11  1  0.26998563  0.45908364  0.38016162  1.0
  Cl  Cl12  1  0.23001437  0.54091636  0.88016162  1.0
  Cl  Cl13  1  0.23001437  -0.04091636  0.88016162  1.0
  Cl  Cl14  1  0.73001437  0.54091636  0.61983838  1.0
  Cl  Cl15  1  0.73001437  -0.04091636  0.61983838  1.0
  Cl  Cl16  1  1.02160490  0.75000000  0.19794193  1.0
  Cl  Cl17  1  0.52160490  0.75000000  0.30205807  1.0
  Cl  Cl18  1  -0.02160490  0.25000000  0.80205807  1.0
  Cl  Cl19  1  0.47839510  0.25000000  0.69794193  1.0
  Cl  Cl20  1  0.16903300  0.75000000  0.56114575  1.0
  Cl  Cl21  1  0.66903300  0.75000000  0.93885425  1.0
  Cl  Cl22  1  0.83096700  0.25000000  0.43885425  1.0
  Cl  Cl23  1  0.33096700  0.25000000  0.06114575  1.0
  Cu  Cu24  1  0.80489956  0.75000000  0.09692476  1.0
  Cu  Cu25  1  0.30489956  0.75000000  0.40307524  1.0
  Cu  Cu26  1  0.19510044  0.25000000  0.90307524  1.0
  Cu  Cu27  1  0.69510044  0.25000000  0.59692476  1.0
