# generated using pymatgen
data_BaHBrO
_symmetry_space_group_name_H-M   'P 1'
_cell_length_a   7.64316073
_cell_length_b   4.40739682
_cell_length_c   10.84358816
_cell_angle_alpha   90.00000000
_cell_angle_beta   90.00000000
_cell_angle_gamma   90.00000000
_symmetry_Int_Tables_number   1
_chemical_formula_structural   BaHBrO
_chemical_formula_sum   'Ba4 H4 Br4 O4'
_cell_volume   365.28190677
_cell_formula_units_Z   4
loop_
 _symmetry_equiv_pos_site_id
 _symmetry_equiv_pos_as_xyz
  1  'x, y, z'
loop_
 _atom_site_type_symbol
 _atom_site_label
 _atom_site_symmetry_multiplicity
 _atom_site_fract_x
 _atom_site_fract_y
 _atom_site_fract_z
 _atom_site_occupancy
  Ba  Ba0  1  0.69534205  0.75000000  0.40823051  1.0
  Ba  Ba1  1  0.19534205  0.75000000  0.09176949  1.0
  Ba  Ba2  1  0.30465795  0.25000000  0.59176949  1.0
  Ba  Ba3  1  0.80465795  0.25000000  0.90823051  1.0
  H  H4  1  0.76574167  0.75000000  0.09500802  1.0
  H  H5  1  0.26574167  0.75000000  0.40499198  1.0
  H  H6  1  0.23425833  0.25000000  0.90499198  1.0
  H  H7  1  0.73425833  0.25000000  0.59500802  1.0
  Br  Br8  1  0.96294410  0.75000000  0.67751606  1.0
  Br  Br9  1  0.46294410  0.75000000  0.82248394  1.0
  Br  Br10  1  0.03705590  0.25000000  0.32248394  1.0
  Br  Br11  1  0.53705590  0.25000000  0.17751606  1.0
  O  O12  1  0.86024082  0.75000000  0.03489417  1.0
  O  O13  1  0.36024082  0.75000000  0.46510583  1.0
  O  O14  1  0.13975918  0.25000000  0.96510583  1.0
  O  O15  1  0.63975918  0.25000000  0.53489417  1.0
