# generated using pymatgen
data_Nb2Fe4O9
_symmetry_space_group_name_H-M   'P 1'
_cell_length_a   5.19182356
_cell_length_b   5.19182356
_cell_length_c   14.33961286
_cell_angle_alpha   90.00000000
_cell_angle_beta   90.00000000
_cell_angle_gamma   120.00000000
_symmetry_Int_Tables_number   1
_chemical_formula_structural   Nb2Fe4O9
_chemical_formula_sum   'Nb4 Fe8 O18'
_cell_volume   334.74022827
_cell_formula_units_Z   2
loop_
 _symmetry_equiv_pos_site_id
 _symmetry_equiv_pos_as_xyz
  1  'x, y, z'
loop_
 _atom_site_type_symbol
 _atom_site_label
 _atom_site_symmetry_multiplicity
 _atom_site_fract_x
 _atom_site_fract_y
 _atom_site_fract_z
 _atom_site_occupancy
  Nb  Nb0  1  0.00000000  0.00000000  0.14369356  1.0
  Nb  Nb1  1  0.00000000  0.00000000  0.64369356  1.0
  Nb  Nb2  1  0.00000000  0.00000000  0.35630644  1.0
  Nb  Nb3  1  0.00000000  0.00000000  0.85630644  1.0
  Fe  Fe4  1  0.33333333  0.66666667  0.00882192  1.0
  Fe  Fe5  1  0.33333333  0.66666667  0.50882192  1.0
  Fe  Fe6  1  0.66666667  0.33333333  0.49117808  1.0
  Fe  Fe7  1  0.66666667  0.33333333  0.99117808  1.0
  Fe  Fe8  1  0.33333333  0.66666667  0.31141247  1.0
  Fe  Fe9  1  0.33333333  0.66666667  0.81141247  1.0
  Fe  Fe10  1  0.66666667  0.33333333  0.18858753  1.0
  Fe  Fe11  1  0.66666667  0.33333333  0.68858753  1.0
  O  O12  1  0.70707888  0.70707888  0.25000000  1.0
  O  O13  1  0.70707888  0.00000000  0.75000000  1.0
  O  O14  1  -0.00000000  0.70707888  0.75000000  1.0
  O  O15  1  0.00000000  0.29292112  0.25000000  1.0
  O  O16  1  0.29292112  0.29292112  0.75000000  1.0
  O  O17  1  0.29292112  0.00000000  0.25000000  1.0
  O  O18  1  0.98252480  0.66033501  0.08381635  1.0
  O  O19  1  0.98252480  0.32218979  0.58381635  1.0
  O  O20  1  0.66033501  0.98252480  0.41618365  1.0
  O  O21  1  0.66033501  0.67781021  0.91618365  1.0
  O  O22  1  0.67781021  0.66033501  0.58381635  1.0
  O  O23  1  0.67781021  0.01747520  0.08381635  1.0
  O  O24  1  0.33966499  0.01747520  0.58381635  1.0
  O  O25  1  0.33966499  0.32218979  0.08381635  1.0
  O  O26  1  0.01747520  0.67781021  0.41618365  1.0
  O  O27  1  0.01747520  0.33966499  0.91618365  1.0
  O  O28  1  0.32218979  0.98252480  0.91618365  1.0
  O  O29  1  0.32218979  0.33966499  0.41618365  1.0
