# generated using pymatgen
data_K2Na2IrO4
_symmetry_space_group_name_H-M   'P 1'
_cell_length_a   6.06325391
_cell_length_b   11.33352503
_cell_length_c   9.40621087
_cell_angle_alpha   90.00000000
_cell_angle_beta   112.68731139
_cell_angle_gamma   90.00000000
_symmetry_Int_Tables_number   1
_chemical_formula_structural   K2Na2IrO4
_chemical_formula_sum   'K8 Na8 Ir4 O16'
_cell_volume   596.36205095
_cell_formula_units_Z   4
loop_
 _symmetry_equiv_pos_site_id
 _symmetry_equiv_pos_as_xyz
  1  'x, y, z'
loop_
 _atom_site_type_symbol
 _atom_site_label
 _atom_site_symmetry_multiplicity
 _atom_site_fract_x
 _atom_site_fract_y
 _atom_site_fract_z
 _atom_site_occupancy
  K  K0  1  0.83636804  0.13478297  0.21730665  1.0
  K  K1  1  0.83636804  0.36521703  0.71730665  1.0
  K  K2  1  0.16363196  0.63478297  0.28269335  1.0
  K  K3  1  0.16363196  0.86521703  0.78269335  1.0
  K  K4  1  0.83701547  0.86225616  0.99937837  1.0
  K  K5  1  0.83701547  0.63774384  0.49937837  1.0
  K  K6  1  0.16298453  0.36225616  0.50062163  1.0
  K  K7  1  0.16298453  0.13774384  0.00062163  1.0
  Na  Na8  1  0.93370853  0.39228912  0.09366422  1.0
  Na  Na9  1  0.93370853  0.10771088  0.59366422  1.0
  Na  Na10  1  0.06629147  0.89228912  0.40633578  1.0
  Na  Na11  1  0.06629147  0.60771088  0.90633578  1.0
  Na  Na12  1  0.42896049  0.11313733  0.40390170  1.0
  Na  Na13  1  0.42896049  0.38686267  0.90390170  1.0
  Na  Na14  1  0.57103951  0.61313733  0.09609830  1.0
  Na  Na15  1  0.57103951  0.88686267  0.59609830  1.0
  Ir  Ir16  1  0.51414978  0.37050769  0.27070808  1.0
  Ir  Ir17  1  0.51414978  0.12949231  0.77070808  1.0
  Ir  Ir18  1  0.48585022  0.87050769  0.22929192  1.0
  Ir  Ir19  1  0.48585022  0.62949231  0.72929192  1.0
  O  O20  1  0.78213650  0.46603369  0.27773205  1.0
  O  O21  1  0.78213650  0.03396631  0.77773205  1.0
  O  O22  1  0.21786350  0.96603369  0.22226795  1.0
  O  O23  1  0.21786350  0.53396631  0.72226795  1.0
  O  O24  1  0.75678907  0.77561709  0.24058099  1.0
  O  O25  1  0.75678907  0.72438291  0.74058099  1.0
  O  O26  1  0.24321093  0.27561709  0.25941901  1.0
  O  O27  1  0.24321093  0.22438291  0.75941901  1.0
  O  O28  1  0.72088106  0.26882687  0.43068351  1.0
  O  O29  1  0.72088106  0.23117313  0.93068351  1.0
  O  O30  1  0.27911894  0.76882687  0.06931649  1.0
  O  O31  1  0.27911894  0.73117313  0.56931649  1.0
  O  O32  1  0.70007639  0.96679219  0.39658775  1.0
  O  O33  1  0.70007639  0.53320781  0.89658775  1.0
  O  O34  1  0.29992361  0.46679219  0.10341225  1.0
  O  O35  1  0.29992361  0.03320781  0.60341225  1.0
