# generated using pymatgen
data_Rb2NaMnO4
_symmetry_space_group_name_H-M   'P 1'
_cell_length_a   6.05578537
_cell_length_b   6.06677873
_cell_length_c   7.94428228
_cell_angle_alpha   90.00000000
_cell_angle_beta   92.80268723
_cell_angle_gamma   90.00000000
_symmetry_Int_Tables_number   1
_chemical_formula_structural   Rb2NaMnO4
_chemical_formula_sum   'Rb4 Na2 Mn2 O8'
_cell_volume   291.51674295
_cell_formula_units_Z   2
loop_
 _symmetry_equiv_pos_site_id
 _symmetry_equiv_pos_as_xyz
  1  'x, y, z'
loop_
 _atom_site_type_symbol
 _atom_site_label
 _atom_site_symmetry_multiplicity
 _atom_site_fract_x
 _atom_site_fract_y
 _atom_site_fract_z
 _atom_site_occupancy
  Rb  Rb0  1  0.61689239  0.75000000  0.17295029  1.0
  Rb  Rb1  1  0.38310761  0.25000000  0.82704971  1.0
  Rb  Rb2  1  0.19517389  0.75000000  0.48381613  1.0
  Rb  Rb3  1  0.80482611  0.25000000  0.51618387  1.0
  Na  Na4  1  0.11588961  0.75000000  0.96559307  1.0
  Na  Na5  1  0.88411039  0.25000000  0.03440693  1.0
  Mn  Mn6  1  0.69459183  0.75000000  0.74434491  1.0
  Mn  Mn7  1  0.30540817  0.25000000  0.25565509  1.0
  O  O8  1  0.82885168  0.97637274  0.82836938  1.0
  O  O9  1  0.82885168  0.52362726  0.82836938  1.0
  O  O10  1  0.17114832  0.47637274  0.17163062  1.0
  O  O11  1  0.17114832  0.02362726  0.17163062  1.0
  O  O12  1  0.70397226  0.75000000  0.53133736  1.0
  O  O13  1  0.29602774  0.25000000  0.46866264  1.0
  O  O14  1  0.42847611  0.75000000  0.80713181  1.0
  O  O15  1  0.57152389  0.25000000  0.19286819  1.0
