# generated using pymatgen
data_HfMnSi
_symmetry_space_group_name_H-M   'P 1'
_cell_length_a   6.51591486
_cell_length_b   3.66305181
_cell_length_c   7.60222782
_cell_angle_alpha   90.00000000
_cell_angle_beta   90.00000000
_cell_angle_gamma   90.00000000
_symmetry_Int_Tables_number   1
_chemical_formula_structural   HfMnSi
_chemical_formula_sum   'Hf4 Mn4 Si4'
_cell_volume   181.45098991
_cell_formula_units_Z   4
loop_
 _symmetry_equiv_pos_site_id
 _symmetry_equiv_pos_as_xyz
  1  'x, y, z'
loop_
 _atom_site_type_symbol
 _atom_site_label
 _atom_site_symmetry_multiplicity
 _atom_site_fract_x
 _atom_site_fract_y
 _atom_site_fract_z
 _atom_site_occupancy
  Hf  Hf0  1  0.97211438  0.75000000  0.67886551  1.0
  Hf  Hf1  1  0.47211438  0.75000000  0.82113449  1.0
  Hf  Hf2  1  0.02788562  0.25000000  0.32113449  1.0
  Hf  Hf3  1  0.52788562  0.25000000  0.17886551  1.0
  Mn  Mn4  1  0.85867905  0.75000000  0.06483583  1.0
  Mn  Mn5  1  0.35867905  0.75000000  0.43516417  1.0
  Mn  Mn6  1  0.14132095  0.25000000  0.93516417  1.0
  Mn  Mn7  1  0.64132095  0.25000000  0.56483583  1.0
  Si  Si8  1  0.72646247  0.75000000  0.37712093  1.0
  Si  Si9  1  0.22646247  0.75000000  0.12287907  1.0
  Si  Si10  1  0.27353753  0.25000000  0.62287907  1.0
  Si  Si11  1  0.77353753  0.25000000  0.87712093  1.0
