# generated using pymatgen
data_ZrSe3
_symmetry_space_group_name_H-M   'P 1'
_cell_length_a   5.47878056
_cell_length_b   3.77850480
_cell_length_c   10.21142938
_cell_angle_alpha   90.00000000
_cell_angle_beta   97.13041812
_cell_angle_gamma   90.00000000
_symmetry_Int_Tables_number   1
_chemical_formula_structural   ZrSe3
_chemical_formula_sum   'Zr2 Se6'
_cell_volume   209.75803790
_cell_formula_units_Z   2
loop_
 _symmetry_equiv_pos_site_id
 _symmetry_equiv_pos_as_xyz
  1  'x, y, z'
loop_
 _atom_site_type_symbol
 _atom_site_label
 _atom_site_symmetry_multiplicity
 _atom_site_fract_x
 _atom_site_fract_y
 _atom_site_fract_z
 _atom_site_occupancy
  Zr  Zr0  1  0.71600154  0.25000000  0.85346541  1.0
  Zr  Zr1  1  0.28399846  0.75000000  0.14653459  1.0
  Se  Se2  1  0.53802112  0.25000000  0.30735233  1.0
  Se  Se3  1  0.46197888  0.75000000  0.69264767  1.0
  Se  Se4  1  0.23814776  0.25000000  0.94912211  1.0
  Se  Se5  1  0.76185224  0.75000000  0.05087789  1.0
  Se  Se6  1  0.10415083  0.25000000  0.30713642  1.0
  Se  Se7  1  0.89584917  0.75000000  0.69286358  1.0
