# generated using pymatgen
data_BaMn2O3
_symmetry_space_group_name_H-M   'P 1'
_cell_length_a   6.19627971
_cell_length_b   6.19627971
_cell_length_c   6.19627971
_cell_angle_alpha   145.69512735
_cell_angle_beta   139.35187315
_cell_angle_gamma   54.21291954
_symmetry_Int_Tables_number   1
_chemical_formula_structural   BaMn2O3
_chemical_formula_sum   'Ba1 Mn2 O3'
_cell_volume   86.76813635
_cell_formula_units_Z   1
loop_
 _symmetry_equiv_pos_site_id
 _symmetry_equiv_pos_as_xyz
  1  'x, y, z'
loop_
 _atom_site_type_symbol
 _atom_site_label
 _atom_site_symmetry_multiplicity
 _atom_site_fract_x
 _atom_site_fract_y
 _atom_site_fract_z
 _atom_site_occupancy
  Ba  Ba0  1  0.50000000  0.50000000  1.00000000  1.0
  Mn  Mn1  1  0.81241902  0.81241902  1.00000000  1.0
  Mn  Mn2  1  0.18758098  0.18758098  0.00000000  1.0
  O  O3  1  0.70573960  0.20573960  0.50000000  1.0
  O  O4  1  0.29426040  0.79426040  0.50000000  1.0
  O  O5  1  0.00000000  0.00000000  0.00000000  1.0
