# generated using pymatgen
data_Ca6Si6O19
_symmetry_space_group_name_H-M   'P 1'
_cell_length_a   7.44462206
_cell_length_b   7.06182048
_cell_length_c   8.86339420
_cell_angle_alpha   89.84323245
_cell_angle_beta   102.03055061
_cell_angle_gamma   89.95434197
_symmetry_Int_Tables_number   1
_chemical_formula_structural   Ca6Si6O19
_chemical_formula_sum   'Ca6 Si6 O19'
_cell_volume   455.73507128
_cell_formula_units_Z   1
loop_
 _symmetry_equiv_pos_site_id
 _symmetry_equiv_pos_as_xyz
  1  'x, y, z'
loop_
 _atom_site_type_symbol
 _atom_site_label
 _atom_site_symmetry_multiplicity
 _atom_site_fract_x
 _atom_site_fract_y
 _atom_site_fract_z
 _atom_site_occupancy
  O  O0  1  0.78527767  0.87855048  -0.85178635  1.0
  O  O1  1  0.21472233  0.12144952  -0.14821365  1.0
  O  O2  1  0.36046441  0.83321628  -0.54820848  1.0
  O  O3  1  0.63953559  0.16678372  -0.45179152  1.0
  O  O4  1  0.28846560  0.87897200  -0.85154791  1.0
  O  O5  1  0.71153440  0.12102800  -0.14845209  1.0
  O  O6  1  0.86449045  0.83317785  -0.54716769  1.0
  O  O7  1  0.13550955  0.16682215  -0.45283231  1.0
  O  O8  1  0.94855150  0.78171817  -0.20534308  1.0
  O  O9  1  0.05144850  0.21828183  -0.79465692  1.0
  O  O10  1  0.57256262  0.65493992  -0.71000278  1.0
  O  O11  1  0.42743738  0.34506008  -0.28999722  1.0
  O  O12  1  0.24663453  0.52613286  -0.72970128  1.0
  O  O13  1  0.75336547  0.47386714  -0.27029872  1.0
  O  O14  1  0.88999737  0.52726225  -0.72842292  1.0
  O  O15  1  0.11000263  0.47273775  -0.27157708  1.0
  O  O16  1  -0.00000000  0.50000000  0.00000000  1.0
  O  O17  1  0.55617344  0.19495412  -0.78790036  1.0
  O  O18  1  0.44382656  0.80504588  -0.21209964  1.0
  Ca  Ca19  1  0.65734484  0.84035453  -0.36648477  1.0
  Ca  Ca20  1  0.34265516  0.15964547  -0.63351523  1.0
  Ca  Ca21  1  0.84348335  0.16204548  -0.62763511  1.0
  Ca  Ca22  1  0.15651665  0.83795452  -0.37236489  1.0
  Ca  Ca23  1  0.50000000  0.00000000  -0.00000000  1.0
  Ca  Ca24  1  0.00000000  0.00000000  0.00000000  1.0
  Si  Si25  1  0.78140867  0.73071582  -0.71213922  1.0
  Si  Si26  1  0.21859133  0.26928418  -0.28786078  1.0
  Si  Si27  1  0.36231494  0.72994433  -0.71285420  1.0
  Si  Si28  1  0.63768506  0.27005567  -0.28714580  1.0
  Si  Si29  1  0.95459600  0.55556875  -0.18163874  1.0
  Si  Si30  1  0.04540400  0.44443125  -0.81836126  1.0
