# generated using pymatgen
data_Gd3(CoGe2)2
_symmetry_space_group_name_H-M   'P 1'
_cell_length_a   5.79712872
_cell_length_b   5.79712872
_cell_length_c   8.07900356
_cell_angle_alpha   73.59651410
_cell_angle_beta   106.40348590
_cell_angle_gamma   137.83309022
_symmetry_Int_Tables_number   1
_chemical_formula_structural   Gd3(CoGe2)2
_chemical_formula_sum   'Gd3 Co2 Ge4'
_cell_volume   173.71339097
_cell_formula_units_Z   1
loop_
 _symmetry_equiv_pos_site_id
 _symmetry_equiv_pos_as_xyz
  1  'x, y, z'
loop_
 _atom_site_type_symbol
 _atom_site_label
 _atom_site_symmetry_multiplicity
 _atom_site_fract_x
 _atom_site_fract_y
 _atom_site_fract_z
 _atom_site_occupancy
  Gd  Gd0  1  0.62100951  0.37899049  0.69197856  1.0
  Gd  Gd1  1  0.37899049  -0.37899049  0.30802144  1.0
  Gd  Gd2  1  0.00000000  0.00000000  0.00000000  1.0
  Co  Co3  1  0.69461900  0.30538100  0.37302272  1.0
  Co  Co4  1  0.30538100  -0.30538100  0.62697728  1.0
  Ge  Ge5  1  0.89844080  0.10155920  0.60153714  1.0
  Ge  Ge6  1  0.10155920  -0.10155920  0.39846286  1.0
  Ge  Ge7  1  0.29026338  -0.29026338  0.91848104  1.0
  Ge  Ge8  1  0.70973662  0.29026338  0.08151896  1.0
