# generated using pymatgen
data_Zr3Te
_symmetry_space_group_name_H-M   'P 1'
_cell_length_a   8.54300688
_cell_length_b   8.54300688
_cell_length_c   8.54300688
_cell_angle_alpha   96.33717927
_cell_angle_beta   96.33717927
_cell_angle_gamma   141.19117659
_symmetry_Int_Tables_number   1
_chemical_formula_structural   Zr3Te
_chemical_formula_sum   'Zr12 Te4'
_cell_volume   368.56230615
_cell_formula_units_Z   4
loop_
 _symmetry_equiv_pos_site_id
 _symmetry_equiv_pos_as_xyz
  1  'x, y, z'
loop_
 _atom_site_type_symbol
 _atom_site_label
 _atom_site_symmetry_multiplicity
 _atom_site_fract_x
 _atom_site_fract_y
 _atom_site_fract_z
 _atom_site_occupancy
  Zr  Zr0  1  0.62796475  0.60705599  0.81441485  1.0
  Zr  Zr1  1  1.18645010  0.37203525  0.97909125  1.0
  Zr  Zr2  1  0.79264114  0.81354990  1.18558515  1.0
  Zr  Zr3  1  0.39294401  1.20735886  1.02090875  1.0
  Zr  Zr4  1  0.83644557  0.49770488  0.37759802  1.0
  Zr  Zr5  1  0.54115245  0.16355443  0.66125931  1.0
  Zr  Zr6  1  1.12010686  1.45884755  1.62240198  1.0
  Zr  Zr7  1  0.50229512  0.87989314  1.33874069  1.0
  Zr  Zr8  1  1.45060608  1.48144671  1.40379346  1.0
  Zr  Zr9  1  0.95318739  1.54939392  1.03084063  1.0
  Zr  Zr10  1  1.07765324  1.04681261  0.59620654  1.0
  Zr  Zr11  1  1.51855329  0.92234676  0.96915937  1.0
  Te  Te12  1  1.68928936  1.94553985  1.68000395  1.0
  Te  Te13  1  0.99071458  1.31071064  1.25625048  1.0
  Te  Te14  1  1.26553590  1.00928542  0.31999605  1.0
  Te  Te15  1  1.05446015  0.73446410  0.74374952  1.0
