# generated using pymatgen
data_Ca5(GaSb3)2
_symmetry_space_group_name_H-M   'P 1'
_cell_length_a   12.14162727
_cell_length_b   14.08488313
_cell_length_c   4.48844239
_cell_angle_alpha   90.00000000
_cell_angle_beta   90.00000000
_cell_angle_gamma   90.00000000
_symmetry_Int_Tables_number   1
_chemical_formula_structural   Ca5(GaSb3)2
_chemical_formula_sum   'Ca10 Ga4 Sb12'
_cell_volume   767.58379922
_cell_formula_units_Z   2
loop_
 _symmetry_equiv_pos_site_id
 _symmetry_equiv_pos_as_xyz
  1  'x, y, z'
loop_
 _atom_site_type_symbol
 _atom_site_label
 _atom_site_symmetry_multiplicity
 _atom_site_fract_x
 _atom_site_fract_y
 _atom_site_fract_z
 _atom_site_occupancy
  Ca  Ca0  1  0.40845441  0.74708159  0.00000000  1.0
  Ca  Ca1  1  0.90845441  0.75291841  0.00000000  1.0
  Ca  Ca2  1  0.59154559  0.25291841  0.00000000  1.0
  Ca  Ca3  1  0.09154559  0.24708159  0.00000000  1.0
  Ca  Ca4  1  0.17194952  0.51688189  0.00000000  1.0
  Ca  Ca5  1  0.67194952  0.98311811  0.00000000  1.0
  Ca  Ca6  1  0.82805048  0.48311811  0.00000000  1.0
  Ca  Ca7  1  0.32805048  0.01688189  0.00000000  1.0
  Ca  Ca8  1  0.50000000  0.50000000  0.00000000  1.0
  Ca  Ca9  1  0.00000000  0.00000000  0.00000000  1.0
  Ga  Ga10  1  0.16990150  0.71189832  0.50000000  1.0
  Ga  Ga11  1  0.66990150  0.78810168  0.50000000  1.0
  Ga  Ga12  1  0.83009850  0.28810168  0.50000000  1.0
  Ga  Ga13  1  0.33009850  0.21189832  0.50000000  1.0
  Sb  Sb14  1  0.47402894  0.90003561  0.50000000  1.0
  Sb  Sb15  1  0.97402894  0.59996439  0.50000000  1.0
  Sb  Sb16  1  0.52597106  0.09996439  0.50000000  1.0
  Sb  Sb17  1  0.02597106  0.40003561  0.50000000  1.0
  Sb  Sb18  1  0.34517066  0.59157249  0.50000000  1.0
  Sb  Sb19  1  0.84517066  0.90842751  0.50000000  1.0
  Sb  Sb20  1  0.65482934  0.40842751  0.50000000  1.0
  Sb  Sb21  1  0.15482934  0.09157249  0.50000000  1.0
  Sb  Sb22  1  0.16270216  0.82309035  0.00000000  1.0
  Sb  Sb23  1  0.66270216  0.67690965  0.00000000  1.0
  Sb  Sb24  1  0.83729784  0.17690965  0.00000000  1.0
  Sb  Sb25  1  0.33729784  0.32309035  0.00000000  1.0
