# generated using pymatgen
data_TiFeP
_symmetry_space_group_name_H-M   'P 1'
_cell_length_a   5.97127382
_cell_length_b   5.97127382
_cell_length_c   3.57263107
_cell_angle_alpha   90.00000000
_cell_angle_beta   90.00000000
_cell_angle_gamma   120.00000000
_symmetry_Int_Tables_number   1
_chemical_formula_structural   TiFeP
_chemical_formula_sum   'Ti3 Fe3 P3'
_cell_volume   110.31962487
_cell_formula_units_Z   3
loop_
 _symmetry_equiv_pos_site_id
 _symmetry_equiv_pos_as_xyz
  1  'x, y, z'
loop_
 _atom_site_type_symbol
 _atom_site_label
 _atom_site_symmetry_multiplicity
 _atom_site_fract_x
 _atom_site_fract_y
 _atom_site_fract_z
 _atom_site_occupancy
  Ti  Ti0  1  0.41985993  0.41985993  0.00000000  1.0
  Ti  Ti1  1  0.00000000  0.58014007  0.00000000  1.0
  Ti  Ti2  1  0.58014007  0.00000000  0.00000000  1.0
  Fe  Fe3  1  0.75638913  0.75638913  0.50000000  1.0
  Fe  Fe4  1  -0.00000000  0.24361087  0.50000000  1.0
  Fe  Fe5  1  0.24361087  0.00000000  0.50000000  1.0
  P  P6  1  0.33333333  0.66666667  0.50000000  1.0
  P  P7  1  0.66666667  0.33333333  0.50000000  1.0
  P  P8  1  0.00000000  0.00000000  0.00000000  1.0
