# generated using pymatgen
data_MoSe2
_symmetry_space_group_name_H-M   'P 1'
_cell_length_a   7.52407779
_cell_length_b   7.52407779
_cell_length_c   7.52407779
_cell_angle_alpha   25.49226820
_cell_angle_beta   25.49226820
_cell_angle_gamma   25.49226820
_symmetry_Int_Tables_number   1
_chemical_formula_structural   MoSe2
_chemical_formula_sum   'Mo1 Se2'
_cell_volume   69.45667454
_cell_formula_units_Z   1
loop_
 _symmetry_equiv_pos_site_id
 _symmetry_equiv_pos_as_xyz
  1  'x, y, z'
loop_
 _atom_site_type_symbol
 _atom_site_label
 _atom_site_symmetry_multiplicity
 _atom_site_fract_x
 _atom_site_fract_y
 _atom_site_fract_z
 _atom_site_occupancy
  Mo  Mo0  1  0.58357483  0.58357483  -0.41642517  1.0
  Se  Se1  1  -0.00664779  -0.00664779  -0.00664779  1.0
  Se  Se2  1  0.84047296  -0.15952704  -0.15952704  1.0
