# generated using pymatgen
data_Lu2WO6
_symmetry_space_group_name_H-M   'P 1'
_cell_length_a   7.62069555
_cell_length_b   5.31064820
_cell_length_c   11.30432003
_cell_angle_alpha   90.00000000
_cell_angle_beta   104.58688028
_cell_angle_gamma   90.00000000
_symmetry_Int_Tables_number   1
_chemical_formula_structural   Lu2WO6
_chemical_formula_sum   'Lu8 W4 O24'
_cell_volume   442.74874245
_cell_formula_units_Z   4
loop_
 _symmetry_equiv_pos_site_id
 _symmetry_equiv_pos_as_xyz
  1  'x, y, z'
loop_
 _atom_site_type_symbol
 _atom_site_label
 _atom_site_symmetry_multiplicity
 _atom_site_fract_x
 _atom_site_fract_y
 _atom_site_fract_z
 _atom_site_occupancy
  Lu  Lu0  1  0.29526807  0.81743365  0.92105210  1.0
  Lu  Lu1  1  0.29526807  0.18256635  0.42105210  1.0
  Lu  Lu2  1  0.70473193  0.81743365  0.57894790  1.0
  Lu  Lu3  1  0.70473193  0.18256635  0.07894790  1.0
  Lu  Lu4  1  0.50000000  0.73954387  0.25000000  1.0
  Lu  Lu5  1  0.50000000  0.26045613  0.75000000  1.0
  Lu  Lu6  1  -0.00000000  0.68302388  0.25000000  1.0
  Lu  Lu7  1  -0.00000000  0.31697612  0.75000000  1.0
  W  W8  1  0.77770533  0.74364047  0.88625084  1.0
  W  W9  1  0.77770533  0.25635953  0.38625084  1.0
  W  W10  1  0.22229467  0.74364047  0.61374916  1.0
  W  W11  1  0.22229467  0.25635953  0.11374916  1.0
  O  O12  1  0.98900024  0.35734536  0.11465560  1.0
  O  O13  1  0.98900024  0.64265464  0.61465560  1.0
  O  O14  1  0.01099976  0.35734536  0.38534440  1.0
  O  O15  1  0.01099976  0.64265464  0.88534440  1.0
  O  O16  1  0.86620048  0.84552436  0.04954656  1.0
  O  O17  1  0.86620048  0.15447564  0.54954656  1.0
  O  O18  1  0.13379952  0.84552436  0.45045344  1.0
  O  O19  1  0.13379952  0.15447564  0.95045344  1.0
  O  O20  1  0.78972543  0.98168585  0.27095793  1.0
  O  O21  1  0.78972543  0.01831415  0.77095793  1.0
  O  O22  1  0.21027457  0.98168585  0.22904207  1.0
  O  O23  1  0.21027457  0.01831415  0.72904207  1.0
  O  O24  1  0.70955528  0.46278870  0.22532037  1.0
  O  O25  1  0.70955528  0.53721130  0.72532037  1.0
  O  O26  1  0.29044472  0.46278870  0.27467963  1.0
  O  O27  1  0.29044472  0.53721130  0.77467963  1.0
  O  O28  1  0.65385091  0.53557079  0.43038969  1.0
  O  O29  1  0.65385091  0.46442921  0.93038969  1.0
  O  O30  1  0.34614909  0.53557079  0.06961031  1.0
  O  O31  1  0.34614909  0.46442921  0.56961031  1.0
  O  O32  1  0.55980407  0.95727233  0.89552402  1.0
  O  O33  1  0.55980407  0.04272767  0.39552402  1.0
  O  O34  1  0.44019593  0.95727233  0.60447598  1.0
  O  O35  1  0.44019593  0.04272767  0.10447598  1.0
