# generated using pymatgen
data_Pd(PbO3)2
_symmetry_space_group_name_H-M   'P 1'
_cell_length_a   9.30644544
_cell_length_b   9.30644544
_cell_length_c   5.88884421
_cell_angle_alpha   90.00000000
_cell_angle_beta   90.00000000
_cell_angle_gamma   90.00000000
_symmetry_Int_Tables_number   1
_chemical_formula_structural   Pd(PbO3)2
_chemical_formula_sum   'Pd4 Pb8 O24'
_cell_volume   510.03236471
_cell_formula_units_Z   4
loop_
 _symmetry_equiv_pos_site_id
 _symmetry_equiv_pos_as_xyz
  1  'x, y, z'
loop_
 _atom_site_type_symbol
 _atom_site_label
 _atom_site_symmetry_multiplicity
 _atom_site_fract_x
 _atom_site_fract_y
 _atom_site_fract_z
 _atom_site_occupancy
  O  O0  1  0.50000000  0.50000000  0.50000000  1.0
  O  O1  1  0.50000000  0.50000000  0.00000000  1.0
  O  O2  1  0.00000000  0.00000000  0.50000000  1.0
  O  O3  1  0.00000000  0.00000000  0.00000000  1.0
  O  O4  1  0.77133016  0.06686366  0.59063478  1.0
  O  O5  1  0.77133016  0.93313634  0.09063478  1.0
  O  O6  1  0.27133016  0.43313634  0.40936522  1.0
  O  O7  1  0.27133016  0.56686366  0.90936522  1.0
  O  O8  1  0.22866984  0.93313634  0.59063478  1.0
  O  O9  1  0.22866984  0.06686366  0.09063478  1.0
  O  O10  1  0.72866984  0.56686366  0.40936522  1.0
  O  O11  1  0.72866984  0.43313634  0.90936522  1.0
  O  O12  1  0.06686366  0.22866984  0.40936522  1.0
  O  O13  1  0.93313634  0.22866984  0.90936522  1.0
  O  O14  1  0.43313634  0.72866984  0.59063478  1.0
  O  O15  1  0.56686366  0.72866984  0.09063478  1.0
  O  O16  1  0.93313634  0.77133016  0.40936522  1.0
  O  O17  1  0.06686366  0.77133016  0.90936522  1.0
  O  O18  1  0.56686366  0.27133016  0.59063478  1.0
  O  O19  1  0.43313634  0.27133016  0.09063478  1.0
  O  O20  1  0.50000000  0.00000000  0.46022892  1.0
  O  O21  1  0.50000000  0.00000000  0.96022892  1.0
  O  O22  1  0.00000000  0.50000000  0.53977108  1.0
  O  O23  1  0.00000000  0.50000000  0.03977108  1.0
  Pd  Pd24  1  0.75000000  0.25000000  0.75000000  1.0
  Pd  Pd25  1  0.75000000  0.75000000  0.25000000  1.0
  Pd  Pd26  1  0.25000000  0.25000000  0.25000000  1.0
  Pd  Pd27  1  0.25000000  0.75000000  0.75000000  1.0
  Pb  Pb28  1  0.36626052  0.13373948  0.74131537  1.0
  Pb  Pb29  1  0.36626052  0.86626052  0.24131537  1.0
  Pb  Pb30  1  0.86626052  0.36626052  0.25868463  1.0
  Pb  Pb31  1  0.86626052  0.63373948  0.75868463  1.0
  Pb  Pb32  1  0.63373948  0.86626052  0.74131537  1.0
  Pb  Pb33  1  0.63373948  0.13373948  0.24131537  1.0
  Pb  Pb34  1  0.13373948  0.63373948  0.25868463  1.0
  Pb  Pb35  1  0.13373948  0.36626052  0.75868463  1.0
