# generated using pymatgen
data_LiMnBO3
_symmetry_space_group_name_H-M   'P 1'
_cell_length_a   8.21616167
_cell_length_b   8.21616167
_cell_length_c   3.16638730
_cell_angle_alpha   90.00000000
_cell_angle_beta   90.00000000
_cell_angle_gamma   120.00000000
_symmetry_Int_Tables_number   1
_chemical_formula_structural   LiMnBO3
_chemical_formula_sum   'Li3 Mn3 B3 O9'
_cell_volume   185.11116731
_cell_formula_units_Z   3
loop_
 _symmetry_equiv_pos_site_id
 _symmetry_equiv_pos_as_xyz
  1  'x, y, z'
loop_
 _atom_site_type_symbol
 _atom_site_label
 _atom_site_symmetry_multiplicity
 _atom_site_fract_x
 _atom_site_fract_y
 _atom_site_fract_z
 _atom_site_occupancy
  Li  Li0  1  0.34831040  0.96602695  0.00000000  1.0
  Li  Li1  1  0.61771655  0.65168960  0.00000000  1.0
  Li  Li2  1  0.03397305  0.38228345  0.00000000  1.0
  Mn  Mn3  1  0.97264159  0.67653795  0.50000000  1.0
  Mn  Mn4  1  0.70389636  0.02735841  0.50000000  1.0
  Mn  Mn5  1  0.32346205  0.29610364  0.50000000  1.0
  B  B6  1  0.66666667  0.33333333  0.00000000  1.0
  B  B7  1  0.33333333  0.66666667  0.50000000  1.0
  B  B8  1  0.00000000  0.00000000  0.00000000  1.0
  O  O9  1  0.41424051  0.86132814  0.50000000  1.0
  O  O10  1  0.44708762  0.58575949  0.50000000  1.0
  O  O11  1  0.13867186  0.55291238  0.50000000  1.0
  O  O12  1  0.08007847  0.88549821  0.00000000  1.0
  O  O13  1  0.80541973  0.91992153  0.00000000  1.0
  O  O14  1  0.11450179  0.19458027  0.00000000  1.0
  O  O15  1  0.77263359  0.52797034  0.00000000  1.0
  O  O16  1  0.75533674  0.22736641  0.00000000  1.0
  O  O17  1  0.47202966  0.24466326  0.00000000  1.0
